# generated using pymatgen
data_U2CuH20C18(NO8)2
_symmetry_space_group_name_H-M   'P 1'
_cell_length_a   7.68380000
_cell_length_b   8.38632000
_cell_length_c   11.53310000
_cell_angle_alpha   69.81560000
_cell_angle_beta   80.23400000
_cell_angle_gamma   74.06030000
_symmetry_Int_Tables_number   1
_chemical_formula_structural   U2CuH20C18(NO8)2
_chemical_formula_sum   'U2 Cu1 H20 C18 N2 O16'
_cell_volume   668.40706144
_cell_formula_units_Z   1
loop_
 _symmetry_equiv_pos_site_id
 _symmetry_equiv_pos_as_xyz
  1  'x, y, z'
loop_
 _atom_site_type_symbol
 _atom_site_label
 _atom_site_symmetry_multiplicity
 _atom_site_fract_x
 _atom_site_fract_y
 _atom_site_fract_z
 _atom_site_occupancy
  U  U0  1  0.99661000  0.33891000  0.40859000  1.0
  U  U1  1  0.00337000  0.66110000  0.59141000  1.0
  Cu  Cu2  1  0.50000000  0.50000000  0.00000000  1.0
  H  H3  1  0.32568000  0.65569000  0.33687000  1.0
  H  H4  1  0.67432000  0.34431000  0.66313000  1.0
  H  H5  1  0.42388000  0.63684000  0.73522000  1.0
  H  H6  1  0.57613000  0.36316000  0.26478000  1.0
  H  H7  1  0.49675000  0.85020000  0.99262000  1.0
  H  H8  1  0.50325000  0.14979000  0.00738000  1.0
  H  H9  1  0.98063000  0.89026000  0.21167000  1.0
  H  H10  1  0.01937000  0.10973000  0.78833000  1.0
  H  H11  1  0.20184000  0.92589000  0.16090000  1.0
  H  H12  1  0.79815000  0.07411000  0.83910000  1.0
  H  H13  1  0.36357000  0.92759000  0.57238000  1.0
  H  H14  1  0.63643000  0.07241000  0.42762000  1.0
  H  H15  1  0.36811000  0.19248000  0.62444000  1.0
  H  H16  1  0.63189000  0.80752000  0.37556000  1.0
  H  H17  1  0.43322000  0.15495000  0.83983000  1.0
  H  H18  1  0.56677000  0.84504000  0.16017000  1.0
  H  H19  1  0.13865000  0.39925000  0.98331000  1.0
  H  H20  1  0.86136000  0.60074000  0.01669000  1.0
  H  H21  1  0.21043000  0.45561000  0.84291000  1.0
  H  H22  1  0.78957000  0.54439000  0.15709000  1.0
  C  C23  1  0.23389000  0.58327000  0.20232000  1.0
  C  C24  1  0.76611000  0.41673000  0.79768000  1.0
  C  C25  1  0.09367000  0.97028000  0.33315000  1.0
  C  C26  1  0.90633000  0.02972000  0.66685000  1.0
  C  C27  1  0.19398000  0.67434000  0.30164000  1.0
  C  C28  1  0.80602000  0.32566000  0.69836000  1.0
  C  C29  1  0.42746000  0.75399000  0.75450000  1.0
  C  C30  1  0.57254000  0.24601000  0.24550000  1.0
  C  C31  1  0.46652000  0.87571000  0.89838000  1.0
  C  C32  1  0.53348000  0.12429000  0.10162000  1.0
  C  C33  1  0.11513000  0.87013000  0.24278000  1.0
  C  C34  1  0.88487000  0.12987000  0.75722000  1.0
  C  C35  1  0.39404000  0.91654000  0.66395000  1.0
  C  C36  1  0.60595000  0.08346000  0.33605000  1.0
  C  C37  1  0.39681000  0.06354000  0.69335000  1.0
  C  C38  1  0.60319000  0.93646000  0.30665000  1.0
  C  C39  1  0.43336000  0.04250000  0.81285000  1.0
  C  C40  1  0.56664000  0.95750000  0.18715000  1.0
  N  N41  1  0.46294000  0.73385000  0.86968000  1.0
  N  N42  1  0.53706000  0.26615000  0.13032000  1.0
  O  O43  1  0.22158000  0.22473000  0.45721000  1.0
  O  O44  1  0.77842000  0.77527000  0.54279000  1.0
  O  O45  1  0.77660000  0.45632000  0.34563000  1.0
  O  O46  1  0.22341000  0.54369000  0.65437000  1.0
  O  O47  1  0.13934000  0.47620000  0.21024000  1.0
  O  O48  1  0.86066000  0.52380000  0.78976000  1.0
  O  O49  1  0.13038000  0.88192000  0.44498000  1.0
  O  O50  1  0.86962000  0.11808000  0.55502000  1.0
  O  O51  1  0.07350000  0.59815000  0.39823000  1.0
  O  O52  1  0.92650000  0.40185000  0.60177000  1.0
  O  O53  1  0.04092000  0.13526000  0.29422000  1.0
  O  O54  1  0.95908000  0.86474000  0.70578000  1.0
  O  O55  1  0.36028000  0.62226000  0.12007000  1.0
  O  O56  1  0.63972000  0.37773000  0.87993000  1.0
  O  O57  1  0.24827000  0.40814000  0.92769000  1.0
  O  O58  1  0.75174000  0.59185000  0.07231000  1.0
