# generated using pymatgen
data_CuH42C24(NO)4
_symmetry_space_group_name_H-M   'P 1'
_cell_length_a   7.90208000
_cell_length_b   8.95089000
_cell_length_c   10.38260000
_cell_angle_alpha   84.36080000
_cell_angle_beta   74.26940000
_cell_angle_gamma   80.33440000
_symmetry_Int_Tables_number   1
_chemical_formula_structural   CuH42C24(NO)4
_chemical_formula_sum   'Cu1 H42 C24 N4 O4'
_cell_volume   695.75214133
_cell_formula_units_Z   1
loop_
 _symmetry_equiv_pos_site_id
 _symmetry_equiv_pos_as_xyz
  1  'x, y, z'
loop_
 _atom_site_type_symbol
 _atom_site_label
 _atom_site_symmetry_multiplicity
 _atom_site_fract_x
 _atom_site_fract_y
 _atom_site_fract_z
 _atom_site_occupancy
  Cu  Cu0  1  0.49999000  0.50002000  0.50001000  1.0
  H  H1  1  0.37759000  0.65027000  0.32980000  1.0
  H  H2  1  0.62241000  0.34970000  0.67020000  1.0
  H  H3  1  0.80463000  0.49944000  0.41436000  1.0
  H  H4  1  0.19535000  0.50056000  0.58566000  1.0
  H  H5  1  0.72465000  0.46948000  0.20159000  1.0
  H  H6  1  0.27537000  0.53053000  0.79839000  1.0
  H  H7  1  0.52317000  0.76751000  0.11030000  1.0
  H  H8  1  0.47683000  0.23250000  0.88973000  1.0
  H  H9  1  0.56034000  0.59301000  0.03343000  1.0
  H  H10  1  0.43963000  0.40701000  0.96656000  1.0
  H  H11  1  0.88526000  0.59128000  0.96948000  1.0
  H  H12  1  0.11472000  0.40876000  0.03053000  1.0
  H  H13  1  0.77982000  0.76170000  0.90687000  1.0
  H  H14  1  0.22015000  0.23837000  0.09314000  1.0
  H  H15  1  0.80872000  0.90184000  0.09180000  1.0
  H  H16  1  0.19126000  0.09818000  0.90824000  1.0
  H  H17  1  0.01972000  0.80594000  0.01151000  1.0
  H  H18  1  0.98027000  0.19410000  0.98852000  1.0
  H  H19  1  0.98979000  0.59788000  0.19096000  1.0
  H  H20  1  0.01020000  0.40215000  0.80905000  1.0
  H  H21  1  0.96310000  0.77481000  0.26129000  1.0
  H  H22  1  0.03689000  0.22521000  0.73874000  1.0
  H  H23  1  0.62830000  0.78506000  0.31154000  1.0
  H  H24  1  0.37170000  0.21493000  0.68849000  1.0
  H  H25  1  0.89721000  0.72964000  0.46975000  1.0
  H  H26  1  0.10278000  0.27036000  0.53025000  1.0
  H  H27  1  0.87899000  0.48893000  0.61314000  1.0
  H  H28  1  0.12104000  0.51108000  0.38686000  1.0
  H  H29  1  0.86080000  0.65570000  0.69597000  1.0
  H  H30  1  0.13920000  0.34430000  0.30404000  1.0
  H  H31  1  0.34557000  0.49553000  0.16536000  1.0
  H  H32  1  0.65445000  0.50444000  0.83464000  1.0
  H  H33  1  0.47481000  0.33926000  0.22865000  1.0
  H  H34  1  0.52521000  0.66071000  0.77136000  1.0
  H  H35  1  0.64043000  0.91743000  0.46605000  1.0
  H  H36  1  0.35956000  0.08257000  0.53396000  1.0
  H  H37  1  0.65650000  0.89413000  0.63250000  1.0
  H  H38  1  0.34352000  0.10586000  0.36749000  1.0
  H  H39  1  0.49494000  0.80786000  0.58460000  1.0
  H  H40  1  0.50506000  0.19213000  0.41541000  1.0
  H  H41  1  0.00491000  0.03786000  0.35139000  1.0
  H  H42  1  0.99509000  0.96209000  0.64858000  1.0
  C  C43  1  0.63654000  0.57928000  0.22076000  1.0
  C  C44  1  0.36347000  0.42072000  0.77924000  1.0
  C  C45  1  0.61796000  0.66208000  0.08761000  1.0
  C  C46  1  0.38203000  0.33794000  0.91239000  1.0
  C  C47  1  0.79748000  0.69848000  0.99980000  1.0
  C  C48  1  0.20251000  0.30156000  0.00020000  1.0
  C  C49  1  0.88705000  0.78812000  0.07375000  1.0
  C  C50  1  0.11294000  0.21191000  0.92627000  1.0
  C  C51  1  0.90165000  0.70759000  0.20820000  1.0
  C  C52  1  0.09834000  0.29244000  0.79181000  1.0
  C  C53  1  0.71862000  0.67674000  0.29379000  1.0
  C  C54  1  0.28135000  0.32327000  0.70622000  1.0
  C  C55  1  0.76725000  0.69397000  0.51955000  1.0
  C  C56  1  0.23275000  0.30602000  0.48046000  1.0
  C  C57  1  0.79075000  0.59543000  0.64399000  1.0
  C  C58  1  0.20925000  0.40456000  0.35601000  1.0
  C  C59  1  0.37965000  0.44283000  0.25740000  1.0
  C  C60  1  0.62037000  0.55716000  0.74261000  1.0
  C  C61  1  0.63095000  0.83602000  0.55285000  1.0
  C  C62  1  0.36906000  0.16396000  0.44716000  1.0
  C  C63  1  0.82502000  0.18275000  0.50933000  1.0
  C  C64  1  0.17498000  0.81721000  0.49062000  1.0
  C  C65  1  0.96234000  0.04983000  0.45960000  1.0
  C  C66  1  0.03762000  0.95009000  0.54035000  1.0
  N  N67  1  0.46596000  0.54626000  0.31153000  1.0
  N  N68  1  0.53406000  0.45373000  0.68846000  1.0
  N  N69  1  0.72051000  0.60175000  0.42678000  1.0
  N  N70  1  0.27948000  0.39825000  0.57322000  1.0
  O  O71  1  0.78528000  0.28118000  0.42022000  1.0
  O  O72  1  0.21484000  0.71888000  0.57971000  1.0
  O  O73  1  0.76046000  0.18999000  0.63575000  1.0
  O  O74  1  0.23955000  0.80990000  0.36417000  1.0
