# generated using pymatgen
data_ZnH24C35N(O2F)2
_symmetry_space_group_name_H-M   'P 1'
_cell_length_a   10.84120000
_cell_length_b   14.16500000
_cell_length_c   15.21510000
_cell_angle_alpha   90.19880000
_cell_angle_beta   92.77180000
_cell_angle_gamma   91.72690000
_symmetry_Int_Tables_number   1
_chemical_formula_structural   ZnH24C35N(O2F)2
_chemical_formula_sum   'Zn2 H48 C70 N2 O8 F4'
_cell_volume   2332.69398607
_cell_formula_units_Z   2
loop_
 _symmetry_equiv_pos_site_id
 _symmetry_equiv_pos_as_xyz
  1  'x, y, z'
loop_
 _atom_site_type_symbol
 _atom_site_label
 _atom_site_symmetry_multiplicity
 _atom_site_fract_x
 _atom_site_fract_y
 _atom_site_fract_z
 _atom_site_occupancy
  Zn  Zn0  1  0.48367000  0.39765000  0.49587000  1.0
  Zn  Zn1  1  0.49063000  0.60443000  0.50169000  1.0
  H  H2  1  0.35598000  0.58762000  0.77488000  1.0
  H  H3  1  0.10738000  0.64371000  0.56073000  1.0
  H  H4  1  0.88316000  0.60630000  0.41234000  1.0
  H  H5  1  0.89082000  0.63809000  0.57781000  1.0
  H  H6  1  0.87438000  0.48850000  0.37155000  1.0
  H  H7  1  0.90954000  0.54308000  0.65164000  1.0
  H  H8  1  0.09092000  0.34711000  0.49644000  1.0
  H  H9  1  0.08920000  0.38694000  0.60662000  1.0
  H  H10  1  0.52298000  0.34768000  0.06125000  1.0
  H  H11  1  0.55880000  0.64912000  0.05744000  1.0
  H  H12  1  0.38631000  0.68184000  0.31484000  1.0
  H  H13  1  0.65984000  0.40051000  0.77569000  1.0
  H  H14  1  0.19462000  0.65451000  0.22130000  1.0
  H  H15  1  0.99851000  0.72925000  0.26058000  1.0
  H  H16  1  0.99639000  0.82929000  0.39585000  1.0
  H  H17  1  0.18877000  0.85762000  0.48757000  1.0
  H  H18  1  0.15906000  0.12848000  0.51835000  1.0
  H  H19  1  0.96713000  0.14435000  0.42571000  1.0
  H  H20  1  0.96833000  0.24018000  0.28858000  1.0
  H  H21  1  0.16277000  0.32440000  0.24839000  1.0
  H  H22  1  0.35466000  0.30816000  0.33978000  1.0
  H  H23  1  0.71522000  0.36491000  0.30774000  1.0
  H  H24  1  0.36887000  0.94492000  0.41538000  1.0
  H  H25  1  0.76388000  0.20463000  0.35814000  1.0
  H  H26  1  0.62846000  0.06632000  0.30925000  1.0
  H  H27  1  0.44345000  0.09210000  0.20928000  1.0
  H  H28  1  0.39662000  0.25329000  0.15740000  1.0
  H  H29  1  0.45729000  0.75938000  0.15077000  1.0
  H  H30  1  0.53245000  0.91565000  0.20930000  1.0
  H  H31  1  0.71096000  0.92632000  0.31917000  1.0
  H  H32  1  0.81453000  0.77924000  0.36800000  1.0
  H  H33  1  0.74164000  0.62432000  0.30661000  1.0
  H  H34  1  0.26873000  0.47678000  0.02278000  1.0
  H  H35  1  0.32184000  0.04871000  0.48493000  1.0
  H  H36  1  0.09719000  0.55879000  0.08929000  1.0
  H  H37  1  0.06078000  0.72805000  0.05529000  1.0
  H  H38  1  0.19646000  0.81360000  0.95231000  1.0
  H  H39  1  0.36650000  0.73030000  0.88399000  1.0
  H  H40  1  0.78241000  0.51461000  0.02303000  1.0
  H  H41  1  0.94390000  0.42661000  0.10606000  1.0
  H  H42  1  0.96097000  0.25330000  0.08301000  1.0
  H  H43  1  0.81817000  0.16992000  0.97314000  1.0
  H  H44  1  0.65629000  0.25836000  0.89013000  1.0
  H  H45  1  0.65616000  0.74718000  0.57956000  1.0
  H  H46  1  0.67338000  0.26760000  0.53272000  1.0
  H  H47  1  0.68172000  0.92149000  0.59963000  1.0
  H  H48  1  0.71182000  0.09600000  0.54559000  1.0
  H  H49  1  0.09742000  0.60036000  0.40717000  1.0
  C  C50  1  0.51170000  0.50370000  0.33065000  1.0
  C  C51  1  0.60596000  0.44405000  0.90453000  1.0
  C  C52  1  0.42594000  0.54844000  0.81203000  1.0
  C  C53  1  0.59596000  0.44159000  0.81246000  1.0
  C  C54  1  0.50813000  0.49489000  0.76637000  1.0
  C  C55  1  0.52046000  0.49675000  0.95081000  1.0
  C  C56  1  0.43126000  0.90487000  0.45775000  1.0
  C  C57  1  0.40358000  0.09419000  0.49530000  1.0
  C  C58  1  0.25219000  0.49952000  0.50619000  1.0
  C  C59  1  0.41486000  0.80691000  0.45588000  1.0
  C  C60  1  0.39019000  0.19026000  0.47919000  1.0
  C  C61  1  0.91713000  0.40218000  0.53171000  1.0
  C  C62  1  0.59172000  0.79489000  0.54685000  1.0
  C  C63  1  0.59806000  0.21560000  0.52105000  1.0
  C  C64  1  0.60674000  0.89261000  0.55637000  1.0
  C  C65  1  0.61839000  0.11931000  0.53017000  1.0
  C  C66  1  0.52270000  0.95090000  0.51138000  1.0
  C  C67  1  0.51826000  0.05524000  0.51543000  1.0
  C  C68  1  0.50138000  0.49505000  0.66793000  1.0
  C  C69  1  0.72766000  0.50675000  0.51031000  1.0
  C  C70  1  0.05537000  0.53174000  0.42346000  1.0
  C  C71  1  0.07195000  0.57329000  0.57902000  1.0
  C  C72  1  0.52615000  0.41501000  0.09622000  1.0
  C  C73  1  0.91453000  0.53433000  0.42450000  1.0
  C  C74  1  0.93078000  0.56830000  0.58569000  1.0
  C  C75  1  0.05790000  0.40258000  0.53874000  1.0
  C  C76  1  0.11144000  0.49926000  0.51261000  1.0
  C  C77  1  0.86920000  0.50191000  0.51461000  1.0
  C  C78  1  0.30080000  0.77244000  0.40638000  1.0
  C  C79  1  0.30089000  0.71387000  0.33216000  1.0
  C  C80  1  0.19263000  0.69879000  0.27992000  1.0
  C  C81  1  0.08292000  0.74063000  0.30176000  1.0
  C  C82  1  0.08136000  0.79673000  0.37742000  1.0
  C  C83  1  0.54661000  0.58383000  0.09419000  1.0
  C  C84  1  0.18967000  0.81289000  0.42904000  1.0
  C  C85  1  0.27143000  0.21610000  0.43483000  1.0
  C  C86  1  0.16065000  0.17045000  0.45838000  1.0
  C  C87  1  0.05254000  0.17924000  0.40620000  1.0
  C  C88  1  0.05297000  0.23348000  0.32957000  1.0
  C  C89  1  0.16182000  0.28033000  0.30701000  1.0
  C  C90  1  0.27035000  0.27211000  0.35905000  1.0
  C  C91  1  0.55258000  0.32054000  0.22860000  1.0
  C  C92  1  0.65578000  0.30521000  0.28569000  1.0
  C  C93  1  0.68300000  0.21453000  0.31412000  1.0
  C  C94  1  0.53501000  0.41481000  0.18812000  1.0
  C  C95  1  0.60715000  0.13726000  0.28682000  1.0
  C  C96  1  0.50393000  0.15162000  0.23064000  1.0
  C  C97  1  0.47751000  0.24240000  0.20127000  1.0
  C  C98  1  0.59381000  0.68074000  0.22546000  1.0
  C  C99  1  0.53653000  0.76387000  0.19784000  1.0
  C  C100  1  0.57825000  0.85181000  0.23141000  1.0
  C  C101  1  0.67809000  0.85794000  0.29280000  1.0
  C  C102  1  0.73683000  0.77561000  0.31974000  1.0
  C  C103  1  0.69580000  0.68836000  0.28585000  1.0
  C  C104  1  0.33008000  0.59791000  0.94884000  1.0
  C  C105  1  0.55642000  0.58728000  0.18624000  1.0
  C  C106  1  0.25350000  0.55081000  0.00757000  1.0
  C  C107  1  0.15711000  0.59715000  0.04516000  1.0
  C  C108  1  0.13613000  0.69188000  0.02578000  1.0
  C  C109  1  0.21208000  0.73965000  0.96793000  1.0
  C  C110  1  0.30765000  0.69293000  0.92949000  1.0
  C  C111  1  0.70699000  0.39249000  0.95145000  1.0
  C  C112  1  0.79017000  0.43899000  0.01200000  1.0
  C  C113  1  0.88103000  0.38943000  0.05863000  1.0
  C  C114  1  0.89107000  0.29232000  0.04551000  1.0
  C  C115  1  0.81091000  0.24570000  0.98397000  1.0
  C  C116  1  0.54050000  0.50221000  0.23472000  1.0
  C  C117  1  0.72007000  0.29541000  0.93707000  1.0
  C  C118  1  0.52781000  0.49877000  0.04821000  1.0
  C  C119  1  0.42832000  0.54773000  0.90408000  1.0
  N  N120  1  0.49699000  0.75179000  0.49962000  1.0
  N  N121  1  0.48814000  0.25114000  0.49422000  1.0
  O  O122  1  0.46743000  0.42800000  0.36297000  1.0
  O  O123  1  0.52644000  0.58137000  0.37296000  1.0
  O  O124  1  0.30433000  0.42155000  0.51859000  1.0
  O  O125  1  0.30305000  0.57795000  0.48661000  1.0
  O  O126  1  0.52432000  0.41818000  0.62942000  1.0
  O  O127  1  0.47289000  0.57290000  0.63148000  1.0
  O  O128  1  0.66817000  0.43293000  0.48377000  1.0
  O  O129  1  0.68271000  0.58583000  0.52852000  1.0
  F  F130  1  0.08888000  0.46907000  0.35611000  1.0
  F  F131  1  0.12917000  0.55446000  0.66292000  1.0
  F  F132  1  0.87549000  0.33912000  0.46509000  1.0
  F  F133  1  0.86818000  0.36546000  0.60844000  1.0
