# generated using pymatgen
data_ZnH8C9N5O4
_symmetry_space_group_name_H-M   'P 1'
_cell_length_a   9.78688000
_cell_length_b   10.89220000
_cell_length_c   11.94870000
_cell_angle_alpha   84.89730000
_cell_angle_beta   88.83320000
_cell_angle_gamma   86.06100000
_symmetry_Int_Tables_number   1
_chemical_formula_structural   ZnH8C9N5O4
_chemical_formula_sum   'Zn2 H16 C18 N10 O8'
_cell_volume   1265.56407266
_cell_formula_units_Z   2
loop_
 _symmetry_equiv_pos_site_id
 _symmetry_equiv_pos_as_xyz
  1  'x, y, z'
loop_
 _atom_site_type_symbol
 _atom_site_label
 _atom_site_symmetry_multiplicity
 _atom_site_fract_x
 _atom_site_fract_y
 _atom_site_fract_z
 _atom_site_occupancy
  Zn  Zn0  1  0.65973000  0.48696000  0.50135000  1.0
  Zn  Zn1  1  0.35638000  0.49943000  0.50921000  1.0
  H  H2  1  0.30487000  0.19584000  0.63147000  1.0
  H  H3  1  0.07818000  0.71068000  0.30455000  1.0
  H  H4  1  0.83102000  0.26834000  0.60938000  1.0
  H  H5  1  0.80474000  0.36968000  0.70223000  1.0
  H  H6  1  0.23352000  0.41435000  0.70868000  1.0
  H  H7  1  0.09177000  0.32531000  0.73534000  1.0
  H  H8  1  0.77778000  0.59627000  0.31485000  1.0
  H  H9  1  0.82955000  0.72755000  0.35414000  1.0
  H  H10  1  0.23763000  0.05500000  0.65500000  1.0
  H  H11  1  0.74251000  0.94442000  0.29230000  1.0
  H  H12  1  0.63171000  0.83781000  0.27519000  1.0
  H  H13  1  0.31984000  0.76790000  0.61463000  1.0
  H  H14  1  0.32303000  0.87501000  0.70695000  1.0
  H  H15  1  0.69597000  0.21905000  0.37103000  1.0
  H  H16  1  0.67021000  0.12813000  0.26793000  1.0
  H  H17  1  0.23034000  0.69567000  0.38454000  1.0
  C  C18  1  0.51632000  0.25620000  0.51550000  1.0
  C  C19  1  0.59272000  0.93886000  0.41096000  1.0
  C  C20  1  0.41238000  0.92456000  0.55589000  1.0
  C  C21  1  0.59827000  0.06563000  0.42238000  1.0
  C  C22  1  0.50304000  0.86866000  0.47998000  1.0
  C  C23  1  0.51121000  0.12294000  0.50289000  1.0
  C  C24  1  0.07245000  0.58837000  0.44105000  1.0
  C  C25  1  0.94104000  0.41847000  0.57917000  1.0
  C  C26  1  0.07945000  0.43860000  0.59408000  1.0
  C  C27  1  0.93059000  0.57064000  0.42663000  1.0
  C  C28  1  0.50989000  0.73120000  0.48151000  1.0
  C  C29  1  0.50508000  0.49939000  0.72598000  1.0
  C  C30  1  0.49277000  0.48847000  0.28643000  1.0
  C  C31  1  0.50408000  0.49467000  0.84712000  1.0
  C  C32  1  0.49111000  0.48726000  0.16554000  1.0
  C  C33  1  0.49943000  0.49127000  0.94982000  1.0
  C  C34  1  0.49500000  0.48863000  0.06294000  1.0
  C  C35  1  0.41423000  0.05315000  0.56623000  1.0
  N  N36  1  0.87019000  0.48678000  0.49622000  1.0
  N  N37  1  0.86206000  0.63840000  0.33777000  1.0
  N  N38  1  0.14564000  0.51898000  0.52131000  1.0
  N  N39  1  0.32363000  0.10237000  0.64367000  1.0
  N  N40  1  0.68155000  0.88174000  0.33241000  1.0
  N  N41  1  0.31768000  0.85987000  0.62420000  1.0
  N  N42  1  0.69079000  0.13038000  0.35107000  1.0
  N  N43  1  0.13164000  0.67510000  0.37306000  1.0
  N  N44  1  0.87907000  0.32896000  0.65331000  1.0
  N  N45  1  0.15091000  0.37511000  0.67991000  1.0
  O  O46  1  0.62988000  0.30664000  0.49176000  1.0
  O  O47  1  0.39806000  0.68046000  0.46450000  1.0
  O  O48  1  0.62316000  0.67236000  0.50492000  1.0
  O  O49  1  0.40934000  0.31750000  0.54943000  1.0
  O  O50  1  0.61863000  0.47324000  0.67763000  1.0
  O  O51  1  0.38206000  0.46771000  0.33971000  1.0
  O  O52  1  0.60683000  0.51094000  0.32753000  1.0
  O  O53  1  0.39010000  0.52956000  0.67876000  1.0
