# generated using pymatgen
data_PrAgH6C14(NO4)2
_symmetry_space_group_name_H-M   'P 1'
_cell_length_a   7.37984000
_cell_length_b   10.25440000
_cell_length_c   11.57420000
_cell_angle_alpha   97.34100000
_cell_angle_beta   101.41900000
_cell_angle_gamma   95.60310000
_symmetry_Int_Tables_number   1
_chemical_formula_structural   PrAgH6C14(NO4)2
_chemical_formula_sum   'Pr2 Ag2 H12 C28 N4 O16'
_cell_volume   844.67680359
_cell_formula_units_Z   2
loop_
 _symmetry_equiv_pos_site_id
 _symmetry_equiv_pos_as_xyz
  1  'x, y, z'
loop_
 _atom_site_type_symbol
 _atom_site_label
 _atom_site_symmetry_multiplicity
 _atom_site_fract_x
 _atom_site_fract_y
 _atom_site_fract_z
 _atom_site_occupancy
  Pr  Pr0  1  0.26003000  0.47097000  0.07243000  1.0
  Pr  Pr1  1  0.73997000  0.52903000  0.92757000  1.0
  Ag  Ag2  1  0.28849000  0.76966000  0.69744000  1.0
  Ag  Ag3  1  0.71150000  0.23034000  0.30256000  1.0
  H  H4  1  0.19590000  0.65448000  0.42956000  1.0
  H  H5  1  0.80410000  0.34551000  0.57044000  1.0
  H  H6  1  0.57933000  0.62653000  0.53051000  1.0
  H  H7  1  0.42066000  0.37347000  0.46948000  1.0
  H  H8  1  0.87131000  0.70389000  0.68322000  1.0
  H  H9  1  0.12868000  0.29611000  0.31678000  1.0
  H  H10  1  0.72606000  0.96810000  0.15925000  1.0
  H  H11  1  0.27394000  0.03189000  0.84076000  1.0
  H  H12  1  0.04987000  0.96724000  0.10801000  1.0
  H  H13  1  0.95013000  0.03276000  0.89198000  1.0
  H  H14  1  0.27469000  0.14994000  0.23395000  1.0
  H  H15  1  0.72531000  0.85006000  0.76605000  1.0
  C  C16  1  0.05759000  0.64783000  0.44990000  1.0
  C  C17  1  0.94241000  0.35217000  0.55010000  1.0
  C  C18  1  0.90295000  0.59984000  0.35848000  1.0
  C  C19  1  0.09705000  0.40016000  0.64152000  1.0
  C  C20  1  0.72503000  0.59319000  0.38526000  1.0
  C  C21  1  0.27497000  0.40681000  0.61474000  1.0
  C  C22  1  0.71291000  0.63199000  0.50353000  1.0
  C  C23  1  0.28709000  0.36802000  0.49647000  1.0
  C  C24  1  0.87439000  0.67698000  0.58967000  1.0
  C  C25  1  0.12561000  0.32302000  0.41033000  1.0
  C  C26  1  0.93404000  0.55761000  0.23526000  1.0
  C  C27  1  0.06596000  0.44239000  0.76474000  1.0
  C  C28  1  0.55111000  0.54645000  0.29047000  1.0
  C  C29  1  0.44889000  0.45355000  0.70953000  1.0
  C  C30  1  0.57549000  0.96422000  0.14807000  1.0
  C  C31  1  0.42450000  0.03577000  0.85194000  1.0
  C  C32  1  0.45970000  0.85643000  0.07625000  1.0
  C  C33  1  0.54030000  0.14357000  0.92375000  1.0
  C  C34  1  0.26553000  0.85549000  0.05950000  1.0
  C  C35  1  0.73447000  0.14451000  0.94050000  1.0
  C  C36  1  0.19885000  0.96163000  0.11943000  1.0
  C  C37  1  0.80114000  0.03837000  0.88057000  1.0
  C  C38  1  0.32423000  0.06449000  0.19006000  1.0
  C  C39  1  0.67577000  0.93551000  0.80994000  1.0
  C  C40  1  0.54785000  0.74786000  0.01947000  1.0
  C  C41  1  0.45214000  0.25213000  0.98053000  1.0
  C  C42  1  0.12473000  0.75438000  0.97191000  1.0
  C  C43  1  0.87527000  0.24562000  0.02810000  1.0
  N  N44  1  0.04512000  0.68669000  0.56332000  1.0
  N  N45  1  0.95488000  0.31331000  0.43668000  1.0
  N  N46  1  0.51060000  0.06714000  0.20405000  1.0
  N  N47  1  0.48940000  0.93286000  0.79595000  1.0
  O  O48  1  0.09091000  0.51875000  0.22994000  1.0
  O  O49  1  0.90909000  0.48126000  0.77006000  1.0
  O  O50  1  0.80319000  0.56512000  0.14863000  1.0
  O  O51  1  0.19680000  0.43488000  0.85136000  1.0
  O  O52  1  0.49855000  0.42161000  0.25971000  1.0
  O  O53  1  0.50145000  0.57839000  0.74029000  1.0
  O  O54  1  0.46239000  0.63443000  0.24707000  1.0
  O  O55  1  0.53762000  0.36557000  0.75293000  1.0
  O  O56  1  0.70900000  0.77110000  0.99885000  1.0
  O  O57  1  0.29102000  0.22891000  0.00115000  1.0
  O  O58  1  0.45601000  0.63109000  0.99192000  1.0
  O  O59  1  0.54399000  0.36892000  0.00808000  1.0
  O  O60  1  0.06473000  0.78464000  0.87166000  1.0
  O  O61  1  0.93527000  0.21536000  0.12833000  1.0
  O  O62  1  0.06810000  0.64795000  0.01048000  1.0
  O  O63  1  0.93190000  0.35205000  0.98952000  1.0
