# generated using pymatgen
data_AgH4C6(NO)3
_symmetry_space_group_name_H-M   'P 1'
_cell_length_a   7.18045000
_cell_length_b   7.46653000
_cell_length_c   14.89010000
_cell_angle_alpha   98.88710000
_cell_angle_beta   89.99980000
_cell_angle_gamma   89.99980000
_symmetry_Int_Tables_number   1
_chemical_formula_structural   AgH4C6(NO)3
_chemical_formula_sum   'Ag4 H16 C24 N12 O12'
_cell_volume   788.71971085
_cell_formula_units_Z   4
loop_
 _symmetry_equiv_pos_site_id
 _symmetry_equiv_pos_as_xyz
  1  'x, y, z'
loop_
 _atom_site_type_symbol
 _atom_site_label
 _atom_site_symmetry_multiplicity
 _atom_site_fract_x
 _atom_site_fract_y
 _atom_site_fract_z
 _atom_site_occupancy
  Ag  Ag0  1  0.82152000  0.38972000  0.61873000  1.0
  Ag  Ag1  1  0.67848000  0.88972000  0.11874000  1.0
  Ag  Ag2  1  0.17847000  0.61029000  0.38126000  1.0
  Ag  Ag3  1  0.32151000  0.11027000  0.88126000  1.0
  H  H4  1  0.54335000  0.21920000  0.28638000  1.0
  H  H5  1  0.95664000  0.71918000  0.78638000  1.0
  H  H6  1  0.45665000  0.78080000  0.71362000  1.0
  H  H7  1  0.04336000  0.28081000  0.21362000  1.0
  H  H8  1  0.23508000  0.10091000  0.33295000  1.0
  H  H9  1  0.26491000  0.60089000  0.83295000  1.0
  H  H10  1  0.76492000  0.89910000  0.66705000  1.0
  H  H11  1  0.73508000  0.39910000  0.16705000  1.0
  H  H12  1  0.16913000  0.11122000  0.49873000  1.0
  H  H13  1  0.33089000  0.61121000  0.99873000  1.0
  H  H14  1  0.83088000  0.88879000  0.50127000  1.0
  H  H15  1  0.66912000  0.38877000  0.00128000  1.0
  H  H16  1  0.41446000  0.23061000  0.61209000  1.0
  H  H17  1  0.08556000  0.73061000  0.11210000  1.0
  H  H18  1  0.58556000  0.76939000  0.38790000  1.0
  H  H19  1  0.91444000  0.26939000  0.88791000  1.0
  C  C20  1  0.80895000  0.36014000  0.40294000  1.0
  C  C21  1  0.69104000  0.86012000  0.90295000  1.0
  C  C22  1  0.19105000  0.63987000  0.59705000  1.0
  C  C23  1  0.30895000  0.13987000  0.09705000  1.0
  C  C24  1  0.63443000  0.28734000  0.42578000  1.0
  C  C25  1  0.86557000  0.78732000  0.92578000  1.0
  C  C26  1  0.36557000  0.71268000  0.57422000  1.0
  C  C27  1  0.13443000  0.21267000  0.07422000  1.0
  C  C28  1  0.50812000  0.22043000  0.35744000  1.0
  C  C29  1  0.99187000  0.72041000  0.85744000  1.0
  C  C30  1  0.49188000  0.77958000  0.64256000  1.0
  C  C31  1  0.00813000  0.27959000  0.14256000  1.0
  C  C32  1  0.33743000  0.15630000  0.38349000  1.0
  C  C33  1  0.16258000  0.65629000  0.88349000  1.0
  C  C34  1  0.66258000  0.84371000  0.61651000  1.0
  C  C35  1  0.83743000  0.34370000  0.11652000  1.0
  C  C36  1  0.30040000  0.16073000  0.47557000  1.0
  C  C37  1  0.19960000  0.66073000  0.97557000  1.0
  C  C38  1  0.69960000  0.83928000  0.52443000  1.0
  C  C39  1  0.80040000  0.33926000  0.02443000  1.0
  C  C40  1  0.43545000  0.22832000  0.53939000  1.0
  C  C41  1  0.06457000  0.72831000  0.03939000  1.0
  C  C42  1  0.56456000  0.77169000  0.46061000  1.0
  C  C43  1  0.93544000  0.27168000  0.96061000  1.0
  N  N44  1  0.60070000  0.29135000  0.51583000  1.0
  N  N45  1  0.89931000  0.79134000  0.01583000  1.0
  N  N46  1  0.39931000  0.70866000  0.48417000  1.0
  N  N47  1  0.10069000  0.20866000  0.98417000  1.0
  N  N48  1  0.94842000  0.42431000  0.38363000  1.0
  N  N49  1  0.55156000  0.92429000  0.88364000  1.0
  N  N50  1  0.05158000  0.57570000  0.61637000  1.0
  N  N51  1  0.44843000  0.07569000  0.11637000  1.0
  N  N52  1  0.58147000  0.37246000  0.79065000  1.0
  N  N53  1  0.91853000  0.87249000  0.29065000  1.0
  N  N54  1  0.41853000  0.62753000  0.20935000  1.0
  N  N55  1  0.08146000  0.12752000  0.70935000  1.0
  O  O56  1  0.65289000  0.51013000  0.76288000  1.0
  O  O57  1  0.84712000  0.01017000  0.26287000  1.0
  O  O58  1  0.34711000  0.48985000  0.23712000  1.0
  O  O59  1  0.15288000  0.98984000  0.73712000  1.0
  O  O60  1  0.58751000  0.21865000  0.74166000  1.0
  O  O61  1  0.91247000  0.71868000  0.24166000  1.0
  O  O62  1  0.41248000  0.78133000  0.25834000  1.0
  O  O63  1  0.08751000  0.28133000  0.75834000  1.0
  O  O64  1  0.50323000  0.39273000  0.86840000  1.0
  O  O65  1  0.99677000  0.89276000  0.36840000  1.0
  O  O66  1  0.49677000  0.60726000  0.13160000  1.0
  O  O67  1  0.00323000  0.10725000  0.63160000  1.0
