# generated using pymatgen
data_CuH12C6N2Cl2(OF)2
_symmetry_space_group_name_H-M   'P 1'
_cell_length_a   8.08402000
_cell_length_b   9.02072000
_cell_length_c   9.02075000
_cell_angle_alpha   84.61280000
_cell_angle_beta   68.27370000
_cell_angle_gamma   68.27380000
_symmetry_Int_Tables_number   1
_chemical_formula_structural   CuH12C6N2Cl2(OF)2
_chemical_formula_sum   'Cu2 H24 C12 N4 Cl4 O4 F4'
_cell_volume   566.97610876
_cell_formula_units_Z   2
loop_
 _symmetry_equiv_pos_site_id
 _symmetry_equiv_pos_as_xyz
  1  'x, y, z'
loop_
 _atom_site_type_symbol
 _atom_site_label
 _atom_site_symmetry_multiplicity
 _atom_site_fract_x
 _atom_site_fract_y
 _atom_site_fract_z
 _atom_site_occupancy
  Cu  Cu0  1  0.24561000  0.61702000  0.73396000  1.0
  Cu  Cu1  1  0.74562000  0.73395000  0.61702000  1.0
  H  H2  1  0.50683000  0.33033000  0.68076000  1.0
  H  H3  1  0.00683000  0.68074000  0.33032000  1.0
  H  H4  1  0.55643000  0.45887000  0.76240000  1.0
  H  H5  1  0.05644000  0.76239000  0.45886000  1.0
  H  H6  1  0.18730000  0.96417000  0.64842000  1.0
  H  H7  1  0.68728000  0.64842000  0.96417000  1.0
  H  H8  1  0.36699000  0.01970000  0.65178000  1.0
  H  H9  1  0.86699000  0.65178000  0.01970000  1.0
  H  H10  1  0.20166000  0.13938000  0.57676000  1.0
  H  H11  1  0.70166000  0.57676000  0.13938000  1.0
  H  H12  1  0.43012000  0.12759000  0.83703000  1.0
  H  H13  1  0.93012000  0.83703000  0.12758000  1.0
  H  H14  1  0.26830000  0.17026000  0.03652000  1.0
  H  H15  1  0.76830000  0.03652000  0.17026000  1.0
  H  H16  1  0.00826000  0.35183000  0.95788000  1.0
  H  H17  1  0.50827000  0.95787000  0.35183000  1.0
  H  H18  1  0.15794000  0.35042000  0.75954000  1.0
  H  H19  1  0.65794000  0.75954000  0.35041000  1.0
  H  H20  1  0.10161000  0.04501000  0.91039000  1.0
  H  H21  1  0.60159000  0.91040000  0.04502000  1.0
  H  H22  1  0.94671000  0.18316000  0.82125000  1.0
  H  H23  1  0.44670000  0.82125000  0.18317000  1.0
  H  H24  1  0.44310000  0.27693000  0.14467000  1.0
  H  H25  1  0.94311000  0.14466000  0.27692000  1.0
  C  C26  1  0.19544000  0.49413000  0.04077000  1.0
  C  C27  1  0.69545000  0.04076000  0.49414000  1.0
  C  C28  1  0.37311000  0.35862000  0.93174000  1.0
  C  C29  1  0.87311000  0.93174000  0.35862000  1.0
  C  C30  1  0.30699000  0.22177000  0.91903000  1.0
  C  C31  1  0.80698000  0.91903000  0.22177000  1.0
  C  C32  1  0.13735000  0.27561000  0.86363000  1.0
  C  C33  1  0.63735000  0.86362000  0.27561000  1.0
  C  C34  1  0.09058000  0.13928000  0.82466000  1.0
  C  C35  1  0.59056000  0.82466000  0.13930000  1.0
  C  C36  1  0.51401000  0.29690000  0.01872000  1.0
  C  C37  1  0.01402000  0.01871000  0.29689000  1.0
  N  N38  1  0.45072000  0.41659000  0.77200000  1.0
  N  N39  1  0.95073000  0.77200000  0.41658000  1.0
  N  N40  1  0.22242000  0.06033000  0.66378000  1.0
  N  N41  1  0.72241000  0.66379000  0.06033000  1.0
  Cl  Cl42  1  0.38878000  0.61488000  0.46963000  1.0
  Cl  Cl43  1  0.88879000  0.46962000  0.61487000  1.0
  Cl  Cl44  1  0.98077000  0.83528000  0.74881000  1.0
  Cl  Cl45  1  0.48077000  0.74882000  0.83528000  1.0
  O  O46  1  0.13491000  0.48416000  0.18791000  1.0
  O  O47  1  0.63490000  0.18792000  0.48416000  1.0
  O  O48  1  0.11027000  0.60828000  0.96548000  1.0
  O  O49  1  0.61028000  0.96547000  0.60828000  1.0
  F  F50  1  0.66009000  0.15586000  0.94477000  1.0
  F  F51  1  0.16009000  0.94477000  0.15584000  1.0
  F  F52  1  0.60213000  0.40425000  0.01522000  1.0
  F  F53  1  0.10215000  0.01522000  0.40423000  1.0
