# generated using pymatgen
data_Zn3H17C30(NO6)2
_symmetry_space_group_name_H-M   'P 1'
_cell_length_a   18.61380000
_cell_length_b   18.66490000
_cell_length_c   18.70100000
_cell_angle_alpha   109.68100000
_cell_angle_beta   108.99000000
_cell_angle_gamma   109.55300000
_symmetry_Int_Tables_number   1
_chemical_formula_structural   Zn3H17C30(NO6)2
_chemical_formula_sum   'Zn6 H34 C60 N4 O24'
_cell_volume   5013.05706399
_cell_formula_units_Z   2
loop_
 _symmetry_equiv_pos_site_id
 _symmetry_equiv_pos_as_xyz
  1  'x, y, z'
loop_
 _atom_site_type_symbol
 _atom_site_label
 _atom_site_symmetry_multiplicity
 _atom_site_fract_x
 _atom_site_fract_y
 _atom_site_fract_z
 _atom_site_occupancy
  Zn  Zn0  1  0.49486000  0.42971000  0.43297000  1.0
  Zn  Zn1  1  0.50624000  0.56007000  0.56568000  1.0
  Zn  Zn2  1  0.94022000  0.44083000  0.00405000  1.0
  Zn  Zn3  1  0.06869000  0.56259000  0.00191000  1.0
  Zn  Zn4  1  0.05353000  0.99363000  0.55547000  1.0
  Zn  Zn5  1  0.92644000  0.99643000  0.43565000  1.0
  H  H6  1  0.60854000  0.58072000  0.31049000  1.0
  H  H7  1  0.85519000  0.19437000  0.77022000  1.0
  H  H8  1  0.07999000  0.34499000  0.14870000  1.0
  H  H9  1  0.13832000  0.33759000  0.08987000  1.0
  H  H10  1  0.25387000  0.34269000  0.20888000  1.0
  H  H11  1  0.73783000  0.72684000  0.59116000  1.0
  H  H12  1  0.84706000  0.85076000  0.59225000  1.0
  H  H13  1  0.70900000  0.71070000  0.31130000  1.0
  H  H14  1  0.94617000  0.48598000  0.76199000  1.0
  H  H15  1  0.87310000  0.44250000  0.65005000  1.0
  H  H16  1  0.95083000  0.55584000  0.71732000  1.0
  H  H17  1  0.66159000  0.54792000  0.78827000  1.0
  H  H18  1  0.73356000  0.53149000  0.56269000  1.0
  H  H19  1  0.83646000  0.53564000  0.60245000  1.0
  H  H20  1  0.73760000  0.43408000  0.54296000  1.0
  H  H21  1  0.91192000  0.75381000  0.07569000  1.0
  H  H22  1  0.02227000  0.78748000  0.10056000  1.0
  H  H23  1  0.94385000  0.67472000  0.04253000  1.0
  H  H24  1  0.02436000  0.94734000  0.29720000  1.0
  H  H25  1  0.02361000  0.89826000  0.19708000  1.0
  H  H26  1  0.92434000  0.86936000  0.19991000  1.0
  H  H27  1  0.06282000  0.58356000  0.26411000  1.0
  H  H28  1  0.26979000  0.39454000  0.53399000  1.0
  H  H29  1  0.05096000  0.62312000  0.35801000  1.0
  H  H30  1  0.95751000  0.54178000  0.25333000  1.0
  H  H31  1  0.23502000  0.33299000  0.33197000  1.0
  H  H32  1  0.14273000  0.34843000  0.30015000  1.0
  H  H33  1  0.13761000  0.25155000  0.23145000  1.0
  H  H34  1  0.18345000  0.07861000  0.40502000  1.0
  H  H35  1  0.30797000  0.18356000  0.40372000  1.0
  H  H36  1  0.04211000  0.75147000  0.40530000  1.0
  H  H37  1  0.12984000  0.37178000  0.88226000  1.0
  H  H38  1  0.13851000  0.25712000  0.77321000  1.0
  H  H39  1  0.86065000  0.08538000  0.65239000  1.0
  C  C40  1  0.60495000  0.57613000  0.45541000  1.0
  C  C41  1  0.66762000  0.64655000  0.45094000  1.0
  C  C42  1  0.71110000  0.53825000  0.77433000  1.0
  C  C43  1  0.39214000  0.53579000  0.41978000  1.0
  C  C44  1  0.77735000  0.53658000  0.83508000  1.0
  C  C45  1  0.84253000  0.52582000  0.81727000  1.0
  C  C46  1  0.83964000  0.51476000  0.73803000  1.0
  C  C47  1  0.77096000  0.51433000  0.67566000  1.0
  C  C48  1  0.70662000  0.52521000  0.69466000  1.0
  C  C49  1  0.24932000  0.32497000  0.50394000  1.0
  C  C50  1  0.17622000  0.26554000  0.50032000  1.0
  C  C51  1  0.20208000  0.46825000  0.20819000  1.0
  C  C52  1  0.15289000  0.17623000  0.46514000  1.0
  C  C53  1  0.20081000  0.14738000  0.43086000  1.0
  C  C54  1  0.27096000  0.20593000  0.43103000  1.0
  C  C55  1  0.37512000  0.36075000  0.47597000  1.0
  C  C56  1  0.29666000  0.29535000  0.46948000  1.0
  C  C57  1  0.98325000  0.59730000  0.12051000  1.0
  C  C58  1  0.14752000  0.53856000  0.12965000  1.0
  C  C59  1  0.98795000  0.36007000  0.89608000  1.0
  C  C60  1  0.91175000  0.52300000  0.88370000  1.0
  C  C61  1  0.02099000  0.88358000  0.40315000  1.0
  C  C62  1  0.14547000  0.36932000  0.15493000  1.0
  C  C63  1  0.84879000  0.86558000  0.45760000  1.0
  C  C64  1  0.00343000  0.10172000  0.63461000  1.0
  C  C65  1  0.08304000  0.11331000  0.47152000  1.0
  C  C66  1  0.98558000  0.74010000  0.18087000  1.0
  C  C67  1  0.62817000  0.51850000  0.62986000  1.0
  C  C68  1  0.99778000  0.81270000  0.25022000  1.0
  C  C69  1  0.01658000  0.81417000  0.33030000  1.0
  C  C70  1  0.02550000  0.74659000  0.34166000  1.0
  C  C71  1  0.01204000  0.67353000  0.27354000  1.0
  C  C72  1  0.99156000  0.67123000  0.19293000  1.0
  C  C73  1  0.21430000  0.36741000  0.23028000  1.0
  C  C74  1  0.07197000  0.30766000  0.83354000  1.0
  C  C75  1  0.07659000  0.24435000  0.77237000  1.0
  C  C76  1  0.00004000  0.16491000  0.70625000  1.0
  C  C77  1  0.91997000  0.14702000  0.70467000  1.0
  C  C78  1  0.91660000  0.20804000  0.76957000  1.0
  C  C79  1  0.26083000  0.46730000  0.27618000  1.0
  C  C80  1  0.99212000  0.28967000  0.83266000  1.0
  C  C81  1  0.33069000  0.54363000  0.35206000  1.0
  C  C82  1  0.34081000  0.62393000  0.35585000  1.0
  C  C83  1  0.28377000  0.62461000  0.28345000  1.0
  C  C84  1  0.73387000  0.72305000  0.53050000  1.0
  C  C85  1  0.21254000  0.54521000  0.20751000  1.0
  C  C86  1  0.41062000  0.70604000  0.43091000  1.0
  C  C87  1  0.77542000  0.54568000  0.91330000  1.0
  C  C88  1  0.90585000  0.49872000  0.71608000  1.0
  C  C89  1  0.76969000  0.50394000  0.59186000  1.0
  C  C90  1  0.12889000  0.29707000  0.53634000  1.0
  C  C91  1  0.96460000  0.73831000  0.09520000  1.0
  C  C92  1  0.29784000  0.70711000  0.28999000  1.0
  C  C93  1  0.99293000  0.88615000  0.23605000  1.0
  C  C94  1  0.02144000  0.60180000  0.28815000  1.0
  C  C95  1  0.79324000  0.79222000  0.53106000  1.0
  C  C96  1  0.18042000  0.32270000  0.27618000  1.0
  C  C97  1  0.78334000  0.78813000  0.45195000  1.0
  C  C98  1  0.71600000  0.71285000  0.37227000  1.0
  C  C99  1  0.65982000  0.64075000  0.37183000  1.0
  N  N100  1  0.46777000  0.77391000  0.49130000  1.0
  N  N101  1  0.76973000  0.55400000  0.97569000  1.0
  N  N102  1  0.09146000  0.32405000  0.56686000  1.0
  N  N103  1  0.30912000  0.77498000  0.29655000  1.0
  O  O104  1  0.57001000  0.49467000  0.39820000  1.0
  O  O105  1  0.97125000  0.91476000  0.38318000  1.0
  O  O106  1  0.92736000  0.90134000  0.51750000  1.0
  O  O107  1  0.58995000  0.60163000  0.51839000  1.0
  O  O108  1  0.82252000  0.89224000  0.40434000  1.0
  O  O109  1  0.06279000  0.08042000  0.65696000  1.0
  O  O110  1  0.94796000  0.07470000  0.55693000  1.0
  O  O111  1  0.11127000  0.08935000  0.52509000  1.0
  O  O112  1  0.00268000  0.08877000  0.42324000  1.0
  O  O113  1  0.40517000  0.47249000  0.38914000  1.0
  O  O114  1  0.42578000  0.58985000  0.50113000  1.0
  O  O115  1  0.03254000  0.61827000  0.08886000  1.0
  O  O116  1  0.40169000  0.33191000  0.42276000  1.0
  O  O117  1  0.40965000  0.44049000  0.53317000  1.0
  O  O118  1  0.59176000  0.46022000  0.55041000  1.0
  O  O119  1  0.60157000  0.57114000  0.66014000  1.0
  O  O120  1  0.92918000  0.51754000  0.09489000  1.0
  O  O121  1  0.06903000  0.48029000  0.09809000  1.0
  O  O122  1  0.17438000  0.58811000  0.09962000  1.0
  O  O123  1  0.93128000  0.33716000  0.92101000  1.0
  O  O124  1  0.04073000  0.43886000  0.92089000  1.0
  O  O125  1  0.88449000  0.46948000  0.90870000  1.0
  O  O126  1  0.99265000  0.57494000  0.91104000  1.0
  O  O127  1  0.07254000  0.90742000  0.48282000  1.0
