# generated using pymatgen
data_CuH4(C2N)2
_symmetry_space_group_name_H-M   'P 1'
_cell_length_a   7.82978000
_cell_length_b   8.89648000
_cell_length_c   14.47790000
_cell_angle_alpha   76.54810000
_cell_angle_beta   88.29250000
_cell_angle_gamma   88.53440000
_symmetry_Int_Tables_number   1
_chemical_formula_structural   CuH4(C2N)2
_chemical_formula_sum   'Cu8 H32 C32 N16'
_cell_volume   980.21071741
_cell_formula_units_Z   8
loop_
 _symmetry_equiv_pos_site_id
 _symmetry_equiv_pos_as_xyz
  1  'x, y, z'
loop_
 _atom_site_type_symbol
 _atom_site_label
 _atom_site_symmetry_multiplicity
 _atom_site_fract_x
 _atom_site_fract_y
 _atom_site_fract_z
 _atom_site_occupancy
  Cu  Cu0  1  0.21106000  0.37816000  0.61731000  1.0
  Cu  Cu1  1  0.78894000  0.62185000  0.38269000  1.0
  Cu  Cu2  1  0.46466000  0.88842000  0.56985000  1.0
  Cu  Cu3  1  0.53534000  0.11158000  0.43015000  1.0
  Cu  Cu4  1  0.18647000  0.59563000  0.80613000  1.0
  Cu  Cu5  1  0.81353000  0.40436000  0.19388000  1.0
  Cu  Cu6  1  0.44359000  0.09321000  0.79786000  1.0
  Cu  Cu7  1  0.55640000  0.90679000  0.20213000  1.0
  H  H8  1  0.56046000  0.34052000  0.63538000  1.0
  H  H9  1  0.43954000  0.65948000  0.36462000  1.0
  H  H10  1  0.84004000  0.45982000  0.57466000  1.0
  H  H11  1  0.15996000  0.54018000  0.42534000  1.0
  H  H12  1  0.09535000  0.12388000  0.77504000  1.0
  H  H13  1  0.90465000  0.87613000  0.22496000  1.0
  H  H14  1  0.93798000  0.91360000  0.87215000  1.0
  H  H15  1  0.06202000  0.08640000  0.12784000  1.0
  H  H16  1  0.71681000  0.89325000  0.85267000  1.0
  H  H17  1  0.28319000  0.10675000  0.14733000  1.0
  H  H18  1  0.75790000  0.92416000  0.01775000  1.0
  H  H19  1  0.24210000  0.07584000  0.98225000  1.0
  H  H20  1  0.63907000  0.08388000  0.95201000  1.0
  H  H21  1  0.36093000  0.91612000  0.04799000  1.0
  H  H22  1  0.85860000  0.10461000  0.97269000  1.0
  H  H23  1  0.14140000  0.89539000  0.02731000  1.0
  H  H24  1  0.54069000  0.63293000  0.73648000  1.0
  H  H25  1  0.45931000  0.36707000  0.26352000  1.0
  H  H26  1  0.90988000  0.41269000  0.85730000  1.0
  H  H27  1  0.09011000  0.58731000  0.14270000  1.0
  H  H28  1  0.68392000  0.41412000  0.84296000  1.0
  H  H29  1  0.31607000  0.58588000  0.15704000  1.0
  H  H30  1  0.75064000  0.43599000  0.00662000  1.0
  H  H31  1  0.24935000  0.56401000  0.99338000  1.0
  H  H32  1  0.64548000  0.60732000  0.94474000  1.0
  H  H33  1  0.35452000  0.39267000  0.05526000  1.0
  H  H34  1  0.87021000  0.60548000  0.96008000  1.0
  H  H35  1  0.12978000  0.39452000  0.03992000  1.0
  H  H36  1  0.83923000  0.97131000  0.56415000  1.0
  H  H37  1  0.16078000  0.02869000  0.43585000  1.0
  H  H38  1  0.10052000  0.85671000  0.65468000  1.0
  H  H39  1  0.89948000  0.14329000  0.34532000  1.0
  C  C40  1  0.37560000  0.08309000  0.57476000  1.0
  C  C41  1  0.62440000  0.91691000  0.42524000  1.0
  C  C42  1  0.28823000  0.57772000  0.58988000  1.0
  C  C43  1  0.71177000  0.42229000  0.41012000  1.0
  C  C44  1  0.35072000  0.89949000  0.81791000  1.0
  C  C45  1  0.64928000  0.10050000  0.18209000  1.0
  C  C46  1  0.27917000  0.39929000  0.82169000  1.0
  C  C47  1  0.72083000  0.60070000  0.17831000  1.0
  C  C48  1  0.68004000  0.29285000  0.66771000  1.0
  C  C49  1  0.31997000  0.70715000  0.33229000  1.0
  C  C50  1  0.83493000  0.35859000  0.63387000  1.0
  C  C51  1  0.16506000  0.64140000  0.36614000  1.0
  C  C52  1  0.97480000  0.17353000  0.74482000  1.0
  C  C53  1  0.02519000  0.82647000  0.25518000  1.0
  C  C54  1  0.81984000  0.10792000  0.78112000  1.0
  C  C55  1  0.18015000  0.89208000  0.21888000  1.0
  C  C56  1  0.81304000  0.97387000  0.86540000  1.0
  C  C57  1  0.18695000  0.02613000  0.13460000  1.0
  C  C58  1  0.76471000  0.02465000  0.95729000  1.0
  C  C59  1  0.23529000  0.97535000  0.04271000  1.0
  C  C60  1  0.66643000  0.68326000  0.71838000  1.0
  C  C61  1  0.33357000  0.31674000  0.28162000  1.0
  C  C62  1  0.80936000  0.61844000  0.76986000  1.0
  C  C63  1  0.19064000  0.38156000  0.23014000  1.0
  C  C64  1  0.79215000  0.48413000  0.85347000  1.0
  C  C65  1  0.20785000  0.51587000  0.14653000  1.0
  C  C66  1  0.76308000  0.53675000  0.94657000  1.0
  C  C67  1  0.23691000  0.46325000  0.05343000  1.0
  C  C68  1  0.83166000  0.86985000  0.62315000  1.0
  C  C69  1  0.16835000  0.13015000  0.37685000  1.0
  C  C70  1  0.97476000  0.80667000  0.67288000  1.0
  C  C71  1  0.02525000  0.19333000  0.32712000  1.0
  N  N72  1  0.31118000  0.19517000  0.59211000  1.0
  N  N73  1  0.68882000  0.80484000  0.40789000  1.0
  N  N74  1  0.34472000  0.70272000  0.57509000  1.0
  N  N75  1  0.65529000  0.29728000  0.42492000  1.0
  N  N76  1  0.28538000  0.77915000  0.82574000  1.0
  N  N77  1  0.71462000  0.22085000  0.17426000  1.0
  N  N78  1  0.34485000  0.27751000  0.82453000  1.0
  N  N79  1  0.65515000  0.72248000  0.17547000  1.0
  N  N80  1  0.67093000  0.16880000  0.74168000  1.0
  N  N81  1  0.32907000  0.83120000  0.25832000  1.0
  N  N82  1  0.98365000  0.29912000  0.67222000  1.0
  N  N83  1  0.01635000  0.70088000  0.32778000  1.0
  N  N84  1  0.67632000  0.80726000  0.64528000  1.0
  N  N85  1  0.32368000  0.19274000  0.35472000  1.0
  N  N86  1  0.96519000  0.68047000  0.74577000  1.0
  N  N87  1  0.03481000  0.31952000  0.25423000  1.0
