# generated using pymatgen
data_Co5H26C32(NO5)4
_symmetry_space_group_name_H-M   'P 1'
_cell_length_a   11.16850000
_cell_length_b   18.57282724
_cell_length_c   21.19880000
_cell_angle_alpha   85.48902529
_cell_angle_beta   89.98170000
_cell_angle_gamma   72.50751901
_symmetry_Int_Tables_number   1
_chemical_formula_structural   Co5H26C32(NO5)4
_chemical_formula_sum   'Co20 H104 C128 N16 O80'
_cell_volume   4179.68472867
_cell_formula_units_Z   4
loop_
 _symmetry_equiv_pos_site_id
 _symmetry_equiv_pos_as_xyz
  1  'x, y, z'
loop_
 _atom_site_type_symbol
 _atom_site_label
 _atom_site_symmetry_multiplicity
 _atom_site_fract_x
 _atom_site_fract_y
 _atom_site_fract_z
 _atom_site_occupancy
  Co  Co0  1  0.24506000  0.34726000  0.23985000  1.0
  Co  Co1  1  0.59238000  0.65265000  0.26012000  1.0
  Co  Co2  1  0.75493000  0.65274000  0.76015000  1.0
  Co  Co3  1  0.40763000  0.34734000  0.73988000  1.0
  Co  Co4  1  0.17947000  0.19974000  0.17737000  1.0
  Co  Co5  1  0.37919000  0.80020000  0.32272000  1.0
  Co  Co6  1  0.82052000  0.80025000  0.82265000  1.0
  Co  Co7  1  0.62079000  0.19981000  0.67726000  1.0
  Co  Co8  1  0.67769000  0.74347000  0.37271000  1.0
  Co  Co9  1  0.42126000  0.25643000  0.12729000  1.0
  Co  Co10  1  0.32231000  0.25654000  0.62727000  1.0
  Co  Co11  1  0.57875000  0.74356000  0.87273000  1.0
  Co  Co12  1  0.74651000  0.27581000  0.55936000  1.0
  Co  Co13  1  0.02220000  0.72419000  0.94054000  1.0
  Co  Co14  1  0.25350000  0.72419000  0.44063000  1.0
  Co  Co15  1  0.97781000  0.27580000  0.05948000  1.0
  Co  Co16  1  0.68503000  0.14291000  0.50082000  1.0
  Co  Co17  1  0.82793000  0.85713000  0.99921000  1.0
  Co  Co18  1  0.31497000  0.85710000  0.49915000  1.0
  Co  Co19  1  0.17208000  0.14286000  0.00082000  1.0
  H  H20  1  0.18861000  0.32505000  0.13033000  1.0
  H  H21  1  0.51358000  0.67488000  0.36962000  1.0
  H  H22  1  0.81139000  0.67494000  0.86967000  1.0
  H  H23  1  0.48641000  0.32513000  0.63038000  1.0
  H  H24  1  0.21441000  0.23155000  0.06531000  1.0
  H  H25  1  0.44607000  0.76830000  0.43475000  1.0
  H  H26  1  0.78560000  0.76844000  0.93471000  1.0
  H  H27  1  0.55392000  0.23171000  0.56523000  1.0
  H  H28  1  0.75532000  0.14050000  0.38942000  1.0
  H  H29  1  0.89575000  0.85938000  0.11066000  1.0
  H  H30  1  0.24469000  0.85950000  0.61055000  1.0
  H  H31  1  0.10426000  0.14062000  0.88937000  1.0
  H  H32  1  0.81600000  0.04905000  0.41441000  1.0
  H  H33  1  0.86497000  0.95086000  0.08576000  1.0
  H  H34  1  0.18399000  0.95096000  0.58556000  1.0
  H  H35  1  0.13503000  0.04914000  0.91426000  1.0
  H  H36  1  0.72231000  0.54159000  0.34091000  1.0
  H  H37  1  0.26413000  0.45831000  0.15906000  1.0
  H  H38  1  0.27769000  0.45841000  0.65909000  1.0
  H  H39  1  0.73588000  0.54168000  0.84094000  1.0
  H  H40  1  0.57520000  0.54043000  0.34547000  1.0
  H  H41  1  0.11582000  0.45954000  0.15445000  1.0
  H  H42  1  0.42480000  0.45958000  0.65453000  1.0
  H  H43  1  0.88418000  0.54046000  0.84555000  1.0
  H  H44  1  0.80800000  0.04843000  0.59343000  1.0
  H  H45  1  0.85644000  0.95161000  0.90661000  1.0
  H  H46  1  0.19199000  0.95158000  0.40654000  1.0
  H  H47  1  0.14357000  0.04838000  0.09341000  1.0
  H  H48  1  0.65805000  0.05464000  0.59789000  1.0
  H  H49  1  0.71271000  0.94539000  0.90215000  1.0
  H  H50  1  0.34195000  0.94537000  0.40208000  1.0
  H  H51  1  0.28730000  0.05459000  0.09787000  1.0
  H  H52  1  0.17729000  0.34718000  0.35217000  1.0
  H  H53  1  0.52459000  0.65271000  0.14785000  1.0
  H  H54  1  0.82270000  0.65283000  0.64783000  1.0
  H  H55  1  0.47541000  0.34728000  0.85215000  1.0
  H  H56  1  0.12019000  0.43817000  0.32550000  1.0
  H  H57  1  0.55853000  0.56168000  0.17448000  1.0
  H  H58  1  0.87979000  0.56184000  0.67451000  1.0
  H  H59  1  0.44147000  0.43831000  0.82552000  1.0
  H  H60  1  0.35929000  0.02766000  0.29916000  1.0
  H  H61  1  0.38673000  0.97233000  0.20094000  1.0
  H  H62  1  0.64069000  0.97235000  0.70084000  1.0
  H  H63  1  0.61325000  0.02766000  0.79907000  1.0
  H  H64  1  0.72931000  0.95411000  0.38552000  1.0
  H  H65  1  0.68348000  0.04573000  0.11461000  1.0
  H  H66  1  0.27068000  0.04590000  0.61444000  1.0
  H  H67  1  0.31652000  0.95427000  0.88542000  1.0
  H  H68  1  0.53350000  0.19256000  0.35118000  1.0
  H  H69  1  0.72572000  0.80730000  0.14891000  1.0
  H  H70  1  0.46650000  0.80744000  0.64880000  1.0
  H  H71  1  0.27427000  0.19270000  0.85110000  1.0
  H  H72  1  0.77019000  0.28668000  0.19079000  1.0
  H  H73  1  0.05694000  0.71322000  0.30919000  1.0
  H  H74  1  0.22981000  0.71332000  0.80923000  1.0
  H  H75  1  0.94307000  0.28678000  0.69080000  1.0
  H  H76  1  0.48988000  0.46562000  0.27335000  1.0
  H  H77  1  0.95565000  0.53434000  0.22652000  1.0
  H  H78  1  0.51011000  0.53439000  0.72665000  1.0
  H  H79  1  0.04435000  0.46566000  0.77348000  1.0
  H  H80  1  0.88165000  0.45054000  0.29033000  1.0
  H  H81  1  0.33232000  0.54948000  0.20956000  1.0
  H  H82  1  0.11834000  0.54947000  0.70968000  1.0
  H  H83  1  0.66769000  0.45052000  0.79044000  1.0
  H  H84  1  0.84856000  0.78588000  0.45499000  1.0
  H  H85  1  0.63440000  0.21428000  0.04496000  1.0
  H  H86  1  0.15144000  0.21413000  0.54498000  1.0
  H  H87  1  0.36561000  0.78572000  0.95505000  1.0
  H  H88  1  0.95854000  0.96339000  0.53370000  1.0
  H  H89  1  0.92190000  0.03660000  0.96639000  1.0
  H  H90  1  0.04145000  0.03663000  0.46625000  1.0
  H  H91  1  0.07811000  0.96339000  0.03363000  1.0
  H  H92  1  0.57254000  0.96418000  0.54165000  1.0
  H  H93  1  0.53667000  0.03595000  0.95832000  1.0
  H  H94  1  0.42746000  0.03582000  0.45832000  1.0
  H  H95  1  0.46335000  0.96403000  0.04172000  1.0
  H  H96  1  0.57616000  0.45620000  0.44467000  1.0
  H  H97  1  0.03272000  0.54397000  0.05541000  1.0
  H  H98  1  0.42383000  0.54381000  0.55533000  1.0
  H  H99  1  0.96728000  0.45603000  0.94461000  1.0
  H  H100  1  0.20536000  0.53122000  0.35872000  1.0
  H  H101  1  0.73693000  0.46873000  0.14129000  1.0
  H  H102  1  0.79462000  0.46879000  0.64128000  1.0
  H  H103  1  0.26306000  0.53127000  0.85872000  1.0
  H  H104  1  0.40771000  0.29279000  0.38281000  1.0
  H  H105  1  0.70049000  0.70720000  0.11718000  1.0
  H  H106  1  0.59229000  0.70722000  0.61719000  1.0
  H  H107  1  0.29951000  0.29280000  0.88283000  1.0
  H  H108  1  0.99923000  0.15036000  0.20452000  1.0
  H  H109  1  0.14950000  0.84966000  0.29560000  1.0
  H  H110  1  0.00077000  0.84963000  0.79548000  1.0
  H  H111  1  0.85049000  0.15035000  0.70439000  1.0
  H  H112  1  0.12152000  0.09898000  0.23834000  1.0
  H  H113  1  0.22061000  0.90095000  0.26178000  1.0
  H  H114  1  0.87848000  0.90102000  0.76167000  1.0
  H  H115  1  0.77940000  0.09904000  0.73820000  1.0
  H  H116  1  0.64199000  0.60417000  0.43897000  1.0
  H  H117  1  0.24657000  0.39584000  0.06110000  1.0
  H  H118  1  0.35802000  0.39583000  0.56102000  1.0
  H  H119  1  0.75344000  0.60415000  0.93890000  1.0
  H  H120  1  0.75816000  0.61803000  0.47035000  1.0
  H  H121  1  0.37647000  0.38190000  0.02958000  1.0
  H  H122  1  0.24183000  0.38198000  0.52964000  1.0
  H  H123  1  0.62353000  0.61809000  0.97043000  1.0
  C  C124  1  0.43545000  0.11676000  0.32137000  1.0
  C  C125  1  0.55190000  0.88316000  0.17868000  1.0
  C  C126  1  0.56453000  0.88325000  0.67862000  1.0
  C  C127  1  0.44809000  0.11684000  0.82132000  1.0
  C  C128  1  0.43873000  0.04113000  0.31924000  1.0
  C  C129  1  0.47970000  0.95880000  0.18085000  1.0
  C  C130  1  0.56125000  0.95888000  0.68074000  1.0
  C  C131  1  0.52030000  0.04119000  0.81916000  1.0
  C  C132  1  0.54572000  0.98298000  0.34144000  1.0
  C  C133  1  0.52866000  0.01693000  0.15869000  1.0
  C  C134  1  0.45428000  0.01703000  0.65853000  1.0
  C  C135  1  0.47134000  0.98307000  0.84132000  1.0
  C  C136  1  0.64722000  0.00018000  0.36807000  1.0
  C  C137  1  0.64738000  0.99967000  0.13205000  1.0
  C  C138  1  0.35278000  0.99983000  0.63189000  1.0
  C  C139  1  0.35263000  0.00032000  0.86797000  1.0
  C  C140  1  0.64071000  0.07564000  0.37364000  1.0
  C  C141  1  0.71623000  0.92421000  0.12647000  1.0
  C  C142  1  0.35929000  0.92437000  0.62633000  1.0
  C  C143  1  0.28376000  0.07579000  0.87355000  1.0
  C  C144  1  0.53677000  0.13380000  0.34845000  1.0
  C  C145  1  0.67030000  0.86607000  0.15161000  1.0
  C  C146  1  0.46324000  0.86620000  0.65153000  1.0
  C  C147  1  0.32970000  0.13393000  0.84840000  1.0
  C  C148  1  0.32612000  0.17966000  0.29312000  1.0
  C  C149  1  0.50532000  0.82026000  0.20685000  1.0
  C  C150  1  0.67387000  0.82034000  0.70689000  1.0
  C  C151  1  0.49467000  0.17973000  0.79314000  1.0
  C  C152  1  0.54895000  0.90228000  0.33999000  1.0
  C  C153  1  0.45124000  0.09764000  0.16005000  1.0
  C  C154  1  0.45104000  0.09773000  0.65998000  1.0
  C  C155  1  0.54876000  0.90236000  0.83997000  1.0
  C  C156  1  0.84017000  0.36360000  0.24100000  1.0
  C  C157  1  0.20392000  0.63634000  0.25897000  1.0
  C  C158  1  0.15983000  0.63640000  0.75901000  1.0
  C  C159  1  0.79609000  0.36366000  0.74102000  1.0
  C  C160  1  0.74618000  0.33601000  0.21818000  1.0
  C  C161  1  0.08227000  0.66392000  0.28176000  1.0
  C  C162  1  0.25382000  0.66399000  0.78183000  1.0
  C  C163  1  0.91773000  0.33608000  0.71823000  1.0
  C  C164  1  0.62032000  0.37328000  0.22999000  1.0
  C  C165  1  0.99365000  0.62670000  0.26988000  1.0
  C  C166  1  0.37968000  0.62672000  0.77002000  1.0
  C  C167  1  0.00635000  0.37330000  0.73011000  1.0
  C  C168  1  0.58817000  0.43837000  0.26352000  1.0
  C  C169  1  0.02665000  0.56162000  0.23634000  1.0
  C  C170  1  0.41184000  0.56163000  0.73649000  1.0
  C  C171  1  0.97337000  0.43837000  0.76366000  1.0
  C  C172  1  0.68161000  0.46744000  0.28486000  1.0
  C  C173  1  0.14918000  0.53255000  0.21502000  1.0
  C  C174  1  0.31838000  0.53257000  0.71514000  1.0
  C  C175  1  0.85083000  0.46745000  0.78498000  1.0
  C  C176  1  0.80749000  0.42917000  0.27378000  1.0
  C  C177  1  0.23678000  0.57083000  0.22612000  1.0
  C  C178  1  0.19251000  0.57083000  0.72623000  1.0
  C  C179  1  0.76323000  0.42917000  0.77388000  1.0
  C  C180  1  0.97612000  0.32582000  0.22832000  1.0
  C  C181  1  0.30207000  0.67407000  0.27179000  1.0
  C  C182  1  0.02388000  0.67417000  0.77169000  1.0
  C  C183  1  0.69793000  0.32593000  0.72821000  1.0
  C  C184  1  0.51744000  0.34446000  0.20740000  1.0
  C  C185  1  0.86192000  0.65550000  0.29247000  1.0
  C  C186  1  0.48256000  0.65554000  0.79261000  1.0
  C  C187  1  0.13808000  0.34451000  0.70752000  1.0
  C  C188  1  0.69964000  0.87138000  0.49764000  1.0
  C  C189  1  0.57093000  0.12879000  0.00233000  1.0
  C  C190  1  0.30035000  0.12863000  0.50233000  1.0
  C  C191  1  0.42907000  0.87121000  0.99769000  1.0
  C  C192  1  0.82314000  0.83774000  0.47924000  1.0
  C  C193  1  0.66085000  0.16239000  0.02074000  1.0
  C  C194  1  0.17685000  0.16227000  0.52073000  1.0
  C  C195  1  0.33916000  0.83760000  0.97928000  1.0
  C  C196  1  0.91566000  0.87167000  0.49252000  1.0
  C  C197  1  0.78733000  0.12841000  0.00750000  1.0
  C  C198  1  0.08433000  0.12835000  0.50745000  1.0
  C  C199  1  0.21268000  0.87158000  0.99252000  1.0
  C  C200  1  0.88468000  0.93857000  0.52322000  1.0
  C  C201  1  0.82320000  0.06148000  0.97684000  1.0
  C  C202  1  0.11531000  0.06145000  0.47675000  1.0
  C  C203  1  0.17681000  0.93851000  0.02318000  1.0
  C  C204  1  0.76159000  0.97310000  0.54081000  1.0
  C  C205  1  0.73462000  0.02697000  0.95921000  1.0
  C  C206  1  0.23840000  0.02692000  0.45915000  1.0
  C  C207  1  0.26540000  0.97301000  0.04082000  1.0
  C  C208  1  0.66914000  0.93890000  0.52812000  1.0
  C  C209  1  0.60796000  0.06124000  0.97187000  1.0
  C  C210  1  0.33086000  0.06111000  0.47185000  1.0
  C  C211  1  0.39205000  0.93875000  0.02816000  1.0
  C  C212  1  0.59575000  0.83813000  0.48466000  1.0
  C  C213  1  0.43376000  0.16201000  0.01530000  1.0
  C  C214  1  0.40425000  0.16188000  0.51532000  1.0
  C  C215  1  0.56624000  0.83799000  0.98472000  1.0
  C  C216  1  0.04987000  0.83742000  0.47686000  1.0
  C  C217  1  0.88729000  0.16263000  0.02315000  1.0
  C  C218  1  0.95013000  0.16259000  0.52310000  1.0
  C  C219  1  0.11272000  0.83735000  0.97688000  1.0
  C  C220  1  0.50271000  0.36830000  0.41638000  1.0
  C  C221  1  0.87119000  0.63176000  0.08369000  1.0
  C  C222  1  0.49728000  0.63171000  0.58361000  1.0
  C  C223  1  0.12882000  0.36823000  0.91633000  1.0
  C  C224  1  0.49794000  0.44364000  0.42222000  1.0
  C  C225  1  0.94191000  0.55645000  0.07785000  1.0
  C  C226  1  0.50205000  0.55637000  0.57778000  1.0
  C  C227  1  0.05810000  0.44354000  0.92217000  1.0
  C  C228  1  0.39034000  0.50165000  0.40151000  1.0
  C  C229  1  0.89235000  0.49840000  0.09853000  1.0
  C  C230  1  0.60965000  0.49836000  0.59849000  1.0
  C  C231  1  0.10765000  0.50160000  0.90149000  1.0
  C  C232  1  0.28900000  0.48495000  0.37375000  1.0
  C  C233  1  0.77421000  0.51504000  0.12625000  1.0
  C  C234  1  0.71098000  0.51506000  0.62625000  1.0
  C  C235  1  0.22578000  0.48496000  0.87377000  1.0
  C  C236  1  0.29653000  0.40998000  0.36569000  1.0
  C  C237  1  0.70667000  0.58997000  0.13432000  1.0
  C  C238  1  0.70347000  0.59002000  0.63431000  1.0
  C  C239  1  0.29334000  0.41002000  0.86569000  1.0
  C  C240  1  0.40260000  0.35140000  0.38809000  1.0
  C  C241  1  0.75409000  0.64860000  0.11192000  1.0
  C  C242  1  0.59740000  0.64860000  0.61190000  1.0
  C  C243  1  0.24591000  0.35140000  0.88810000  1.0
  C  C244  1  0.61134000  0.30571000  0.44444000  1.0
  C  C245  1  0.91704000  0.69438000  0.05558000  1.0
  C  C246  1  0.38866000  0.69430000  0.55555000  1.0
  C  C247  1  0.08297000  0.30561000  0.94444000  1.0
  C  C248  1  0.38000000  0.58199000  0.41008000  1.0
  C  C249  1  0.96238000  0.41807000  0.08994000  1.0
  C  C250  1  0.61998000  0.41802000  0.58992000  1.0
  C  C251  1  0.03762000  0.58193000  0.91007000  1.0
  N  N252  1  0.73543000  0.09323000  0.40819000  1.0
  N  N253  1  0.82860000  0.90666000  0.09192000  1.0
  N  N254  1  0.26456000  0.90678000  0.59178000  1.0
  N  N255  1  0.17140000  0.09334000  0.90810000  1.0
  N  N256  1  0.64871000  0.53547000  0.31553000  1.0
  N  N257  1  0.18431000  0.46449000  0.18440000  1.0
  N  N258  1  0.35129000  0.46454000  0.68447000  1.0
  N  N259  1  0.81569000  0.53551000  0.81560000  1.0
  N  N260  1  0.73355000  0.04313000  0.56825000  1.0
  N  N261  1  0.77664000  0.95693000  0.93180000  1.0
  N  N262  1  0.26644000  0.95689000  0.43172000  1.0
  N  N263  1  0.22337000  0.04305000  0.06823000  1.0
  N  N264  1  0.19963000  0.39313000  0.33214000  1.0
  N  N265  1  0.59287000  0.60674000  0.16784000  1.0
  N  N266  1  0.80037000  0.60687000  0.66786000  1.0
  N  N267  1  0.40713000  0.39325000  0.83216000  1.0
  O  O268  1  0.33356000  0.24673000  0.29280000  1.0
  O  O269  1  0.57980000  0.75320000  0.20711000  1.0
  O  O270  1  0.66643000  0.75328000  0.70720000  1.0
  O  O271  1  0.42020000  0.24679000  0.79290000  1.0
  O  O272  1  0.23295000  0.16287000  0.26976000  1.0
  O  O273  1  0.39536000  0.83703000  0.23023000  1.0
  O  O274  1  0.76702000  0.83714000  0.73025000  1.0
  O  O275  1  0.60461000  0.16296000  0.76976000  1.0
  O  O276  1  0.44219000  0.89023000  0.34107000  1.0
  O  O277  1  0.33244000  0.10971000  0.15887000  1.0
  O  O278  1  0.55779000  0.10978000  0.65890000  1.0
  O  O279  1  0.66756000  0.89029000  0.84116000  1.0
  O  O280  1  0.65480000  0.85118000  0.33979000  1.0
  O  O281  1  0.50600000  0.14874000  0.16026000  1.0
  O  O282  1  0.34519000  0.14883000  0.66020000  1.0
  O  O283  1  0.49399000  0.85126000  0.83976000  1.0
  O  O284  1  0.05408000  0.35910000  0.24527000  1.0
  O  O285  1  0.41334000  0.64079000  0.25490000  1.0
  O  O286  1  0.94592000  0.64090000  0.75473000  1.0
  O  O287  1  0.58666000  0.35921000  0.74510000  1.0
  O  O288  1  0.00419000  0.26429000  0.20076000  1.0
  O  O289  1  0.26852000  0.73559000  0.29938000  1.0
  O  O290  1  0.99581000  0.73570000  0.79926000  1.0
  O  O291  1  0.73148000  0.26441000  0.70061000  1.0
  O  O292  1  0.54268000  0.29826000  0.16410000  1.0
  O  O293  1  0.84092000  0.70163000  0.33581000  1.0
  O  O294  1  0.45733000  0.70173000  0.83591000  1.0
  O  O295  1  0.15909000  0.29837000  0.66418000  1.0
  O  O296  1  0.41089000  0.36920000  0.23260000  1.0
  O  O297  1  0.78011000  0.63080000  0.26723000  1.0
  O  O298  1  0.58911000  0.63080000  0.76741000  1.0
  O  O299  1  0.21989000  0.36920000  0.73276000  1.0
  O  O300  1  0.48723000  0.87477000  0.50165000  1.0
  O  O301  1  0.36193000  0.12538000  0.99824000  1.0
  O  O302  1  0.51277000  0.12524000  0.49832000  1.0
  O  O303  1  0.63809000  0.87461000  0.00178000  1.0
  O  O304  1  0.61848000  0.77514000  0.45821000  1.0
  O  O305  1  0.39344000  0.22494000  0.04182000  1.0
  O  O306  1  0.38154000  0.22486000  0.54179000  1.0
  O  O307  1  0.60657000  0.77506000  0.95819000  1.0
  O  O308  1  0.07758000  0.78366000  0.44000000  1.0
  O  O309  1  0.86131000  0.21636000  0.06004000  1.0
  O  O310  1  0.92241000  0.21635000  0.55997000  1.0
  O  O311  1  0.13871000  0.78362000  0.93999000  1.0
  O  O312  1  0.12991000  0.86354000  0.50237000  1.0
  O  O313  1  0.99345000  0.13650000  0.99758000  1.0
  O  O314  1  0.87009000  0.13646000  0.49760000  1.0
  O  O315  1  0.00657000  0.86349000  0.00244000  1.0
  O  O316  1  0.60941000  0.23798000  0.44058000  1.0
  O  O317  1  0.84722000  0.76207000  0.05940000  1.0
  O  O318  1  0.39061000  0.76202000  0.55939000  1.0
  O  O319  1  0.15280000  0.23793000  0.94062000  1.0
  O  O320  1  0.69680000  0.32422000  0.47336000  1.0
  O  O321  1  0.02099000  0.67594000  0.02660000  1.0
  O  O322  1  0.30320000  0.67578000  0.52663000  1.0
  O  O323  1  0.97902000  0.32405000  0.97342000  1.0
  O  O324  1  0.47846000  0.60201000  0.41721000  1.0
  O  O325  1  0.08085000  0.39806000  0.08273000  1.0
  O  O326  1  0.52153000  0.39799000  0.58278000  1.0
  O  O327  1  0.91914000  0.60194000  0.91728000  1.0
  O  O328  1  0.26804000  0.62746000  0.40900000  1.0
  O  O329  1  0.89592000  0.37256000  0.09113000  1.0
  O  O330  1  0.73195000  0.37255000  0.59099000  1.0
  O  O331  1  0.10409000  0.62743000  0.90889000  1.0
  O  O332  1  0.25101000  0.28921000  0.16024000  1.0
  O  O333  1  0.54023000  0.71073000  0.33974000  1.0
  O  O334  1  0.74899000  0.71078000  0.83977000  1.0
  O  O335  1  0.45976000  0.28928000  0.66025000  1.0
  O  O336  1  0.14652000  0.21082000  0.07998000  1.0
  O  O337  1  0.35747000  0.78907000  0.42012000  1.0
  O  O338  1  0.85349000  0.78917000  0.92004000  1.0
  O  O339  1  0.64253000  0.21093000  0.57987000  1.0
  O  O340  1  0.07699000  0.11044000  0.19720000  1.0
  O  O341  1  0.18738000  0.88957000  0.30293000  1.0
  O  O342  1  0.92301000  0.88955000  0.80282000  1.0
  O  O343  1  0.81261000  0.11044000  0.69706000  1.0
  O  O344  1  0.72246000  0.61375000  0.42950000  1.0
  O  O345  1  0.33665000  0.38626000  0.07048000  1.0
  O  O346  1  0.27754000  0.38625000  0.57050000  1.0
  O  O347  1  0.66336000  0.61373000  0.92953000  1.0
