# generated using pymatgen
data_Cu3Sb2H14C15S9N7
_symmetry_space_group_name_H-M   'P 1'
_cell_length_a   6.86904000
_cell_length_b   13.61390000
_cell_length_c   15.61840000
_cell_angle_alpha   108.65100000
_cell_angle_beta   90.43360000
_cell_angle_gamma   99.75760000
_symmetry_Int_Tables_number   1
_chemical_formula_structural   Cu3Sb2H14C15S9N7
_chemical_formula_sum   'Cu6 Sb4 H28 C30 S18 N14'
_cell_volume   1360.83752281
_cell_formula_units_Z   2
loop_
 _symmetry_equiv_pos_site_id
 _symmetry_equiv_pos_as_xyz
  1  'x, y, z'
loop_
 _atom_site_type_symbol
 _atom_site_label
 _atom_site_symmetry_multiplicity
 _atom_site_fract_x
 _atom_site_fract_y
 _atom_site_fract_z
 _atom_site_occupancy
  Cu  Cu0  1  0.20956000  0.78958000  0.12403000  1.0
  Cu  Cu1  1  0.79044000  0.21042000  0.87597000  1.0
  Cu  Cu2  1  0.06877000  0.25347000  0.23693000  1.0
  Cu  Cu3  1  0.93123000  0.74653000  0.76307000  1.0
  Cu  Cu4  1  0.47075000  0.28526000  0.57473000  1.0
  Cu  Cu5  1  0.52925000  0.71474000  0.42527000  1.0
  Sb  Sb6  1  0.44790000  0.04216000  0.20673000  1.0
  Sb  Sb7  1  0.55210000  0.95784000  0.79327000  1.0
  Sb  Sb8  1  0.01242000  0.51233000  0.31799000  1.0
  Sb  Sb9  1  0.98758000  0.48766000  0.68200000  1.0
  H  H10  1  0.82278000  0.91591000  0.19209000  1.0
  H  H11  1  0.17722000  0.08410000  0.80791000  1.0
  H  H12  1  0.92867000  0.04847000  0.25923000  1.0
  H  H13  1  0.07134000  0.95154000  0.74077000  1.0
  H  H14  1  0.86582000  0.02956000  0.09488000  1.0
  H  H15  1  0.13419000  0.97045000  0.90512000  1.0
  H  H16  1  0.03037000  0.93747000  0.06410000  1.0
  H  H17  1  0.96963000  0.06253000  0.93590000  1.0
  H  H18  1  0.78383000  0.91248000  0.36650000  1.0
  H  H19  1  0.21618000  0.08753000  0.63349000  1.0
  H  H20  1  0.84146000  0.98101000  0.53789000  1.0
  H  H21  1  0.15855000  0.01899000  0.46210000  1.0
  H  H22  1  0.70806000  0.14449000  0.62121000  1.0
  H  H23  1  0.29194000  0.85551000  0.37878000  1.0
  H  H24  1  0.55045000  0.38836000  0.24595000  1.0
  H  H25  1  0.44955000  0.61164000  0.75405000  1.0
  H  H26  1  0.53010000  0.52321000  0.26609000  1.0
  H  H27  1  0.46990000  0.47679000  0.73391000  1.0
  H  H28  1  0.58811000  0.48602000  0.41169000  1.0
  H  H29  1  0.41189000  0.51398000  0.58831000  1.0
  H  H30  1  0.36633000  0.39003000  0.38526000  1.0
  H  H31  1  0.63368000  0.60996000  0.61474000  1.0
  H  H32  1  0.63965000  0.39707000  0.06137000  1.0
  H  H33  1  0.36036000  0.60293000  0.93864000  1.0
  H  H34  1  0.66114000  0.48436000  0.94004000  1.0
  H  H35  1  0.33886000  0.51564000  0.05997000  1.0
  H  H36  1  0.89675000  0.65850000  0.97410000  1.0
  H  H37  1  0.10324000  0.34150000  0.02591000  1.0
  C  C38  1  0.56290000  0.73963000  0.23537000  1.0
  C  C39  1  0.43710000  0.26038000  0.76464000  1.0
  C  C40  1  0.95397000  0.97887000  0.20414000  1.0
  C  C41  1  0.04603000  0.02113000  0.79586000  1.0
  C  C42  1  0.99549000  0.00519000  0.11839000  1.0
  C  C43  1  0.00451000  0.99481000  0.88161000  1.0
  C  C44  1  0.57871000  0.12268000  0.41257000  1.0
  C  C45  1  0.42128000  0.87732000  0.58743000  1.0
  C  C46  1  0.73609000  0.98456000  0.40751000  1.0
  C  C47  1  0.26391000  0.01544000  0.59248000  1.0
  C  C48  1  0.76801000  0.02203000  0.50155000  1.0
  C  C49  1  0.23199000  0.97798000  0.49844000  1.0
  C  C50  1  0.69404000  0.11189000  0.54753000  1.0
  C  C51  1  0.30596000  0.88811000  0.45246000  1.0
  C  C52  1  0.24731000  0.79126000  0.92672000  1.0
  C  C53  1  0.75269000  0.20874000  0.07328000  1.0
  C  C54  1  0.46077000  0.44913000  0.27602000  1.0
  C  C55  1  0.53923000  0.55087000  0.72397000  1.0
  C  C56  1  0.44102000  0.46291000  0.37525000  1.0
  C  C57  1  0.55898000  0.53709000  0.62475000  1.0
  C  C58  1  0.96882000  0.60850000  0.16254000  1.0
  C  C59  1  0.03118000  0.39150000  0.83746000  1.0
  C  C60  1  0.73701000  0.47258000  0.07112000  1.0
  C  C61  1  0.26298000  0.52742000  0.92889000  1.0
  C  C62  1  0.74799000  0.52076000  0.00439000  1.0
  C  C63  1  0.25200000  0.47923000  0.99562000  1.0
  C  C64  1  0.87834000  0.61604000  0.02287000  1.0
  C  C65  1  0.12167000  0.38396000  0.97714000  1.0
  C  C66  1  0.07667000  0.27972000  0.43909000  1.0
  C  C67  1  0.92333000  0.72028000  0.56090000  1.0
  S  S68  1  0.52946000  0.75639000  0.13765000  1.0
  S  S69  1  0.47054000  0.24361000  0.86235000  1.0
  S  S70  1  0.15355000  0.92726000  0.24358000  1.0
  S  S71  1  0.84645000  0.07274000  0.75642000  1.0
  S  S72  1  0.19823000  0.11731000  0.13689000  1.0
  S  S73  1  0.80178000  0.88269000  0.86310000  1.0
  S  S74  1  0.45995000  0.18878000  0.35606000  1.0
  S  S75  1  0.54004000  0.81122000  0.64394000  1.0
  S  S76  1  0.26306000  0.76780000  0.81755000  1.0
  S  S77  1  0.73694000  0.23220000  0.18246000  1.0
  S  S78  1  0.22388000  0.40257000  0.20931000  1.0
  S  S79  1  0.77613000  0.59743000  0.79069000  1.0
  S  S80  1  0.30871000  0.56935000  0.43154000  1.0
  S  S81  1  0.69129000  0.43065000  0.56846000  1.0
  S  S82  1  0.11405000  0.66645000  0.26274000  1.0
  S  S83  1  0.88595000  0.33354000  0.73727000  1.0
  S  S84  1  0.13843000  0.29186000  0.54376000  1.0
  S  S85  1  0.86156000  0.70813000  0.45624000  1.0
  N  N86  1  0.58551000  0.72753000  0.30637000  1.0
  N  N87  1  0.41450000  0.27248000  0.69363000  1.0
  N  N88  1  0.64113000  0.03410000  0.36340000  1.0
  N  N89  1  0.35887000  0.96590000  0.63659000  1.0
  N  N90  1  0.59794000  0.16250000  0.50423000  1.0
  N  N91  1  0.40206000  0.83750000  0.49577000  1.0
  N  N92  1  0.23443000  0.80702000  0.00527000  1.0
  N  N93  1  0.76557000  0.19297000  0.99473000  1.0
  N  N94  1  0.84589000  0.51603000  0.14994000  1.0
  N  N95  1  0.15412000  0.48397000  0.85007000  1.0
  N  N96  1  0.99151000  0.66001000  0.10091000  1.0
  N  N97  1  0.00849000  0.33999000  0.89910000  1.0
  N  N98  1  0.03507000  0.26768000  0.36229000  1.0
  N  N99  1  0.96494000  0.73232000  0.63771000  1.0
