# generated using pymatgen
data_AgH16C13S(NO)3
_symmetry_space_group_name_H-M   'P 1'
_cell_length_a   8.77914000
_cell_length_b   13.77240000
_cell_length_c   13.88890000
_cell_angle_alpha   109.52900000
_cell_angle_beta   108.39800000
_cell_angle_gamma   90.01930000
_symmetry_Int_Tables_number   1
_chemical_formula_structural   AgH16C13S(NO)3
_chemical_formula_sum   'Ag4 H64 C52 S4 N12 O12'
_cell_volume   1491.24666094
_cell_formula_units_Z   4
loop_
 _symmetry_equiv_pos_site_id
 _symmetry_equiv_pos_as_xyz
  1  'x, y, z'
loop_
 _atom_site_type_symbol
 _atom_site_label
 _atom_site_symmetry_multiplicity
 _atom_site_fract_x
 _atom_site_fract_y
 _atom_site_fract_z
 _atom_site_occupancy
  Ag  Ag0  1  0.81337000  0.06186000  0.26035000  1.0
  Ag  Ag1  1  0.55328000  0.43822000  0.73969000  1.0
  Ag  Ag2  1  0.18661000  0.93814000  0.73964000  1.0
  Ag  Ag3  1  0.44673000  0.56179000  0.26031000  1.0
  H  H4  1  0.44649000  0.05877000  0.16995000  1.0
  H  H5  1  0.27667000  0.44140000  0.83000000  1.0
  H  H6  1  0.55350000  0.94123000  0.83003000  1.0
  H  H7  1  0.72335000  0.55859000  0.17001000  1.0
  H  H8  1  0.84575000  0.97477000  0.60894000  1.0
  H  H9  1  0.23693000  0.52526000  0.39114000  1.0
  H  H10  1  0.15426000  0.02524000  0.39106000  1.0
  H  H11  1  0.76307000  0.47474000  0.60886000  1.0
  H  H12  1  0.61610000  0.00466000  0.34266000  1.0
  H  H13  1  0.27340000  0.49501000  0.65735000  1.0
  H  H14  1  0.38390000  0.99535000  0.65734000  1.0
  H  H15  1  0.72659000  0.50498000  0.34265000  1.0
  H  H16  1  0.63987000  0.09468000  0.47514000  1.0
  H  H17  1  0.16480000  0.40509000  0.52485000  1.0
  H  H18  1  0.36013000  0.90533000  0.52486000  1.0
  H  H19  1  0.83519000  0.59490000  0.47514000  1.0
  H  H20  1  0.59336000  0.96032000  0.44524000  1.0
  H  H21  1  0.14807000  0.53944000  0.55492000  1.0
  H  H22  1  0.40665000  0.03969000  0.55477000  1.0
  H  H23  1  0.85193000  0.46057000  0.44509000  1.0
  H  H24  1  0.08991000  0.96864000  0.92569000  1.0
  H  H25  1  0.16430000  0.53131000  0.07453000  1.0
  H  H26  1  0.91008000  0.03137000  0.07431000  1.0
  H  H27  1  0.83574000  0.46869000  0.92549000  1.0
  H  H28  1  0.16238000  0.03396000  0.07099000  1.0
  H  H29  1  0.09133000  0.46617000  0.92920000  1.0
  H  H30  1  0.83761000  0.96604000  0.92901000  1.0
  H  H31  1  0.90868000  0.53384000  0.07082000  1.0
  H  H32  1  0.14678000  0.10456000  0.98384000  1.0
  H  H33  1  0.16285000  0.39540000  0.01616000  1.0
  H  H34  1  0.85321000  0.89544000  0.01615000  1.0
  H  H35  1  0.83716000  0.60459000  0.98385000  1.0
  H  H36  1  0.85140000  0.27757000  0.33341000  1.0
  H  H37  1  0.51802000  0.22240000  0.66659000  1.0
  H  H38  1  0.14859000  0.72243000  0.66659000  1.0
  H  H39  1  0.48198000  0.77761000  0.33341000  1.0
  H  H40  1  0.78316000  0.24964000  0.42439000  1.0
  H  H41  1  0.35894000  0.25032000  0.57564000  1.0
  H  H42  1  0.21683000  0.75036000  0.57561000  1.0
  H  H43  1  0.64106000  0.74968000  0.42437000  1.0
  H  H44  1  0.15654000  0.29511000  0.14873000  1.0
  H  H45  1  0.00741000  0.20446000  0.85100000  1.0
  H  H46  1  0.84344000  0.70488000  0.85125000  1.0
  H  H47  1  0.99259000  0.79554000  0.14901000  1.0
  H  H48  1  0.37689000  0.31985000  0.07802000  1.0
  H  H49  1  0.29835000  0.17972000  0.92174000  1.0
  H  H50  1  0.62310000  0.68014000  0.92196000  1.0
  H  H51  1  0.70166000  0.82028000  0.07827000  1.0
  H  H52  1  0.50620000  0.22479000  0.40644000  1.0
  H  H53  1  0.10003000  0.27518000  0.59359000  1.0
  H  H54  1  0.49379000  0.77521000  0.59356000  1.0
  H  H55  1  0.89998000  0.72482000  0.40642000  1.0
  H  H56  1  0.64446000  0.31889000  0.08171000  1.0
  H  H57  1  0.56242000  0.18096000  0.91823000  1.0
  H  H58  1  0.35553000  0.68110000  0.91828000  1.0
  H  H59  1  0.43758000  0.81905000  0.08177000  1.0
  H  H60  1  0.75047000  0.22612000  0.13197000  1.0
  H  H61  1  0.61826000  0.27377000  0.86796000  1.0
  H  H62  1  0.24952000  0.77388000  0.86803000  1.0
  H  H63  1  0.38174000  0.72623000  0.13204000  1.0
  H  H64  1  0.79415000  0.35759000  0.21282000  1.0
  H  H65  1  0.58100000  0.14230000  0.78708000  1.0
  H  H66  1  0.20584000  0.64240000  0.78717000  1.0
  H  H67  1  0.41900000  0.85770000  0.21292000  1.0
  C  C68  1  0.47088000  0.03215000  0.09362000  1.0
  C  C69  1  0.37727000  0.46797000  0.90638000  1.0
  C  C70  1  0.52911000  0.96785000  0.90638000  1.0
  C  C71  1  0.62275000  0.53203000  0.09364000  1.0
  C  C72  1  0.34451000  0.01402000  0.99619000  1.0
  C  C73  1  0.34827000  0.48597000  0.00380000  1.0
  C  C74  1  0.65548000  0.98599000  0.00380000  1.0
  C  C75  1  0.65176000  0.51403000  0.99621000  1.0
  C  C76  1  0.83781000  0.00729000  0.46522000  1.0
  C  C77  1  0.37256000  0.49266000  0.53481000  1.0
  C  C78  1  0.16218000  0.99272000  0.53478000  1.0
  C  C79  1  0.62743000  0.50734000  0.46520000  1.0
  C  C80  1  0.91428000  0.98653000  0.55988000  1.0
  C  C81  1  0.35443000  0.51347000  0.44018000  1.0
  C  C82  1  0.08572000  0.01348000  0.44012000  1.0
  C  C83  1  0.64557000  0.48651000  0.55981000  1.0
  C  C84  1  0.66133000  0.01679000  0.42965000  1.0
  C  C85  1  0.23165000  0.48299000  0.57039000  1.0
  C  C86  1  0.33867000  0.98322000  0.57035000  1.0
  C  C87  1  0.76834000  0.51700000  0.42961000  1.0
  C  C88  1  0.17637000  0.03025000  0.99422000  1.0
  C  C89  1  0.18210000  0.46978000  0.00588000  1.0
  C  C90  1  0.82362000  0.96976000  0.00577000  1.0
  C  C91  1  0.81792000  0.53022000  0.99414000  1.0
  C  C92  1  0.31910000  0.25554000  0.28003000  1.0
  C  C93  1  0.03904000  0.24433000  0.71992000  1.0
  C  C94  1  0.68088000  0.74445000  0.71996000  1.0
  C  C95  1  0.96096000  0.75568000  0.28008000  1.0
  C  C96  1  0.28044000  0.28404000  0.18824000  1.0
  C  C97  1  0.09197000  0.21569000  0.81162000  1.0
  C  C98  1  0.71954000  0.71596000  0.81175000  1.0
  C  C99  1  0.90804000  0.78431000  0.18838000  1.0
  C  C100  1  0.40430000  0.29850000  0.14994000  1.0
  C  C101  1  0.25401000  0.20125000  0.84994000  1.0
  C  C102  1  0.59569000  0.70149000  0.85005000  1.0
  C  C103  1  0.74601000  0.79876000  0.15006000  1.0
  C  C104  1  0.56460000  0.28543000  0.19966000  1.0
  C  C105  1  0.36475000  0.21448000  0.80033000  1.0
  C  C106  1  0.43540000  0.71457000  0.80034000  1.0
  C  C107  1  0.63527000  0.78553000  0.19967000  1.0
  C  C108  1  0.60208000  0.25925000  0.29408000  1.0
  C  C109  1  0.30797000  0.24066000  0.70592000  1.0
  C  C110  1  0.39791000  0.74075000  0.70592000  1.0
  C  C111  1  0.69204000  0.75934000  0.29408000  1.0
  C  C112  1  0.47772000  0.24448000  0.33352000  1.0
  C  C113  1  0.14429000  0.25548000  0.66652000  1.0
  C  C114  1  0.52227000  0.75553000  0.66649000  1.0
  C  C115  1  0.85571000  0.74453000  0.33348000  1.0
  C  C116  1  0.69398000  0.29807000  0.15410000  1.0
  C  C117  1  0.53958000  0.20182000  0.84585000  1.0
  C  C118  1  0.30601000  0.70192000  0.84589000  1.0
  C  C119  1  0.46043000  0.79818000  0.15415000  1.0
  S  S120  1  0.16056000  0.22786000  0.32504000  1.0
  S  S121  1  0.83559000  0.27197000  0.67483000  1.0
  S  S122  1  0.83944000  0.77214000  0.67495000  1.0
  S  S123  1  0.16441000  0.72803000  0.32518000  1.0
  N  N124  1  0.75876000  0.24220000  0.34474000  1.0
  N  N125  1  0.41408000  0.25774000  0.65528000  1.0
  N  N126  1  0.24124000  0.75780000  0.65526000  1.0
  N  N127  1  0.58592000  0.74225000  0.34472000  1.0
  N  N128  1  0.92668000  0.02081000  0.40604000  1.0
  N  N129  1  0.52056000  0.47916000  0.59391000  1.0
  N  N130  1  0.07332000  0.97919000  0.59396000  1.0
  N  N131  1  0.47944000  0.52084000  0.40609000  1.0
  N  N132  1  0.62436000  0.01856000  0.09832000  1.0
  N  N133  1  0.52611000  0.48159000  0.90175000  1.0
  N  N134  1  0.37563000  0.98144000  0.90168000  1.0
  N  N135  1  0.47391000  0.51840000  0.09826000  1.0
  O  O136  1  0.07521000  0.12615000  0.24440000  1.0
  O  O137  1  0.83085000  0.37374000  0.75535000  1.0
  O  O138  1  0.92478000  0.87385000  0.75560000  1.0
  O  O139  1  0.16916000  0.62626000  0.24465000  1.0
  O  O140  1  0.23843000  0.22278000  0.43337000  1.0
  O  O141  1  0.80538000  0.27697000  0.56648000  1.0
  O  O142  1  0.76155000  0.77722000  0.56661000  1.0
  O  O143  1  0.19461000  0.72302000  0.43353000  1.0
  O  O144  1  0.05847000  0.31260000  0.32479000  1.0
  O  O145  1  0.73362000  0.18728000  0.67513000  1.0
  O  O146  1  0.94153000  0.68740000  0.67522000  1.0
  O  O147  1  0.26639000  0.81273000  0.32489000  1.0
