# generated using pymatgen
data_Zn4H10C24S4N4Cl2O13
_symmetry_space_group_name_H-M   'P 1'
_cell_length_a   19.67970000
_cell_length_b   19.69290000
_cell_length_c   33.41100000
_cell_angle_alpha   79.11510000
_cell_angle_beta   79.14830000
_cell_angle_gamma   63.88450000
_symmetry_Int_Tables_number   1
_chemical_formula_structural   Zn4H10C24S4N4Cl2O13
_chemical_formula_sum   'Zn16 H40 C96 S16 N16 Cl8 O52'
_cell_volume   11335.87615208
_cell_formula_units_Z   4
loop_
 _symmetry_equiv_pos_site_id
 _symmetry_equiv_pos_as_xyz
  1  'x, y, z'
loop_
 _atom_site_type_symbol
 _atom_site_label
 _atom_site_symmetry_multiplicity
 _atom_site_fract_x
 _atom_site_fract_y
 _atom_site_fract_z
 _atom_site_occupancy
  Zn  Zn0  1  0.59940000  0.94490000  0.52182000  1.0
  Zn  Zn1  1  0.51667000  0.01607000  0.43965000  1.0
  Zn  Zn2  1  0.44009000  0.94068000  0.51815000  1.0
  Zn  Zn3  1  0.44314000  0.09874000  0.52037000  1.0
  Zn  Zn4  1  0.65069000  0.30595000  0.72767000  1.0
  Zn  Zn5  1  0.81029000  0.31070000  0.73333000  1.0
  Zn  Zn6  1  0.73214000  0.23178000  0.80944000  1.0
  Zn  Zn7  1  0.80664000  0.15206000  0.72921000  1.0
  Zn  Zn8  1  0.23385000  0.73355000  0.31000000  1.0
  Zn  Zn9  1  0.30442000  0.65108000  0.22820000  1.0
  Zn  Zn10  1  0.15059000  0.80791000  0.22911000  1.0
  Zn  Zn11  1  0.30984000  0.80943000  0.23141000  1.0
  Zn  Zn12  1  0.93926000  0.44031000  0.01628000  1.0
  Zn  Zn13  1  0.94546000  0.59823000  0.02211000  1.0
  Zn  Zn14  1  0.09940000  0.44239000  0.02060000  1.0
  Zn  Zn15  1  0.01814000  0.51868000  0.94030000  1.0
  H  H16  1  0.55199000  0.24953000  0.65115000  1.0
  H  H17  1  0.69761000  0.00057000  0.59884000  1.0
  H  H18  1  0.30034000  0.79931000  0.39821000  1.0
  H  H19  1  0.45052000  0.95022000  0.35127000  1.0
  H  H20  1  0.85104000  0.35263000  0.95004000  1.0
  H  H21  1  0.89923000  0.39814000  0.79944000  1.0
  H  H22  1  0.00018000  0.69779000  0.09915000  1.0
  H  H23  1  0.24940000  0.55184000  0.15124000  1.0
  H  H24  1  0.44538000  0.68480000  0.60442000  1.0
  H  H25  1  0.44793000  0.76637000  0.57387000  1.0
  H  H26  1  0.79703000  0.57478000  0.65501000  1.0
  H  H27  1  0.80045000  0.48624000  0.67827000  1.0
  H  H28  1  0.47541000  0.23502000  0.31423000  1.0
  H  H29  1  0.48272000  0.16525000  0.35620000  1.0
  H  H30  1  0.29648000  0.51547000  0.43555000  1.0
  H  H31  1  0.27276000  0.58466000  0.39319000  1.0
  H  H32  1  0.73443000  0.95332000  0.31432000  1.0
  H  H33  1  0.66531000  0.97711000  0.35666000  1.0
  H  H34  1  0.01506000  0.77469000  0.43566000  1.0
  H  H35  1  0.08495000  0.76714000  0.39372000  1.0
  H  H36  1  0.19594000  0.25648000  0.61500000  1.0
  H  H37  1  0.27466000  0.20422000  0.58210000  1.0
  H  H38  1  0.06409000  0.98592000  0.64420000  1.0
  H  H39  1  0.97726000  0.04495000  0.66944000  1.0
  H  H40  1  0.51517000  0.27679000  0.93499000  1.0
  H  H41  1  0.58538000  0.26715000  0.89288000  1.0
  H  H42  1  0.23369000  0.45563000  0.81405000  1.0
  H  H43  1  0.16462000  0.47878000  0.85660000  1.0
  H  H44  1  0.91280000  0.85472000  0.77440000  1.0
  H  H45  1  0.88158000  0.95268000  0.76116000  1.0
  H  H46  1  0.81478000  0.89614000  0.97542000  1.0
  H  H47  1  0.86282000  0.79817000  0.98943000  1.0
  H  H48  1  0.56489000  0.48377000  0.14422000  1.0
  H  H49  1  0.47844000  0.54234000  0.16993000  1.0
  H  H50  1  0.69595000  0.75476000  0.11604000  1.0
  H  H51  1  0.77427000  0.70330000  0.08289000  1.0
  H  H52  1  0.29607000  0.07574000  0.15504000  1.0
  H  H53  1  0.29996000  0.98699000  0.17807000  1.0
  H  H54  1  0.94409000  0.18440000  0.10483000  1.0
  H  H55  1  0.94639000  0.26595000  0.07419000  1.0
  C  C56  1  0.68420000  0.93984000  0.43756000  1.0
  C  C57  1  0.42996000  0.93064000  0.43157000  1.0
  C  C58  1  0.56146000  0.81511000  0.56150000  1.0
  C  C59  1  0.31467000  0.06280000  0.56179000  1.0
  C  C60  1  0.56675000  0.07094000  0.56902000  1.0
  C  C61  1  0.43772000  0.18403000  0.43696000  1.0
  C  C62  1  0.68967000  0.43491000  0.68790000  1.0
  C  C63  1  0.81939000  0.31735000  0.81958000  1.0
  C  C64  1  0.56538000  0.31146000  0.81163000  1.0
  C  C65  1  0.81256000  0.06402000  0.81120000  1.0
  C  C66  1  0.68235000  0.17854000  0.68154000  1.0
  C  C67  1  0.93503000  0.18819000  0.68828000  1.0
  C  C68  1  0.31068000  0.56583000  0.31225000  1.0
  C  C69  1  0.17903000  0.68247000  0.18125000  1.0
  C  C70  1  0.06606000  0.81280000  0.31286000  1.0
  C  C71  1  0.18936000  0.93548000  0.18782000  1.0
  C  C72  1  0.32013000  0.81964000  0.31791000  1.0
  C  C73  1  0.43476000  0.68629000  0.18792000  1.0
  C  C74  1  0.81488000  0.56294000  0.06141000  1.0
  C  C75  1  0.07038000  0.56726000  0.06918000  1.0
  C  C76  1  0.06000000  0.31457000  0.06080000  1.0
  C  C77  1  0.18508000  0.43919000  0.93750000  1.0
  C  C78  1  0.93179000  0.43252000  0.92989000  1.0
  C  C79  1  0.93871000  0.68633000  0.93953000  1.0
  C  C80  1  0.59357000  0.10166000  0.59782000  1.0
  C  C81  1  0.65566000  0.14808000  0.65253000  1.0
  C  C82  1  0.55235000  0.17301000  0.61290000  1.0
  C  C83  1  0.69703000  0.07693000  0.63726000  1.0
  C  C84  1  0.58382000  0.19449000  0.63963000  1.0
  C  C85  1  0.66556000  0.05539000  0.61058000  1.0
  C  C86  1  0.40041000  0.90051000  0.40385000  1.0
  C  C87  1  0.34999000  0.84947000  0.34564000  1.0
  C  C88  1  0.35740000  0.85710000  0.41702000  1.0
  C  C89  1  0.39317000  0.89270000  0.33246000  1.0
  C  C90  1  0.33333333  0.83279000  0.38799000  1.0
  C  C91  1  0.41718000  0.91701000  0.36149000  1.0
  C  C92  1  0.54593000  0.69592000  0.59830000  1.0
  C  C93  1  0.70570000  0.55356000  0.65048000  1.0
  C  C94  1  0.58675000  0.74125000  0.58557000  1.0
  C  C95  1  0.66502000  0.50815000  0.66311000  1.0
  C  C96  1  0.66122000  0.62244000  0.62698000  1.0
  C  C97  1  0.58997000  0.62755000  0.62231000  1.0
  C  C98  1  0.42320000  0.27354000  0.36985000  1.0
  C  C99  1  0.32479000  0.47631000  0.37937000  1.0
  C  C100  1  0.41277000  0.25791000  0.41283000  1.0
  C  C101  1  0.33488000  0.49192000  0.33638000  1.0
  C  C102  1  0.35798000  0.39609000  0.39129000  1.0
  C  C103  1  0.39131000  0.35378000  0.35801000  1.0
  C  C104  1  0.77371000  0.92539000  0.37046000  1.0
  C  C105  1  0.97658000  0.82684000  0.37999000  1.0
  C  C106  1  0.75817000  0.91542000  0.41346000  1.0
  C  C107  1  0.99219000  0.83745000  0.33700000  1.0
  C  C108  1  0.89631000  0.85878000  0.39183000  1.0
  C  C109  1  0.85394000  0.89217000  0.35854000  1.0
  C  C110  1  0.19929000  0.15712000  0.60210000  1.0
  C  C111  1  0.04972000  0.09483000  0.64697000  1.0
  C  C112  1  0.24091000  0.08729000  0.58586000  1.0
  C  C113  1  0.00801000  0.16459000  0.66332000  1.0
  C  C114  1  0.12008000  0.09250000  0.62505000  1.0
  C  C115  1  0.12967000  0.15880000  0.62485000  1.0
  C  C116  1  0.84667000  0.34557000  0.84940000  1.0
  C  C117  1  0.90415000  0.40463000  0.90008000  1.0
  C  C118  1  0.83304000  0.33293000  0.89261000  1.0
  C  C119  1  0.91752000  0.41751000  0.85686000  1.0
  C  C120  1  0.86171000  0.36236000  0.91676000  1.0
  C  C121  1  0.88889000  0.38806000  0.83272000  1.0
  C  C122  1  0.47674000  0.32662000  0.87897000  1.0
  C  C123  1  0.27353000  0.42566000  0.87020000  1.0
  C  C124  1  0.49174000  0.33704000  0.83590000  1.0
  C  C125  1  0.25870000  0.41518000  0.91324000  1.0
  C  C126  1  0.35370000  0.39240000  0.85801000  1.0
  C  C127  1  0.39653000  0.35880000  0.89109000  1.0
  C  C128  1  0.87695000  0.91881000  0.82223000  1.0
  C  C129  1  0.87492000  0.83165000  0.92837000  1.0
  C  C130  1  0.83745000  0.99096000  0.83604000  1.0
  C  C131  1  0.91468000  0.75941000  0.91467000  1.0
  C  C132  1  0.86074000  0.88949000  0.89417000  1.0
  C  C133  1  0.88970000  0.86078000  0.85636000  1.0
  C  C134  1  0.14826000  0.65580000  0.15243000  1.0
  C  C135  1  0.10131000  0.59387000  0.09794000  1.0
  C  C136  1  0.07687000  0.69729000  0.13731000  1.0
  C  C137  1  0.17276000  0.55243000  0.11300000  1.0
  C  C138  1  0.05518000  0.66578000  0.11072000  1.0
  C  C139  1  0.19442000  0.58391000  0.13964000  1.0
  C  C140  1  0.55027000  0.59283000  0.14697000  1.0
  C  C141  1  0.69887000  0.65651000  0.10203000  1.0
  C  C142  1  0.50815000  0.66249000  0.16333000  1.0
  C  C143  1  0.74095000  0.58701000  0.08556000  1.0
  C  C144  1  0.62940000  0.65770000  0.12471000  1.0
  C  C145  1  0.62035000  0.59111000  0.12484000  1.0
  C  C146  1  0.20497000  0.05423000  0.15041000  1.0
  C  C147  1  0.04454000  0.19580000  0.09845000  1.0
  C  C148  1  0.16443000  0.00870000  0.16318000  1.0
  C  C149  1  0.08511000  0.24122000  0.08538000  1.0
  C  C150  1  0.08886000  0.12778000  0.12255000  1.0
  C  C151  1  0.16013000  0.12302000  0.12697000  1.0
  S  S152  1  0.67707000  0.70022000  0.60232000  1.0
  S  S153  1  0.57492000  0.54889000  0.64610000  1.0
  S  S154  1  0.36425000  0.33977000  0.43786000  1.0
  S  S155  1  0.38309000  0.41006000  0.31136000  1.0
  S  S156  1  0.84011000  0.86710000  0.43849000  1.0
  S  S157  1  0.91022000  0.88609000  0.31195000  1.0
  S  S158  1  0.19522000  0.02605000  0.59780000  1.0
  S  S159  1  0.05374000  0.22583000  0.65136000  1.0
  S  S160  1  0.40938000  0.38604000  0.81122000  1.0
  S  S161  1  0.34098000  0.36652000  0.93794000  1.0
  S  S162  1  0.81727000  0.98750000  0.88945000  1.0
  S  S163  1  0.93492000  0.76278000  0.86123000  1.0
  S  S164  1  0.55320000  0.72436000  0.15132000  1.0
  S  S165  1  0.69573000  0.52533000  0.09731000  1.0
  S  S166  1  0.07409000  0.04912000  0.14656000  1.0
  S  S167  1  0.17555000  0.20082000  0.10194000  1.0
  N  N168  1  0.47582000  0.71321000  0.58829000  1.0
  N  N169  1  0.77782000  0.53391000  0.65829000  1.0
  N  N170  1  0.45650000  0.22001000  0.34331000  1.0
  N  N171  1  0.28654000  0.52974000  0.40582000  1.0
  N  N172  1  0.72019000  0.96369000  0.34398000  1.0
  N  N173  1  0.03014000  0.79336000  0.40655000  1.0
  N  N174  1  0.22092000  0.21539000  0.59608000  1.0
  N  N175  1  0.02585000  0.03865000  0.65036000  1.0
  N  N176  1  0.53035000  0.29292000  0.90540000  1.0
  N  N177  1  0.21973000  0.46378000  0.84402000  1.0
  N  N178  1  0.90165000  0.90610000  0.78224000  1.0
  N  N179  1  0.85504000  0.84473000  0.96838000  1.0
  N  N180  1  0.52669000  0.53638000  0.15059000  1.0
  N  N181  1  0.71988000  0.71540000  0.09607000  1.0
  N  N182  1  0.27714000  0.03470000  0.15812000  1.0
  N  N183  1  0.97443000  0.21278000  0.08853000  1.0
  Cl  Cl184  1  0.46343000  0.23840000  0.60028000  1.0
  Cl  Cl185  1  0.78695000  0.01233000  0.64892000  1.0
  Cl  Cl186  1  0.33173000  0.83030000  0.46777000  1.0
  Cl  Cl187  1  0.42030000  0.91810000  0.28169000  1.0
  Cl  Cl188  1  0.78163000  0.28288000  0.91889000  1.0
  Cl  Cl189  1  0.96748000  0.46909000  0.83054000  1.0
  Cl  Cl190  1  0.01214000  0.78656000  0.14948000  1.0
  Cl  Cl191  1  0.23725000  0.46309000  0.10089000  1.0
  O  O192  1  0.50077000  0.99982000  0.49952000  1.0
  O  O193  1  0.68259000  0.92438000  0.47668000  1.0
  O  O194  1  0.47167000  0.96502000  0.41396000  1.0
  O  O195  1  0.49447000  0.84244000  0.54957000  1.0
  O  O196  1  0.62520000  0.97545000  0.41767000  1.0
  O  O197  1  0.60677000  0.84824000  0.55379000  1.0
  O  O198  1  0.41120000  0.92000000  0.46988000  1.0
  O  O199  1  0.34459000  0.99515000  0.55140000  1.0
  O  O200  1  0.50063000  0.11150000  0.55830000  1.0
  O  O201  1  0.34518000  0.11091000  0.55256000  1.0
  O  O202  1  0.61304000  0.00606000  0.55779000  1.0
  O  O203  1  0.47269000  0.12475000  0.41734000  1.0
  O  O204  1  0.42331000  0.18285000  0.47611000  1.0
  O  O205  1  0.74975000  0.25100000  0.74953000  1.0
  O  O206  1  0.64340000  0.40289000  0.69625000  1.0
  O  O207  1  0.83362000  0.33821000  0.78153000  1.0
  O  O208  1  0.62445000  0.27612000  0.83146000  1.0
  O  O209  1  0.75666000  0.40733000  0.69983000  1.0
  O  O210  1  0.56694000  0.32528000  0.77242000  1.0
  O  O211  1  0.78480000  0.27525000  0.83435000  1.0
  O  O212  1  0.77375000  0.12330000  0.82987000  1.0
  O  O213  1  0.74550000  0.13502000  0.69515000  1.0
  O  O214  1  0.83122000  0.06414000  0.77194000  1.0
  O  O215  1  0.63885000  0.24592000  0.69018000  1.0
  O  O216  1  0.90716000  0.25367000  0.70121000  1.0
  O  O217  1  0.90334000  0.14101000  0.69584000  1.0
  O  O218  1  0.25006000  0.74942000  0.25012000  1.0
  O  O219  1  0.27456000  0.62483000  0.33200000  1.0
  O  O220  1  0.24442000  0.63633000  0.19213000  1.0
  O  O221  1  0.06718000  0.82778000  0.27374000  1.0
  O  O222  1  0.32695000  0.56732000  0.27314000  1.0
  O  O223  1  0.12543000  0.77747000  0.33250000  1.0
  O  O224  1  0.13821000  0.74803000  0.19243000  1.0
  O  O225  1  0.14250000  0.90416000  0.19707000  1.0
  O  O226  1  0.33106000  0.83814000  0.27959000  1.0
  O  O227  1  0.25718000  0.90691000  0.19875000  1.0
  O  O228  1  0.28569000  0.77801000  0.33553000  1.0
  O  O229  1  0.40284000  0.63936000  0.19583000  1.0
  O  O230  1  0.40680000  0.75243000  0.20013000  1.0
  O  O231  1  0.99937000  0.50044000  0.00018000  1.0
  O  O232  1  0.84415000  0.49614000  0.05003000  1.0
  O  O233  1  0.00304000  0.61154000  0.06028000  1.0
  O  O234  1  0.10616000  0.34669000  0.05270000  1.0
  O  O235  1  0.84593000  0.61067000  0.05324000  1.0
  O  O236  1  0.99300000  0.34232000  0.04884000  1.0
  O  O237  1  0.11293000  0.50376000  0.05601000  1.0
  O  O238  1  0.18373000  0.42189000  0.97656000  1.0
  O  O239  1  0.97279000  0.46827000  0.91506000  1.0
  O  O240  1  0.12586000  0.47634000  0.91793000  1.0
  O  O241  1  0.91168000  0.41751000  0.96795000  1.0
  O  O242  1  0.92338000  0.68607000  0.97899000  1.0
  O  O243  1  0.97342000  0.62707000  0.92051000  1.0
