# generated using pymatgen
data_Zn2H10C12S2N2O7
_symmetry_space_group_name_H-M   'P 1'
_cell_length_a   7.96905000
_cell_length_b   9.35097000
_cell_length_c   10.19640000
_cell_angle_alpha   81.60060000
_cell_angle_beta   80.86460000
_cell_angle_gamma   76.20230000
_symmetry_Int_Tables_number   1
_chemical_formula_structural   Zn2H10C12S2N2O7
_chemical_formula_sum   'Zn4 H20 C24 S4 N4 O14'
_cell_volume   723.87973846
_cell_formula_units_Z   2
loop_
 _symmetry_equiv_pos_site_id
 _symmetry_equiv_pos_as_xyz
  1  'x, y, z'
loop_
 _atom_site_type_symbol
 _atom_site_label
 _atom_site_symmetry_multiplicity
 _atom_site_fract_x
 _atom_site_fract_y
 _atom_site_fract_z
 _atom_site_occupancy
  Zn  Zn0  1  0.73885000  0.50385000  0.44187000  1.0
  Zn  Zn1  1  0.26116000  0.49615000  0.55813000  1.0
  Zn  Zn2  1  0.82527000  0.17730000  0.66501000  1.0
  Zn  Zn3  1  0.17472000  0.82270000  0.33499000  1.0
  H  H4  1  0.08493000  0.85903000  0.67264000  1.0
  H  H5  1  0.91507000  0.14097000  0.32736000  1.0
  H  H6  1  0.15727000  0.64758000  0.84420000  1.0
  H  H7  1  0.84273000  0.35242000  0.15580000  1.0
  H  H8  1  0.99301000  0.65831000  0.07872000  1.0
  H  H9  1  0.00700000  0.34170000  0.92128000  1.0
  H  H10  1  0.76086000  0.80112000  0.23709000  1.0
  H  H11  1  0.23914000  0.19888000  0.76292000  1.0
  H  H12  1  0.52633000  0.02358000  0.27525000  1.0
  H  H13  1  0.47367000  0.97642000  0.72475000  1.0
  H  H14  1  0.35828000  0.27346000  0.18588000  1.0
  H  H15  1  0.64172000  0.72655000  0.81412000  1.0
  H  H16  1  0.31172000  0.46974000  0.99131000  1.0
  H  H17  1  0.68828000  0.53026000  0.00869000  1.0
  H  H18  1  0.50591000  0.43597000  0.77371000  1.0
  H  H19  1  0.49409000  0.56403000  0.22629000  1.0
  H  H20  1  0.16032000  0.04625000  0.53449000  1.0
  H  H21  1  0.83968000  0.95375000  0.46551000  1.0
  H  H22  1  0.10763000  0.22153000  0.49370000  1.0
  H  H23  1  0.89237000  0.77847000  0.50630000  1.0
  C  C24  1  0.01702000  0.86317000  0.77382000  1.0
  C  C25  1  0.98298000  0.13683000  0.22618000  1.0
  C  C26  1  0.05724000  0.74323000  0.87256000  1.0
  C  C27  1  0.94276000  0.25677000  0.12744000  1.0
  C  C28  1  0.96778000  0.74977000  0.99983000  1.0
  C  C29  1  0.03222000  0.25023000  0.00017000  1.0
  C  C30  1  0.83760000  0.87705000  0.02894000  1.0
  C  C31  1  0.16240000  0.12295000  0.97106000  1.0
  C  C32  1  0.80678000  0.99286000  0.92351000  1.0
  C  C33  1  0.19322000  0.00714000  0.07649000  1.0
  C  C34  1  0.67407000  0.12380000  0.94662000  1.0
  C  C35  1  0.32593000  0.87620000  0.05338000  1.0
  C  C36  1  0.73510000  0.89112000  0.15709000  1.0
  C  C37  1  0.26490000  0.10888000  0.84292000  1.0
  C  C38  1  0.60633000  0.01441000  0.17826000  1.0
  C  C39  1  0.39367000  0.98559000  0.82174000  1.0
  C  C40  1  0.57270000  0.13373000  0.07393000  1.0
  C  C41  1  0.42730000  0.86627000  0.92607000  1.0
  C  C42  1  0.43992000  0.26231000  0.08959000  1.0
  C  C43  1  0.56008000  0.73769000  0.91041000  1.0
  C  C44  1  0.41455000  0.37026000  0.98202000  1.0
  C  C45  1  0.58545000  0.62974000  0.01798000  1.0
  C  C46  1  0.52275000  0.35220000  0.85984000  1.0
  C  C47  1  0.47725000  0.64779000  0.14016000  1.0
  S  S48  1  0.55792000  0.23553000  0.45663000  1.0
  S  S49  1  0.44208000  0.76447000  0.54337000  1.0
  S  S50  1  0.87727000  0.50203000  0.70710000  1.0
  S  S51  1  0.12273000  0.49797000  0.29290000  1.0
  N  N52  1  0.89606000  0.98480000  0.79868000  1.0
  N  N53  1  0.10393000  0.01520000  0.20132000  1.0
  N  N54  1  0.64981000  0.23212000  0.84316000  1.0
  N  N55  1  0.35018000  0.76788000  0.15684000  1.0
  O  O56  1  0.64687000  0.35310000  0.36919000  1.0
  O  O57  1  0.35313000  0.64690000  0.63081000  1.0
  O  O58  1  0.70540000  0.12327000  0.52694000  1.0
  O  O59  1  0.29460000  0.87673000  0.47306000  1.0
  O  O60  1  0.44743000  0.31533000  0.57458000  1.0
  O  O61  1  0.55257000  0.68467000  0.42542000  1.0
  O  O62  1  0.82622000  0.40060000  0.61034000  1.0
  O  O63  1  0.17378000  0.59940000  0.38966000  1.0
  O  O64  1  0.07636000  0.45069000  0.70089000  1.0
  O  O65  1  0.92364000  0.54931000  0.29911000  1.0
  O  O66  1  0.83142000  0.65443000  0.63339000  1.0
  O  O67  1  0.16858000  0.34556000  0.36661000  1.0
  O  O68  1  0.08165000  0.13922000  0.56167000  1.0
  O  O69  1  0.91835000  0.86078000  0.43833000  1.0
