# generated using pymatgen
data_CoH17C25N3O4
_symmetry_space_group_name_H-M   'P 1'
_cell_length_a   9.81855000
_cell_length_b   11.36165461
_cell_length_c   25.92618873
_cell_angle_alpha   82.74587105
_cell_angle_beta   79.11875015
_cell_angle_gamma   64.41739657
_symmetry_Int_Tables_number   1
_chemical_formula_structural   CoH17C25N3O4
_chemical_formula_sum   'Co4 H68 C100 N12 O16'
_cell_volume   2558.48056259
_cell_formula_units_Z   4
loop_
 _symmetry_equiv_pos_site_id
 _symmetry_equiv_pos_as_xyz
  1  'x, y, z'
loop_
 _atom_site_type_symbol
 _atom_site_label
 _atom_site_symmetry_multiplicity
 _atom_site_fract_x
 _atom_site_fract_y
 _atom_site_fract_z
 _atom_site_occupancy
  Co  Co0  1  0.30684000  0.10258000  0.17483000  1.0
  Co  Co1  1  0.41543000  0.60212000  0.67485000  1.0
  Co  Co2  1  0.58457000  0.39787000  0.32515000  1.0
  Co  Co3  1  0.69317000  0.89742000  0.82517000  1.0
  H  H4  1  0.21078000  0.73948000  0.17185000  1.0
  H  H5  1  0.81945000  0.10668000  0.16820000  1.0
  H  H6  1  0.76020000  0.75052000  0.18248000  1.0
  H  H7  1  0.36158000  0.31230000  0.22142000  1.0
  H  H8  1  0.25683000  0.55369000  0.21774000  1.0
  H  H9  1  0.88225000  0.56136000  0.15019000  1.0
  H  H10  1  0.00389000  0.31942000  0.15664000  1.0
  H  H11  1  0.20294000  0.97253000  0.44439000  1.0
  H  H12  1  0.13428000  0.22564000  0.28264000  1.0
  H  H13  1  0.12706000  0.15118000  0.37659000  1.0
  H  H14  1  0.42680000  0.76028000  0.32734000  1.0
  H  H15  1  0.42823000  0.85492000  0.23514000  1.0
  H  H16  1  0.46935000  0.71580000  0.40470000  1.0
  H  H17  1  0.62814000  0.52498000  0.57019000  1.0
  H  H18  1  0.62076000  0.59321000  0.47482000  1.0
  H  H19  1  0.15199000  0.86674000  0.51862000  1.0
  H  H20  1  0.17979000  0.78689000  0.61127000  1.0
  H  H21  1  0.87733000  0.23894000  0.67193000  1.0
  H  H22  1  0.90525000  0.60620000  0.66822000  1.0
  H  H23  1  0.30646000  0.25010000  0.68223000  1.0
  H  H24  1  0.10479000  0.81156000  0.72162000  1.0
  H  H25  1  0.97172000  0.05295000  0.71791000  1.0
  H  H26  1  0.40552000  0.06103000  0.65000000  1.0
  H  H27  1  0.51958000  0.81905000  0.65655000  1.0
  H  H28  1  0.37960000  0.47260000  0.94453000  1.0
  H  H29  1  0.35732000  0.72560000  0.78267000  1.0
  H  H30  1  0.34488000  0.65132000  0.87666000  1.0
  H  H31  1  0.48610000  0.26015000  0.82749000  1.0
  H  H32  1  0.48177000  0.35467000  0.73528000  1.0
  H  H33  1  0.41044000  0.21566000  0.90466000  1.0
  H  H34  1  0.27612000  0.02518000  0.07016000  1.0
  H  H35  1  0.31115000  0.09304000  0.97476000  1.0
  H  H36  1  0.46230000  0.36685000  0.01868000  1.0
  H  H37  1  0.42117000  0.28738000  0.11135000  1.0
  H  H38  1  0.12268000  0.76105000  0.32807000  1.0
  H  H39  1  0.09476000  0.39378000  0.33179000  1.0
  H  H40  1  0.69355000  0.74989000  0.31778000  1.0
  H  H41  1  0.89520000  0.18845000  0.27839000  1.0
  H  H42  1  0.02828000  0.94706000  0.28209000  1.0
  H  H43  1  0.59448000  0.93898000  0.35001000  1.0
  H  H44  1  0.48041000  0.18095000  0.34346000  1.0
  H  H45  1  0.62038000  0.52740000  0.05547000  1.0
  H  H46  1  0.64268000  0.27440000  0.21733000  1.0
  H  H47  1  0.65512000  0.34868000  0.12334000  1.0
  H  H48  1  0.51390000  0.73985000  0.17250000  1.0
  H  H49  1  0.51822000  0.64534000  0.26472000  1.0
  H  H50  1  0.58957000  0.78433000  0.09533000  1.0
  H  H51  1  0.72388000  0.97483000  0.92984000  1.0
  H  H52  1  0.68885000  0.90695000  0.02524000  1.0
  H  H53  1  0.53769000  0.63315000  0.98131000  1.0
  H  H54  1  0.57883000  0.71264000  0.88864000  1.0
  H  H55  1  0.78922000  0.26054000  0.82814000  1.0
  H  H56  1  0.18053000  0.89333000  0.83179000  1.0
  H  H57  1  0.23983000  0.24946000  0.81752000  1.0
  H  H58  1  0.63844000  0.68768000  0.77857000  1.0
  H  H59  1  0.74321000  0.44628000  0.78226000  1.0
  H  H60  1  0.11778000  0.43862000  0.84981000  1.0
  H  H61  1  0.99613000  0.68057000  0.84336000  1.0
  H  H62  1  0.79705000  0.02748000  0.55561000  1.0
  H  H63  1  0.86572000  0.77435000  0.71736000  1.0
  H  H64  1  0.87292000  0.84883000  0.62341000  1.0
  H  H65  1  0.57322000  0.23973000  0.67266000  1.0
  H  H66  1  0.57179000  0.14508000  0.76486000  1.0
  H  H67  1  0.53063000  0.28420000  0.59531000  1.0
  H  H68  1  0.37185000  0.47503000  0.42981000  1.0
  H  H69  1  0.37923000  0.40680000  0.52518000  1.0
  H  H70  1  0.84801000  0.13327000  0.48139000  1.0
  H  H71  1  0.82022000  0.21311000  0.38874000  1.0
  C  C72  1  0.99412000  0.72529000  0.17810000  1.0
  C  C73  1  0.08751000  0.79216000  0.17321000  1.0
  C  C74  1  0.02467000  0.92868000  0.16955000  1.0
  C  C75  1  0.86756000  0.00043000  0.17036000  1.0
  C  C76  1  0.77339000  0.93546000  0.17407000  1.0
  C  C77  1  0.83676000  0.79879000  0.17811000  1.0
  C  C78  1  0.25627000  0.37142000  0.20547000  1.0
  C  C79  1  0.19678000  0.50698000  0.20286000  1.0
  C  C80  1  0.05990000  0.58134000  0.18258000  1.0
  C  C81  1  0.98873000  0.51120000  0.16645000  1.0
  C  C82  1  0.05584000  0.37577000  0.16959000  1.0
  C  C83  1  0.28354000  0.90233000  0.41570000  1.0
  C  C84  1  0.20164000  0.12400000  0.29400000  1.0
  C  C85  1  0.19664000  0.08093000  0.34666000  1.0
  C  C86  1  0.28122000  0.94867000  0.36091000  1.0
  C  C87  1  0.36424000  0.86490000  0.31940000  1.0
  C  C88  1  0.36405000  0.91609000  0.26809000  1.0
  C  C89  1  0.38238000  0.78376000  0.43296000  1.0
  C  C90  1  0.12548000  0.99726000  0.16696000  1.0
  C  C91  1  0.52605000  0.60219000  0.55688000  1.0
  C  C92  1  0.52066000  0.64026000  0.50396000  1.0
  C  C93  1  0.38681000  0.74002000  0.48803000  1.0
  C  C94  1  0.26150000  0.79276000  0.52801000  1.0
  C  C95  1  0.27575000  0.74863000  0.57982000  1.0
  C  C96  1  0.60527000  0.01044000  0.17405000  1.0
  C  C97  1  0.10208000  0.22472000  0.67800000  1.0
  C  C98  1  0.94664000  0.29163000  0.67321000  1.0
  C  C99  1  0.87664000  0.42815000  0.66956000  1.0
  C  C100  1  0.96120000  0.49996000  0.67034000  1.0
  C  C101  1  0.11664000  0.43497000  0.67396000  1.0
  C  C102  1  0.18593000  0.29829000  0.67794000  1.0
  C  C103  1  0.16676000  0.87076000  0.70559000  1.0
  C  C104  1  0.09324000  0.00631000  0.70295000  1.0
  C  C105  1  0.17580000  0.08076000  0.68252000  1.0
  C  C106  1  0.33314000  0.01075000  0.66634000  1.0
  C  C107  1  0.39841000  0.87531000  0.66953000  1.0
  C  C108  1  0.39823000  0.40235000  0.91580000  1.0
  C  C109  1  0.38022000  0.62396000  0.79406000  1.0
  C  C110  1  0.37558000  0.58097000  0.84675000  1.0
  C  C111  1  0.40920000  0.44868000  0.86101000  1.0
  C  C112  1  0.45174000  0.36480000  0.81951000  1.0
  C  C113  1  0.45179000  0.41593000  0.76820000  1.0
  C  C114  1  0.40088000  0.28367000  0.93297000  1.0
  C  C115  1  0.70989000  0.49676000  0.66701000  1.0
  C  C116  1  0.31433000  0.10239000  0.05686000  1.0
  C  C117  1  0.33483000  0.14026000  0.00393000  1.0
  C  C118  1  0.38486000  0.24002000  0.98804000  1.0
  C  C119  1  0.41727000  0.29291000  0.02805000  1.0
  C  C120  1  0.39504000  0.24900000  0.07988000  1.0
  C  C121  1  0.20973000  0.51002000  0.67400000  1.0
  C  C122  1  0.89793000  0.77527000  0.32201000  1.0
  C  C123  1  0.05336000  0.70837000  0.32680000  1.0
  C  C124  1  0.12337000  0.57184000  0.33044000  1.0
  C  C125  1  0.03881000  0.50003000  0.32967000  1.0
  C  C126  1  0.88336000  0.56501000  0.32605000  1.0
  C  C127  1  0.81406000  0.70170000  0.32208000  1.0
  C  C128  1  0.83324000  0.12924000  0.29441000  1.0
  C  C129  1  0.90677000  0.99368000  0.29705000  1.0
  C  C130  1  0.82420000  0.91924000  0.31748000  1.0
  C  C131  1  0.66687000  0.98925000  0.33367000  1.0
  C  C132  1  0.60159000  0.12470000  0.33047000  1.0
  C  C133  1  0.60177000  0.59765000  0.08420000  1.0
  C  C134  1  0.61977000  0.37605000  0.20593000  1.0
  C  C135  1  0.62442000  0.41903000  0.15325000  1.0
  C  C136  1  0.59079000  0.55132000  0.13899000  1.0
  C  C137  1  0.54827000  0.63519000  0.18049000  1.0
  C  C138  1  0.54820000  0.58407000  0.23180000  1.0
  C  C139  1  0.59911000  0.71633000  0.06702000  1.0
  C  C140  1  0.29014000  0.50322000  0.33299000  1.0
  C  C141  1  0.68566000  0.89762000  0.94314000  1.0
  C  C142  1  0.66516000  0.85974000  0.99607000  1.0
  C  C143  1  0.61512000  0.75999000  0.01196000  1.0
  C  C144  1  0.58272000  0.70710000  0.97194000  1.0
  C  C145  1  0.60497000  0.75101000  0.92011000  1.0
  C  C146  1  0.79026000  0.48997000  0.32600000  1.0
  C  C147  1  0.00590000  0.27470000  0.82190000  1.0
  C  C148  1  0.91249000  0.20785000  0.82679000  1.0
  C  C149  1  0.97531000  0.07134000  0.83045000  1.0
  C  C150  1  0.13242000  0.99957000  0.82965000  1.0
  C  C151  1  0.22660000  0.06453000  0.82593000  1.0
  C  C152  1  0.16324000  0.20120000  0.82190000  1.0
  C  C153  1  0.74374000  0.62857000  0.79453000  1.0
  C  C154  1  0.80323000  0.49301000  0.79714000  1.0
  C  C155  1  0.94011000  0.41866000  0.81742000  1.0
  C  C156  1  0.01129000  0.48879000  0.83355000  1.0
  C  C157  1  0.94417000  0.62422000  0.83041000  1.0
  C  C158  1  0.71646000  0.09767000  0.58430000  1.0
  C  C159  1  0.79835000  0.87600000  0.70600000  1.0
  C  C160  1  0.80335000  0.91908000  0.65333000  1.0
  C  C161  1  0.71878000  0.05133000  0.63909000  1.0
  C  C162  1  0.63577000  0.13511000  0.68060000  1.0
  C  C163  1  0.63596000  0.08391000  0.73191000  1.0
  C  C164  1  0.61762000  0.21624000  0.56704000  1.0
  C  C165  1  0.87449000  0.00276000  0.83305000  1.0
  C  C166  1  0.47395000  0.39781000  0.44312000  1.0
  C  C167  1  0.47934000  0.35974000  0.49604000  1.0
  C  C168  1  0.61318000  0.25999000  0.51197000  1.0
  C  C169  1  0.73849000  0.20725000  0.47200000  1.0
  C  C170  1  0.72426000  0.25138000  0.42018000  1.0
  C  C171  1  0.39471000  0.98956000  0.82595000  1.0
  N  N172  1  0.18931000  0.30518000  0.18819000  1.0
  N  N173  1  0.28614000  0.04401000  0.25466000  1.0
  N  N174  1  0.40636000  0.65566000  0.59492000  1.0
  N  N175  1  0.31712000  0.80463000  0.68823000  1.0
  N  N176  1  0.41502000  0.54388000  0.75475000  1.0
  N  N177  1  0.34221000  0.15607000  0.09493000  1.0
  N  N178  1  0.68287000  0.19537000  0.31178000  1.0
  N  N179  1  0.58497000  0.45612000  0.24525000  1.0
  N  N180  1  0.65779000  0.84395000  0.90506000  1.0
  N  N181  1  0.81071000  0.69480000  0.81181000  1.0
  N  N182  1  0.71386000  0.95599000  0.74534000  1.0
  N  N183  1  0.59365000  0.34434000  0.40508000  1.0
  O  O184  1  0.27019000  0.93293000  0.15831000  1.0
  O  O185  1  0.06749000  0.11890000  0.17487000  1.0
  O  O186  1  0.53157000  0.94891000  0.16376000  1.0
  O  O187  1  0.53810000  0.13046000  0.18394000  1.0
  O  O188  1  0.63798000  0.43249000  0.65840000  1.0
  O  O189  1  0.63848000  0.61841000  0.67490000  1.0
  O  O190  1  0.35524000  0.44845000  0.66392000  1.0
  O  O191  1  0.14696000  0.63011000  0.68378000  1.0
  O  O192  1  0.36203000  0.56750000  0.34160000  1.0
  O  O193  1  0.36154000  0.38158000  0.32509000  1.0
  O  O194  1  0.64477000  0.55154000  0.33607000  1.0
  O  O195  1  0.85304000  0.36988000  0.31622000  1.0
  O  O196  1  0.72979000  0.06710000  0.84168000  1.0
  O  O197  1  0.93247000  0.88113000  0.82514000  1.0
  O  O198  1  0.46845000  0.05106000  0.83624000  1.0
  O  O199  1  0.46188000  0.86954000  0.81606000  1.0
