# generated using pymatgen
data_AlH12C27(NO6)3
_symmetry_space_group_name_H-M   'P 1'
_cell_length_a   4.21386000
_cell_length_b   27.98905000
_cell_length_c   27.98910000
_cell_angle_alpha   59.99982272
_cell_angle_beta   90.00050000
_cell_angle_gamma   89.99900000
_symmetry_Int_Tables_number   1
_chemical_formula_structural   AlH12C27(NO6)3
_chemical_formula_sum   'Al2 H24 C54 N6 O36'
_cell_volume   2858.82156923
_cell_formula_units_Z   2
loop_
 _symmetry_equiv_pos_site_id
 _symmetry_equiv_pos_as_xyz
  1  'x, y, z'
loop_
 _atom_site_type_symbol
 _atom_site_label
 _atom_site_symmetry_multiplicity
 _atom_site_fract_x
 _atom_site_fract_y
 _atom_site_fract_z
 _atom_site_occupancy
  Al  Al0  1  0.00114000  0.49999000  0.00000000  1.0
  Al  Al1  1  0.02407000  0.16667000  0.66667000  1.0
  H  H2  1  0.73798000  0.30107000  0.51151000  1.0
  H  H3  1  0.70147000  0.34975000  0.40815000  1.0
  H  H4  1  0.56396000  0.45988000  0.25336000  1.0
  H  H5  1  0.53352000  0.30211000  0.26120000  1.0
  H  H6  1  0.73799000  0.18743000  0.80107000  1.0
  H  H7  1  0.70144000  0.24210000  0.84976000  1.0
  H  H8  1  0.56405000  0.28675000  0.95988000  1.0
  H  H9  1  0.53358000  0.43669000  0.80212000  1.0
  H  H10  1  0.73798000  0.01150000  0.68742000  1.0
  H  H11  1  0.70145000  0.90815000  0.74210000  1.0
  H  H12  1  0.56404000  0.75336000  0.78676000  1.0
  H  H13  1  0.53347000  0.76120000  0.93670000  1.0
  H  H14  1  0.65225000  0.10743000  0.55335000  1.0
  H  H15  1  0.27898000  0.25479000  0.34450000  1.0
  H  H16  1  0.95625000  0.51148000  0.10537000  1.0
  H  H17  1  0.15560000  0.33242000  0.13322000  1.0
  H  H18  1  0.65220000  0.33923000  0.60743000  1.0
  H  H19  1  0.27901000  0.40071000  0.75480000  1.0
  H  H20  1  0.95625000  0.38313000  0.01149000  1.0
  H  H21  1  0.15546000  0.53435000  0.83243000  1.0
  H  H22  1  0.65233000  0.05335000  0.83923000  1.0
  H  H23  1  0.27904000  0.84450000  0.90071000  1.0
  H  H24  1  0.95627000  0.60537000  0.88316000  1.0
  H  H25  1  0.15540000  0.63321000  0.03436000  1.0
  C  C26  1  0.50478000  0.58581000  0.95421000  1.0
  C  C27  1  0.50479000  0.45998000  0.08581000  1.0
  C  C28  1  0.50477000  0.45420000  0.95999000  1.0
  C  C29  1  0.52541000  0.20115000  0.58364000  1.0
  C  C30  1  0.52541000  0.21523000  0.70114000  1.0
  C  C31  1  0.52544000  0.08364000  0.71522000  1.0
  C  C32  1  0.51629000  0.22702000  0.52233000  1.0
  C  C33  1  0.63656000  0.28074000  0.49049000  1.0
  C  C34  1  0.61914000  0.30749000  0.43361000  1.0
  C  C35  1  0.49148000  0.27974000  0.40777000  1.0
  C  C36  1  0.38699000  0.22418000  0.43917000  1.0
  C  C37  1  0.39247000  0.19851000  0.49694000  1.0
  C  C38  1  0.54032000  0.43554000  0.23297000  1.0
  C  C39  1  0.51941000  0.37799000  0.26445000  1.0
  C  C40  1  0.51582000  0.34696000  0.23766000  1.0
  C  C41  1  0.51314000  0.37352000  0.18024000  1.0
  C  C42  1  0.51550000  0.43175000  0.14804000  1.0
  C  C43  1  0.54511000  0.46234000  0.17547000  1.0
  C  C44  1  0.51628000  0.25066000  0.72702000  1.0
  C  C45  1  0.63655000  0.22877000  0.78074000  1.0
  C  C46  1  0.61913000  0.25891000  0.80749000  1.0
  C  C47  1  0.49146000  0.31249000  0.77974000  1.0
  C  C48  1  0.38696000  0.33666000  0.72417000  1.0
  C  C49  1  0.39245000  0.30455000  0.69850000  1.0
  C  C50  1  0.54039000  0.33149000  0.93553000  1.0
  C  C51  1  0.51947000  0.35756000  0.87799000  1.0
  C  C52  1  0.51580000  0.41538000  0.84697000  1.0
  C  C53  1  0.51311000  0.44623000  0.87353000  1.0
  C  C54  1  0.51548000  0.42020000  0.93175000  1.0
  C  C55  1  0.54513000  0.36218000  0.96235000  1.0
  C  C56  1  0.51632000  0.02233000  0.75065000  1.0
  C  C57  1  0.63660000  0.99050000  0.72877000  1.0
  C  C58  1  0.61919000  0.93361000  0.75890000  1.0
  C  C59  1  0.49152000  0.90778000  0.81248000  1.0
  C  C60  1  0.38704000  0.93916000  0.83666000  1.0
  C  C61  1  0.39251000  0.99694000  0.80456000  1.0
  C  C62  1  0.54038000  0.73297000  0.83150000  1.0
  C  C63  1  0.51944000  0.76445000  0.85757000  1.0
  C  C64  1  0.51577000  0.73765000  0.91539000  1.0
  C  C65  1  0.51309000  0.68023000  0.94624000  1.0
  C  C66  1  0.51551000  0.64804000  0.92021000  1.0
  C  C67  1  0.54514000  0.67547000  0.86219000  1.0
  C  C68  1  0.24298000  0.14182000  0.53170000  1.0
  C  C69  1  0.27641000  0.18943000  0.41468000  1.0
  C  C70  1  0.62051000  0.52291000  0.14760000  1.0
  C  C71  1  0.58630000  0.33885000  0.15445000  1.0
  C  C72  1  0.24295000  0.32648000  0.64182000  1.0
  C  C73  1  0.27639000  0.39590000  0.68942000  1.0
  C  C74  1  0.62051000  0.32947000  0.02291000  1.0
  C  C75  1  0.58617000  0.50669000  0.83886000  1.0
  C  C76  1  0.24307000  0.03170000  0.82648000  1.0
  C  C77  1  0.27652000  0.91468000  0.89590000  1.0
  C  C78  1  0.62056000  0.64761000  0.82949000  1.0
  C  C79  1  0.58616000  0.65444000  0.00671000  1.0
  N  N80  1  0.45978000  0.30499000  0.35014000  1.0
  N  N81  1  0.54010000  0.35523000  0.32200000  1.0
  N  N82  1  0.45978000  0.34487000  0.80500000  1.0
  N  N83  1  0.54018000  0.32277000  0.85524000  1.0
  N  N84  1  0.45979000  0.85013000  0.84487000  1.0
  N  N85  1  0.54014000  0.82199000  0.82278000  1.0
  O  O86  1  0.26230000  0.44790000  0.99034000  1.0
  O  O87  1  0.26232000  0.56175000  0.94791000  1.0
  O  O88  1  0.26231000  0.49034000  0.06176000  1.0
  O  O89  1  0.73390000  0.48712000  0.95153000  1.0
  O  O90  1  0.73392000  0.45153000  0.06134000  1.0
  O  O91  1  0.73394000  0.56134000  0.98713000  1.0
  O  O92  1  0.29325000  0.11005000  0.71996000  1.0
  O  O93  1  0.29322000  0.17000000  0.61004000  1.0
  O  O94  1  0.29321000  0.21996000  0.67000000  1.0
  O  O95  1  0.76250000  0.10416000  0.68291000  1.0
  O  O96  1  0.76248000  0.18291000  0.71294000  1.0
  O  O97  1  0.76249000  0.21293000  0.60416000  1.0
  O  O98  1  0.41673000  0.09794000  0.56127000  1.0
  O  O99  1  0.95060000  0.14079000  0.53426000  1.0
  O  O100  1  0.20550000  0.21538000  0.36073000  1.0
  O  O101  1  0.25142000  0.13955000  0.44393000  1.0
  O  O102  1  0.83964000  0.54136000  0.10635000  1.0
  O  O103  1  0.50482000  0.55298000  0.16234000  1.0
  O  O104  1  0.38734000  0.33254000  0.12238000  1.0
  O  O105  1  0.85491000  0.31845000  0.16441000  1.0
  O  O106  1  0.41666000  0.34080000  0.59795000  1.0
  O  O107  1  0.95054000  0.32496000  0.64080000  1.0
  O  O108  1  0.20556000  0.42390000  0.71539000  1.0
  O  O109  1  0.25135000  0.41653000  0.63955000  1.0
  O  O110  1  0.83967000  0.35226000  0.04136000  1.0
  O  O111  1  0.50472000  0.28466000  0.05298000  1.0
  O  O112  1  0.38719000  0.54506000  0.83256000  1.0
  O  O113  1  0.85482000  0.51714000  0.81845000  1.0
  O  O114  1  0.41680000  0.06127000  0.84079000  1.0
  O  O115  1  0.95071000  0.03425000  0.82496000  1.0
  O  O116  1  0.20562000  0.86072000  0.92390000  1.0
  O  O117  1  0.25155000  0.94392000  0.91653000  1.0
  O  O118  1  0.83969000  0.60636000  0.85228000  1.0
  O  O119  1  0.50485000  0.66235000  0.78467000  1.0
  O  O120  1  0.38718000  0.62238000  0.04506000  1.0
  O  O121  1  0.85478000  0.66442000  0.01715000  1.0
