# generated using pymatgen
data_SbH8C4I3O
_symmetry_space_group_name_H-M   'P 1'
_cell_length_a   7.79071000
_cell_length_b   11.26430000
_cell_length_c   12.43830000
_cell_angle_alpha   89.99930000
_cell_angle_beta   89.99910000
_cell_angle_gamma   92.92170000
_symmetry_Int_Tables_number   1
_chemical_formula_structural   SbH8C4I3O
_chemical_formula_sum   'Sb4 H32 C16 I12 O4'
_cell_volume   1090.12770751
_cell_formula_units_Z   4
loop_
 _symmetry_equiv_pos_site_id
 _symmetry_equiv_pos_as_xyz
  1  'x, y, z'
loop_
 _atom_site_type_symbol
 _atom_site_label
 _atom_site_symmetry_multiplicity
 _atom_site_fract_x
 _atom_site_fract_y
 _atom_site_fract_z
 _atom_site_occupancy
  Sb  Sb0  1  0.78355000  0.06050000  0.06009000  1.0
  Sb  Sb1  1  0.71644000  0.43950000  0.56009000  1.0
  Sb  Sb2  1  0.21644000  0.93951000  0.93991000  1.0
  Sb  Sb3  1  0.28356000  0.56050000  0.43991000  1.0
  H  H4  1  0.87731000  0.74078000  0.87301000  1.0
  H  H5  1  0.62271000  0.75920000  0.37302000  1.0
  H  H6  1  0.12269000  0.25921000  0.12699000  1.0
  H  H7  1  0.37731000  0.24079000  0.62698000  1.0
  H  H8  1  0.69581000  0.80982000  0.92927000  1.0
  H  H9  1  0.80421000  0.69018000  0.42929000  1.0
  H  H10  1  0.30419000  0.19018000  0.07073000  1.0
  H  H11  1  0.19580000  0.30982000  0.57071000  1.0
  H  H12  1  0.73488000  0.56697000  0.95166000  1.0
  H  H13  1  0.76510000  0.93303000  0.45165000  1.0
  H  H14  1  0.26511000  0.43303000  0.04834000  1.0
  H  H15  1  0.23490000  0.06697000  0.54835000  1.0
  H  H16  1  0.64257000  0.65157000  0.05547000  1.0
  H  H17  1  0.85741000  0.84844000  0.55547000  1.0
  H  H18  1  0.35742000  0.34843000  0.94454000  1.0
  H  H19  1  0.14259000  0.15156000  0.44453000  1.0
  H  H20  1  0.88652000  0.56890000  0.14950000  1.0
  H  H21  1  0.61345000  0.93110000  0.64950000  1.0
  H  H22  1  0.11349000  0.43110000  0.85050000  1.0
  H  H23  1  0.38655000  0.06890000  0.35050000  1.0
  H  H24  1  0.02147000  0.59024000  0.03472000  1.0
  H  H25  1  0.47850000  0.90974000  0.53472000  1.0
  H  H26  1  0.97852000  0.40976000  0.96528000  1.0
  H  H27  1  0.52150000  0.09025000  0.46528000  1.0
  H  H28  1  0.88348000  0.78193000  0.18166000  1.0
  H  H29  1  0.61651000  0.71806000  0.68166000  1.0
  H  H30  1  0.11652000  0.21807000  0.81834000  1.0
  H  H31  1  0.38349000  0.28193000  0.31834000  1.0
  H  H32  1  0.09774000  0.77098000  0.13312000  1.0
  H  H33  1  0.40226000  0.72900000  0.63313000  1.0
  H  H34  1  0.90227000  0.22902000  0.86688000  1.0
  H  H35  1  0.59775000  0.27099000  0.36687000  1.0
  C  C36  1  0.80627000  0.75645000  0.94761000  1.0
  C  C37  1  0.69373000  0.74354000  0.44761000  1.0
  C  C38  1  0.19373000  0.24355000  0.05239000  1.0
  C  C39  1  0.30627000  0.25645000  0.55239000  1.0
  C  C40  1  0.75911000  0.64161000  0.00718000  1.0
  C  C41  1  0.74087000  0.85839000  0.50718000  1.0
  C  C42  1  0.24088000  0.35839000  0.99282000  1.0
  C  C43  1  0.25914000  0.14161000  0.49282000  1.0
  C  C44  1  0.91504000  0.62649000  0.07999000  1.0
  C  C45  1  0.58494000  0.87349000  0.57998000  1.0
  C  C46  1  0.08496000  0.37351000  0.92002000  1.0
  C  C47  1  0.41506000  0.12650000  0.42002000  1.0
  C  C48  1  0.96145000  0.75337000  0.11353000  1.0
  C  C49  1  0.53855000  0.74662000  0.61353000  1.0
  C  C50  1  0.03856000  0.24663000  0.88647000  1.0
  C  C51  1  0.46146000  0.25338000  0.38647000  1.0
  I  I52  1  0.68073000  0.28916000  0.10524000  1.0
  I  I53  1  0.81926000  0.21084000  0.60525000  1.0
  I  I54  1  0.31926000  0.71084000  0.89475000  1.0
  I  I55  1  0.18074000  0.78916000  0.39475000  1.0
  I  I56  1  0.97290000  0.04734000  0.25153000  1.0
  I  I57  1  0.52706000  0.45266000  0.75153000  1.0
  I  I58  1  0.02707000  0.95267000  0.74847000  1.0
  I  I59  1  0.47293000  0.54734000  0.24847000  1.0
  I  I60  1  0.49811000  0.93004000  0.15559000  1.0
  I  I61  1  0.00186000  0.56996000  0.65559000  1.0
  I  I62  1  0.50187000  0.06996000  0.84440000  1.0
  I  I63  1  0.99814000  0.43005000  0.34440000  1.0
  O  O64  1  0.92140000  0.82698000  0.02003000  1.0
  O  O65  1  0.57860000  0.67302000  0.52004000  1.0
  O  O66  1  0.07860000  0.17302000  0.97997000  1.0
  O  O67  1  0.42140000  0.32698000  0.47996000  1.0
