# generated using pymatgen
data_LiH10C10NO3
_symmetry_space_group_name_H-M   'P 1'
_cell_length_a   4.96374000
_cell_length_b   7.84031000
_cell_length_c   12.85800000
_cell_angle_alpha   86.32270000
_cell_angle_beta   78.89930000
_cell_angle_gamma   71.56100000
_symmetry_Int_Tables_number   1
_chemical_formula_structural   LiH10C10NO3
_chemical_formula_sum   'Li2 H20 C20 N2 O6'
_cell_volume   465.82369993
_cell_formula_units_Z   2
loop_
 _symmetry_equiv_pos_site_id
 _symmetry_equiv_pos_as_xyz
  1  'x, y, z'
loop_
 _atom_site_type_symbol
 _atom_site_label
 _atom_site_symmetry_multiplicity
 _atom_site_fract_x
 _atom_site_fract_y
 _atom_site_fract_z
 _atom_site_occupancy
  Li  Li0  1  0.76810000  0.87828000  0.51049000  1.0
  Li  Li1  1  0.15694000  0.12150000  0.48950000  1.0
  H  H2  1  0.71666000  0.43030000  0.63204000  1.0
  H  H3  1  0.77822000  0.56961000  0.36788000  1.0
  H  H4  1  0.68718000  0.34401000  0.82768000  1.0
  H  H5  1  0.85691000  0.65598000  0.17222000  1.0
  H  H6  1  0.89676000  0.16963000  0.73706000  1.0
  H  H7  1  0.80260000  0.83014000  0.26288000  1.0
  H  H8  1  0.54613000  0.16971000  0.80263000  1.0
  H  H9  1  0.51711000  0.83037000  0.19742000  1.0
  H  H10  1  0.20200000  0.43743000  0.86166000  1.0
  H  H11  1  0.49914000  0.56270000  0.13844000  1.0
  H  H12  1  0.31559000  0.94779000  0.69858000  1.0
  H  H13  1  0.96057000  0.05193000  0.30135000  1.0
  H  H14  1  0.04161000  0.96166000  0.88218000  1.0
  H  H15  1  0.88285000  0.03853000  0.11768000  1.0
  H  H16  1  0.26868000  0.78054000  0.02669000  1.0
  H  H17  1  0.07245000  0.22028000  0.97335000  1.0
  H  H18  1  0.77820000  0.57586000  0.98436000  1.0
  H  H19  1  0.33579000  0.42449000  0.01573000  1.0
  H  H20  1  0.18116000  0.58653000  0.64700000  1.0
  H  H21  1  0.41449000  0.41304000  0.35299000  1.0
  C  C22  1  0.52752000  0.23255000  0.59430000  1.0
  C  C23  1  0.35383000  0.76732000  0.40573000  1.0
  C  C24  1  0.56096000  0.36368000  0.67314000  1.0
  C  C25  1  0.59683000  0.63619000  0.32685000  1.0
  C  C26  1  0.67711000  0.25542000  0.76682000  1.0
  C  C27  1  0.69802000  0.74450000  0.23317000  1.0
  C  C28  1  0.11782000  0.52265000  0.79741000  1.0
  C  C29  1  0.43619000  0.47736000  0.20267000  1.0
  C  C30  1  0.83600000  0.64771000  0.81860000  1.0
  C  C31  1  0.30042000  0.35236000  0.18145000  1.0
  C  C32  1  0.70872000  0.75528000  0.73400000  1.0
  C  C33  1  0.19637000  0.24460000  0.26598000  1.0
  C  C34  1  0.41647000  0.86908000  0.76179000  1.0
  C  C35  1  0.04542000  0.13088000  0.23813000  1.0
  C  C36  1  0.26586000  0.87598000  0.86426000  1.0
  C  C37  1  0.00348000  0.12423000  0.13569000  1.0
  C  C38  1  0.39311000  0.77144000  0.94645000  1.0
  C  C39  1  0.10795000  0.22911000  0.05360000  1.0
  C  C40  1  0.67408000  0.65957000  0.92306000  1.0
  C  C41  1  0.25406000  0.34079000  0.07702000  1.0
  N  N42  1  0.28382000  0.50218000  0.70381000  1.0
  N  N43  1  0.48881000  0.49765000  0.29622000  1.0
  O  O44  1  0.27533000  0.23115000  0.59320000  1.0
  O  O45  1  0.09913000  0.76886000  0.40672000  1.0
  O  O46  1  0.75860000  0.13034000  0.54053000  1.0
  O  O47  1  0.42923000  0.86933000  0.45963000  1.0
  O  O48  1  0.85188000  0.74478000  0.63829000  1.0
  O  O49  1  0.23430000  0.25465000  0.36164000  1.0
