# generated using pymatgen
data_ZnH8C19N2Cl2(O2F)2
_symmetry_space_group_name_H-M   'P 1'
_cell_length_a   21.72720000
_cell_length_b   21.88960000
_cell_length_c   21.90460375
_cell_angle_alpha   60.23427814
_cell_angle_beta   63.22174525
_cell_angle_gamma   63.19990000
_symmetry_Int_Tables_number   1
_chemical_formula_structural   ZnH8C19N2Cl2(O2F)2
_chemical_formula_sum   'Zn4 H32 C76 N8 Cl8 O16 F8'
_cell_volume   7718.71236951
_cell_formula_units_Z   4
loop_
 _symmetry_equiv_pos_site_id
 _symmetry_equiv_pos_as_xyz
  1  'x, y, z'
loop_
 _atom_site_type_symbol
 _atom_site_label
 _atom_site_symmetry_multiplicity
 _atom_site_fract_x
 _atom_site_fract_y
 _atom_site_fract_z
 _atom_site_occupancy
  Zn  Zn0  1  0.54142000  0.95453000  0.95464000  1.0
  Zn  Zn1  1  0.45856000  0.04555000  0.04538000  1.0
  Zn  Zn2  1  0.96240000  0.54346000  0.54337000  1.0
  Zn  Zn3  1  0.03788000  0.45652000  0.45653000  1.0
  H  H4  1  0.81414000  0.60757000  0.60714000  1.0
  H  H5  1  0.73256000  0.68573000  0.68539000  1.0
  H  H6  1  0.57633000  0.80539000  0.80474000  1.0
  H  H7  1  0.77539000  0.80425000  0.80487000  1.0
  H  H8  1  0.18622000  0.39250000  0.39250000  1.0
  H  H9  1  0.26758000  0.31424000  0.31429000  1.0
  H  H10  1  0.42332000  0.19485000  0.19493000  1.0
  H  H11  1  0.22427000  0.19543000  0.19537000  1.0
  H  H12  1  0.70026000  0.07322000  0.79276000  1.0
  H  H13  1  0.79567000  0.42981000  0.71152000  1.0
  H  H14  1  0.91937000  0.30060000  0.57517000  1.0
  H  H15  1  0.84173000  0.21999000  0.65234000  1.0
  H  H16  1  0.57689000  0.20374000  0.92783000  1.0
  H  H17  1  0.65517000  0.28362000  0.85055000  1.0
  H  H18  1  0.42324000  0.79649000  0.07195000  1.0
  H  H19  1  0.08087000  0.69902000  0.42530000  1.0
  H  H20  1  0.20471000  0.57018000  0.28855000  1.0
  H  H21  1  0.28178000  0.65125000  0.21188000  1.0
  H  H22  1  0.30010000  0.92630000  0.20766000  1.0
  H  H23  1  0.22226000  0.84580000  0.28475000  1.0
  H  H24  1  0.42370000  0.07221000  0.79620000  1.0
  H  H25  1  0.07989000  0.42446000  0.69970000  1.0
  H  H26  1  0.20410000  0.28761000  0.57100000  1.0
  H  H27  1  0.28122000  0.21104000  0.65202000  1.0
  H  H28  1  0.29972000  0.20752000  0.92643000  1.0
  H  H29  1  0.22147000  0.28418000  0.84631000  1.0
  H  H30  1  0.69947000  0.79171000  0.07423000  1.0
  H  H31  1  0.79467000  0.71092000  0.43053000  1.0
  H  H32  1  0.91904000  0.57475000  0.30114000  1.0
  H  H33  1  0.84060000  0.65108000  0.22131000  1.0
  H  H34  1  0.57614000  0.92730000  0.20421000  1.0
  H  H35  1  0.65387000  0.84952000  0.28465000  1.0
  C  C36  1  0.41554000  0.91641000  0.08602000  1.0
  C  C37  1  0.41577000  0.08624000  0.91615000  1.0
  C  C38  1  0.58436000  0.08378000  0.91417000  1.0
  C  C39  1  0.58403000  0.91371000  0.08410000  1.0
  C  C40  1  0.08900000  0.40943000  0.57948000  1.0
  C  C41  1  0.08962000  0.57889000  0.41020000  1.0
  C  C42  1  0.91093000  0.59001000  0.42070000  1.0
  C  C43  1  0.91073000  0.42090000  0.58972000  1.0
  C  C44  1  0.83526000  0.62797000  0.62779000  1.0
  C  C45  1  0.79105000  0.67049000  0.67036000  1.0
  C  C46  1  0.82275000  0.69453000  0.69473000  1.0
  C  C47  1  0.89850000  0.67461000  0.67509000  1.0
  C  C48  1  0.93941000  0.63086000  0.63132000  1.0
  C  C49  1  0.60565000  0.82133000  0.82099000  1.0
  C  C50  1  0.68079000  0.79931000  0.79926000  1.0
  C  C51  1  0.71686000  0.82072000  0.82111000  1.0
  C  C52  1  0.67566000  0.86360000  0.86410000  1.0
  C  C53  1  0.56912000  0.86450000  0.86423000  1.0
  C  C54  1  0.16499000  0.37204000  0.37201000  1.0
  C  C55  1  0.20908000  0.32948000  0.32947000  1.0
  C  C56  1  0.17721000  0.30537000  0.30533000  1.0
  C  C57  1  0.10146000  0.32527000  0.32516000  1.0
  C  C58  1  0.06068000  0.36909000  0.36885000  1.0
  C  C59  1  0.39402000  0.17876000  0.17881000  1.0
  C  C60  1  0.31889000  0.20064000  0.20067000  1.0
  C  C61  1  0.28280000  0.17905000  0.17902000  1.0
  C  C62  1  0.32400000  0.13612000  0.13607000  1.0
  C  C63  1  0.43056000  0.13560000  0.13557000  1.0
  C  C64  1  0.63246000  0.13275000  0.86632000  1.0
  C  C65  1  0.86341000  0.37126000  0.63715000  1.0
  C  C66  1  0.68972000  0.11942000  0.80613000  1.0
  C  C67  1  0.73369000  0.16518000  0.76276000  1.0
  C  C68  1  0.80639000  0.38388000  0.69770000  1.0
  C  C69  1  0.76296000  0.33763000  0.74109000  1.0
  C  C70  1  0.87492000  0.31122000  0.62217000  1.0
  C  C71  1  0.83056000  0.26568000  0.66636000  1.0
  C  C72  1  0.62140000  0.19276000  0.88102000  1.0
  C  C73  1  0.66615000  0.23785000  0.83680000  1.0
  C  C74  1  0.72502000  0.22681000  0.77493000  1.0
  C  C75  1  0.77182000  0.27615000  0.72854000  1.0
  C  C76  1  0.36737000  0.86753000  0.13418000  1.0
  C  C77  1  0.13724000  0.62820000  0.36265000  1.0
  C  C78  1  0.37908000  0.80792000  0.11870000  1.0
  C  C79  1  0.33464000  0.76279000  0.16282000  1.0
  C  C80  1  0.12511000  0.68779000  0.37849000  1.0
  C  C81  1  0.16935000  0.73319000  0.33460000  1.0
  C  C82  1  0.19462000  0.61633000  0.30179000  1.0
  C  C83  1  0.23816000  0.66270000  0.25847000  1.0
  C  C84  1  0.30994000  0.87995000  0.19485000  1.0
  C  C85  1  0.26599000  0.83392000  0.23836000  1.0
  C  C86  1  0.27574000  0.77248000  0.22496000  1.0
  C  C87  1  0.22821000  0.72393000  0.27227000  1.0
  C  C88  1  0.36745000  0.13427000  0.86741000  1.0
  C  C89  1  0.13649000  0.36178000  0.62892000  1.0
  C  C90  1  0.37927000  0.11877000  0.80781000  1.0
  C  C91  1  0.33455000  0.16260000  0.76297000  1.0
  C  C92  1  0.12422000  0.37764000  0.68851000  1.0
  C  C93  1  0.16848000  0.33380000  0.73390000  1.0
  C  C94  1  0.19394000  0.30090000  0.61710000  1.0
  C  C95  1  0.23752000  0.25765000  0.66344000  1.0
  C  C96  1  0.30967000  0.19469000  0.88008000  1.0
  C  C97  1  0.26547000  0.23796000  0.83428000  1.0
  C  C98  1  0.27529000  0.22451000  0.77289000  1.0
  C  C99  1  0.22753000  0.27156000  0.72457000  1.0
  C  C100  1  0.63175000  0.86557000  0.13343000  1.0
  C  C101  1  0.86300000  0.63686000  0.37167000  1.0
  C  C102  1  0.68883000  0.80508000  0.12043000  1.0
  C  C103  1  0.73249000  0.76144000  0.16649000  1.0
  C  C104  1  0.80545000  0.69700000  0.38467000  1.0
  C  C105  1  0.76149000  0.73983000  0.33896000  1.0
  C  C106  1  0.87432000  0.62156000  0.31193000  1.0
  C  C107  1  0.82951000  0.66527000  0.26683000  1.0
  C  C108  1  0.62051000  0.88026000  0.19349000  1.0
  C  C109  1  0.66494000  0.83576000  0.23889000  1.0
  C  C110  1  0.72367000  0.77363000  0.22813000  1.0
  C  C111  1  0.77044000  0.72726000  0.27750000  1.0
  N  N112  1  0.90811000  0.60863000  0.60873000  1.0
  N  N113  1  0.78419000  0.73802000  0.73834000  1.0
  N  N114  1  0.71634000  0.75549000  0.75527000  1.0
  N  N115  1  0.60250000  0.88596000  0.88610000  1.0
  N  N116  1  0.09214000  0.39136000  0.39122000  1.0
  N  N117  1  0.21559000  0.26180000  0.26181000  1.0
  N  N118  1  0.28346000  0.24452000  0.24457000  1.0
  N  N119  1  0.39716000  0.11397000  0.11390000  1.0
  Cl  Cl120  1  0.03111000  0.60537000  0.60627000  1.0
  Cl  Cl121  1  0.94029000  0.70202000  0.70284000  1.0
  Cl  Cl122  1  0.47701000  0.89108000  0.89036000  1.0
  Cl  Cl123  1  0.72077000  0.88914000  0.89030000  1.0
  Cl  Cl124  1  0.96898000  0.39459000  0.39406000  1.0
  Cl  Cl125  1  0.05949000  0.29776000  0.29768000  1.0
  Cl  Cl126  1  0.52265000  0.10929000  0.10918000  1.0
  Cl  Cl127  1  0.27889000  0.11025000  0.11020000  1.0
  O  O128  1  0.46569000  0.90048000  0.03178000  1.0
  O  O129  1  0.40202000  0.96980000  0.10316000  1.0
  O  O130  1  0.40175000  0.10300000  0.96993000  1.0
  O  O131  1  0.46647000  0.03244000  0.89979000  1.0
  O  O132  1  0.53364000  0.10017000  0.96785000  1.0
  O  O133  1  0.59847000  0.02990000  0.89741000  1.0
  O  O134  1  0.59776000  0.89645000  0.03071000  1.0
  O  O135  1  0.53396000  0.96814000  0.09971000  1.0
  O  O136  1  0.03674000  0.46210000  0.59666000  1.0
  O  O137  1  0.10428000  0.39410000  0.52432000  1.0
  O  O138  1  0.10492000  0.52360000  0.39500000  1.0
  O  O139  1  0.03720000  0.59634000  0.46259000  1.0
  O  O140  1  0.96360000  0.53779000  0.40318000  1.0
  O  O141  1  0.89568000  0.60550000  0.47578000  1.0
  O  O142  1  0.89544000  0.47606000  0.60515000  1.0
  O  O143  1  0.96300000  0.40374000  0.53713000  1.0
  F  F144  1  0.78796000  0.14620000  0.70533000  1.0
  F  F145  1  0.70908000  0.35617000  0.79894000  1.0
  F  F146  1  0.35229000  0.70621000  0.14142000  1.0
  F  F147  1  0.15172000  0.78955000  0.35625000  1.0
  F  F148  1  0.35227000  0.14115000  0.70643000  1.0
  F  F149  1  0.15066000  0.35545000  0.79029000  1.0
  F  F150  1  0.78665000  0.70376000  0.14777000  1.0
  F  F151  1  0.70693000  0.79715000  0.35802000  1.0
