# generated using pymatgen
data_VH8C10N2F3
_symmetry_space_group_name_H-M   'P 1'
_cell_length_a   3.89017000
_cell_length_b   8.04094000
_cell_length_c   8.04093000
_cell_angle_alpha   83.88760000
_cell_angle_beta   76.04800000
_cell_angle_gamma   76.04820000
_symmetry_Int_Tables_number   1
_chemical_formula_structural   VH8C10N2F3
_chemical_formula_sum   'V1 H8 C10 N2 F3'
_cell_volume   236.59115316
_cell_formula_units_Z   1
loop_
 _symmetry_equiv_pos_site_id
 _symmetry_equiv_pos_as_xyz
  1  'x, y, z'
loop_
 _atom_site_type_symbol
 _atom_site_label
 _atom_site_symmetry_multiplicity
 _atom_site_fract_x
 _atom_site_fract_y
 _atom_site_fract_z
 _atom_site_occupancy
  V  V0  1  0.00000000  0.50029000  0.49971000  1.0
  H  H1  1  0.21218000  0.27124000  0.89628000  1.0
  H  H2  1  0.61926000  0.89616000  0.27171000  1.0
  H  H3  1  0.38074000  0.72828000  0.10384000  1.0
  H  H4  1  0.78782000  0.10372000  0.72876000  1.0
  H  H5  1  0.39269000  0.12649000  0.48359000  1.0
  H  H6  1  0.99828000  0.48329000  0.12639000  1.0
  H  H7  1  0.00172000  0.87361000  0.51671000  1.0
  H  H8  1  0.60731000  0.51641000  0.87351000  1.0
  C  C9  1  0.56492000  0.93484000  0.93505000  1.0
  C  C10  1  0.43507000  0.06495000  0.06516000  1.0
  C  C11  1  0.51954000  0.76609000  0.97560000  1.0
  C  C12  1  0.73856000  0.97556000  0.76638000  1.0
  C  C13  1  0.26144000  0.23363000  0.02444000  1.0
  C  C14  1  0.48047000  0.02440000  0.23391000  1.0
  C  C15  1  0.64174000  0.64795000  0.84861000  1.0
  C  C16  1  0.86109000  0.84865000  0.64822000  1.0
  C  C17  1  0.13890000  0.35178000  0.15135000  1.0
  C  C18  1  0.35826000  0.15139000  0.35205000  1.0
  N  N19  1  0.81287000  0.68687000  0.68695000  1.0
  N  N20  1  0.18713000  0.31305000  0.31313000  1.0
  F  F21  1  0.00000000  0.32598000  0.67402000  1.0
  F  F22  1  0.00000000  0.67470000  0.32530000  1.0
  F  F23  1  0.50000000  0.50066000  0.49934000  1.0
