# generated using pymatgen
data_Zn2H6C12BrO8
_symmetry_space_group_name_H-M   'P 1'
_cell_length_a   10.81580000
_cell_length_b   10.92970000
_cell_length_c   19.56890000
_cell_angle_alpha   97.68080000
_cell_angle_beta   91.29830000
_cell_angle_gamma   98.39870000
_symmetry_Int_Tables_number   1
_chemical_formula_structural   Zn2H6C12BrO8
_chemical_formula_sum   'Zn4 H12 C24 Br2 O16'
_cell_volume   2265.86623334
_cell_formula_units_Z   2
loop_
 _symmetry_equiv_pos_site_id
 _symmetry_equiv_pos_as_xyz
  1  'x, y, z'
loop_
 _atom_site_type_symbol
 _atom_site_label
 _atom_site_symmetry_multiplicity
 _atom_site_fract_x
 _atom_site_fract_y
 _atom_site_fract_z
 _atom_site_occupancy
  Zn  Zn0  1  0.39436000  0.57620000  0.44093000  1.0
  Zn  Zn1  1  0.38373000  0.37721000  0.55096000  1.0
  Zn  Zn2  1  0.60558000  0.60321000  0.56289000  1.0
  Zn  Zn3  1  0.58289000  0.37855000  0.43572000  1.0
  H  H4  1  0.48898000  0.69148000  0.25902000  1.0
  H  H5  1  0.55085000  0.93950000  0.62338000  1.0
  H  H6  1  0.24057000  0.35507000  0.86063000  1.0
  H  H7  1  0.73291000  0.69364000  0.06132000  1.0
  H  H8  1  0.69175000  0.62381000  0.90192000  1.0
  H  H9  1  0.46155000  0.96439000  0.42972000  1.0
  H  H10  1  0.00714000  0.63210000  0.49377000  1.0
  H  H11  1  0.97289000  0.34527000  0.49012000  1.0
  H  H12  1  0.32093000  0.39960000  0.75932000  1.0
  H  H13  1  0.68668000  0.61894000  0.77468000  1.0
  H  H14  1  0.42866000  0.45008000  0.99564000  1.0
  H  H15  1  0.60172000  0.36284000  0.08203000  1.0
  C  C16  1  0.47387000  0.15266000  0.48601000  1.0
  C  C17  1  0.58799000  0.57316000  0.02957000  1.0
  C  C18  1  0.50757000  0.51024000  0.97826000  1.0
  C  C19  1  0.50339000  0.81704000  0.51980000  1.0
  C  C20  1  0.50352000  0.50891000  0.75926000  1.0
  C  C21  1  0.49875000  0.95496000  0.53367000  1.0
  C  C22  1  0.47374000  0.01758000  0.48110000  1.0
  C  C23  1  0.95881000  0.53672000  0.49149000  1.0
  C  C24  1  0.02182000  0.43943000  0.48865000  1.0
  C  C25  1  0.16040000  0.45424000  0.48929000  1.0
  C  C26  1  0.82084000  0.51985000  0.49679000  1.0
  C  C27  1  0.56878000  0.55329000  0.10228000  1.0
  C  C28  1  0.50013000  0.50384000  0.68312000  1.0
  C  C29  1  0.50904000  0.48786000  0.31342000  1.0
  C  C30  1  0.52937000  0.50364000  0.23935000  1.0
  C  C31  1  0.51686000  0.62076000  0.22031000  1.0
  C  C32  1  0.53857000  0.64602000  0.15355000  1.0
  C  C33  1  0.57896000  0.43568000  0.12124000  1.0
  C  C34  1  0.56140000  0.41099000  0.18877000  1.0
  C  C35  1  0.40427000  0.45183000  0.86250000  1.0
  C  C36  1  0.40175000  0.44876000  0.79124000  1.0
  C  C37  1  0.60780000  0.57259000  0.79978000  1.0
  C  C38  1  0.61021000  0.57502000  0.87093000  1.0
  C  C39  1  0.50954000  0.51453000  0.90459000  1.0
  Br  Br40  1  0.57683000  0.24697000  0.20658000  1.0
  Br  Br41  1  0.51892000  0.80708000  0.13167000  1.0
  O  O42  1  0.49108000  0.48693000  0.49714000  1.0
  O  O43  1  0.40234000  0.44312000  0.64932000  1.0
  O  O44  1  0.58106000  0.42583000  0.34190000  1.0
  O  O45  1  0.59550000  0.56082000  0.65646000  1.0
  O  O46  1  0.42244000  0.54199000  0.34168000  1.0
  O  O47  1  0.52697000  0.00711000  0.59960000  1.0
  O  O48  1  0.30538000  0.39449000  0.89522000  1.0
  O  O49  1  0.69064000  0.65589000  0.01742000  1.0
  O  O50  1  0.21766000  0.54649000  0.46297000  1.0
  O  O51  1  0.75916000  0.41520000  0.47023000  1.0
  O  O52  1  0.43221000  0.20976000  0.53986000  1.0
  O  O53  1  0.55246000  0.77267000  0.56957000  1.0
  O  O54  1  0.51587000  0.20266000  0.43359000  1.0
  O  O55  1  0.45871000  0.75739000  0.46243000  1.0
  O  O56  1  0.20946000  0.37200000  0.51660000  1.0
  O  O57  1  0.77618000  0.61294000  0.52850000  1.0
