# generated using pymatgen
data_CuH20C12NO4
_symmetry_space_group_name_H-M   'P 1'
_cell_length_a   8.23180000
_cell_length_b   8.38236000
_cell_length_c   11.13910000
_cell_angle_alpha   84.96320000
_cell_angle_beta   72.69280000
_cell_angle_gamma   72.17540000
_symmetry_Int_Tables_number   1
_chemical_formula_structural   CuH20C12NO4
_chemical_formula_sum   'Cu2 H40 C24 N2 O8'
_cell_volume   698.58949597
_cell_formula_units_Z   2
loop_
 _symmetry_equiv_pos_site_id
 _symmetry_equiv_pos_as_xyz
  1  'x, y, z'
loop_
 _atom_site_type_symbol
 _atom_site_label
 _atom_site_symmetry_multiplicity
 _atom_site_fract_x
 _atom_site_fract_y
 _atom_site_fract_z
 _atom_site_occupancy
  Cu  Cu0  1  0.38538000  0.50839000  0.13797000  1.0
  Cu  Cu1  1  0.61464000  0.49159000  0.86201000  1.0
  H  H2  1  0.69928000  0.25166000  0.18914000  1.0
  H  H3  1  0.30071000  0.74834000  0.81086000  1.0
  H  H4  1  0.57157000  0.11282000  0.02927000  1.0
  H  H5  1  0.42841000  0.88715000  0.97074000  1.0
  H  H6  1  0.45334000  0.16377000  0.91483000  1.0
  H  H7  1  0.54665000  0.83621000  0.08517000  1.0
  H  H8  1  0.17607000  0.30439000  0.06632000  1.0
  H  H9  1  0.82392000  0.69562000  0.93368000  1.0
  H  H10  1  0.25315000  0.10362000  0.13190000  1.0
  H  H11  1  0.74682000  0.89639000  0.86810000  1.0
  H  H12  1  0.40562000  0.38962000  0.39950000  1.0
  H  H13  1  0.59437000  0.61037000  0.60050000  1.0
  H  H14  1  0.55926000  0.18814000  0.40573000  1.0
  H  H15  1  0.44073000  0.81185000  0.59428000  1.0
  H  H16  1  0.49382000  0.09582000  0.22270000  1.0
  H  H17  1  0.50616000  0.90417000  0.77730000  1.0
  H  H18  1  0.31379000  0.13433000  0.36117000  1.0
  H  H19  1  0.68620000  0.86568000  0.63883000  1.0
  H  H20  1  0.11559000  0.44049000  0.37907000  1.0
  H  H21  1  0.88442000  0.55952000  0.62092000  1.0
  H  H22  1  0.04557000  0.27680000  0.33945000  1.0
  H  H23  1  0.95443000  0.72322000  0.66056000  1.0
  H  H24  1  0.91731000  0.44896000  0.18518000  1.0
  H  H25  1  0.08268000  0.55105000  0.81483000  1.0
  H  H26  1  0.04277000  0.59064000  0.17569000  1.0
  H  H27  1  0.95722000  0.40938000  0.82431000  1.0
  H  H28  1  0.74919000  0.53978000  0.40674000  1.0
  H  H29  1  0.25081000  0.46023000  0.59327000  1.0
  H  H30  1  0.87327000  0.68194000  0.39651000  1.0
  H  H31  1  0.12672000  0.31807000  0.60349000  1.0
  H  H32  1  0.75641000  0.82661000  0.21504000  1.0
  H  H33  1  0.24357000  0.17340000  0.78497000  1.0
  H  H34  1  0.58386000  0.83733000  0.35847000  1.0
  H  H35  1  0.41614000  0.16268000  0.64154000  1.0
  H  H36  1  0.61792000  0.69150000  0.24091000  1.0
  H  H37  1  0.38206000  0.30851000  0.75910000  1.0
  H  H38  1  0.28180000  0.76981000  0.47995000  1.0
  H  H39  1  0.71822000  0.23018000  0.52004000  1.0
  H  H40  1  0.86659000  0.05412000  0.32234000  1.0
  H  H41  1  0.13343000  0.94588000  0.67765000  1.0
  C  C42  1  0.45935000  0.20649000  0.00371000  1.0
  C  C43  1  0.54064000  0.79349000  0.99629000  1.0
  C  C44  1  0.28238000  0.22381000  0.10382000  1.0
  C  C45  1  0.71760000  0.77619000  0.89618000  1.0
  C  C46  1  0.49582000  0.27923000  0.34336000  1.0
  C  C47  1  0.50418000  0.72076000  0.65664000  1.0
  C  C48  1  0.39604000  0.19588000  0.28657000  1.0
  C  C49  1  0.60395000  0.80412000  0.71344000  1.0
  C  C50  1  0.09990000  0.38144000  0.30054000  1.0
  C  C51  1  0.90010000  0.61858000  0.69946000  1.0
  C  C52  1  0.97203000  0.51038000  0.24046000  1.0
  C  C53  1  0.02796000  0.48964000  0.75955000  1.0
  C  C54  1  0.81835000  0.62034000  0.34121000  1.0
  C  C55  1  0.18164000  0.37967000  0.65880000  1.0
  C  C56  1  0.68638000  0.75157000  0.28575000  1.0
  C  C57  1  0.31361000  0.24844000  0.71426000  1.0
  C  C58  1  0.16710000  0.80058000  0.27001000  1.0
  C  C59  1  0.83292000  0.19942000  0.72997000  1.0
  C  C60  1  0.08232000  0.90231000  0.38967000  1.0
  C  C61  1  0.91770000  0.09767000  0.61031000  1.0
  C  C62  1  0.15905000  0.87182000  0.48934000  1.0
  C  C63  1  0.84097000  0.12817000  0.51065000  1.0
  C  C64  1  0.92269000  0.03124000  0.40157000  1.0
  C  C65  1  0.07733000  0.96874000  0.59842000  1.0
  N  N66  1  0.28187000  0.31227000  0.21516000  1.0
  N  N67  1  0.71813000  0.68773000  0.78483000  1.0
  O  O68  1  0.48487000  0.36657000  0.99030000  1.0
  O  O69  1  0.51514000  0.63341000  0.00970000  1.0
  O  O70  1  0.62461000  0.34086000  0.24974000  1.0
  O  O71  1  0.37538000  0.65913000  0.75027000  1.0
  O  O72  1  0.28423000  0.65843000  0.28026000  1.0
  O  O73  1  0.71580000  0.34156000  0.71973000  1.0
  O  O74  1  0.12104000  0.85419000  0.17340000  1.0
  O  O75  1  0.87897000  0.14580000  0.82659000  1.0
