# generated using pymatgen
data_CuH6C8(BrN)2
_symmetry_space_group_name_H-M   'P 1'
_cell_length_a   6.91136000
_cell_length_b   7.42965838
_cell_length_c   10.19900000
_cell_angle_alpha   75.18713450
_cell_angle_beta   89.98300000
_cell_angle_gamma   62.39492814
_symmetry_Int_Tables_number   1
_chemical_formula_structural   CuH6C8(BrN)2
_chemical_formula_sum   'Cu2 H12 C16 Br4 N4'
_cell_volume   444.37889927
_cell_formula_units_Z   2
loop_
 _symmetry_equiv_pos_site_id
 _symmetry_equiv_pos_as_xyz
  1  'x, y, z'
loop_
 _atom_site_type_symbol
 _atom_site_label
 _atom_site_symmetry_multiplicity
 _atom_site_fract_x
 _atom_site_fract_y
 _atom_site_fract_z
 _atom_site_occupancy
  Cu  Cu0  1  0.96240000  0.07528000  0.17038000  1.0
  Cu  Cu1  1  0.03759000  0.92477000  0.82963000  1.0
  H  H2  1  0.17032000  0.30102000  0.99704000  1.0
  H  H3  1  0.46947000  0.69891000  0.00273000  1.0
  H  H4  1  0.82968000  0.69897000  0.00297000  1.0
  H  H5  1  0.53052000  0.30112000  0.99728000  1.0
  H  H6  1  0.22992000  0.81846000  0.40918000  1.0
  H  H7  1  0.04916000  0.18157000  0.59068000  1.0
  H  H8  1  0.77008000  0.18155000  0.59083000  1.0
  H  H9  1  0.95082000  0.81844000  0.40931000  1.0
  H  H10  1  0.51699000  0.60287000  0.61120000  1.0
  H  H11  1  0.12163000  0.39739000  0.38902000  1.0
  H  H12  1  0.48299000  0.39713000  0.38881000  1.0
  H  H13  1  0.87836000  0.60264000  0.61099000  1.0
  C  C14  1  0.30032000  0.19681000  0.08334000  1.0
  C  C15  1  0.49579000  0.80321000  0.91661000  1.0
  C  C16  1  0.69970000  0.80318000  0.91667000  1.0
  C  C17  1  0.50423000  0.19679000  0.08340000  1.0
  C  C18  1  0.42453000  0.94234000  0.29347000  1.0
  C  C19  1  0.36696000  0.05777000  0.70648000  1.0
  C  C20  1  0.57549000  0.05762000  0.70650000  1.0
  C  C21  1  0.63306000  0.94221000  0.29351000  1.0
  C  C22  1  0.38875000  0.81556000  0.40901000  1.0
  C  C23  1  0.20500000  0.18464000  0.59098000  1.0
  C  C24  1  0.61127000  0.18442000  0.59098000  1.0
  C  C25  1  0.79500000  0.81533000  0.40903000  1.0
  C  C26  1  0.54957000  0.69515000  0.52094000  1.0
  C  C27  1  0.24626000  0.30494000  0.47914000  1.0
  C  C28  1  0.45042000  0.30482000  0.47906000  1.0
  C  C29  1  0.75377000  0.69501000  0.52085000  1.0
  Br  Br30  1  0.13718000  0.72520000  0.13173000  1.0
  Br  Br31  1  0.86282000  0.27484000  0.86827000  1.0
  Br  Br32  1  0.80170000  0.39754000  0.23800000  1.0
  Br  Br33  1  0.19827000  0.60249000  0.76199000  1.0
  N  N34  1  0.26214000  0.06915000  0.18398000  1.0
  N  N35  1  0.33059000  0.93105000  0.81599000  1.0
  N  N36  1  0.73789000  0.93082000  0.81602000  1.0
  N  N37  1  0.66943000  0.06895000  0.18403000  1.0
