# generated using pymatgen
data_Cu3H26C32(NO3)4
_symmetry_space_group_name_H-M   'P 1'
_cell_length_a   7.82785000
_cell_length_b   8.67991000
_cell_length_c   11.29180000
_cell_angle_alpha   85.22370000
_cell_angle_beta   76.55060000
_cell_angle_gamma   87.15660000
_symmetry_Int_Tables_number   1
_chemical_formula_structural   Cu3H26C32(NO3)4
_chemical_formula_sum   'Cu3 H26 C32 N4 O12'
_cell_volume   743.22798659
_cell_formula_units_Z   1
loop_
 _symmetry_equiv_pos_site_id
 _symmetry_equiv_pos_as_xyz
  1  'x, y, z'
loop_
 _atom_site_type_symbol
 _atom_site_label
 _atom_site_symmetry_multiplicity
 _atom_site_fract_x
 _atom_site_fract_y
 _atom_site_fract_z
 _atom_site_occupancy
  Cu  Cu0  1  0.88450000  0.62267000  0.42132000  1.0
  Cu  Cu1  1  0.11142000  0.38236000  0.57667000  1.0
  Cu  Cu2  1  0.49731000  0.49757000  0.50129000  1.0
  H  H3  1  0.16149000  0.77203000  0.22664000  1.0
  H  H4  1  0.83975000  0.23164000  0.77242000  1.0
  H  H5  1  0.15641000  0.83207000  0.73944000  1.0
  H  H6  1  0.84598000  0.16927000  0.25873000  1.0
  H  H7  1  0.38889000  0.97429000  0.20364000  1.0
  H  H8  1  0.61512000  0.02725000  0.79648000  1.0
  H  H9  1  0.42535000  0.09029000  0.39405000  1.0
  H  H10  1  0.57717000  0.91076000  0.60649000  1.0
  H  H11  1  0.02248000  0.78963000  0.59979000  1.0
  H  H12  1  0.97355000  0.21590000  0.39863000  1.0
  H  H13  1  0.15415000  0.14648000  0.82372000  1.0
  H  H14  1  0.84704000  0.85340000  0.17697000  1.0
  H  H15  1  0.29166000  0.00403000  0.87840000  1.0
  H  H16  1  0.70876000  0.99511000  0.12204000  1.0
  H  H17  1  0.03733000  0.83357000  0.96026000  1.0
  H  H18  1  0.96268000  0.16598000  0.03942000  1.0
  H  H19  1  0.89602000  0.96913000  0.90451000  1.0
  H  H20  1  0.10445000  0.03063000  0.09486000  1.0
  H  H21  1  0.37878000  0.68072000  0.83106000  1.0
  H  H22  1  0.61873000  0.31408000  0.17383000  1.0
  H  H23  1  0.33828000  0.73990000  0.04801000  1.0
  H  H24  1  0.66537000  0.25864000  0.95597000  1.0
  H  H25  1  0.59072000  0.69829000  0.15020000  1.0
  H  H26  1  0.41627000  0.30037000  0.85042000  1.0
  H  H27  1  0.88225000  0.61481000  0.03098000  1.0
  H  H28  1  0.12212000  0.38112000  0.96752000  1.0
  C  C29  1  0.18528000  0.82536000  0.30488000  1.0
  C  C30  1  0.81537000  0.17843000  0.69432000  1.0
  C  C31  1  0.31113000  0.93659000  0.29361000  1.0
  C  C32  1  0.69086000  0.06600000  0.70612000  1.0
  C  C33  1  0.33273000  0.99961000  0.39811000  1.0
  C  C34  1  0.66842000  0.00276000  0.60187000  1.0
  C  C35  1  0.23077000  0.94641000  0.51142000  1.0
  C  C36  1  0.76837000  0.05690000  0.48821000  1.0
  C  C37  1  0.10912000  0.83254000  0.51494000  1.0
  C  C38  1  0.88870000  0.17220000  0.48390000  1.0
  C  C39  1  0.24287000  0.02464000  0.62223000  1.0
  C  C40  1  0.75628000  0.97821000  0.37750000  1.0
  C  C41  1  0.17012000  0.02143000  0.84462000  1.0
  C  C42  1  0.83061000  0.97829000  0.15551000  1.0
  C  C43  1  0.01493000  0.95825000  0.94143000  1.0
  C  C44  1  0.98532000  0.04130000  0.05823000  1.0
  C  C45  1  0.67251000  0.59641000  0.67617000  1.0
  C  C46  1  0.32401000  0.39989000  0.32567000  1.0
  C  C47  1  0.65447000  0.62312000  0.80778000  1.0
  C  C48  1  0.34297000  0.37076000  0.19441000  1.0
  C  C49  1  0.48966000  0.67223000  0.87468000  1.0
  C  C50  1  0.50921000  0.32246000  0.12893000  1.0
  C  C51  1  0.46780000  0.70396000  0.99646000  1.0
  C  C52  1  0.53453000  0.29274000  0.00649000  1.0
  C  C53  1  0.60864000  0.68219000  0.05324000  1.0
  C  C54  1  0.39565000  0.31479000  0.94784000  1.0
  C  C55  1  0.77300000  0.63394000  0.98634000  1.0
  C  C56  1  0.23001000  0.36164000  0.01345000  1.0
  C  C57  1  0.79882000  0.60589000  0.86311000  1.0
  C  C58  1  0.20100000  0.38904000  0.13698000  1.0
  C  C59  1  0.98022000  0.55725000  0.79417000  1.0
  C  C60  1  0.02041000  0.44257000  0.20348000  1.0
  N  N61  1  0.08440000  0.77473000  0.41350000  1.0
  N  N62  1  0.91397000  0.22992000  0.58515000  1.0
  N  N63  1  0.18828000  0.94691000  0.73148000  1.0
  N  N64  1  0.81305000  0.05432000  0.26795000  1.0
  O  O65  1  0.29772000  0.15987000  0.61115000  1.0
  O  O66  1  0.69967000  0.84360000  0.38950000  1.0
  O  O67  1  0.80467000  0.65134000  0.60018000  1.0
  O  O68  1  0.18928000  0.34894000  0.40256000  1.0
  O  O69  1  0.54443000  0.52470000  0.65509000  1.0
  O  O70  1  0.45363000  0.46806000  0.34661000  1.0
  O  O71  1  0.98418000  0.43018000  0.74009000  1.0
  O  O72  1  0.01756000  0.57113000  0.25379000  1.0
  O  O73  1  0.10748000  0.63564000  0.79773000  1.0
  O  O74  1  0.89204000  0.36358000  0.20144000  1.0
  O  O75  1  0.72557000  0.47231000  0.42919000  1.0
  O  O76  1  0.26627000  0.53496000  0.56475000  1.0
