# generated using pymatgen
data_ScH7C9(NO3)2
_symmetry_space_group_name_H-M   'P 1'
_cell_length_a   5.68457000
_cell_length_b   7.66836000
_cell_length_c   24.42530000
_cell_angle_alpha   89.99990000
_cell_angle_beta   86.00530000
_cell_angle_gamma   89.99970000
_symmetry_Int_Tables_number   1
_chemical_formula_structural   ScH7C9(NO3)2
_chemical_formula_sum   'Sc4 H28 C36 N8 O24'
_cell_volume   1062.14452709
_cell_formula_units_Z   4
loop_
 _symmetry_equiv_pos_site_id
 _symmetry_equiv_pos_as_xyz
  1  'x, y, z'
loop_
 _atom_site_type_symbol
 _atom_site_label
 _atom_site_symmetry_multiplicity
 _atom_site_fract_x
 _atom_site_fract_y
 _atom_site_fract_z
 _atom_site_occupancy
  Sc  Sc0  1  0.23933000  0.82666000  0.25033000  1.0
  Sc  Sc1  1  0.26066000  0.32666000  0.24967000  1.0
  Sc  Sc2  1  0.76066000  0.17333000  0.74967000  1.0
  Sc  Sc3  1  0.73935000  0.67333000  0.75033000  1.0
  H  H4  1  0.48055000  0.58789000  0.19186000  1.0
  H  H5  1  0.01944000  0.08789000  0.30814000  1.0
  H  H6  1  0.51944000  0.41211000  0.80814000  1.0
  H  H7  1  0.98056000  0.91211000  0.69186000  1.0
  H  H8  1  0.70826000  0.85512000  0.26153000  1.0
  H  H9  1  0.79174000  0.35512000  0.23847000  1.0
  H  H10  1  0.29174000  0.14487000  0.73846000  1.0
  H  H11  1  0.20827000  0.64489000  0.76153000  1.0
  H  H12  1  0.59980000  0.97305000  0.31275000  1.0
  H  H13  1  0.90019000  0.47304000  0.18725000  1.0
  H  H14  1  0.40020000  0.02695000  0.68725000  1.0
  H  H15  1  0.09982000  0.52695000  0.81274000  1.0
  H  H16  1  0.04757000  0.51216000  0.04588000  1.0
  H  H17  1  0.45240000  0.01216000  0.45413000  1.0
  H  H18  1  0.95242000  0.48785000  0.95412000  1.0
  H  H19  1  0.54757000  0.98784000  0.54588000  1.0
  H  H20  1  0.67112000  0.34391000  0.11143000  1.0
  H  H21  1  0.82887000  0.84392000  0.38857000  1.0
  H  H22  1  0.32886000  0.65609000  0.88857000  1.0
  H  H23  1  0.17114000  0.15609000  0.61143000  1.0
  H  H24  1  0.21507000  0.83227000  0.07518000  1.0
  H  H25  1  0.28494000  0.33227000  0.42482000  1.0
  H  H26  1  0.78493000  0.16773000  0.92482000  1.0
  H  H27  1  0.71507000  0.66773000  0.57518000  1.0
  H  H28  1  0.39915000  0.40133000  0.98270000  1.0
  H  H29  1  0.10083000  0.90132000  0.51730000  1.0
  H  H30  1  0.60085000  0.59868000  0.01730000  1.0
  H  H31  1  0.89915000  0.09867000  0.48270000  1.0
  C  C32  1  0.89888000  0.93032000  0.11977000  1.0
  C  C33  1  0.60112000  0.43033000  0.38023000  1.0
  C  C34  1  0.10111000  0.06967000  0.88023000  1.0
  C  C35  1  0.39889000  0.56967000  0.61977000  1.0
  C  C36  1  0.74274000  0.07458000  0.12891000  1.0
  C  C37  1  0.75726000  0.57459000  0.37109000  1.0
  C  C38  1  0.25725000  0.92542000  0.87109000  1.0
  C  C39  1  0.24274000  0.42542000  0.62891000  1.0
  C  C40  1  0.79018000  0.23462000  0.10352000  1.0
  C  C41  1  0.70982000  0.73463000  0.39648000  1.0
  C  C42  1  0.20982000  0.76538000  0.89647000  1.0
  C  C43  1  0.29018000  0.26538000  0.60352000  1.0
  C  C44  1  0.99375000  0.24688000  0.06934000  1.0
  C  C45  1  0.50625000  0.74689000  0.43066000  1.0
  C  C46  1  0.00625000  0.75312000  0.93066000  1.0
  C  C47  1  0.49375000  0.25312000  0.56934000  1.0
  C  C48  1  0.14153000  0.10169000  0.05574000  1.0
  C  C49  1  0.35847000  0.60169000  0.44426000  1.0
  C  C50  1  0.85848000  0.89831000  0.94426000  1.0
  C  C51  1  0.64154000  0.39831000  0.55574000  1.0
  C  C52  1  0.09309000  0.94108000  0.08178000  1.0
  C  C53  1  0.40691000  0.44108000  0.41822000  1.0
  C  C54  1  0.90691000  0.05892000  0.91822000  1.0
  C  C55  1  0.59310000  0.55892000  0.58178000  1.0
  C  C56  1  0.29125000  0.31990000  0.01084000  1.0
  C  C57  1  0.20874000  0.81988000  0.48916000  1.0
  C  C58  1  0.70875000  0.68011000  0.98917000  1.0
  C  C59  1  0.79125000  0.18010000  0.51083000  1.0
  C  C60  1  0.88399000  0.77425000  0.15710000  1.0
  C  C61  1  0.61600000  0.27426000  0.34290000  1.0
  C  C62  1  0.11601000  0.22575000  0.84290000  1.0
  C  C63  1  0.38400000  0.72574000  0.65710000  1.0
  C  C64  1  0.52520000  0.06265000  0.16540000  1.0
  C  C65  1  0.97480000  0.56266000  0.33460000  1.0
  C  C66  1  0.47479000  0.93735000  0.83460000  1.0
  C  C67  1  0.02522000  0.43734000  0.66540000  1.0
  N  N68  1  0.32411000  0.15193000  0.01844000  1.0
  N  N69  1  0.17589000  0.65192000  0.48156000  1.0
  N  N70  1  0.67589000  0.84808000  0.98157000  1.0
  N  N71  1  0.82412000  0.34807000  0.51844000  1.0
  N  N72  1  0.09590000  0.38533000  0.04057000  1.0
  N  N73  1  0.40408000  0.88534000  0.45943000  1.0
  N  N74  1  0.90409000  0.61467000  0.95943000  1.0
  N  N75  1  0.59590000  0.11467000  0.54058000  1.0
  O  O76  1  0.44317000  0.91264000  0.17875000  1.0
  O  O77  1  0.05683000  0.41264000  0.32125000  1.0
  O  O78  1  0.55682000  0.08736000  0.82124000  1.0
  O  O79  1  0.94317000  0.58736000  0.67875000  1.0
  O  O80  1  0.84584000  0.62380000  0.13942000  1.0
  O  O81  1  0.65412000  0.12381000  0.36058000  1.0
  O  O82  1  0.15415000  0.37620000  0.86057000  1.0
  O  O83  1  0.34589000  0.87620000  0.63942000  1.0
  O  O84  1  0.35991000  0.57804000  0.22213000  1.0
  O  O85  1  0.14008000  0.07804000  0.27787000  1.0
  O  O86  1  0.64009000  0.42195000  0.77787000  1.0
  O  O87  1  0.85992000  0.92196000  0.72213000  1.0
  O  O88  1  0.56692000  0.87596000  0.28654000  1.0
  O  O89  1  0.93307000  0.37595000  0.21346000  1.0
  O  O90  1  0.43308000  0.12404000  0.71346000  1.0
  O  O91  1  0.06694000  0.62405000  0.78654000  1.0
  O  O92  1  0.42577000  0.20520000  0.18196000  1.0
  O  O93  1  0.07423000  0.70521000  0.31804000  1.0
  O  O94  1  0.57423000  0.79479000  0.81804000  1.0
  O  O95  1  0.92578000  0.29479000  0.68196000  1.0
  O  O96  1  0.92865000  0.80491000  0.20774000  1.0
  O  O97  1  0.57135000  0.30493000  0.29226000  1.0
  O  O98  1  0.07134000  0.19507000  0.79226000  1.0
  O  O99  1  0.42867000  0.69508000  0.70774000  1.0
