# generated using pymatgen
data_ZnH9C17O4
_symmetry_space_group_name_H-M   'P 1'
_cell_length_a   5.89718000
_cell_length_b   20.78500000
_cell_length_c   28.02460000
_cell_angle_alpha   90.00020000
_cell_angle_beta   90.00020000
_cell_angle_gamma   89.99940000
_symmetry_Int_Tables_number   1
_chemical_formula_structural   ZnH9C17O4
_chemical_formula_sum   'Zn8 H72 C136 O32'
_cell_volume   3435.05610917
_cell_formula_units_Z   8
loop_
 _symmetry_equiv_pos_site_id
 _symmetry_equiv_pos_as_xyz
  1  'x, y, z'
loop_
 _atom_site_type_symbol
 _atom_site_label
 _atom_site_symmetry_multiplicity
 _atom_site_fract_x
 _atom_site_fract_y
 _atom_site_fract_z
 _atom_site_occupancy
  Zn  Zn0  1  0.55586000  0.19948000  0.72617000  1.0
  Zn  Zn1  1  0.94414000  0.80052000  0.22616000  1.0
  Zn  Zn2  1  0.44413000  0.69948000  0.77383000  1.0
  Zn  Zn3  1  0.05586000  0.30052000  0.27383000  1.0
  Zn  Zn4  1  0.44417000  0.80052000  0.27384000  1.0
  Zn  Zn5  1  0.05587000  0.19948000  0.77384000  1.0
  Zn  Zn6  1  0.55588000  0.30052000  0.22617000  1.0
  Zn  Zn7  1  0.94413000  0.69947000  0.72617000  1.0
  H  H8  1  0.28762000  0.06648000  0.80188000  1.0
  H  H9  1  0.21241000  0.93352000  0.30188000  1.0
  H  H10  1  0.71238000  0.56649000  0.69813000  1.0
  H  H11  1  0.78763000  0.43351000  0.19812000  1.0
  H  H12  1  0.71242000  0.93351000  0.19812000  1.0
  H  H13  1  0.78762000  0.06649000  0.69813000  1.0
  H  H14  1  0.28763000  0.43351000  0.30188000  1.0
  H  H15  1  0.21235000  0.56649000  0.80188000  1.0
  H  H16  1  0.05520000  0.01865000  0.86618000  1.0
  H  H17  1  0.44479000  0.98135000  0.36619000  1.0
  H  H18  1  0.94478000  0.51865000  0.63382000  1.0
  H  H19  1  0.55520000  0.48135000  0.13382000  1.0
  H  H20  1  0.94482000  0.98135000  0.13382000  1.0
  H  H21  1  0.55521000  0.01865000  0.63382000  1.0
  H  H22  1  0.05521000  0.48135000  0.36618000  1.0
  H  H23  1  0.44477000  0.51865000  0.86618000  1.0
  H  H24  1  0.57505000  0.06648000  0.96856000  1.0
  H  H25  1  0.92491000  0.93352000  0.46857000  1.0
  H  H26  1  0.42491000  0.56648000  0.53142000  1.0
  H  H27  1  0.07508000  0.43352000  0.03143000  1.0
  H  H28  1  0.42494000  0.93353000  0.03143000  1.0
  H  H29  1  0.07506000  0.06648000  0.53143000  1.0
  H  H30  1  0.57507000  0.43352000  0.46858000  1.0
  H  H31  1  0.92492000  0.56649000  0.96858000  1.0
  H  H32  1  0.80020000  0.11781000  0.90415000  1.0
  H  H33  1  0.69978000  0.88218000  0.40415000  1.0
  H  H34  1  0.19977000  0.61782000  0.59585000  1.0
  H  H35  1  0.30021000  0.38218000  0.09585000  1.0
  H  H36  1  0.19979000  0.88218000  0.09584000  1.0
  H  H37  1  0.30021000  0.11782000  0.59585000  1.0
  H  H38  1  0.80021000  0.38218000  0.40415000  1.0
  H  H39  1  0.69979000  0.61782000  0.90416000  1.0
  H  H40  1  0.75222000  0.90499000  0.99269000  1.0
  H  H41  1  0.74774000  0.09502000  0.49270000  1.0
  H  H42  1  0.24776000  0.40498000  0.50731000  1.0
  H  H43  1  0.25227000  0.59503000  0.00731000  1.0
  H  H44  1  0.24775000  0.09502000  0.00730000  1.0
  H  H45  1  0.25220000  0.90499000  0.50731000  1.0
  H  H46  1  0.75221000  0.59502000  0.49269000  1.0
  H  H47  1  0.74771000  0.40497000  0.99270000  1.0
  H  H48  1  0.67865000  0.94013000  0.88778000  1.0
  H  H49  1  0.82133000  0.05987000  0.38779000  1.0
  H  H50  1  0.32132000  0.44013000  0.61221000  1.0
  H  H51  1  0.17872000  0.55987000  0.11221000  1.0
  H  H52  1  0.32133000  0.05988000  0.11221000  1.0
  H  H53  1  0.17863000  0.94014000  0.61222000  1.0
  H  H54  1  0.67868000  0.55986000  0.38778000  1.0
  H  H55  1  0.82125000  0.44013000  0.88780000  1.0
  H  H56  1  0.70639000  0.85918000  0.82220000  1.0
  H  H57  1  0.79359000  0.14082000  0.32220000  1.0
  H  H58  1  0.29358000  0.35919000  0.67781000  1.0
  H  H59  1  0.20648000  0.64081000  0.17780000  1.0
  H  H60  1  0.29359000  0.14082000  0.17780000  1.0
  H  H61  1  0.20641000  0.85918000  0.67780000  1.0
  H  H62  1  0.70648000  0.64080000  0.32219000  1.0
  H  H63  1  0.79355000  0.35919000  0.82220000  1.0
  H  H64  1  0.36025000  0.80034000  0.87472000  1.0
  H  H65  1  0.13974000  0.19966000  0.37472000  1.0
  H  H66  1  0.63974000  0.30035000  0.62528000  1.0
  H  H67  1  0.86036000  0.69964000  0.12529000  1.0
  H  H68  1  0.63978000  0.19966000  0.12528000  1.0
  H  H69  1  0.86022000  0.80034000  0.62528000  1.0
  H  H70  1  0.36029000  0.69965000  0.37472000  1.0
  H  H71  1  0.13968000  0.30035000  0.87471000  1.0
  H  H72  1  0.34094000  0.88457000  0.93779000  1.0
  H  H73  1  0.15905000  0.11544000  0.43779000  1.0
  H  H74  1  0.65904000  0.38456000  0.56220000  1.0
  H  H75  1  0.84102000  0.61542000  0.06221000  1.0
  H  H76  1  0.65905000  0.11545000  0.06221000  1.0
  H  H77  1  0.84093000  0.88457000  0.56221000  1.0
  H  H78  1  0.34096000  0.61543000  0.43780000  1.0
  H  H79  1  0.15896000  0.38456000  0.93779000  1.0
  C  C80  1  0.68015000  0.13017000  0.81063000  1.0
  C  C81  1  0.81988000  0.86982000  0.31063000  1.0
  C  C82  1  0.31982000  0.63018000  0.68938000  1.0
  C  C83  1  0.18018000  0.36982000  0.18937000  1.0
  C  C84  1  0.31987000  0.86982000  0.18937000  1.0
  C  C85  1  0.18015000  0.13018000  0.68938000  1.0
  C  C86  1  0.68016000  0.36982000  0.31062000  1.0
  C  C87  1  0.81983000  0.63018000  0.81063000  1.0
  C  C88  1  0.55779000  0.09536000  0.84905000  1.0
  C  C89  1  0.94224000  0.90463000  0.34906000  1.0
  C  C90  1  0.44222000  0.59538000  0.65095000  1.0
  C  C91  1  0.05779000  0.40463000  0.15094000  1.0
  C  C92  1  0.44223000  0.90463000  0.15095000  1.0
  C  C93  1  0.05777000  0.09537000  0.65095000  1.0
  C  C94  1  0.55777000  0.40462000  0.34905000  1.0
  C  C95  1  0.94221000  0.59538000  0.84906000  1.0
  C  C96  1  0.34982000  0.06584000  0.83850000  1.0
  C  C97  1  0.15019000  0.93416000  0.33850000  1.0
  C  C98  1  0.65019000  0.56585000  0.66150000  1.0
  C  C99  1  0.84982000  0.43415000  0.16150000  1.0
  C  C100  1  0.65021000  0.93414000  0.16149000  1.0
  C  C101  1  0.84982000  0.06585000  0.66150000  1.0
  C  C102  1  0.34982000  0.43416000  0.33850000  1.0
  C  C103  1  0.15014000  0.56585000  0.83851000  1.0
  C  C104  1  0.22056000  0.03876000  0.87469000  1.0
  C  C105  1  0.27943000  0.96124000  0.37470000  1.0
  C  C106  1  0.77942000  0.53876000  0.62530000  1.0
  C  C107  1  0.72057000  0.46124000  0.12530000  1.0
  C  C108  1  0.77947000  0.96124000  0.12530000  1.0
  C  C109  1  0.72058000  0.03876000  0.62531000  1.0
  C  C110  1  0.22058000  0.46124000  0.37470000  1.0
  C  C111  1  0.27941000  0.53876000  0.87470000  1.0
  C  C112  1  0.29584000  0.03957000  0.92236000  1.0
  C  C113  1  0.20415000  0.96043000  0.42236000  1.0
  C  C114  1  0.70417000  0.53958000  0.57764000  1.0
  C  C115  1  0.79584000  0.46042000  0.07764000  1.0
  C  C116  1  0.70417000  0.96043000  0.07764000  1.0
  C  C117  1  0.79585000  0.03957000  0.57764000  1.0
  C  C118  1  0.29584000  0.46042000  0.42236000  1.0
  C  C119  1  0.20416000  0.53958000  0.92237000  1.0
  C  C120  1  0.50922000  0.06713000  0.93220000  1.0
  C  C121  1  0.99076000  0.93287000  0.43221000  1.0
  C  C122  1  0.49075000  0.56713000  0.56779000  1.0
  C  C123  1  0.00923000  0.43287000  0.06779000  1.0
  C  C124  1  0.49077000  0.93288000  0.06779000  1.0
  C  C125  1  0.00925000  0.06713000  0.56779000  1.0
  C  C126  1  0.50926000  0.43287000  0.43221000  1.0
  C  C127  1  0.99077000  0.56713000  0.93221000  1.0
  C  C128  1  0.63786000  0.09519000  0.89617000  1.0
  C  C129  1  0.86213000  0.90480000  0.39618000  1.0
  C  C130  1  0.36211000  0.59520000  0.60382000  1.0
  C  C131  1  0.13788000  0.40480000  0.10382000  1.0
  C  C132  1  0.36216000  0.90480000  0.10382000  1.0
  C  C133  1  0.13787000  0.09520000  0.60382000  1.0
  C  C134  1  0.63789000  0.40481000  0.39618000  1.0
  C  C135  1  0.86212000  0.59520000  0.89618000  1.0
  C  C136  1  0.14811000  0.01672000  0.96158000  1.0
  C  C137  1  0.35189000  0.98328000  0.46158000  1.0
  C  C138  1  0.85188000  0.51672000  0.53842000  1.0
  C  C139  1  0.64811000  0.48328000  0.03842000  1.0
  C  C140  1  0.85188000  0.98329000  0.03842000  1.0
  C  C141  1  0.64809000  0.01673000  0.53843000  1.0
  C  C142  1  0.14809000  0.48328000  0.46157000  1.0
  C  C143  1  0.35187000  0.51672000  0.96158000  1.0
  C  C144  1  0.00026000  0.96328000  0.95762000  1.0
  C  C145  1  0.49973000  0.03672000  0.45763000  1.0
  C  C146  1  0.99976000  0.46327000  0.54237000  1.0
  C  C147  1  0.50026000  0.53672000  0.04237000  1.0
  C  C148  1  0.99975000  0.03672000  0.04237000  1.0
  C  C149  1  0.50022000  0.96330000  0.54238000  1.0
  C  C150  1  0.00024000  0.53672000  0.45762000  1.0
  C  C151  1  0.49969000  0.46327000  0.95763000  1.0
  C  C152  1  0.85672000  0.94812000  0.99565000  1.0
  C  C153  1  0.64327000  0.05189000  0.49565000  1.0
  C  C154  1  0.14330000  0.44811000  0.50435000  1.0
  C  C155  1  0.35673000  0.55189000  0.00435000  1.0
  C  C156  1  0.14329000  0.05189000  0.00434000  1.0
  C  C157  1  0.35670000  0.94812000  0.50435000  1.0
  C  C158  1  0.85670000  0.55189000  0.49565000  1.0
  C  C159  1  0.64324000  0.44811000  0.99565000  1.0
  C  C160  1  0.00880000  0.91759000  0.91693000  1.0
  C  C161  1  0.49119000  0.08242000  0.41694000  1.0
  C  C162  1  0.99120000  0.41757000  0.58306000  1.0
  C  C163  1  0.50886000  0.58242000  0.08306000  1.0
  C  C164  1  0.99119000  0.08242000  0.08307000  1.0
  C  C165  1  0.50876000  0.91759000  0.58307000  1.0
  C  C166  1  0.00881000  0.58242000  0.41693000  1.0
  C  C167  1  0.49112000  0.41757000  0.91694000  1.0
  C  C168  1  0.82877000  0.90970000  0.88463000  1.0
  C  C169  1  0.67119000  0.09029000  0.38464000  1.0
  C  C170  1  0.17119000  0.40971000  0.61537000  1.0
  C  C171  1  0.32886000  0.59029000  0.11537000  1.0
  C  C172  1  0.17119000  0.09029000  0.11536000  1.0
  C  C173  1  0.32876000  0.90971000  0.61538000  1.0
  C  C174  1  0.82882000  0.59028000  0.38462000  1.0
  C  C175  1  0.67113000  0.40970000  0.88464000  1.0
  C  C176  1  0.84378000  0.86442000  0.84797000  1.0
  C  C177  1  0.65621000  0.13558000  0.34797000  1.0
  C  C178  1  0.15619000  0.36443000  0.65204000  1.0
  C  C179  1  0.34385000  0.63558000  0.15203000  1.0
  C  C180  1  0.15622000  0.13558000  0.15203000  1.0
  C  C181  1  0.34378000  0.86443000  0.65204000  1.0
  C  C182  1  0.84383000  0.63556000  0.34796000  1.0
  C  C183  1  0.65615000  0.36442000  0.84797000  1.0
  C  C184  1  0.03544000  0.82478000  0.84453000  1.0
  C  C185  1  0.46455000  0.17522000  0.34453000  1.0
  C  C186  1  0.96457000  0.32478000  0.65547000  1.0
  C  C187  1  0.53554000  0.67521000  0.15548000  1.0
  C  C188  1  0.96457000  0.17523000  0.15547000  1.0
  C  C189  1  0.53545000  0.82479000  0.65547000  1.0
  C  C190  1  0.03546000  0.67521000  0.34453000  1.0
  C  C191  1  0.46448000  0.32478000  0.84453000  1.0
  C  C192  1  0.21387000  0.83208000  0.87725000  1.0
  C  C193  1  0.28612000  0.16793000  0.37725000  1.0
  C  C194  1  0.78612000  0.33209000  0.62275000  1.0
  C  C195  1  0.71397000  0.66791000  0.12275000  1.0
  C  C196  1  0.78615000  0.16792000  0.12275000  1.0
  C  C197  1  0.71387000  0.83208000  0.62275000  1.0
  C  C198  1  0.21392000  0.66791000  0.37724000  1.0
  C  C199  1  0.28605000  0.33208000  0.87725000  1.0
  C  C200  1  0.20200000  0.87873000  0.91248000  1.0
  C  C201  1  0.29798000  0.12127000  0.41248000  1.0
  C  C202  1  0.79795000  0.37873000  0.58753000  1.0
  C  C203  1  0.70211000  0.62126000  0.08753000  1.0
  C  C204  1  0.79799000  0.12128000  0.08752000  1.0
  C  C205  1  0.70200000  0.87874000  0.58753000  1.0
  C  C206  1  0.20205000  0.62127000  0.41248000  1.0
  C  C207  1  0.29788000  0.37873000  0.91248000  1.0
  C  C208  1  0.05980000  0.77381000  0.80767000  1.0
  C  C209  1  0.44025000  0.22619000  0.30767000  1.0
  C  C210  1  0.94024000  0.27381000  0.69233000  1.0
  C  C211  1  0.55981000  0.72618000  0.19233000  1.0
  C  C212  1  0.94021000  0.22619000  0.19233000  1.0
  C  C213  1  0.55979000  0.77381000  0.69233000  1.0
  C  C214  1  0.05980000  0.72618000  0.30767000  1.0
  C  C215  1  0.44018000  0.27381000  0.80767000  1.0
  O  O216  1  0.60640000  0.12416000  0.76796000  1.0
  O  O217  1  0.89362000  0.87584000  0.26797000  1.0
  O  O218  1  0.39360000  0.62416000  0.73204000  1.0
  O  O219  1  0.10644000  0.37584000  0.23204000  1.0
  O  O220  1  0.39364000  0.87583000  0.23203000  1.0
  O  O221  1  0.10642000  0.12416000  0.73204000  1.0
  O  O222  1  0.60643000  0.37584000  0.26796000  1.0
  O  O223  1  0.89359000  0.62416000  0.76796000  1.0
  O  O224  1  0.84861000  0.16579000  0.82240000  1.0
  O  O225  1  0.65140000  0.83421000  0.32241000  1.0
  O  O226  1  0.15137000  0.66579000  0.67759000  1.0
  O  O227  1  0.34865000  0.33421000  0.17760000  1.0
  O  O228  1  0.15141000  0.83421000  0.17759000  1.0
  O  O229  1  0.34862000  0.16579000  0.67759000  1.0
  O  O230  1  0.84863000  0.33421000  0.32240000  1.0
  O  O231  1  0.65136000  0.66579000  0.82240000  1.0
  O  O232  1  0.20557000  0.72997000  0.81669000  1.0
  O  O233  1  0.29445000  0.27003000  0.31669000  1.0
  O  O234  1  0.79441000  0.22998000  0.68331000  1.0
  O  O235  1  0.70559000  0.77003000  0.18331000  1.0
  O  O236  1  0.79443000  0.27003000  0.18331000  1.0
  O  O237  1  0.70557000  0.72997000  0.68331000  1.0
  O  O238  1  0.20561000  0.77002000  0.31669000  1.0
  O  O239  1  0.29441000  0.22997000  0.81669000  1.0
  O  O240  1  0.93790000  0.77551000  0.76995000  1.0
  O  O241  1  0.56207000  0.22448000  0.26995000  1.0
  O  O242  1  0.06205000  0.27552000  0.73005000  1.0
  O  O243  1  0.43796000  0.72447000  0.23005000  1.0
  O  O244  1  0.06209000  0.22448000  0.23005000  1.0
  O  O245  1  0.43792000  0.77552000  0.73005000  1.0
  O  O246  1  0.93798000  0.72448000  0.26995000  1.0
  O  O247  1  0.56205000  0.27553000  0.76995000  1.0
