# generated using pymatgen
data_CuH3C4(NCl)2
_symmetry_space_group_name_H-M   'P 1'
_cell_length_a   3.70805000
_cell_length_b   12.58760000
_cell_length_c   12.77960000
_cell_angle_alpha   90.00010000
_cell_angle_beta   90.00010000
_cell_angle_gamma   91.85800000
_symmetry_Int_Tables_number   1
_chemical_formula_structural   CuH3C4(NCl)2
_chemical_formula_sum   'Cu4 H12 C16 N8 Cl8'
_cell_volume   596.17997747
_cell_formula_units_Z   4
loop_
 _symmetry_equiv_pos_site_id
 _symmetry_equiv_pos_as_xyz
  1  'x, y, z'
loop_
 _atom_site_type_symbol
 _atom_site_label
 _atom_site_symmetry_multiplicity
 _atom_site_fract_x
 _atom_site_fract_y
 _atom_site_fract_z
 _atom_site_occupancy
  Cu  Cu0  1  0.45568000  0.68221000  0.65373000  1.0
  Cu  Cu1  1  0.45569000  0.18221000  0.84627000  1.0
  Cu  Cu2  1  0.54432000  0.31779000  0.34627000  1.0
  Cu  Cu3  1  0.54432000  0.81779000  0.15373000  1.0
  H  H4  1  0.21191000  0.38528000  0.92279000  1.0
  H  H5  1  0.21191000  0.88528000  0.57721000  1.0
  H  H6  1  0.78809000  0.61472000  0.07721000  1.0
  H  H7  1  0.78809000  0.11472000  0.42279000  1.0
  H  H8  1  0.68746000  0.29120000  0.64312000  1.0
  H  H9  1  0.68744000  0.79120000  0.85688000  1.0
  H  H10  1  0.31255000  0.70880000  0.35688000  1.0
  H  H11  1  0.31254000  0.20880000  0.14312000  1.0
  H  H12  1  0.70657000  0.47859000  0.58100000  1.0
  H  H13  1  0.70657000  0.97859000  0.91900000  1.0
  H  H14  1  0.29344000  0.52141000  0.41900000  1.0
  H  H15  1  0.29342000  0.02141000  0.08100000  1.0
  C  C16  1  0.33892000  0.51075000  0.81089000  1.0
  C  C17  1  0.33893000  0.01074000  0.68911000  1.0
  C  C18  1  0.66108000  0.48926000  0.18911000  1.0
  C  C19  1  0.66108000  0.98926000  0.31089000  1.0
  C  C20  1  0.32404000  0.40634000  0.84653000  1.0
  C  C21  1  0.32404000  0.90634000  0.65347000  1.0
  C  C22  1  0.67596000  0.59366000  0.15347000  1.0
  C  C23  1  0.67596000  0.09366000  0.34652000  1.0
  C  C24  1  0.58442000  0.35372000  0.69237000  1.0
  C  C25  1  0.58441000  0.85372000  0.80762000  1.0
  C  C26  1  0.41559000  0.64628000  0.30763000  1.0
  C  C27  1  0.41558000  0.14628000  0.19237000  1.0
  C  C28  1  0.59400000  0.45789000  0.65734000  1.0
  C  C29  1  0.59400000  0.95788000  0.84266000  1.0
  C  C30  1  0.40601000  0.54212000  0.34266000  1.0
  C  C31  1  0.40599000  0.04212000  0.15734000  1.0
  N  N32  1  0.46950000  0.53860000  0.71593000  1.0
  N  N33  1  0.46950000  0.03860000  0.78407000  1.0
  N  N34  1  0.53051000  0.46140000  0.28407000  1.0
  N  N35  1  0.53049000  0.96140000  0.21593000  1.0
  N  N36  1  0.44714000  0.32656000  0.78714000  1.0
  N  N37  1  0.44713000  0.82656000  0.71286000  1.0
  N  N38  1  0.55286000  0.67344000  0.21286000  1.0
  N  N39  1  0.55286000  0.17344000  0.28714000  1.0
  Cl  Cl40  1  0.95438000  0.68111000  0.53770000  1.0
  Cl  Cl41  1  0.95439000  0.18111000  0.96230000  1.0
  Cl  Cl42  1  0.04562000  0.31889000  0.46230000  1.0
  Cl  Cl43  1  0.04561000  0.81889000  0.03770000  1.0
  Cl  Cl44  1  0.19580000  0.61094000  0.89090000  1.0
  Cl  Cl45  1  0.19582000  0.11094000  0.60910000  1.0
  Cl  Cl46  1  0.80420000  0.38906000  0.10910000  1.0
  Cl  Cl47  1  0.80419000  0.88906000  0.39090000  1.0
