# generated using pymatgen
data_AgH10C13SN3O4
_symmetry_space_group_name_H-M   'P 1'
_cell_length_a   6.97600000
_cell_length_b   8.41859000
_cell_length_c   24.42170000
_cell_angle_alpha   89.99990000
_cell_angle_beta   89.99980000
_cell_angle_gamma   69.99100000
_symmetry_Int_Tables_number   1
_chemical_formula_structural   AgH10C13SN3O4
_chemical_formula_sum   'Ag4 H40 C52 S4 N12 O16'
_cell_volume   1347.66734066
_cell_formula_units_Z   4
loop_
 _symmetry_equiv_pos_site_id
 _symmetry_equiv_pos_as_xyz
  1  'x, y, z'
loop_
 _atom_site_type_symbol
 _atom_site_label
 _atom_site_symmetry_multiplicity
 _atom_site_fract_x
 _atom_site_fract_y
 _atom_site_fract_z
 _atom_site_occupancy
  Ag  Ag0  1  0.39852000  0.62130000  0.54554000  1.0
  Ag  Ag1  1  0.10148000  0.87870000  0.04554000  1.0
  Ag  Ag2  1  0.60148000  0.37870000  0.45446000  1.0
  Ag  Ag3  1  0.89852000  0.12130000  0.95446000  1.0
  H  H4  1  0.55801000  0.11797000  0.75190000  1.0
  H  H5  1  0.94198000  0.38203000  0.25191000  1.0
  H  H6  1  0.44199000  0.88203000  0.24809000  1.0
  H  H7  1  0.05801000  0.61797000  0.74810000  1.0
  H  H8  1  0.67548000  0.80634000  0.73988000  1.0
  H  H9  1  0.82452000  0.69366000  0.23988000  1.0
  H  H10  1  0.32452000  0.19367000  0.26012000  1.0
  H  H11  1  0.17547000  0.30634000  0.76012000  1.0
  H  H12  1  0.73516000  0.67843000  0.64735000  1.0
  H  H13  1  0.76485000  0.82157000  0.14735000  1.0
  H  H14  1  0.26484000  0.32157000  0.35265000  1.0
  H  H15  1  0.23515000  0.17843000  0.85265000  1.0
  H  H16  1  0.68413000  0.86174000  0.56370000  1.0
  H  H17  1  0.81587000  0.63826000  0.06370000  1.0
  H  H18  1  0.31588000  0.13826000  0.43630000  1.0
  H  H19  1  0.18412000  0.36174000  0.93630000  1.0
  H  H20  1  0.15911000  0.99803000  0.52241000  1.0
  H  H21  1  0.34089000  0.50197000  0.02241000  1.0
  H  H22  1  0.84089000  0.00196000  0.47759000  1.0
  H  H23  1  0.65911000  0.49803000  0.97759000  1.0
  H  H24  1  0.96102000  0.30141000  0.66751000  1.0
  H  H25  1  0.53898000  0.19859000  0.16752000  1.0
  H  H26  1  0.03898000  0.69859000  0.33248000  1.0
  H  H27  1  0.46103000  0.80141000  0.83249000  1.0
  H  H28  1  0.07563000  0.03206000  0.72210000  1.0
  H  H29  1  0.42437000  0.46794000  0.22210000  1.0
  H  H30  1  0.92437000  0.96794000  0.27790000  1.0
  H  H31  1  0.57563000  0.53206000  0.77790000  1.0
  H  H32  1  0.23287000  0.75857000  0.67294000  1.0
  H  H33  1  0.26712000  0.74143000  0.17294000  1.0
  H  H34  1  0.76712000  0.24143000  0.32706000  1.0
  H  H35  1  0.73287000  0.25857000  0.82706000  1.0
  H  H36  1  0.99198000  0.56190000  0.54692000  1.0
  H  H37  1  0.50803000  0.93810000  0.04692000  1.0
  H  H38  1  0.00803000  0.43810000  0.45308000  1.0
  H  H39  1  0.49198000  0.06190000  0.95309000  1.0
  H  H40  1  0.06036000  0.46919000  0.61171000  1.0
  H  H41  1  0.43964000  0.03081000  0.11171000  1.0
  H  H42  1  0.93964000  0.53081000  0.38829000  1.0
  H  H43  1  0.56036000  0.96919000  0.88829000  1.0
  C  C44  1  0.55220000  0.16074000  0.66407000  1.0
  C  C45  1  0.94780000  0.33927000  0.16407000  1.0
  C  C46  1  0.44781000  0.83927000  0.33593000  1.0
  C  C47  1  0.05220000  0.66073000  0.83593000  1.0
  C  C48  1  0.58258000  0.06299000  0.71106000  1.0
  C  C49  1  0.91742000  0.43701000  0.21107000  1.0
  C  C50  1  0.41742000  0.93701000  0.28893000  1.0
  C  C51  1  0.08257000  0.56299000  0.78894000  1.0
  C  C52  1  0.65053000  0.88736000  0.70387000  1.0
  C  C53  1  0.84947000  0.61264000  0.20388000  1.0
  C  C54  1  0.34947000  0.11264000  0.29612000  1.0
  C  C55  1  0.15052000  0.38736000  0.79613000  1.0
  C  C56  1  0.68653000  0.81534000  0.65158000  1.0
  C  C57  1  0.81348000  0.68466000  0.15158000  1.0
  C  C58  1  0.31348000  0.18467000  0.34842000  1.0
  C  C59  1  0.18652000  0.31533000  0.84842000  1.0
  C  C60  1  0.65644000  0.91656000  0.60464000  1.0
  C  C61  1  0.84356000  0.58344000  0.10464000  1.0
  C  C62  1  0.34356000  0.08344000  0.39536000  1.0
  C  C63  1  0.15643000  0.41656000  0.89536000  1.0
  C  C64  1  0.58782000  0.09130000  0.61145000  1.0
  C  C65  1  0.91218000  0.40870000  0.11145000  1.0
  C  C66  1  0.41218000  0.90870000  0.38855000  1.0
  C  C67  1  0.08782000  0.59130000  0.88855000  1.0
  C  C68  1  0.54796000  0.22508000  0.56854000  1.0
  C  C69  1  0.95204000  0.27492000  0.06854000  1.0
  C  C70  1  0.45204000  0.77492000  0.43146000  1.0
  C  C71  1  0.04796000  0.72508000  0.93146000  1.0
  C  C72  1  0.13765000  0.00967000  0.56651000  1.0
  C  C73  1  0.36235000  0.49034000  0.06651000  1.0
  C  C74  1  0.86235000  0.99034000  0.43349000  1.0
  C  C75  1  0.63765000  0.50967000  0.93350000  1.0
  C  C76  1  0.05386000  0.16958000  0.59037000  1.0
  C  C77  1  0.44615000  0.33042000  0.09037000  1.0
  C  C78  1  0.94615000  0.83042000  0.40963000  1.0
  C  C79  1  0.55386000  0.66958000  0.90963000  1.0
  C  C80  1  0.03074000  0.17991000  0.64733000  1.0
  C  C81  1  0.46926000  0.32009000  0.14733000  1.0
  C  C82  1  0.96926000  0.82009000  0.35267000  1.0
  C  C83  1  0.53074000  0.67991000  0.85267000  1.0
  C  C84  1  0.09258000  0.03099000  0.67772000  1.0
  C  C85  1  0.40742000  0.46901000  0.17772000  1.0
  C  C86  1  0.90742000  0.96901000  0.32228000  1.0
  C  C87  1  0.59258000  0.53099000  0.82228000  1.0
  C  C88  1  0.17913000  0.87758000  0.65046000  1.0
  C  C89  1  0.32086000  0.62242000  0.15046000  1.0
  C  C90  1  0.82086000  0.12242000  0.34954000  1.0
  C  C91  1  0.67913000  0.37758000  0.84954000  1.0
  C  C92  1  0.00103000  0.31873000  0.55306000  1.0
  C  C93  1  0.49897000  0.18127000  0.05306000  1.0
  C  C94  1  0.99897000  0.68127000  0.44694000  1.0
  C  C95  1  0.50103000  0.81873000  0.94694000  1.0
  S  S96  1  0.46844000  0.38341000  0.65698000  1.0
  S  S97  1  0.03155000  0.11659000  0.15698000  1.0
  S  S98  1  0.53155000  0.61659000  0.34302000  1.0
  S  S99  1  0.96845000  0.88340000  0.84302000  1.0
  N  N100  1  0.49659000  0.38333000  0.59002000  1.0
  N  N101  1  0.00341000  0.11667000  0.09003000  1.0
  N  N102  1  0.50341000  0.61667000  0.40997000  1.0
  N  N103  1  0.99660000  0.88333000  0.90997000  1.0
  N  N104  1  0.20235000  0.86626000  0.59570000  1.0
  N  N105  1  0.29765000  0.63374000  0.09570000  1.0
  N  N106  1  0.79765000  0.13374000  0.40430000  1.0
  N  N107  1  0.70235000  0.36626000  0.90430000  1.0
  N  N108  1  0.99481000  0.46718000  0.57441000  1.0
  N  N109  1  0.50519000  0.03282000  0.07441000  1.0
  N  N110  1  0.00519000  0.53282000  0.42559000  1.0
  N  N111  1  0.49482000  0.96717000  0.92559000  1.0
  O  O112  1  0.60171000  0.45737000  0.68474000  1.0
  O  O113  1  0.89829000  0.04264000  0.18474000  1.0
  O  O114  1  0.39829000  0.54264000  0.31526000  1.0
  O  O115  1  0.10172000  0.95736000  0.81526000  1.0
  O  O116  1  0.25230000  0.45877000  0.67100000  1.0
  O  O117  1  0.24769000  0.04123000  0.17100000  1.0
  O  O118  1  0.74769000  0.54123000  0.32900000  1.0
  O  O119  1  0.75231000  0.95877000  0.82900000  1.0
  O  O120  1  0.56213000  0.19271000  0.51833000  1.0
  O  O121  1  0.93787000  0.30729000  0.01833000  1.0
  O  O122  1  0.43787000  0.80729000  0.48167000  1.0
  O  O123  1  0.06213000  0.69271000  0.98167000  1.0
  O  O124  1  0.96790000  0.30015000  0.50318000  1.0
  O  O125  1  0.53211000  0.19985000  0.00318000  1.0
  O  O126  1  0.03211000  0.69984000  0.49682000  1.0
  O  O127  1  0.46789000  0.80015000  0.99682000  1.0
