# generated using pymatgen
data_MnH16C23O8
_symmetry_space_group_name_H-M   'P 1'
_cell_length_a   4.69844000
_cell_length_b   18.84840000
_cell_length_c   24.10620000
_cell_angle_alpha   90.00000000
_cell_angle_beta   90.00000000
_cell_angle_gamma   89.99990000
_symmetry_Int_Tables_number   1
_chemical_formula_structural   MnH16C23O8
_chemical_formula_sum   'Mn4 H64 C92 O32'
_cell_volume   2134.79870362
_cell_formula_units_Z   4
loop_
 _symmetry_equiv_pos_site_id
 _symmetry_equiv_pos_as_xyz
  1  'x, y, z'
loop_
 _atom_site_type_symbol
 _atom_site_label
 _atom_site_symmetry_multiplicity
 _atom_site_fract_x
 _atom_site_fract_y
 _atom_site_fract_z
 _atom_site_occupancy
  Mn  Mn0  1  0.80871000  0.94858000  0.04363000  1.0
  Mn  Mn1  1  0.30871000  0.05142000  0.95637000  1.0
  Mn  Mn2  1  0.30871000  0.55142000  0.54363000  1.0
  Mn  Mn3  1  0.80871000  0.44857000  0.45637000  1.0
  H  H4  1  0.11335000  0.88066000  0.21422000  1.0
  H  H5  1  0.61335000  0.11934000  0.78578000  1.0
  H  H6  1  0.61336000  0.61934000  0.71422000  1.0
  H  H7  1  0.11335000  0.38066000  0.28578000  1.0
  H  H8  1  0.58760000  0.96690000  0.35044000  1.0
  H  H9  1  0.08760000  0.03310000  0.64956000  1.0
  H  H10  1  0.08760000  0.53310000  0.85044000  1.0
  H  H11  1  0.58760000  0.46690000  0.14956000  1.0
  H  H12  1  0.93197000  0.37528000  0.35742000  1.0
  H  H13  1  0.43197000  0.62472000  0.64258000  1.0
  H  H14  1  0.43197000  0.12472000  0.85742000  1.0
  H  H15  1  0.93197000  0.87528000  0.14258000  1.0
  H  H16  1  0.70318000  0.05207000  0.18496000  1.0
  H  H17  1  0.20318000  0.94793000  0.81504000  1.0
  H  H18  1  0.20318000  0.44793000  0.68496000  1.0
  H  H19  1  0.70318000  0.55207000  0.31504000  1.0
  H  H20  1  0.01025000  0.02231000  0.35856000  1.0
  H  H21  1  0.51026000  0.97769000  0.64144000  1.0
  H  H22  1  0.51025000  0.47769000  0.85856000  1.0
  H  H23  1  0.01025000  0.52231000  0.14144000  1.0
  H  H24  1  0.70998000  0.07948000  0.36814000  1.0
  H  H25  1  0.20998000  0.92052000  0.63186000  1.0
  H  H26  1  0.20998000  0.42052000  0.86814000  1.0
  H  H27  1  0.70998000  0.57948000  0.13186000  1.0
  H  H28  1  0.98281000  0.14377000  0.44082000  1.0
  H  H29  1  0.48281000  0.85623000  0.55918000  1.0
  H  H30  1  0.48281000  0.35623000  0.94082000  1.0
  H  H31  1  0.98281000  0.64377000  0.05918000  1.0
  H  H32  1  0.30371000  0.24703000  0.45842000  1.0
  H  H33  1  0.80372000  0.75297000  0.54158000  1.0
  H  H34  1  0.80371000  0.25297000  0.95842000  1.0
  H  H35  1  0.30371000  0.74703000  0.04158000  1.0
  H  H36  1  0.58719000  0.23988000  0.28906000  1.0
  H  H37  1  0.08719000  0.76012000  0.71094000  1.0
  H  H38  1  0.08719000  0.26012000  0.78906000  1.0
  H  H39  1  0.58719000  0.73988000  0.21094000  1.0
  H  H40  1  0.26041000  0.13782000  0.27078000  1.0
  H  H41  1  0.76041000  0.86218000  0.72922000  1.0
  H  H42  1  0.76041000  0.36218000  0.77078000  1.0
  H  H43  1  0.26041000  0.63782000  0.22922000  1.0
  H  H44  1  0.17500000  0.78912000  0.26683000  1.0
  H  H45  1  0.67500000  0.21088000  0.73317000  1.0
  H  H46  1  0.67500000  0.71088000  0.76683000  1.0
  H  H47  1  0.17500000  0.28912000  0.23317000  1.0
  H  H48  1  0.86172000  0.83707000  0.28584000  1.0
  H  H49  1  0.36172000  0.16293000  0.71416000  1.0
  H  H50  1  0.36172000  0.66293000  0.78584000  1.0
  H  H51  1  0.86172000  0.33707000  0.21416000  1.0
  H  H52  1  0.67721000  0.82471000  0.38508000  1.0
  H  H53  1  0.17721000  0.17529000  0.61492000  1.0
  H  H54  1  0.17721000  0.67529000  0.88508000  1.0
  H  H55  1  0.67721000  0.32471000  0.11492000  1.0
  H  H56  1  0.56958000  0.73422000  0.45783000  1.0
  H  H57  1  0.06957000  0.26578000  0.54217000  1.0
  H  H58  1  0.06958000  0.76578000  0.95783000  1.0
  H  H59  1  0.56958000  0.23422000  0.04217000  1.0
  H  H60  1  0.22685000  0.59921000  0.39333000  1.0
  H  H61  1  0.72685000  0.40079000  0.60667000  1.0
  H  H62  1  0.72685000  0.90079000  0.89333000  1.0
  H  H63  1  0.22685000  0.09921000  0.10667000  1.0
  H  H64  1  0.32548000  0.68740000  0.31853000  1.0
  H  H65  1  0.82548000  0.31260000  0.68147000  1.0
  H  H66  1  0.82548000  0.81260000  0.81853000  1.0
  H  H67  1  0.32548000  0.18740000  0.18147000  1.0
  C  C68  1  0.33261000  0.96493000  0.13263000  1.0
  C  C69  1  0.83262000  0.03507000  0.86737000  1.0
  C  C70  1  0.83261000  0.53507000  0.63263000  1.0
  C  C71  1  0.33262000  0.46493000  0.36737000  1.0
  C  C72  1  0.39898000  0.96667000  0.19350000  1.0
  C  C73  1  0.89898000  0.03333000  0.80650000  1.0
  C  C74  1  0.89898000  0.53333000  0.69350000  1.0
  C  C75  1  0.39898000  0.46667000  0.30650000  1.0
  C  C76  1  0.26755000  0.91837000  0.22968000  1.0
  C  C77  1  0.76755000  0.08163000  0.77032000  1.0
  C  C78  1  0.76755000  0.58163000  0.72968000  1.0
  C  C79  1  0.26755000  0.41837000  0.27032000  1.0
  C  C80  1  0.34163000  0.91854000  0.28562000  1.0
  C  C81  1  0.84163000  0.08146000  0.71438000  1.0
  C  C82  1  0.84162000  0.58146000  0.78562000  1.0
  C  C83  1  0.34163000  0.41854000  0.21438000  1.0
  C  C84  1  0.53602000  0.96840000  0.30649000  1.0
  C  C85  1  0.03602000  0.03160000  0.69351000  1.0
  C  C86  1  0.03602000  0.53160000  0.80649000  1.0
  C  C87  1  0.53602000  0.46840000  0.19351000  1.0
  C  C88  1  0.66060000  0.01692000  0.27007000  1.0
  C  C89  1  0.16060000  0.98308000  0.72993000  1.0
  C  C90  1  0.16060000  0.48308000  0.77007000  1.0
  C  C91  1  0.66060000  0.51692000  0.22993000  1.0
  C  C92  1  0.59718000  0.01557000  0.21320000  1.0
  C  C93  1  0.09718000  0.98443000  0.78680000  1.0
  C  C94  1  0.09718000  0.48443000  0.71320000  1.0
  C  C95  1  0.59718000  0.51557000  0.28680000  1.0
  C  C96  1  0.90939000  0.07226000  0.34455000  1.0
  C  C97  1  0.40939000  0.92774000  0.65545000  1.0
  C  C98  1  0.40939000  0.42774000  0.84455000  1.0
  C  C99  1  0.90939000  0.57226000  0.15545000  1.0
  C  C100  1  0.10398000  0.13404000  0.35456000  1.0
  C  C101  1  0.60398000  0.86596000  0.64544000  1.0
  C  C102  1  0.60398000  0.36596000  0.85455000  1.0
  C  C103  1  0.10398000  0.63404000  0.14544000  1.0
  C  C104  1  0.11766000  0.16437000  0.40763000  1.0
  C  C105  1  0.61766000  0.83563000  0.59237000  1.0
  C  C106  1  0.61766000  0.33563000  0.90763000  1.0
  C  C107  1  0.11766000  0.66437000  0.09237000  1.0
  C  C108  1  0.29550000  0.22182000  0.41780000  1.0
  C  C109  1  0.79551000  0.77818000  0.58220000  1.0
  C  C110  1  0.79550000  0.27818000  0.91780000  1.0
  C  C111  1  0.29551000  0.72182000  0.08220000  1.0
  C  C112  1  0.46426000  0.24933000  0.37491000  1.0
  C  C113  1  0.96426000  0.75067000  0.62509000  1.0
  C  C114  1  0.96427000  0.25067000  0.87491000  1.0
  C  C115  1  0.46426000  0.74933000  0.12509000  1.0
  C  C116  1  0.45315000  0.21872000  0.32198000  1.0
  C  C117  1  0.95315000  0.78128000  0.67802000  1.0
  C  C118  1  0.95316000  0.28128000  0.82198000  1.0
  C  C119  1  0.45315000  0.71872000  0.17802000  1.0
  C  C120  1  0.27269000  0.16164000  0.31184000  1.0
  C  C121  1  0.77269000  0.83836000  0.68816000  1.0
  C  C122  1  0.77269000  0.33836000  0.81184000  1.0
  C  C123  1  0.27269000  0.66164000  0.18816000  1.0
  C  C124  1  0.64629000  0.31144000  0.38658000  1.0
  C  C125  1  0.14629000  0.68856000  0.61342000  1.0
  C  C126  1  0.14629000  0.18856000  0.88658000  1.0
  C  C127  1  0.64629000  0.81144000  0.11342000  1.0
  C  C128  1  0.06227000  0.81438000  0.30164000  1.0
  C  C129  1  0.56227000  0.18562000  0.69836000  1.0
  C  C130  1  0.56227000  0.68562000  0.80164000  1.0
  C  C131  1  0.06227000  0.31438000  0.19836000  1.0
  C  C132  1  0.00794000  0.76181000  0.34701000  1.0
  C  C133  1  0.50794000  0.23819000  0.65299000  1.0
  C  C134  1  0.50794000  0.73818000  0.84701000  1.0
  C  C135  1  0.00794000  0.26182000  0.15299000  1.0
  C  C136  1  0.80015000  0.77569000  0.38730000  1.0
  C  C137  1  0.30015000  0.22431000  0.61270000  1.0
  C  C138  1  0.30015000  0.72431000  0.88730000  1.0
  C  C139  1  0.80015000  0.27569000  0.11270000  1.0
  C  C140  1  0.74044000  0.72567000  0.42803000  1.0
  C  C141  1  0.24044000  0.27433000  0.57197000  1.0
  C  C142  1  0.24043000  0.77433000  0.92803000  1.0
  C  C143  1  0.74043000  0.22567000  0.07197000  1.0
  C  C144  1  0.89146000  0.66143000  0.42971000  1.0
  C  C145  1  0.39146000  0.33857000  0.57029000  1.0
  C  C146  1  0.39146000  0.83857000  0.92971000  1.0
  C  C147  1  0.89146000  0.16143000  0.07029000  1.0
  C  C148  1  0.10609000  0.64836000  0.39075000  1.0
  C  C149  1  0.60609000  0.35164000  0.60925000  1.0
  C  C150  1  0.60609000  0.85164000  0.89075000  1.0
  C  C151  1  0.10609000  0.14836000  0.10925000  1.0
  C  C152  1  0.16102000  0.69810000  0.34936000  1.0
  C  C153  1  0.66102000  0.30190000  0.65064000  1.0
  C  C154  1  0.66103000  0.80190000  0.84936000  1.0
  C  C155  1  0.16103000  0.19810000  0.15064000  1.0
  C  C156  1  0.80404000  0.60569000  0.46992000  1.0
  C  C157  1  0.30404000  0.39431000  0.53008000  1.0
  C  C158  1  0.30404000  0.89431000  0.96992000  1.0
  C  C159  1  0.80405000  0.10569000  0.03008000  1.0
  O  O160  1  0.09982000  0.93480000  0.11690000  1.0
  O  O161  1  0.59983000  0.06520000  0.88310000  1.0
  O  O162  1  0.59983000  0.56520000  0.61690000  1.0
  O  O163  1  0.09983000  0.43480000  0.38310000  1.0
  O  O164  1  0.50754000  0.99329000  0.09934000  1.0
  O  O165  1  0.00754000  0.00671000  0.90066000  1.0
  O  O166  1  0.00754000  0.50671000  0.59934000  1.0
  O  O167  1  0.50754000  0.49329000  0.40066000  1.0
  O  O168  1  0.23634000  0.87134000  0.32368000  1.0
  O  O169  1  0.73633000  0.12866000  0.67632000  1.0
  O  O170  1  0.73634000  0.62866000  0.82368000  1.0
  O  O171  1  0.23634000  0.37134000  0.17632000  1.0
  O  O172  1  0.84961000  0.06779000  0.28664000  1.0
  O  O173  1  0.34961000  0.93221000  0.71336000  1.0
  O  O174  1  0.34961000  0.43221000  0.78664000  1.0
  O  O175  1  0.84961000  0.56779000  0.21336000  1.0
  O  O176  1  0.56652000  0.61329000  0.49346000  1.0
  O  O177  1  0.06653000  0.38671000  0.50654000  1.0
  O  O178  1  0.06653000  0.88671000  0.99346000  1.0
  O  O179  1  0.56652000  0.11329000  0.00654000  1.0
  O  O180  1  0.96833000  0.55093000  0.47725000  1.0
  O  O181  1  0.46833000  0.44907000  0.52275000  1.0
  O  O182  1  0.46834000  0.94907000  0.97725000  1.0
  O  O183  1  0.96833000  0.05093000  0.02275000  1.0
  O  O184  1  0.81132000  0.33179000  0.34503000  1.0
  O  O185  1  0.31132000  0.66821000  0.65497000  1.0
  O  O186  1  0.31132000  0.16821000  0.84503000  1.0
  O  O187  1  0.81132000  0.83179000  0.15497000  1.0
  O  O188  1  0.63966000  0.34243000  0.43222000  1.0
  O  O189  1  0.13966000  0.65757000  0.56778000  1.0
  O  O190  1  0.13966000  0.15757000  0.93222000  1.0
  O  O191  1  0.63966000  0.84243000  0.06778000  1.0
