# generated using pymatgen
data_Al6H11C60Cl3O28
_symmetry_space_group_name_H-M   'P 1'
_cell_length_a   12.50400000
_cell_length_b   12.54350000
_cell_length_c   27.00400000
_cell_angle_alpha   90.35990000
_cell_angle_beta   97.95060000
_cell_angle_gamma   119.06700000
_symmetry_Int_Tables_number   1
_chemical_formula_structural   Al6H11C60Cl3O28
_chemical_formula_sum   'Al6 H11 C60 Cl3 O28'
_cell_volume   3653.15469188
_cell_formula_units_Z   1
loop_
 _symmetry_equiv_pos_site_id
 _symmetry_equiv_pos_as_xyz
  1  'x, y, z'
loop_
 _atom_site_type_symbol
 _atom_site_label
 _atom_site_symmetry_multiplicity
 _atom_site_fract_x
 _atom_site_fract_y
 _atom_site_fract_z
 _atom_site_occupancy
  Al  Al0  1  0.18554000  0.58761000  0.51033000  1.0
  Al  Al1  1  0.92701000  0.33584000  0.49768000  1.0
  Al  Al2  1  0.91793000  0.57102000  0.49651000  1.0
  Al  Al3  1  0.16250000  0.08555000  0.97837000  1.0
  Al  Al4  1  0.42287000  0.08657000  0.99600000  1.0
  Al  Al5  1  0.42912000  0.32937000  0.99744000  1.0
  H  H6  1  0.09117000  0.11685000  0.19889000  1.0
  H  H7  1  0.33433000  0.50761000  0.22131000  1.0
  H  H8  1  0.29846000  0.50471000  0.31016000  1.0
  H  H9  1  0.52106000  0.12009000  0.77244000  1.0
  H  H10  1  0.78120000  0.50622000  0.80464000  1.0
  H  H11  1  0.81107000  0.52185000  0.71529000  1.0
  H  H12  1  0.55110000  0.13576000  0.68308000  1.0
  H  H13  1  0.29812000  0.99998000  0.31703000  1.0
  H  H14  1  0.05546000  0.11386000  0.28771000  1.0
  H  H15  1  0.39094000  0.69020000  0.55203000  1.0
  H  H16  1  0.95798000  0.98332000  0.99416000  1.0
  C  C17  1  0.10608000  0.38403000  0.58069000  1.0
  C  C18  1  0.20370000  0.86927000  0.81884000  1.0
  C  C19  1  0.18296000  0.84139000  0.76923000  1.0
  C  C20  1  0.77337000  0.37825000  0.55387000  1.0
  C  C21  1  0.16308000  0.81871000  0.72329000  1.0
  C  C22  1  0.14096000  0.79173000  0.67358000  1.0
  C  C23  1  0.12012000  0.76531000  0.62812000  1.0
  C  C24  1  0.23224000  0.33896000  0.86811000  1.0
  C  C25  1  0.21353000  0.34802000  0.82294000  1.0
  C  C26  1  0.19324000  0.35467000  0.77336000  1.0
  C  C27  1  0.17440000  0.35708000  0.72742000  1.0
  C  C28  1  0.73120000  0.42557000  0.77790000  1.0
  C  C29  1  0.15327000  0.36046000  0.67764000  1.0
  C  C30  1  0.13293000  0.36401000  0.63210000  1.0
  C  C31  1  0.62889000  0.30446000  0.12558000  1.0
  C  C32  1  0.09603000  0.71391000  0.57742000  1.0
  C  C33  1  0.65039000  0.31453000  0.17163000  1.0
  C  C34  1  0.67036000  0.32365000  0.22196000  1.0
  C  C35  1  0.68537000  0.33055000  0.26828000  1.0
  C  C36  1  0.70691000  0.34128000  0.31862000  1.0
  C  C37  1  0.73057000  0.35361000  0.36464000  1.0
  C  C38  1  0.10857000  0.76664000  0.38932000  1.0
  C  C39  1  0.74770000  0.43433000  0.72803000  1.0
  C  C40  1  0.23844000  0.93139000  0.28625000  1.0
  C  C41  1  0.25881000  0.95445000  0.23725000  1.0
  C  C42  1  0.08496000  0.75337000  0.20701000  1.0
  C  C43  1  0.06383000  0.72960000  0.25638000  1.0
  C  C44  1  0.10369000  0.36463000  0.44046000  1.0
  C  C45  1  0.14139000  0.81881000  0.29653000  1.0
  C  C46  1  0.18351000  0.86619000  0.19654000  1.0
  C  C47  1  0.20538000  0.88967000  0.14688000  1.0
  C  C48  1  0.12316000  0.79290000  0.34651000  1.0
  C  C49  1  0.22487000  0.91102000  0.10412000  1.0
  C  C50  1  0.68291000  0.32984000  0.69325000  1.0
  C  C51  1  0.12888000  0.32676000  0.39538000  1.0
  C  C52  1  0.11652000  0.19939000  0.27292000  1.0
  C  C53  1  0.13620000  0.20104000  0.22359000  1.0
  C  C54  1  0.27375000  0.42205000  0.23620000  1.0
  C  C55  1  0.25395000  0.42047000  0.28547000  1.0
  C  C56  1  0.78175000  0.37933000  0.41718000  1.0
  C  C57  1  0.17378000  0.30935000  0.30430000  1.0
  C  C58  1  0.21392000  0.31258000  0.20443000  1.0
  C  C59  1  0.23015000  0.31359000  0.15367000  1.0
  C  C60  1  0.14874000  0.31301000  0.35353000  1.0
  C  C61  1  0.64934000  0.31206000  0.79448000  1.0
  C  C62  1  0.24140000  0.31151000  0.10962000  1.0
  C  C63  1  0.24397000  0.95168000  0.91405000  1.0
  C  C64  1  0.56437000  0.27007000  0.93503000  1.0
  C  C65  1  0.25551000  0.30651000  0.91773000  1.0
  C  C66  1  0.24884000  0.95477000  0.05549000  1.0
  C  C67  1  0.57679000  0.28111000  0.07322000  1.0
  C  C68  1  0.08883000  0.71221000  0.43639000  1.0
  C  C69  1  0.25604000  0.28926000  0.05952000  1.0
  C  C70  1  0.72308000  0.35150000  0.59958000  1.0
  C  C71  1  0.60108000  0.21636000  0.70985000  1.0
  C  C72  1  0.63014000  0.30244000  0.84512000  1.0
  C  C73  1  0.58453000  0.20763000  0.75970000  1.0
  C  C74  1  0.70248000  0.33993000  0.64267000  1.0
  C  C75  1  0.61056000  0.29243000  0.88834000  1.0
  C  C76  1  0.22211000  0.89752000  0.86404000  1.0
  Cl  Cl77  1  0.37842000  0.09293000  0.22590000  1.0
  Cl  Cl78  1  0.99239000  0.64610000  0.15817000  1.0
  Cl  Cl79  1  0.94548000  0.59271000  0.26876000  1.0
  O  O80  1  0.17734000  0.69297000  0.56407000  1.0
  O  O81  1  0.54749000  0.35215000  0.95527000  1.0
  O  O82  1  0.35935000  0.38250000  0.94524000  1.0
  O  O83  1  0.18485000  0.48151000  0.56504000  1.0
  O  O84  1  0.17352000  0.18925000  0.03574000  1.0
  O  O85  1  0.16773000  0.97192000  0.02936000  1.0
  O  O86  1  0.35424000  0.97768000  0.04388000  1.0
  O  O87  1  0.55171000  0.17933000  0.05130000  1.0
  O  O88  1  0.55344000  0.36164000  0.05367000  1.0
  O  O89  1  0.35428000  0.37025000  0.04349000  1.0
  O  O90  1  0.34048000  0.16803000  0.99123000  1.0
  O  O91  1  0.81222000  0.30390000  0.43710000  1.0
  O  O92  1  0.00128000  0.30248000  0.55580000  1.0
  O  O93  1  0.79662000  0.30020000  0.53400000  1.0
  O  O94  1  0.79780000  0.48188000  0.53727000  1.0
  O  O95  1  0.99149000  0.68930000  0.55092000  1.0
  O  O96  1  0.16952000  0.68675000  0.45681000  1.0
  O  O97  1  0.17610000  0.47404000  0.45814000  1.0
  O  O98  1  0.00692000  0.28613000  0.45831000  1.0
  O  O99  1  0.79816000  0.47827000  0.43876000  1.0
  O  O100  1  0.98766000  0.68954000  0.45221000  1.0
  O  O101  1  0.00805000  0.49749000  0.50185000  1.0
  O  O102  1  0.17508000  0.20434000  0.92920000  1.0
  O  O103  1  0.17054000  0.98851000  0.92311000  1.0
  O  O104  1  0.33845000  0.96195000  0.94432000  1.0
  O  O105  1  0.53739000  0.16615000  0.95203000  1.0
  O  O106  1  0.34710000  0.67198000  0.51799000  1.0
  O  O107  1  0.00076000  0.00881000  0.96561000  1.0
