# generated using pymatgen
data_CdH14C12SN4O7
_symmetry_space_group_name_H-M   'P 1'
_cell_length_a   7.44971000
_cell_length_b   8.14851394
_cell_length_c   15.77826666
_cell_angle_alpha   83.99130169
_cell_angle_beta   76.33655640
_cell_angle_gamma   63.73488292
_symmetry_Int_Tables_number   1
_chemical_formula_structural   CdH14C12SN4O7
_chemical_formula_sum   'Cd2 H28 C24 S2 N8 O14'
_cell_volume   834.60999390
_cell_formula_units_Z   2
loop_
 _symmetry_equiv_pos_site_id
 _symmetry_equiv_pos_as_xyz
  1  'x, y, z'
loop_
 _atom_site_type_symbol
 _atom_site_label
 _atom_site_symmetry_multiplicity
 _atom_site_fract_x
 _atom_site_fract_y
 _atom_site_fract_z
 _atom_site_occupancy
  Cd  Cd0  1  0.99212000  0.42500000  0.64836000  1.0
  Cd  Cd1  1  0.14052000  0.92508000  0.35157000  1.0
  H  H2  1  0.75586000  0.34660000  0.51429000  1.0
  H  H3  1  0.77026000  0.84655000  0.48560000  1.0
  H  H4  1  0.42173000  0.33579000  0.51954000  1.0
  H  H5  1  0.44136000  0.83576000  0.48041000  1.0
  H  H6  1  0.21971000  0.50772000  0.77839000  1.0
  H  H7  1  0.49829000  0.00751000  0.22149000  1.0
  H  H8  1  0.44962000  0.53655000  0.85397000  1.0
  H  H9  1  0.80356000  0.03689000  0.14595000  1.0
  H  H10  1  0.53966000  0.68533000  0.78554000  1.0
  H  H11  1  0.82497000  0.18567000  0.21444000  1.0
  H  H12  1  0.82931000  0.12652000  0.77992000  1.0
  H  H13  1  0.10936000  0.62697000  0.22022000  1.0
  H  H14  1  0.96511000  0.10998000  0.86187000  1.0
  H  H15  1  0.32707000  0.61042000  0.13823000  1.0
  H  H16  1  0.50326000  0.12817000  0.81920000  1.0
  H  H17  1  0.82271000  0.62810000  0.18099000  1.0
  H  H18  1  0.19210000  0.15740000  0.92997000  1.0
  H  H19  1  0.62246000  0.65707000  0.07021000  1.0
  H  H20  1  0.15286000  0.23957000  0.08349000  1.0
  H  H21  1  0.73683000  0.73896000  0.91667000  1.0
  H  H22  1  0.42510000  0.28752000  0.12558000  1.0
  H  H23  1  0.05115000  0.78697000  0.87447000  1.0
  H  H24  1  0.73455000  0.26513000  0.01387000  1.0
  H  H25  1  0.24872000  0.76493000  0.98619000  1.0
  H  H26  1  0.04557000  0.36144000  0.45887000  1.0
  H  H27  1  0.00438000  0.86150000  0.54106000  1.0
  H  H28  1  0.14416000  0.49913000  0.45848000  1.0
  H  H29  1  0.10267000  0.99914000  0.54144000  1.0
  C  C30  1  0.63656000  0.38336000  0.57369000  1.0
  C  C31  1  0.71034000  0.88331000  0.42621000  1.0
  C  C32  1  0.45187000  0.37679000  0.57631000  1.0
  C  C33  1  0.52828000  0.87673000  0.42361000  1.0
  C  C34  1  0.34105000  0.47152000  0.71958000  1.0
  C  C35  1  0.56079000  0.97140000  0.28030000  1.0
  C  C36  1  0.52614000  0.47891000  0.71724000  1.0
  C  C37  1  0.74344000  0.97895000  0.28266000  1.0
  C  C38  1  0.56075000  0.54253000  0.79547000  1.0
  C  C39  1  0.85611000  0.04284000  0.20447000  1.0
  C  C40  1  0.82015000  0.18775000  0.84039000  1.0
  C  C41  1  0.16061000  0.68814000  0.15969000  1.0
  C  C42  1  0.63800000  0.19710000  0.90890000  1.0
  C  C43  1  0.04707000  0.69715000  0.09122000  1.0
  C  C44  1  0.48465000  0.16627000  0.88603000  1.0
  C  C45  1  0.87093000  0.66618000  0.11415000  1.0
  C  C46  1  0.31092000  0.18069000  0.94874000  1.0
  C  C47  1  0.76002000  0.68042000  0.05143000  1.0
  C  C48  1  0.28909000  0.22506000  0.03466000  1.0
  C  C49  1  0.82413000  0.72469000  0.96550000  1.0
  C  C50  1  0.44302000  0.25314000  0.05817000  1.0
  C  C51  1  0.00158000  0.75277000  0.94190000  1.0
  C  C52  1  0.61584000  0.24028000  0.99572000  1.0
  C  C53  1  0.11183000  0.74010000  0.00436000  1.0
  S  S54  1  0.81586000  0.41497000  0.81658000  1.0
  S  S55  1  0.13239000  0.91541000  0.18336000  1.0
  N  N56  1  0.67206000  0.43371000  0.64382000  1.0
  N  N57  1  0.81593000  0.93375000  0.35608000  1.0
  N  N58  1  0.30530000  0.42167000  0.64945000  1.0
  N  N59  1  0.45490000  0.92153000  0.35046000  1.0
  N  N60  1  0.27500000  0.99685000  0.66455000  1.0
  N  N61  1  0.43942000  0.49689000  0.33536000  1.0
  N  N62  1  0.81913000  0.85029000  0.68524000  1.0
  N  N63  1  0.00358000  0.35045000  0.31477000  1.0
  O  O64  1  0.07155000  0.43331000  0.49736000  1.0
  O  O65  1  0.06876000  0.93347000  0.50258000  1.0
  O  O66  1  0.27579000  0.05673000  0.73422000  1.0
  O  O67  1  0.51003000  0.55668000  0.26568000  1.0
  O  O68  1  0.38330000  0.83467000  0.64009000  1.0
  O  O69  1  0.52320000  0.33475000  0.35990000  1.0
  O  O70  1  0.15550000  0.10852000  0.61409000  1.0
  O  O71  1  0.26938000  0.60860000  0.38574000  1.0
  O  O72  1  0.74464000  0.01947000  0.67532000  1.0
  O  O73  1  0.91943000  0.51960000  0.32476000  1.0
  O  O74  1  0.83561000  0.77410000  0.75828000  1.0
  O  O75  1  0.09222000  0.27444000  0.24166000  1.0
  O  O76  1  0.88572000  0.74679000  0.61605000  1.0
  O  O77  1  0.00164000  0.24674000  0.38396000  1.0
