# generated using pymatgen
data_Zr3H14(C3O2)8
_symmetry_space_group_name_H-M   'P 1'
_cell_length_a   14.77340000
_cell_length_b   14.77342233
_cell_length_c   14.77345000
_cell_angle_alpha   59.99946196
_cell_angle_beta   90.00080013
_cell_angle_gamma   120.00005000
_symmetry_Int_Tables_number   1
_chemical_formula_structural   Zr3H14(C3O2)8
_chemical_formula_sum   'Zr6 H28 C48 O32'
_cell_volume   2279.96232790
_cell_formula_units_Z   2
loop_
 _symmetry_equiv_pos_site_id
 _symmetry_equiv_pos_as_xyz
  1  'x, y, z'
loop_
 _atom_site_type_symbol
 _atom_site_label
 _atom_site_symmetry_multiplicity
 _atom_site_fract_x
 _atom_site_fract_y
 _atom_site_fract_z
 _atom_site_occupancy
  Zr  Zr0  1  0.38033000  0.50000000  0.38033000  1.0
  Zr  Zr1  1  0.61967000  0.50000000  0.61967000  1.0
  Zr  Zr2  1  0.61968000  0.73936000  0.38032000  1.0
  Zr  Zr3  1  0.38032000  0.26064000  0.61968000  1.0
  Zr  Zr4  1  0.38031000  0.50000000  0.61969000  1.0
  Zr  Zr5  1  0.61968000  0.50000000  0.38031000  1.0
  H  H6  1  0.40583000  0.68832000  0.40584000  1.0
  H  H7  1  0.40584000  0.31168000  0.78249000  1.0
  H  H8  1  0.78248000  0.68832000  0.40584000  1.0
  H  H9  1  0.40584000  0.31168000  0.40584000  1.0
  H  H10  1  0.91361000  0.49777000  0.64638000  1.0
  H  H11  1  0.08415000  0.49776000  0.35586000  1.0
  H  H12  1  0.08417000  0.49777000  0.64638000  1.0
  H  H13  1  0.91360000  0.49777000  0.35585000  1.0
  H  H14  1  0.64637000  0.50223000  0.91361000  1.0
  H  H15  1  0.35586000  0.50224000  0.08416000  1.0
  H  H16  1  0.64638000  0.50223000  0.08417000  1.0
  H  H17  1  0.35586000  0.50224000  0.91360000  1.0
  H  H18  1  0.91360000  0.76945000  0.08417000  1.0
  H  H19  1  0.08416000  0.23054000  0.91360000  1.0
  H  H20  1  0.08416000  0.94001000  0.91361000  1.0
  H  H21  1  0.91360000  0.05998000  0.08416000  1.0
  H  H22  1  0.35585000  0.76945000  0.64639000  1.0
  H  H23  1  0.64639000  0.23055000  0.35585000  1.0
  H  H24  1  0.35586000  0.94002000  0.64638000  1.0
  H  H25  1  0.64638000  0.05998000  0.35586000  1.0
  H  H26  1  0.35585000  0.94002000  0.91360000  1.0
  H  H27  1  0.64638000  0.05998000  0.08417000  1.0
  H  H28  1  0.35586000  0.76946000  0.08416000  1.0
  H  H29  1  0.64639000  0.23055000  0.91360000  1.0
  H  H30  1  0.91360000  0.05998000  0.35585000  1.0
  H  H31  1  0.08416000  0.94001000  0.64639000  1.0
  H  H32  1  0.08417000  0.23055000  0.35585000  1.0
  H  H33  1  0.91360000  0.76946000  0.64638000  1.0
  C  C34  1  0.19320000  0.49505000  0.50249000  1.0
  C  C35  1  0.50246000  0.50496000  0.80184000  1.0
  C  C36  1  0.80186000  0.49506000  0.50246000  1.0
  C  C37  1  0.50250000  0.50496000  0.19320000  1.0
  C  C38  1  0.50250000  0.80434000  0.19320000  1.0
  C  C39  1  0.19320000  0.19567000  0.50249000  1.0
  C  C40  1  0.50247000  0.19567000  0.80185000  1.0
  C  C41  1  0.80184000  0.80433000  0.50246000  1.0
  C  C42  1  0.50248000  0.80433000  0.50248000  1.0
  C  C43  1  0.80185000  0.80432000  0.19320000  1.0
  C  C44  1  0.50249000  0.19568000  0.50247000  1.0
  C  C45  1  0.19320000  0.19568000  0.80185000  1.0
  C  C46  1  0.90373000  0.49656000  0.50173000  1.0
  C  C47  1  0.09283000  0.49655000  0.50172000  1.0
  C  C48  1  0.95166000  0.49743000  0.58351000  1.0
  C  C49  1  0.04576000  0.49743000  0.41906000  1.0
  C  C50  1  0.04575000  0.49742000  0.58352000  1.0
  C  C51  1  0.95167000  0.49743000  0.41906000  1.0
  C  C52  1  0.50172000  0.50344000  0.90373000  1.0
  C  C53  1  0.50172000  0.50345000  0.09283000  1.0
  C  C54  1  0.58350000  0.50256000  0.95167000  1.0
  C  C55  1  0.41906000  0.50257000  0.04577000  1.0
  C  C56  1  0.58352000  0.50258000  0.04576000  1.0
  C  C57  1  0.41906000  0.50257000  0.95167000  1.0
  C  C58  1  0.90373000  0.90546000  0.09282000  1.0
  C  C59  1  0.09282000  0.09454000  0.90373000  1.0
  C  C60  1  0.95166000  0.87072000  0.04577000  1.0
  C  C61  1  0.04576000  0.12927000  0.95167000  1.0
  C  C62  1  0.04576000  0.96482000  0.95167000  1.0
  C  C63  1  0.95166000  0.03517000  0.04577000  1.0
  C  C64  1  0.50172000  0.90545000  0.50172000  1.0
  C  C65  1  0.50172000  0.09455000  0.50173000  1.0
  C  C66  1  0.41907000  0.87074000  0.58351000  1.0
  C  C67  1  0.58351000  0.12927000  0.41907000  1.0
  C  C68  1  0.41907000  0.96483000  0.58351000  1.0
  C  C69  1  0.58352000  0.03518000  0.41906000  1.0
  C  C70  1  0.50173000  0.09457000  0.90372000  1.0
  C  C71  1  0.50172000  0.90544000  0.09283000  1.0
  C  C72  1  0.41907000  0.96483000  0.95166000  1.0
  C  C73  1  0.58352000  0.03518000  0.04576000  1.0
  C  C74  1  0.41906000  0.87073000  0.04576000  1.0
  C  C75  1  0.58352000  0.12928000  0.95166000  1.0
  C  C76  1  0.90373000  0.90544000  0.50173000  1.0
  C  C77  1  0.09283000  0.09456000  0.50172000  1.0
  C  C78  1  0.95167000  0.03518000  0.41906000  1.0
  C  C79  1  0.04576000  0.96482000  0.58352000  1.0
  C  C80  1  0.04577000  0.12928000  0.41906000  1.0
  C  C81  1  0.95167000  0.87073000  0.58351000  1.0
  O  O82  1  0.23291000  0.49520000  0.42546000  1.0
  O  O83  1  0.57934000  0.50480000  0.76229000  1.0
  O  O84  1  0.76229000  0.49521000  0.57934000  1.0
  O  O85  1  0.42546000  0.50480000  0.23291000  1.0
  O  O86  1  0.57936000  0.84166000  0.23290000  1.0
  O  O87  1  0.23291000  0.15835000  0.57935000  1.0
  O  O88  1  0.42543000  0.15834000  0.76231000  1.0
  O  O89  1  0.76230000  0.84166000  0.42544000  1.0
  O  O90  1  0.42544000  0.68775000  0.57935000  1.0
  O  O91  1  0.76231000  0.68775000  0.23290000  1.0
  O  O92  1  0.57936000  0.31225000  0.42544000  1.0
  O  O93  1  0.23290000  0.31225000  0.76231000  1.0
  O  O94  1  0.76231000  0.84166000  0.23290000  1.0
  O  O95  1  0.42546000  0.15836000  0.57934000  1.0
  O  O96  1  0.23291000  0.15835000  0.76230000  1.0
  O  O97  1  0.57934000  0.84165000  0.42545000  1.0
  O  O98  1  0.42545000  0.68774000  0.23292000  1.0
  O  O99  1  0.76228000  0.68774000  0.57934000  1.0
  O  O100  1  0.57934000  0.31225000  0.76230000  1.0
  O  O101  1  0.23291000  0.31225000  0.42546000  1.0
  O  O102  1  0.57937000  0.50480000  0.23290000  1.0
  O  O103  1  0.23290000  0.49521000  0.57936000  1.0
  O  O104  1  0.42543000  0.50479000  0.76231000  1.0
  O  O105  1  0.76232000  0.49522000  0.42543000  1.0
  O  O106  1  0.43262000  0.36524000  0.43262000  1.0
  O  O107  1  0.70215000  0.63476000  0.43262000  1.0
  O  O108  1  0.43262000  0.36524000  0.70214000  1.0
  O  O109  1  0.43262000  0.63476000  0.43262000  1.0
  O  O110  1  0.54958000  0.59918000  0.54960000  1.0
  O  O111  1  0.35123000  0.40082000  0.54960000  1.0
  O  O112  1  0.54959000  0.40081000  0.54958000  1.0
  O  O113  1  0.54960000  0.59918000  0.35122000  1.0
