# generated using pymatgen
data_ZnH11C12N3O5
_symmetry_space_group_name_H-M   'P 1'
_cell_length_a   8.17190000
_cell_length_b   8.66721000
_cell_length_c   9.93013000
_cell_angle_alpha   104.51100000
_cell_angle_beta   101.39500000
_cell_angle_gamma   99.99290000
_symmetry_Int_Tables_number   1
_chemical_formula_structural   ZnH11C12N3O5
_chemical_formula_sum   'Zn2 H22 C24 N6 O10'
_cell_volume   648.77487906
_cell_formula_units_Z   2
loop_
 _symmetry_equiv_pos_site_id
 _symmetry_equiv_pos_as_xyz
  1  'x, y, z'
loop_
 _atom_site_type_symbol
 _atom_site_label
 _atom_site_symmetry_multiplicity
 _atom_site_fract_x
 _atom_site_fract_y
 _atom_site_fract_z
 _atom_site_occupancy
  Zn  Zn0  1  0.66331000  0.98234000  0.65077000  1.0
  Zn  Zn1  1  0.33669000  0.01766000  0.34922000  1.0
  H  H2  1  0.87396000  0.94054000  0.41840000  1.0
  H  H3  1  0.12603000  0.05947000  0.58159000  1.0
  H  H4  1  0.87697000  0.73999000  0.19881000  1.0
  H  H5  1  0.12302000  0.26001000  0.80118000  1.0
  H  H6  1  0.45279000  0.41345000  0.26529000  1.0
  H  H7  1  0.54722000  0.58655000  0.73471000  1.0
  H  H8  1  0.47185000  0.63121000  0.48548000  1.0
  H  H9  1  0.52815000  0.36880000  0.51451000  1.0
  H  H10  1  0.84947000  0.34629000  0.79780000  1.0
  H  H11  1  0.15052000  0.65370000  0.20218000  1.0
  H  H12  1  0.85550000  0.57291000  0.00758000  1.0
  H  H13  1  0.14449000  0.42709000  0.99240000  1.0
  H  H14  1  0.46143000  0.23738000  0.09913000  1.0
  H  H15  1  0.53860000  0.76261000  0.90090000  1.0
  H  H16  1  0.46985000  0.02944000  0.88098000  1.0
  H  H17  1  0.53016000  0.97054000  0.11902000  1.0
  H  H18  1  0.98725000  0.32525000  0.48369000  1.0
  H  H19  1  0.01274000  0.67476000  0.51632000  1.0
  H  H20  1  0.82142000  0.42557000  0.43781000  1.0
  H  H21  1  0.17858000  0.57444000  0.56219000  1.0
  H  H22  1  0.85669000  0.26738000  0.30199000  1.0
  H  H23  1  0.14330000  0.73262000  0.69802000  1.0
  C  C24  1  0.78276000  0.82217000  0.38193000  1.0
  C  C25  1  0.21723000  0.17783000  0.61806000  1.0
  C  C26  1  0.78335000  0.70649000  0.25682000  1.0
  C  C27  1  0.21664000  0.29350000  0.74317000  1.0
  C  C28  1  0.66505000  0.55395000  0.20944000  1.0
  C  C29  1  0.33495000  0.44604000  0.79055000  1.0
  C  C30  1  0.55008000  0.52757000  0.29422000  1.0
  C  C31  1  0.44992000  0.47243000  0.70578000  1.0
  C  C32  1  0.55902000  0.64967000  0.41809000  1.0
  C  C33  1  0.44097000  0.35033000  0.58190000  1.0
  C  C34  1  0.76806000  0.32760000  0.86959000  1.0
  C  C35  1  0.23194000  0.67239000  0.13041000  1.0
  C  C36  1  0.77080000  0.45368000  0.98881000  1.0
  C  C37  1  0.22919000  0.54632000  0.01119000  1.0
  C  C38  1  0.66299000  0.42554000  0.07844000  1.0
  C  C39  1  0.33702000  0.57446000  0.92157000  1.0
  C  C40  1  0.55257000  0.26912000  0.03822000  1.0
  C  C41  1  0.44745000  0.73088000  0.96180000  1.0
  C  C42  1  0.55661000  0.15049000  0.91628000  1.0
  C  C43  1  0.44341000  0.84950000  0.08373000  1.0
  C  C44  1  0.72979000  0.18677000  0.45155000  1.0
  C  C45  1  0.27021000  0.81324000  0.54846000  1.0
  C  C46  1  0.85838000  0.30747000  0.41611000  1.0
  C  C47  1  0.14162000  0.69254000  0.58390000  1.0
  N  N48  1  0.67256000  0.79591000  0.46262000  1.0
  N  N49  1  0.32743000  0.20410000  0.53738000  1.0
  N  N50  1  0.66373000  0.17728000  0.83326000  1.0
  N  N51  1  0.33627000  0.82270000  0.16673000  1.0
  N  N52  1  0.90152000  0.86884000  0.81312000  1.0
  N  N53  1  0.09848000  0.13117000  0.18688000  1.0
  O  O54  1  0.96938000  0.97662000  0.76213000  1.0
  O  O55  1  0.03062000  0.02338000  0.23787000  1.0
  O  O56  1  0.73426000  0.83115000  0.78407000  1.0
  O  O57  1  0.26574000  0.16885000  0.21593000  1.0
  O  O58  1  0.98623000  0.79860000  0.88610000  1.0
  O  O59  1  0.01376000  0.20142000  0.11392000  1.0
  O  O60  1  0.77320000  0.15930000  0.57225000  1.0
  O  O61  1  0.22679000  0.84071000  0.42775000  1.0
  O  O62  1  0.58576000  0.12380000  0.35969000  1.0
  O  O63  1  0.41424000  0.87622000  0.64032000  1.0
