# generated using pymatgen
data_ZnH27C31I4NO8
_symmetry_space_group_name_H-M   'P 1'
_cell_length_a   10.87560000
_cell_length_b   18.46480000
_cell_length_c   18.81030000
_cell_angle_alpha   89.83250000
_cell_angle_beta   88.68300000
_cell_angle_gamma   89.79800000
_symmetry_Int_Tables_number   1
_chemical_formula_structural   ZnH27C31I4NO8
_chemical_formula_sum   'Zn2 H54 C62 I8 N2 O16'
_cell_volume   3776.36844997
_cell_formula_units_Z   2
loop_
 _symmetry_equiv_pos_site_id
 _symmetry_equiv_pos_as_xyz
  1  'x, y, z'
loop_
 _atom_site_type_symbol
 _atom_site_label
 _atom_site_symmetry_multiplicity
 _atom_site_fract_x
 _atom_site_fract_y
 _atom_site_fract_z
 _atom_site_occupancy
  Zn  Zn0  1  0.48397000  0.58291000  0.50173000  1.0
  Zn  Zn1  1  0.48752000  0.41855000  0.50574000  1.0
  H  H2  1  0.43228000  0.69817000  0.60858000  1.0
  H  H3  1  0.54927000  0.69780000  0.39817000  1.0
  H  H4  1  0.43435000  0.83379000  0.61387000  1.0
  H  H5  1  0.56367000  0.83324000  0.39494000  1.0
  H  H6  1  0.43553000  0.93171000  0.39651000  1.0
  H  H7  1  0.56485000  0.93406000  0.61110000  1.0
  H  H8  1  0.11101000  0.65889000  0.54520000  1.0
  H  H9  1  0.85780000  0.66344000  0.47416000  1.0
  H  H10  1  0.62832000  0.41311000  0.85555000  1.0
  H  H11  1  0.53660000  0.43695000  0.12931000  1.0
  H  H12  1  0.57509000  0.62282000  0.69627000  1.0
  H  H13  1  0.71402000  0.59647000  0.31161000  1.0
  H  H14  1  0.56907000  0.61926000  0.06959000  1.0
  H  H15  1  0.55612000  0.62287000  0.93831000  1.0
  H  H16  1  0.31488000  0.00416000  0.33446000  1.0
  H  H17  1  0.46912000  0.01216000  0.30040000  1.0
  H  H18  1  0.42190000  0.13937000  0.25891000  1.0
  H  H19  1  0.32122000  0.07527000  0.22036000  1.0
  H  H20  1  0.26811000  0.13033000  0.29234000  1.0
  H  H21  1  0.53764000  0.01612000  0.70625000  1.0
  H  H22  1  0.68924000  0.00953000  0.66783000  1.0
  H  H23  1  0.68991000  0.08286000  0.78010000  1.0
  H  H24  1  0.73283000  0.13736000  0.70544000  1.0
  H  H25  1  0.58205000  0.14462000  0.74367000  1.0
  H  H26  1  0.25444000  0.12167000  0.47214000  1.0
  H  H27  1  0.13885000  0.16643000  0.52461000  1.0
  H  H28  1  0.13375000  0.05922000  0.60914000  1.0
  H  H29  1  0.09938000  0.03253000  0.52098000  1.0
  H  H30  1  0.24808000  0.01503000  0.55506000  1.0
  H  H31  1  0.84834000  0.17687000  0.47558000  1.0
  H  H32  1  0.73911000  0.12708000  0.52818000  1.0
  H  H33  1  0.86223000  0.07182000  0.38910000  1.0
  H  H34  1  0.90176000  0.04420000  0.47642000  1.0
  H  H35  1  0.75406000  0.02293000  0.44327000  1.0
  H  H36  1  0.28215000  0.25323000  0.66666667  1.0
  H  H37  1  0.16479000  0.25810000  0.60178000  1.0
  H  H38  1  0.13821000  0.39079000  0.62529000  1.0
  H  H39  1  0.11190000  0.33866000  0.70364000  1.0
  H  H40  1  0.25377000  0.38638000  0.69092000  1.0
  H  H41  1  0.59669000  0.31978000  0.32547000  1.0
  H  H42  1  0.70218000  0.24710000  0.34295000  1.0
  H  H43  1  0.87226000  0.33712000  0.35778000  1.0
  H  H44  1  0.80350000  0.34958000  0.27340000  1.0
  H  H45  1  0.76600000  0.40955000  0.34450000  1.0
  H  H46  1  0.00118000  0.48666000  0.89867000  1.0
  H  H47  1  0.88262000  0.51714000  0.84176000  1.0
  H  H48  1  0.88268000  0.39769000  0.77945000  1.0
  H  H49  1  0.03254000  0.43632000  0.77672000  1.0
  H  H50  1  0.99814000  0.36453000  0.83728000  1.0
  H  H51  1  0.94780000  0.38673000  0.13102000  1.0
  H  H52  1  0.89039000  0.47497000  0.14995000  1.0
  H  H53  1  0.07304000  0.43649000  0.02764000  1.0
  H  H54  1  0.11039000  0.48098000  0.10834000  1.0
  H  H55  1  0.01459000  0.52520000  0.04636000  1.0
  C  C56  1  0.54352000  0.51198000  0.36891000  1.0
  C  C57  1  0.48078000  0.50926000  0.63898000  1.0
  C  C58  1  0.64139000  0.58644000  0.79770000  1.0
  C  C59  1  0.71889000  0.56476000  0.20095000  1.0
  C  C60  1  0.58562000  0.57753000  0.73272000  1.0
  C  C61  1  0.67668000  0.56096000  0.27136000  1.0
  C  C62  1  0.54252000  0.50992000  0.70992000  1.0
  C  C63  1  0.58377000  0.51228000  0.29183000  1.0
  C  C64  1  0.76261000  0.48478000  0.95456000  1.0
  C  C65  1  0.76496000  0.47998000  0.02964000  1.0
  C  C66  1  0.69310000  0.52826000  0.07097000  1.0
  C  C67  1  0.68322000  0.53436000  0.92133000  1.0
  C  C68  1  0.62423000  0.58207000  0.03703000  1.0
  C  C69  1  0.61783000  0.58450000  0.96356000  1.0
  C  C70  1  0.45994000  0.73094000  0.56265000  1.0
  C  C71  1  0.52599000  0.73073000  0.44462000  1.0
  C  C72  1  0.46297000  0.80602000  0.56518000  1.0
  C  C73  1  0.53197000  0.80572000  0.44325000  1.0
  C  C74  1  0.49908000  0.84548000  0.50434000  1.0
  C  C75  1  0.46519000  0.96229000  0.44228000  1.0
  C  C76  1  0.53478000  0.96358000  0.56448000  1.0
  C  C77  1  0.71850000  0.49483000  0.52424000  1.0
  C  C78  1  0.25640000  0.49779000  0.48100000  1.0
  C  C79  1  0.46279000  0.03803000  0.44191000  1.0
  C  C80  1  0.53442000  0.03940000  0.56309000  1.0
  C  C81  1  0.49739000  0.07724000  0.50214000  1.0
  C  C82  1  0.50024000  0.92534000  0.50386000  1.0
  C  C83  1  0.39947000  0.19392000  0.53851000  1.0
  C  C84  1  0.58491000  0.19624000  0.46395000  1.0
  C  C85  1  0.40271000  0.27013000  0.54035000  1.0
  C  C86  1  0.57659000  0.27213000  0.46303000  1.0
  C  C87  1  0.49402000  0.15737000  0.50137000  1.0
  C  C88  1  0.92294000  0.55408000  0.50920000  1.0
  C  C89  1  0.04941000  0.55508000  0.49698000  1.0
  C  C90  1  0.85617000  0.49034000  0.51888000  1.0
  C  C91  1  0.11867000  0.49241000  0.48431000  1.0
  C  C92  1  0.92679000  0.42585000  0.51360000  1.0
  C  C93  1  0.05045000  0.42715000  0.48738000  1.0
  C  C94  1  0.05663000  0.63612000  0.50258000  1.0
  C  C95  1  0.91283000  0.63513000  0.51349000  1.0
  C  C96  1  0.56575000  0.44980000  0.75380000  1.0
  C  C97  1  0.53442000  0.46701000  0.24015000  1.0
  C  C98  1  0.61625000  0.45960000  0.82062000  1.0
  C  C99  1  0.57764000  0.47054000  0.16989000  1.0
  C  C100  1  0.65181000  0.52804000  0.84547000  1.0
  C  C101  1  0.66973000  0.51984000  0.14873000  1.0
  C  C102  1  0.38952000  0.04284000  0.32204000  1.0
  C  C103  1  0.34787000  0.10054000  0.27047000  1.0
  C  C104  1  0.61370000  0.04742000  0.68157000  1.0
  C  C105  1  0.65700000  0.10668000  0.73042000  1.0
  C  C106  1  0.21489000  0.12663000  0.52630000  1.0
  C  C107  1  0.17174000  0.05410000  0.55477000  1.0
  C  C108  1  0.77685000  0.13468000  0.47387000  1.0
  C  C109  1  0.82639000  0.06426000  0.44366000  1.0
  C  C110  1  0.23614000  0.28897000  0.62877000  1.0
  C  C111  1  0.18233000  0.35549000  0.66430000  1.0
  C  C112  1  0.68136000  0.30449000  0.35276000  1.0
  C  C113  1  0.78745000  0.35306000  0.33120000  1.0
  C  C114  1  0.92244000  0.46889000  0.86715000  1.0
  C  C115  1  0.96077000  0.41334000  0.81203000  1.0
  C  C116  1  0.92560000  0.43942000  0.10720000  1.0
  C  C117  1  0.03731000  0.47236000  0.06983000  1.0
  I  I118  1  0.86073000  0.32851000  0.55966000  1.0
  I  I119  1  0.12290000  0.33113000  0.44119000  1.0
  I  I120  1  0.11837000  0.69441000  0.40739000  1.0
  I  I121  1  0.84809000  0.67763000  0.61589000  1.0
  I  I122  1  0.53576000  0.34054000  0.72605000  1.0
  I  I123  1  0.38213000  0.39958000  0.26346000  1.0
  I  I124  1  0.71784000  0.68933000  0.81854000  1.0
  I  I125  1  0.85633000  0.64116000  0.17432000  1.0
  N  N126  1  0.49034000  0.69381000  0.50332000  1.0
  N  N127  1  0.48883000  0.30677000  0.50182000  1.0
  O  O128  1  0.51391000  0.57354000  0.39456000  1.0
  O  O129  1  0.47123000  0.57122000  0.60892000  1.0
  O  O130  1  0.54687000  0.45207000  0.40121000  1.0
  O  O131  1  0.44494000  0.44995000  0.61347000  1.0
  O  O132  1  0.67314000  0.55662000  0.51017000  1.0
  O  O133  1  0.29909000  0.56076000  0.49123000  1.0
  O  O134  1  0.65962000  0.43730000  0.53814000  1.0
  O  O135  1  0.31738000  0.43974000  0.47327000  1.0
  O  O136  1  0.42444000  0.07897000  0.38616000  1.0
  O  O137  1  0.57146000  0.08178000  0.61775000  1.0
  O  O138  1  0.30824000  0.15480000  0.57290000  1.0
  O  O139  1  0.67920000  0.16073000  0.42854000  1.0
  O  O140  1  0.32620000  0.31435000  0.57631000  1.0
  O  O141  1  0.65794000  0.31526000  0.42883000  1.0
  O  O142  1  0.83251000  0.43646000  0.91558000  1.0
  O  O143  1  0.82854000  0.42303000  0.05833000  1.0
