# generated using pymatgen
data_HgH6C5(SN2)2
_symmetry_space_group_name_H-M   'P 1'
_cell_length_a   5.98601000
_cell_length_b   7.80301000
_cell_length_c   19.40340000
_cell_angle_alpha   89.99980000
_cell_angle_beta   89.99750000
_cell_angle_gamma   105.65100000
_symmetry_Int_Tables_number   1
_chemical_formula_structural   HgH6C5(SN2)2
_chemical_formula_sum   'Hg4 H24 C20 S8 N16'
_cell_volume   872.70791440
_cell_formula_units_Z   4
loop_
 _symmetry_equiv_pos_site_id
 _symmetry_equiv_pos_as_xyz
  1  'x, y, z'
loop_
 _atom_site_type_symbol
 _atom_site_label
 _atom_site_symmetry_multiplicity
 _atom_site_fract_x
 _atom_site_fract_y
 _atom_site_fract_z
 _atom_site_occupancy
  Hg  Hg0  1  0.80837000  0.66765000  0.91374000  1.0
  Hg  Hg1  1  0.19164000  0.33237000  0.41374000  1.0
  Hg  Hg2  1  0.19160000  0.33236000  0.08627000  1.0
  Hg  Hg3  1  0.80838000  0.66765000  0.58626000  1.0
  H  H4  1  0.20003000  0.97739000  0.81132000  1.0
  H  H5  1  0.79997000  0.02261000  0.31133000  1.0
  H  H6  1  0.79996000  0.02260000  0.18868000  1.0
  H  H7  1  0.20005000  0.97741000  0.68868000  1.0
  H  H8  1  0.04189000  0.10530000  0.85772000  1.0
  H  H9  1  0.95810000  0.89469000  0.35772000  1.0
  H  H10  1  0.95808000  0.89468000  0.14229000  1.0
  H  H11  1  0.04191000  0.10533000  0.64229000  1.0
  H  H12  1  0.62494000  0.01757000  0.85779000  1.0
  H  H13  1  0.37506000  0.98241000  0.35779000  1.0
  H  H14  1  0.37503000  0.98239000  0.14220000  1.0
  H  H15  1  0.62497000  0.01760000  0.64221000  1.0
  H  H16  1  0.47063000  0.82349000  0.81170000  1.0
  H  H17  1  0.52937000  0.17649000  0.31169000  1.0
  H  H18  1  0.52936000  0.17649000  0.18829000  1.0
  H  H19  1  0.47065000  0.82351000  0.68830000  1.0
  H  H20  1  0.99010000  0.71171000  0.75000000  1.0
  H  H21  1  0.00989000  0.28828000  0.25000000  1.0
  H  H22  1  0.68081000  0.64719000  0.75000000  1.0
  H  H23  1  0.31919000  0.35280000  0.24999000  1.0
  H  H24  1  0.83356000  0.27887000  0.79583000  1.0
  H  H25  1  0.16643000  0.72112000  0.29583000  1.0
  H  H26  1  0.16642000  0.72111000  0.20417000  1.0
  H  H27  1  0.83358000  0.27888000  0.70418000  1.0
  C  C28  1  0.28933000  0.49851000  0.85445000  1.0
  C  C29  1  0.71073000  0.50150000  0.35444000  1.0
  C  C30  1  0.71074000  0.50148000  0.14555000  1.0
  C  C31  1  0.28925000  0.49852000  0.64555000  1.0
  C  C32  1  0.31990000  0.79142000  0.98223000  1.0
  C  C33  1  0.68007000  0.20859000  0.48222000  1.0
  C  C34  1  0.68006000  0.20860000  0.01777000  1.0
  C  C35  1  0.31994000  0.79142000  0.51778000  1.0
  C  C36  1  0.04415000  0.02549000  0.81128000  1.0
  C  C37  1  0.95584000  0.97451000  0.31128000  1.0
  C  C38  1  0.95583000  0.97450000  0.18873000  1.0
  C  C39  1  0.04417000  0.02551000  0.68873000  1.0
  C  C40  1  0.62475000  0.93790000  0.81121000  1.0
  C  C41  1  0.37524000  0.06209000  0.31120000  1.0
  C  C42  1  0.37523000  0.06208000  0.18879000  1.0
  C  C43  1  0.62477000  0.93792000  0.68879000  1.0
  C  C44  1  0.83559000  0.76142000  0.75000000  1.0
  C  C45  1  0.16441000  0.23858000  0.25000000  1.0
  C  C46  1  0.83330000  0.19654000  0.75000000  1.0
  C  C47  1  0.16669000  0.80345000  0.25000000  1.0
  S  S48  1  0.49814000  0.40235000  0.86958000  1.0
  S  S49  1  0.50188000  0.59763000  0.36956000  1.0
  S  S50  1  0.50190000  0.59763000  0.13043000  1.0
  S  S51  1  0.49810000  0.40239000  0.63044000  1.0
  S  S52  1  0.06042000  0.76694000  0.01590000  1.0
  S  S53  1  0.93954000  0.23307000  0.51590000  1.0
  S  S54  1  0.93956000  0.23309000  0.98410000  1.0
  S  S55  1  0.06047000  0.76692000  0.48410000  1.0
  N  N56  1  0.13743000  0.56440000  0.84274000  1.0
  N  N57  1  0.86263000  0.43560000  0.34272000  1.0
  N  N58  1  0.86262000  0.43560000  0.15727000  1.0
  N  N59  1  0.13736000  0.56441000  0.65728000  1.0
  N  N60  1  0.50945000  0.81336000  0.96067000  1.0
  N  N61  1  0.49053000  0.18664000  0.46066000  1.0
  N  N62  1  0.49051000  0.18663000  0.03933000  1.0
  N  N63  1  0.50948000  0.81340000  0.53934000  1.0
  N  N64  1  0.83471000  0.86858000  0.81302000  1.0
  N  N65  1  0.16529000  0.13141000  0.31302000  1.0
  N  N66  1  0.16528000  0.13140000  0.18698000  1.0
  N  N67  1  0.83473000  0.86860000  0.68698000  1.0
  N  N68  1  0.04426000  0.13390000  0.75000000  1.0
  N  N69  1  0.95574000  0.86610000  0.25000000  1.0
  N  N70  1  0.62293000  0.04587000  0.75000000  1.0
  N  N71  1  0.37707000  0.95413000  0.25000000  1.0
