# generated using pymatgen
data_SmH12C11O9
_symmetry_space_group_name_H-M   'P 1'
_cell_length_a   8.81294000
_cell_length_b   8.81294000
_cell_length_c   19.64220000
_cell_angle_alpha   83.00570000
_cell_angle_beta   83.00580000
_cell_angle_gamma   61.90270000
_symmetry_Int_Tables_number   1
_chemical_formula_structural   SmH12C11O9
_chemical_formula_sum   'Sm4 H48 C44 O36'
_cell_volume   1332.14398190
_cell_formula_units_Z   4
loop_
 _symmetry_equiv_pos_site_id
 _symmetry_equiv_pos_as_xyz
  1  'x, y, z'
loop_
 _atom_site_type_symbol
 _atom_site_label
 _atom_site_symmetry_multiplicity
 _atom_site_fract_x
 _atom_site_fract_y
 _atom_site_fract_z
 _atom_site_occupancy
  Sm  Sm0  1  0.73481000  0.37967000  0.54055000  1.0
  Sm  Sm1  1  0.62033000  0.26519000  0.95945000  1.0
  Sm  Sm2  1  0.26519000  0.62033000  0.45945000  1.0
  Sm  Sm3  1  0.37967000  0.73481000  0.04055000  1.0
  H  H4  1  0.73894000  0.10826000  0.77282000  1.0
  H  H5  1  0.89174000  0.26106000  0.72718000  1.0
  H  H6  1  0.26106000  0.89174000  0.22718000  1.0
  H  H7  1  0.10826000  0.73894000  0.27282000  1.0
  H  H8  1  0.86286000  0.07214000  0.64434000  1.0
  H  H9  1  0.92786000  0.13714000  0.85566000  1.0
  H  H10  1  0.13714000  0.92786000  0.35565000  1.0
  H  H11  1  0.07214000  0.86286000  0.14434000  1.0
  H  H12  1  0.00620000  0.99077000  0.58193000  1.0
  H  H13  1  0.00923000  0.99380000  0.91807000  1.0
  H  H14  1  0.99380000  0.00923000  0.41807000  1.0
  H  H15  1  0.99077000  0.00620000  0.08193000  1.0
  H  H16  1  0.80709000  0.83260000  0.64405000  1.0
  H  H17  1  0.16739000  0.19291000  0.85595000  1.0
  H  H18  1  0.19291000  0.16740000  0.35595000  1.0
  H  H19  1  0.83261000  0.80709000  0.14405000  1.0
  H  H20  1  0.71944000  0.46987000  0.79038000  1.0
  H  H21  1  0.53013000  0.28056000  0.70962000  1.0
  H  H22  1  0.28056000  0.53013000  0.20962000  1.0
  H  H23  1  0.46987000  0.71944000  0.29038000  1.0
  H  H24  1  0.08687000  0.31516000  0.46406000  1.0
  H  H25  1  0.68485000  0.91312000  0.03594000  1.0
  H  H26  1  0.91312000  0.68485000  0.53593000  1.0
  H  H27  1  0.31515000  0.08688000  0.96407000  1.0
  H  H28  1  0.10775000  0.34265000  0.53649000  1.0
  H  H29  1  0.65734000  0.89225000  0.96351000  1.0
  H  H30  1  0.89225000  0.65734000  0.46351000  1.0
  H  H31  1  0.34265000  0.10775000  0.03649000  1.0
  H  H32  1  0.73882000  0.90389000  0.86049000  1.0
  H  H33  1  0.09610000  0.26118000  0.63951000  1.0
  H  H34  1  0.26118000  0.09610000  0.13951000  1.0
  H  H35  1  0.90389000  0.73882000  0.36049000  1.0
  H  H36  1  0.54514000  0.23243000  0.33812000  1.0
  H  H37  1  0.76757000  0.45486000  0.16188000  1.0
  H  H38  1  0.45486000  0.76757000  0.66188000  1.0
  H  H39  1  0.23243000  0.54514000  0.83812000  1.0
  H  H40  1  0.75457000  0.05811000  0.34744000  1.0
  H  H41  1  0.94190000  0.24543000  0.15256000  1.0
  H  H42  1  0.24543000  0.94189000  0.65256000  1.0
  H  H43  1  0.05811000  0.75457000  0.84744000  1.0
  H  H44  1  0.69278000  0.42066000  0.28927000  1.0
  H  H45  1  0.57934000  0.30723000  0.21073000  1.0
  H  H46  1  0.30723000  0.57934000  0.71073000  1.0
  H  H47  1  0.42066000  0.69277000  0.78927000  1.0
  H  H48  1  0.89107000  0.23057000  0.28924000  1.0
  H  H49  1  0.76943000  0.10893000  0.21076000  1.0
  H  H50  1  0.10893000  0.76943000  0.71076000  1.0
  H  H51  1  0.23057000  0.89107000  0.78924000  1.0
  C  C52  1  0.77228000  0.54027000  0.65417000  1.0
  C  C53  1  0.45973000  0.22772000  0.84583000  1.0
  C  C54  1  0.22772000  0.45973000  0.34583000  1.0
  C  C55  1  0.54027000  0.77228000  0.15417000  1.0
  C  C56  1  0.68288000  0.61948000  0.90390000  1.0
  C  C57  1  0.38052000  0.31712000  0.59610000  1.0
  C  C58  1  0.31712000  0.38052000  0.09610000  1.0
  C  C59  1  0.61948000  0.68288000  0.40390000  1.0
  C  C60  1  0.78794000  0.78749000  0.69697000  1.0
  C  C61  1  0.21250000  0.21206000  0.80303000  1.0
  C  C62  1  0.21206000  0.21250000  0.30303000  1.0
  C  C63  1  0.78750000  0.78793000  0.19697000  1.0
  C  C64  1  0.73857000  0.58355000  0.77910000  1.0
  C  C65  1  0.41645000  0.26143000  0.72090000  1.0
  C  C66  1  0.26143000  0.41645000  0.22090000  1.0
  C  C67  1  0.58355000  0.73857000  0.27910000  1.0
  C  C68  1  0.72647000  0.67916000  0.83298000  1.0
  C  C69  1  0.32083000  0.27353000  0.66702000  1.0
  C  C70  1  0.27353000  0.32083000  0.16702000  1.0
  C  C71  1  0.67917000  0.72647000  0.33298000  1.0
  C  C72  1  0.74505000  0.82903000  0.81910000  1.0
  C  C73  1  0.17097000  0.25495000  0.68089000  1.0
  C  C74  1  0.25495000  0.17097000  0.18090000  1.0
  C  C75  1  0.82903000  0.74505000  0.31911000  1.0
  C  C76  1  0.77627000  0.88251000  0.75106000  1.0
  C  C77  1  0.11749000  0.22373000  0.74894000  1.0
  C  C78  1  0.22373000  0.11749000  0.24894000  1.0
  C  C79  1  0.88251000  0.77627000  0.25106000  1.0
  C  C80  1  0.76899000  0.63773000  0.71133000  1.0
  C  C81  1  0.36227000  0.23101000  0.78867000  1.0
  C  C82  1  0.23101000  0.36227000  0.28867000  1.0
  C  C83  1  0.63773000  0.76899000  0.21133000  1.0
  C  C84  1  0.68536000  0.26088000  0.41275000  1.0
  C  C85  1  0.73912000  0.31465000  0.08725000  1.0
  C  C86  1  0.31465000  0.73912000  0.58725000  1.0
  C  C87  1  0.26088000  0.68535000  0.91275000  1.0
  C  C88  1  0.67889000  0.19918000  0.34538000  1.0
  C  C89  1  0.80083000  0.32111000  0.15462000  1.0
  C  C90  1  0.32112000  0.80082000  0.65462000  1.0
  C  C91  1  0.19918000  0.67888000  0.84538000  1.0
  C  C92  1  0.75220000  0.28075000  0.28505000  1.0
  C  C93  1  0.71925000  0.24780000  0.21495000  1.0
  C  C94  1  0.24780000  0.71925000  0.71495000  1.0
  C  C95  1  0.28075000  0.75219000  0.78505000  1.0
  O  O96  1  0.75542000  0.40175000  0.66729000  1.0
  O  O97  1  0.59825000  0.24458000  0.83271000  1.0
  O  O98  1  0.24458000  0.59825000  0.33271000  1.0
  O  O99  1  0.40175000  0.75543000  0.16729000  1.0
  O  O100  1  0.55316000  0.38633000  0.43951000  1.0
  O  O101  1  0.61367000  0.44684000  0.06049000  1.0
  O  O102  1  0.44684000  0.61367000  0.56049000  1.0
  O  O103  1  0.38633000  0.55316000  0.93951000  1.0
  O  O104  1  0.73055000  0.45946000  0.91519000  1.0
  O  O105  1  0.54054000  0.26945000  0.58481000  1.0
  O  O106  1  0.26945000  0.54054000  0.08481000  1.0
  O  O107  1  0.45946000  0.73055000  0.41519000  1.0
  O  O108  1  0.82673000  0.19268000  0.44258000  1.0
  O  O109  1  0.80732000  0.17327000  0.05742000  1.0
  O  O110  1  0.17326000  0.80732000  0.55742000  1.0
  O  O111  1  0.19268000  0.82674000  0.94258000  1.0
  O  O112  1  0.59425000  0.73369000  0.94700000  1.0
  O  O113  1  0.26631000  0.40575000  0.55300000  1.0
  O  O114  1  0.40575000  0.26631000  0.05300000  1.0
  O  O115  1  0.73369000  0.59425000  0.44700000  1.0
  O  O116  1  0.79820000  0.02627000  0.73562000  1.0
  O  O117  1  0.97372000  0.20180000  0.76438000  1.0
  O  O118  1  0.20180000  0.97372000  0.26438000  1.0
  O  O119  1  0.02628000  0.79820000  0.23562000  1.0
  O  O120  1  0.90625000  0.09876000  0.59834000  1.0
  O  O121  1  0.90124000  0.09375000  0.90166000  1.0
  O  O122  1  0.09375000  0.90124000  0.40166000  1.0
  O  O123  1  0.09876000  0.90625000  0.09834000  1.0
  O  O124  1  0.78779000  0.59521000  0.59195000  1.0
  O  O125  1  0.40479000  0.21221000  0.90805000  1.0
  O  O126  1  0.21220000  0.40480000  0.40805000  1.0
  O  O127  1  0.59521000  0.78780000  0.09195000  1.0
  O  O128  1  0.04391000  0.30111000  0.51195000  1.0
  O  O129  1  0.69889000  0.95609000  0.98805000  1.0
  O  O130  1  0.95609000  0.69889000  0.48805000  1.0
  O  O131  1  0.30111000  0.04391000  0.01195000  1.0
