# generated using pymatgen
data_Zn4H8C28S2Cl6O13
_symmetry_space_group_name_H-M   'P 1'
_cell_length_a   18.40760000
_cell_length_b   19.62464493
_cell_length_c   32.67730000
_cell_angle_alpha   78.71757597
_cell_angle_beta   73.64570000
_cell_angle_gamma   62.07043706
_symmetry_Int_Tables_number   1
_chemical_formula_structural   Zn4H8C28S2Cl6O13
_chemical_formula_sum   'Zn16 H32 C112 S8 Cl24 O52'
_cell_volume   9979.16940101
_cell_formula_units_Z   4
loop_
 _symmetry_equiv_pos_site_id
 _symmetry_equiv_pos_as_xyz
  1  'x, y, z'
loop_
 _atom_site_type_symbol
 _atom_site_label
 _atom_site_symmetry_multiplicity
 _atom_site_fract_x
 _atom_site_fract_y
 _atom_site_fract_z
 _atom_site_occupancy
  Zn  Zn0  1  0.57807000  0.54779000  0.48192000  1.0
  Zn  Zn1  1  0.47411000  0.47908000  0.56126000  1.0
  Zn  Zn2  1  0.54864000  0.39984000  0.47532000  1.0
  Zn  Zn3  1  0.39074000  0.56811000  0.48433000  1.0
  Zn  Zn4  1  0.19016000  0.18520000  0.26180000  1.0
  Zn  Zn5  1  0.17327000  0.35041000  0.27363000  1.0
  Zn  Zn6  1  0.28662000  0.26741000  0.18727000  1.0
  Zn  Zn7  1  0.34796000  0.19982000  0.27573000  1.0
  Zn  Zn8  1  0.77902000  0.75157000  0.68603000  1.0
  Zn  Zn9  1  0.85077000  0.68588000  0.77236000  1.0
  Zn  Zn10  1  0.67260000  0.70192000  0.77284000  1.0
  Zn  Zn11  1  0.70257000  0.85204000  0.76921000  1.0
  Zn  Zn12  1  0.07427000  0.90328000  0.97229000  1.0
  Zn  Zn13  1  0.88608000  0.04587000  0.98571000  1.0
  Zn  Zn14  1  0.05214000  0.07021000  0.97604000  1.0
  Zn  Zn15  1  0.98930000  0.98579000  0.06086000  1.0
  H  H16  1  0.98205000  0.45297000  0.37657000  1.0
  H  H17  1  0.93205000  0.50085000  0.33294000  1.0
  H  H18  1  0.78988000  0.54939000  0.38425000  1.0
  H  H19  1  0.83976000  0.50186000  0.42801000  1.0
  H  H20  1  0.97590000  0.66208000  0.57655000  1.0
  H  H21  1  0.96956000  0.75494000  0.57825000  1.0
  H  H22  1  0.11300000  0.71576000  0.52838000  1.0
  H  H23  1  0.11832000  0.62347000  0.52601000  1.0
  H  H24  1  0.68835000  0.75283000  0.57661000  1.0
  H  H25  1  0.77954000  0.66248000  0.57650000  1.0
  H  H26  1  0.73225000  0.61386000  0.52759000  1.0
  H  H27  1  0.64068000  0.70402000  0.52783000  1.0
  H  H28  1  0.46622000  0.20169000  0.36867000  1.0
  H  H29  1  0.51242000  0.24522000  0.32265000  1.0
  H  H30  1  0.56188000  0.29521000  0.36987000  1.0
  H  H31  1  0.51612000  0.25132000  0.41585000  1.0
  H  H32  1  0.97329000  0.09614000  0.16786000  1.0
  H  H33  1  0.06267000  0.00440000  0.16830000  1.0
  H  H34  1  0.11341000  0.05128000  0.21619000  1.0
  H  H35  1  0.02540000  0.14374000  0.21500000  1.0
  H  H36  1  0.63227000  0.19683000  0.03224000  1.0
  H  H37  1  0.62841000  0.10708000  0.03457000  1.0
  H  H38  1  0.48293000  0.16135000  0.08260000  1.0
  H  H39  1  0.48729000  0.25070000  0.08083000  1.0
  H  H40  1  0.72554000  0.01327000  0.92826000  1.0
  H  H41  1  0.77274000  0.05989000  0.88440000  1.0
  H  H42  1  0.72696000  0.01452000  0.83325000  1.0
  H  H43  1  0.67722000  0.97026000  0.87731000  1.0
  H  H44  1  0.32315000  0.74876000  0.91409000  1.0
  H  H45  1  0.27553000  0.79420000  0.86940000  1.0
  H  H46  1  0.41954000  0.74866000  0.81974000  1.0
  H  H47  1  0.46709000  0.70222000  0.86432000  1.0
  C  C48  1  0.56206000  0.56393000  0.57182000  1.0
  C  C49  1  0.55565000  0.31170000  0.55823000  1.0
  C  C50  1  0.70556000  0.41555000  0.43265000  1.0
  C  C51  1  0.40931000  0.44981000  0.43359000  1.0
  C  C52  1  0.45570000  0.68137000  0.43876000  1.0
  C  C53  1  0.29384000  0.57210000  0.56997000  1.0
  C  C54  1  0.03728000  0.30294000  0.31244000  1.0
  C  C55  1  0.18513000  0.43702000  0.18942000  1.0
  C  C56  1  0.20500000  0.17979000  0.17011000  1.0
  C  C57  1  0.46545000  0.18191000  0.19082000  1.0
  C  C58  1  0.30978000  0.06840000  0.31354000  1.0
  C  C59  1  0.29428000  0.33513000  0.32236000  1.0
  C  C60  1  0.95959000  0.67401000  0.68612000  1.0
  C  C61  1  0.79258000  0.56824000  0.81442000  1.0
  C  C62  1  0.67315000  0.67764000  0.68561000  1.0
  C  C63  1  0.54803000  0.83847000  0.81874000  1.0
  C  C64  1  0.70408000  0.92180000  0.67960000  1.0
  C  C65  1  0.82891000  0.81123000  0.81708000  1.0
  C  C66  1  0.94443000  0.92158000  0.92982000  1.0
  C  C67  1  0.90416000  0.18112000  0.93804000  1.0
  C  C68  1  0.20865000  0.95010000  0.93107000  1.0
  C  C69  1  0.07877000  0.07662000  0.05884000  1.0
  C  C70  1  0.06579000  0.81626000  0.05669000  1.0
  C  C71  1  0.80451000  0.06167000  0.07748000  1.0
  C  C72  1  0.46950000  0.80664000  0.40161000  1.0
  C  C73  1  0.30077000  0.94166000  0.34954000  1.0
  C  C74  1  0.43172000  0.75656000  0.41362000  1.0
  C  C75  1  0.33741000  0.99264000  0.33800000  1.0
  C  C76  1  0.34881000  0.87421000  0.37290000  1.0
  C  C77  1  0.42154000  0.87460000  0.37839000  1.0
  C  C78  1  0.57960000  0.21744000  0.62569000  1.0
  C  C79  1  0.68409000  0.01332000  0.60978000  1.0
  C  C80  1  0.58467000  0.23549000  0.58189000  1.0
  C  C81  1  0.67746000  0.99608000  0.65371000  1.0
  C  C82  1  0.64770000  0.09431000  0.59937000  1.0
  C  C83  1  0.61524000  0.13652000  0.63565000  1.0
  C  C84  1  0.95241000  0.32557000  0.34212000  1.0
  C  C85  1  0.78853000  0.38168000  0.40164000  1.0
  C  C86  1  0.91534000  0.39559000  0.36093000  1.0
  C  C87  1  0.82408000  0.31016000  0.38271000  1.0
  C  C88  1  0.83721000  0.42232000  0.38928000  1.0
  C  C89  1  0.90419000  0.28269000  0.35379000  1.0
  C  C90  1  0.92821000  0.46544000  0.36323000  1.0
  C  C91  1  0.83936000  0.49587000  0.39535000  1.0
  C  C92  1  0.04709000  0.64858000  0.65935000  1.0
  C  C93  1  0.21169000  0.60178000  0.60158000  1.0
  C  C94  1  0.05814000  0.66086000  0.61498000  1.0
  C  C95  1  0.20287000  0.59067000  0.64665000  1.0
  C  C96  1  0.13689000  0.63906000  0.58727000  1.0
  C  C97  1  0.12261000  0.61276000  0.67501000  1.0
  C  C98  1  0.01141000  0.69260000  0.57892000  1.0
  C  C99  1  0.10098000  0.66797000  0.54745000  1.0
  C  C100  1  0.63945000  0.64875000  0.65967000  1.0
  C  C101  1  0.58637000  0.59101000  0.60330000  1.0
  C  C102  1  0.66191000  0.65755000  0.61518000  1.0
  C  C103  1  0.56219000  0.58090000  0.64863000  1.0
  C  C104  1  0.63640000  0.63018000  0.58829000  1.0
  C  C105  1  0.58698000  0.61015000  0.67616000  1.0
  C  C106  1  0.71129000  0.68986000  0.57847000  1.0
  C  C107  1  0.68180000  0.65921000  0.54791000  1.0
  C  C108  1  0.31730000  0.37091000  0.35013000  1.0
  C  C109  1  0.37450000  0.42797000  0.40477000  1.0
  C  C110  1  0.39543000  0.32924000  0.36124000  1.0
  C  C111  1  0.29501000  0.47284000  0.39339000  1.0
  C  C112  1  0.42273000  0.35651000  0.38728000  1.0
  C  C113  1  0.26695000  0.44491000  0.36683000  1.0
  C  C114  1  0.47518000  0.25389000  0.35562000  1.0
  C  C115  1  0.50620000  0.28497000  0.38516000  1.0
  C  C116  1  0.11140000  0.58674000  0.17777000  1.0
  C  C117  1  0.13473000  0.66632000  0.06802000  1.0
  C  C118  1  0.15948000  0.51208000  0.16431000  1.0
  C  C119  1  0.08806000  0.74100000  0.08153000  1.0
  C  C120  1  0.14355000  0.61005000  0.10318000  1.0
  C  C121  1  0.10268000  0.64301000  0.14263000  1.0
  C  C122  1  0.11545000  0.10378000  0.08401000  1.0
  C  C123  1  0.17811000  0.15487000  0.13875000  1.0
  C  C124  1  0.09347000  0.09601000  0.12846000  1.0
  C  C125  1  0.20301000  0.16236000  0.09335000  1.0
  C  C126  1  0.12280000  0.12104000  0.15461000  1.0
  C  C127  1  0.17195000  0.13780000  0.06667000  1.0
  C  C128  1  0.04165000  0.06715000  0.16572000  1.0
  C  C129  1  0.07423000  0.09633000  0.19545000  1.0
  C  C130  1  0.72187000  0.08910000  0.10929000  1.0
  C  C131  1  0.55433000  0.15015000  0.16522000  1.0
  C  C132  1  0.64786000  0.12710000  0.09409000  1.0
  C  C133  1  0.62862000  0.11160000  0.18188000  1.0
  C  C134  1  0.56793000  0.15662000  0.12074000  1.0
  C  C135  1  0.71034000  0.08140000  0.15460000  1.0
  C  C136  1  0.61431000  0.15388000  0.05357000  1.0
  C  C137  1  0.52349000  0.18754000  0.08381000  1.0
  C  C138  1  0.88829000  0.44094000  0.85063000  1.0
  C  C139  1  0.80039000  0.30675000  0.90103000  1.0
  C  C140  1  0.81313000  0.49257000  0.83847000  1.0
  C  C141  1  0.87589000  0.25655000  0.91330000  1.0
  C  C142  1  0.80414000  0.37483000  0.87812000  1.0
  C  C143  1  0.88282000  0.37387000  0.87343000  1.0
  C  C144  1  0.92087000  0.88840000  0.90099000  1.0
  C  C145  1  0.86474000  0.83557000  0.84406000  1.0
  C  C146  1  0.84349000  0.93173000  0.88929000  1.0
  C  C147  1  0.94426000  0.78996000  0.85517000  1.0
  C  C148  1  0.81707000  0.90692000  0.86156000  1.0
  C  C149  1  0.97161000  0.81558000  0.88312000  1.0
  C  C150  1  0.76388000  0.00716000  0.89547000  1.0
  C  C151  1  0.73414000  0.97925000  0.86368000  1.0
  C  C152  1  0.29603000  0.92661000  0.90428000  1.0
  C  C153  1  0.46320000  0.87235000  0.84816000  1.0
  C  C154  1  0.33694000  0.85541000  0.88653000  1.0
  C  C155  1  0.42403000  0.94466000  0.86652000  1.0
  C  C156  1  0.41641000  0.82988000  0.85937000  1.0
  C  C157  1  0.34224000  0.97125000  0.89377000  1.0
  C  C158  1  0.32740000  0.78395000  0.88374000  1.0
  C  C159  1  0.41753000  0.75509000  0.85273000  1.0
  S  S160  1  0.33815000  0.79216000  0.39632000  1.0
  S  S161  1  0.43053000  0.95790000  0.35567000  1.0
  S  S162  1  0.63302000  0.15355000  0.55307000  1.0
  S  S163  1  0.62736000  0.07834000  0.68220000  1.0
  S  S164  1  0.19365000  0.51078000  0.10888000  1.0
  S  S165  1  0.05454000  0.74233000  0.13700000  1.0
  S  S166  1  0.73611000  0.45882000  0.85500000  1.0
  S  S167  1  0.95142000  0.29181000  0.89678000  1.0
  Cl  Cl168  1  0.56135000  0.79174000  0.41272000  1.0
  Cl  Cl169  1  0.20920000  0.95520000  0.33880000  1.0
  Cl  Cl170  1  0.53580000  0.28087000  0.66446000  1.0
  Cl  Cl171  1  0.72891000  0.94806000  0.57179000  1.0
  Cl  Cl172  1  0.06802000  0.61178000  0.22929000  1.0
  Cl  Cl173  1  0.17829000  0.64133000  0.01652000  1.0
  Cl  Cl174  1  0.97778000  0.45270000  0.84141000  1.0
  Cl  Cl175  1  0.71291000  0.29105000  0.91156000  1.0
  Cl  Cl176  1  0.77080000  0.25411000  0.39323000  1.0
  Cl  Cl177  1  0.94092000  0.19553000  0.33293000  1.0
  Cl  Cl178  1  0.29052000  0.55322000  0.66810000  1.0
  Cl  Cl179  1  0.12063000  0.59283000  0.72883000  1.0
  Cl  Cl180  1  0.50422000  0.53014000  0.67229000  1.0
  Cl  Cl181  1  0.55036000  0.59743000  0.73029000  1.0
  Cl  Cl182  1  0.23013000  0.56407000  0.41066000  1.0
  Cl  Cl183  1  0.16977000  0.50447000  0.35518000  1.0
  Cl  Cl184  1  0.27357000  0.20004000  0.06865000  1.0
  Cl  Cl185  1  0.20784000  0.14673000  0.01226000  1.0
  Cl  Cl186  1  0.62254000  0.10151000  0.23611000  1.0
  Cl  Cl187  1  0.79548000  0.03284000  0.17835000  1.0
  Cl  Cl188  1  0.01191000  0.70315000  0.83316000  1.0
  Cl  Cl189  1  0.06718000  0.75411000  0.89610000  1.0
  Cl  Cl190  1  0.47383000  0.00369000  0.85598000  1.0
  Cl  Cl191  1  0.30149000  0.05880000  0.91483000  1.0
  O  O192  1  0.50018000  0.50009000  0.49898000  1.0
  O  O193  1  0.60503000  0.56241000  0.53330000  1.0
  O  O194  1  0.53350000  0.36986000  0.57880000  1.0
  O  O195  1  0.66683000  0.37406000  0.44831000  1.0
  O  O196  1  0.50076000  0.54621000  0.58500000  1.0
  O  O197  1  0.68101000  0.48505000  0.44125000  1.0
  O  O198  1  0.55568000  0.31293000  0.51888000  1.0
  O  O199  1  0.48685000  0.40485000  0.43403000  1.0
  O  O200  1  0.40272000  0.65321000  0.44498000  1.0
  O  O201  1  0.36170000  0.50790000  0.45558000  1.0
  O  O202  1  0.52399000  0.65141000  0.45192000  1.0
  O  O203  1  0.35299000  0.50885000  0.58035000  1.0
  O  O204  1  0.29688000  0.61107000  0.53373000  1.0
  O  O205  1  0.24962000  0.25048000  0.24940000  1.0
  O  O206  1  0.07539000  0.23779000  0.29644000  1.0
  O  O207  1  0.15359000  0.43683000  0.22950000  1.0
  O  O208  1  0.24523000  0.22054000  0.15678000  1.0
  O  O209  1  0.06480000  0.35401000  0.30593000  1.0
  O  O210  1  0.18295000  0.15749000  0.20916000  1.0
  O  O211  1  0.23743000  0.37819000  0.16806000  1.0
  O  O212  1  0.40971000  0.22618000  0.16916000  1.0
  O  O213  1  0.35182000  0.10598000  0.31201000  1.0
  O  O214  1  0.45126000  0.16245000  0.23061000  1.0
  O  O215  1  0.24796000  0.08963000  0.29607000  1.0
  O  O216  1  0.22134000  0.36964000  0.31419000  1.0
  O  O217  1  0.35258000  0.27002000  0.30912000  1.0
  O  O218  1  0.75006000  0.74904000  0.74864000  1.0
  O  O219  1  0.90195000  0.69368000  0.66555000  1.0
  O  O220  1  0.85331000  0.58643000  0.79791000  1.0
  O  O221  1  0.65708000  0.66517000  0.72596000  1.0
  O  O222  1  0.94843000  0.67543000  0.72619000  1.0
  O  O223  1  0.71763000  0.71234000  0.66396000  1.0
  O  O224  1  0.71533000  0.60905000  0.81197000  1.0
  O  O225  1  0.56454000  0.77660000  0.80305000  1.0
  O  O226  1  0.68208000  0.92847000  0.72006000  1.0
  O  O227  1  0.59659000  0.87086000  0.81168000  1.0
  O  O228  1  0.74518000  0.85944000  0.66060000  1.0
  O  O229  1  0.84953000  0.73955000  0.81748000  1.0
  O  O230  1  0.77666000  0.86617000  0.79672000  1.0
  O  O231  1  0.99813000  0.00122000  0.99889000  1.0
  O  O232  1  0.02202000  0.89719000  0.92928000  1.0
  O  O233  1  0.85522000  0.14855000  0.95265000  1.0
  O  O234  1  0.16157000  0.02123000  0.93695000  1.0
  O  O235  1  0.88235000  0.97476000  0.95217000  1.0
  O  O236  1  0.18770000  0.89467000  0.94518000  1.0
  O  O237  1  0.97989000  0.15514000  0.94246000  1.0
  O  O238  1  0.06792000  0.10962000  0.02201000  1.0
  O  O239  1  0.02591000  0.87526000  0.07906000  1.0
  O  O240  1  0.05889000  0.02224000  0.07791000  1.0
  O  O241  1  0.08776000  0.81638000  0.01608000  1.0
  O  O242  1  0.79967000  0.05968000  0.03946000  1.0
  O  O243  1  0.87132000  0.04452000  0.08962000  1.0
