# generated using pymatgen
data_Tb2CuH26C22(NO11)2
_symmetry_space_group_name_H-M   'P 1'
_cell_length_a   6.07225000
_cell_length_b   8.94919000
_cell_length_c   13.48510000
_cell_angle_alpha   85.47540000
_cell_angle_beta   85.82070000
_cell_angle_gamma   87.85260000
_symmetry_Int_Tables_number   1
_chemical_formula_structural   Tb2CuH26C22(NO11)2
_chemical_formula_sum   'Tb2 Cu1 H26 C22 N2 O22'
_cell_volume   728.20630579
_cell_formula_units_Z   1
loop_
 _symmetry_equiv_pos_site_id
 _symmetry_equiv_pos_as_xyz
  1  'x, y, z'
loop_
 _atom_site_type_symbol
 _atom_site_label
 _atom_site_symmetry_multiplicity
 _atom_site_fract_x
 _atom_site_fract_y
 _atom_site_fract_z
 _atom_site_occupancy
  Tb  Tb0  1  0.60840000  0.34491000  0.89281000  1.0
  Tb  Tb1  1  0.39161000  0.65510000  0.10719000  1.0
  Cu  Cu2  1  0.00001000  0.99999000  0.50000000  1.0
  H  H3  1  0.94647000  0.22284000  0.74915000  1.0
  H  H4  1  0.05353000  0.77716000  0.25086000  1.0
  H  H5  1  0.08817000  0.19775000  0.84896000  1.0
  H  H6  1  0.91184000  0.80226000  0.15104000  1.0
  H  H7  1  0.40303000  0.09118000  0.81067000  1.0
  H  H8  1  0.59697000  0.90882000  0.18933000  1.0
  H  H9  1  0.34445000  0.03951000  0.92420000  1.0
  H  H10  1  0.65555000  0.96049000  0.07580000  1.0
  H  H11  1  0.19658000  0.53012000  0.89852000  1.0
  H  H12  1  0.80343000  0.46989000  0.10147000  1.0
  H  H13  1  0.15695000  0.41512000  0.81960000  1.0
  H  H14  1  0.84305000  0.58488000  0.18040000  1.0
  H  H15  1  0.71996000  0.41188000  0.47131000  1.0
  H  H16  1  0.28003000  0.58811000  0.52869000  1.0
  H  H17  1  0.47354000  0.42097000  0.32929000  1.0
  H  H18  1  0.52644000  0.57902000  0.67071000  1.0
  H  H19  1  0.15075000  0.25133000  0.34334000  1.0
  H  H20  1  0.84925000  0.74865000  0.65667000  1.0
  H  H21  1  0.92422000  0.04481000  0.17130000  1.0
  H  H22  1  0.07577000  0.95520000  0.82870000  1.0
  H  H23  1  0.88611000  0.22831000  0.20833000  1.0
  H  H24  1  0.11389000  0.77171000  0.79166000  1.0
  H  H25  1  0.28101000  0.13076000  0.20601000  1.0
  H  H26  1  0.71898000  0.86925000  0.79399000  1.0
  H  H27  1  0.28552000  0.11782000  0.07636000  1.0
  H  H28  1  0.71448000  0.88219000  0.92363000  1.0
  C  C29  1  0.36102000  0.14333000  0.55731000  1.0
  C  C30  1  0.63898000  0.85666000  0.44269000  1.0
  C  C31  1  0.53263000  0.24216000  0.55956000  1.0
  C  C32  1  0.46737000  0.75783000  0.44044000  1.0
  C  C33  1  0.57894000  0.33951000  0.47458000  1.0
  C  C34  1  0.42106000  0.66048000  0.52542000  1.0
  C  C35  1  0.44364000  0.34451000  0.39540000  1.0
  C  C36  1  0.55635000  0.65548000  0.60460000  1.0
  C  C37  1  0.26567000  0.24934000  0.40170000  1.0
  C  C38  1  0.73433000  0.75065000  0.59830000  1.0
  C  C39  1  0.31424000  0.01623000  0.63508000  1.0
  C  C40  1  0.68576000  0.98376000  0.36493000  1.0
  C  C41  1  0.66555000  0.24718000  0.64939000  1.0
  C  C42  1  0.33446000  0.75281000  0.35061000  1.0
  C  C43  1  0.84924000  0.21185000  0.05483000  1.0
  C  C44  1  0.15075000  0.78816000  0.94517000  1.0
  C  C45  1  0.95996000  0.16151000  0.14861000  1.0
  C  C46  1  0.04004000  0.83851000  0.85139000  1.0
  C  C47  1  0.21042000  0.17998000  0.13753000  1.0
  C  C48  1  0.78958000  0.82003000  0.86246000  1.0
  C  C49  1  0.27702000  0.34102000  0.12270000  1.0
  C  C50  1  0.72298000  0.65899000  0.87730000  1.0
  N  N51  1  0.23176000  0.14875000  0.47968000  1.0
  N  N52  1  0.76824000  0.85123000  0.52032000  1.0
  O  O53  1  0.16177000  0.92808000  0.61688000  1.0
  O  O54  1  0.83824000  0.07190000  0.38312000  1.0
  O  O55  1  0.95980000  0.25174000  0.82001000  1.0
  O  O56  1  0.04020000  0.74826000  0.17999000  1.0
  O  O57  1  0.42727000  0.99795000  0.70960000  1.0
  O  O58  1  0.57273000  0.00204000  0.29041000  1.0
  O  O59  1  0.36823000  0.13187000  0.87755000  1.0
  O  O60  1  0.63177000  0.86813000  0.12245000  1.0
  O  O61  1  0.27395000  0.47020000  0.84647000  1.0
  O  O62  1  0.72606000  0.52981000  0.15353000  1.0
  O  O63  1  0.86335000  0.19806000  0.64258000  1.0
  O  O64  1  0.13665000  0.80193000  0.35742000  1.0
  O  O65  1  0.56868000  0.30913000  0.72332000  1.0
  O  O66  1  0.43132000  0.69086000  0.27667000  1.0
  O  O67  1  0.72342000  0.12658000  0.01408000  1.0
  O  O68  1  0.27658000  0.87343000  0.98592000  1.0
  O  O69  1  0.87902000  0.34577000  0.01592000  1.0
  O  O70  1  0.12098000  0.65424000  0.98408000  1.0
  O  O71  1  0.40550000  0.38472000  0.04701000  1.0
  O  O72  1  0.59450000  0.61529000  0.95299000  1.0
  O  O73  1  0.21165000  0.43426000  0.18582000  1.0
  O  O74  1  0.78836000  0.56574000  0.81418000  1.0
