# generated using pymatgen
data_CdH18C25S(NO)6
_symmetry_space_group_name_H-M   'P 1'
_cell_length_a   8.22314000
_cell_length_b   8.22319000
_cell_length_c   20.67880000
_cell_angle_alpha   93.27560000
_cell_angle_beta   93.27630000
_cell_angle_gamma   107.55400000
_symmetry_Int_Tables_number   1
_chemical_formula_structural   CdH18C25S(NO)6
_chemical_formula_sum   'Cd2 H36 C50 S2 N12 O12'
_cell_volume   1326.94631692
_cell_formula_units_Z   2
loop_
 _symmetry_equiv_pos_site_id
 _symmetry_equiv_pos_as_xyz
  1  'x, y, z'
loop_
 _atom_site_type_symbol
 _atom_site_label
 _atom_site_symmetry_multiplicity
 _atom_site_fract_x
 _atom_site_fract_y
 _atom_site_fract_z
 _atom_site_occupancy
  Cd  Cd0  1  0.75689000  0.48479000  0.78104000  1.0
  Cd  Cd1  1  0.48479000  0.75688000  0.28103000  1.0
  H  H2  1  0.88330000  0.82053000  0.70636000  1.0
  H  H3  1  0.82053000  0.88330000  0.20636000  1.0
  H  H4  1  0.74140000  0.05585000  0.57516000  1.0
  H  H5  1  0.05585000  0.74139000  0.07516000  1.0
  H  H6  1  0.52988000  0.79421000  0.53983000  1.0
  H  H7  1  0.79421000  0.52986000  0.03983000  1.0
  H  H8  1  0.68787000  0.27210000  0.49060000  1.0
  H  H9  1  0.27210000  0.68787000  0.99060000  1.0
  H  H10  1  0.38683000  0.48960000  0.56012000  1.0
  H  H11  1  0.48960000  0.38681000  0.06013000  1.0
  H  H12  1  0.49774000  0.36529000  0.65577000  1.0
  H  H13  1  0.36528000  0.49773000  0.15577000  1.0
  H  H14  1  0.14603000  0.40848000  0.70959000  1.0
  H  H15  1  0.40848000  0.14603000  0.20959000  1.0
  H  H16  1  0.21542000  0.70756000  0.67445000  1.0
  H  H17  1  0.70757000  0.21542000  0.17445000  1.0
  H  H18  1  0.05639000  0.75428000  0.57150000  1.0
  H  H19  1  0.75428000  0.05638000  0.07150000  1.0
  H  H20  1  0.65845000  0.63950000  0.39826000  1.0
  H  H21  1  0.63950000  0.65845000  0.89827000  1.0
  H  H22  1  0.27427000  0.34418000  0.26374000  1.0
  H  H23  1  0.34419000  0.27428000  0.76374000  1.0
  H  H24  1  0.26993000  0.07419000  0.31667000  1.0
  H  H25  1  0.07420000  0.26993000  0.81668000  1.0
  H  H26  1  0.46700000  0.09301000  0.41417000  1.0
  H  H27  1  0.09301000  0.46699000  0.91417000  1.0
  H  H28  1  0.66863000  0.94450000  0.84764000  1.0
  H  H29  1  0.94449000  0.66863000  0.34764000  1.0
  H  H30  1  0.66870000  0.87976000  0.76380000  1.0
  H  H31  1  0.87976000  0.66870000  0.26380000  1.0
  H  H32  1  0.51781000  0.26351000  0.96622000  1.0
  H  H33  1  0.26350000  0.51781000  0.46621000  1.0
  H  H34  1  0.22361000  0.18168000  0.00820000  1.0
  H  H35  1  0.18168000  0.22362000  0.50820000  1.0
  H  H36  1  0.99219000  0.93702000  0.94644000  1.0
  H  H37  1  0.93702000  0.99219000  0.44643000  1.0
  C  C38  1  0.77148000  0.75376000  0.67379000  1.0
  C  C39  1  0.75375000  0.77148000  0.17379000  1.0
  C  C40  1  0.71548000  0.83482000  0.62266000  1.0
  C  C41  1  0.83482000  0.71548000  0.12266000  1.0
  C  C42  1  0.57474000  0.73734000  0.58094000  1.0
  C  C43  1  0.73733000  0.57473000  0.08094000  1.0
  C  C44  1  0.49563000  0.56761000  0.59193000  1.0
  C  C45  1  0.56760000  0.49562000  0.09193000  1.0
  C  C46  1  0.55533000  0.49753000  0.64464000  1.0
  C  C47  1  0.49752000  0.55532000  0.14464000  1.0
  C  C48  1  0.91912000  0.12570000  0.65092000  1.0
  C  C49  1  0.12569000  0.91912000  0.15091000  1.0
  C  C50  1  0.95627000  0.30449000  0.62962000  1.0
  C  C51  1  0.30448000  0.95627000  0.12961000  1.0
  C  C52  1  0.08220000  0.43655000  0.66608000  1.0
  C  C53  1  0.43655000  0.08219000  0.16608000  1.0
  C  C54  1  0.12093000  0.60184000  0.64602000  1.0
  C  C55  1  0.60184000  0.12093000  0.14602000  1.0
  C  C56  1  0.03294000  0.62896000  0.59030000  1.0
  C  C57  1  0.62896000  0.03294000  0.09030000  1.0
  C  C58  1  0.90627000  0.49016000  0.55762000  1.0
  C  C59  1  0.49015000  0.90627000  0.05762000  1.0
  C  C60  1  0.80857000  0.52466000  0.49903000  1.0
  C  C61  1  0.52466000  0.80857000  0.99904000  1.0
  C  C62  1  0.57759000  0.36899000  0.41473000  1.0
  C  C63  1  0.36900000  0.57759000  0.91473000  1.0
  C  C64  1  0.57434000  0.51275000  0.38177000  1.0
  C  C65  1  0.51275000  0.57434000  0.88177000  1.0
  C  C66  1  0.36090000  0.34628000  0.30595000  1.0
  C  C67  1  0.34629000  0.36090000  0.80595000  1.0
  C  C68  1  0.35702000  0.19780000  0.33589000  1.0
  C  C69  1  0.19780000  0.35702000  0.83590000  1.0
  C  C70  1  0.46674000  0.20868000  0.39077000  1.0
  C  C71  1  0.20868000  0.46674000  0.89078000  1.0
  C  C72  1  0.67611000  0.14085000  0.78180000  1.0
  C  C73  1  0.14085000  0.67610000  0.28180000  1.0
  C  C74  1  0.61849000  0.95536000  0.79841000  1.0
  C  C75  1  0.95535000  0.61849000  0.29841000  1.0
  C  C76  1  0.32814000  0.95328000  0.85574000  1.0
  C  C77  1  0.95327000  0.32814000  0.35574000  1.0
  C  C78  1  0.41202000  0.15900000  0.94193000  1.0
  C  C79  1  0.15900000  0.41201000  0.44193000  1.0
  C  C80  1  0.24955000  0.11441000  0.96493000  1.0
  C  C81  1  0.11440000  0.24954000  0.46493000  1.0
  C  C82  1  0.12198000  0.98021000  0.93095000  1.0
  C  C83  1  0.98020000  0.12198000  0.43095000  1.0
  C  C84  1  0.15874000  0.89717000  0.87529000  1.0
  C  C85  1  0.89717000  0.15874000  0.37529000  1.0
  C  C86  1  0.02184000  0.75200000  0.84042000  1.0
  C  C87  1  0.75199000  0.02183000  0.34042000  1.0
  S  S88  1  0.38957000  0.85344000  0.78796000  1.0
  S  S89  1  0.85344000  0.38957000  0.28796000  1.0
  N  N90  1  0.69021000  0.59050000  0.68438000  1.0
  N  N91  1  0.59049000  0.69020000  0.18437000  1.0
  N  N92  1  0.79242000  0.00579000  0.61235000  1.0
  N  N93  1  0.00578000  0.79242000  0.11235000  1.0
  N  N94  1  0.86750000  0.33039000  0.57662000  1.0
  N  N95  1  0.33039000  0.86750000  0.07662000  1.0
  N  N96  1  0.68870000  0.38182000  0.46981000  1.0
  N  N97  1  0.38182000  0.68870000  0.96981000  1.0
  N  N98  1  0.46866000  0.49996000  0.32861000  1.0
  N  N99  1  0.49996000  0.46866000  0.82861000  1.0
  N  N100  1  0.45083000  0.08103000  0.88927000  1.0
  N  N101  1  0.08103000  0.45082000  0.38927000  1.0
  O  O102  1  0.79930000  0.24412000  0.81840000  1.0
  O  O103  1  0.24412000  0.79929000  0.31840000  1.0
  O  O104  1  0.60346000  0.18665000  0.73336000  1.0
  O  O105  1  0.18665000  0.60346000  0.23336000  1.0
  O  O106  1  0.89191000  0.67887000  0.87089000  1.0
  O  O107  1  0.67887000  0.89191000  0.37088000  1.0
  O  O108  1  0.03830000  0.70437000  0.78200000  1.0
  O  O109  1  0.70436000  0.03831000  0.28200000  1.0
  O  O110  1  0.99876000  0.09429000  0.69857000  1.0
  O  O111  1  0.09428000  0.99876000  0.19857000  1.0
  O  O112  1  0.83684000  0.67146000  0.48163000  1.0
  O  O113  1  0.67146000  0.83683000  0.98163000  1.0
