# generated using pymatgen
data_Cd2H58C59(N3O4)2
_symmetry_space_group_name_H-M   'P 1'
_cell_length_a   12.48130000
_cell_length_b   12.48140000
_cell_length_c   23.01510000
_cell_angle_alpha   80.72130000
_cell_angle_beta   80.72190000
_cell_angle_gamma   61.56840000
_symmetry_Int_Tables_number   1
_chemical_formula_structural   Cd2H58C59(N3O4)2
_chemical_formula_sum   'Cd4 H116 C118 N12 O16'
_cell_volume   3096.91521441
_cell_formula_units_Z   2
loop_
 _symmetry_equiv_pos_site_id
 _symmetry_equiv_pos_as_xyz
  1  'x, y, z'
loop_
 _atom_site_type_symbol
 _atom_site_label
 _atom_site_symmetry_multiplicity
 _atom_site_fract_x
 _atom_site_fract_y
 _atom_site_fract_z
 _atom_site_occupancy
  Cd  Cd0  1  0.36034000  0.22878000  0.85275000  1.0
  Cd  Cd1  1  0.77122000  0.63966000  0.64725000  1.0
  Cd  Cd2  1  0.63965000  0.77123000  0.14725000  1.0
  Cd  Cd3  1  0.22878000  0.36034000  0.35275000  1.0
  H  H4  1  0.51124000  0.46117000  0.70903000  1.0
  H  H5  1  0.52657000  0.34167000  0.67041000  1.0
  H  H6  1  0.37281000  0.66621000  0.68115000  1.0
  H  H7  1  0.20486000  0.81724000  0.62025000  1.0
  H  H8  1  0.10092000  0.74549000  0.56347000  1.0
  H  H9  1  0.32602000  0.37453000  0.63112000  1.0
  H  H10  1  0.18402000  0.41089000  0.56662000  1.0
  H  H11  1  0.14519000  0.54169000  0.51353000  1.0
  H  H12  1  0.17196000  0.51987000  0.85780000  1.0
  H  H13  1  0.06070000  0.67469000  0.93196000  1.0
  H  H14  1  0.17857000  0.37496000  0.06935000  1.0
  H  H15  1  0.27699000  0.23232000  0.98902000  1.0
  H  H16  1  0.00903000  0.58954000  0.09079000  1.0
  H  H17  1  0.98410000  0.71396000  0.03624000  1.0
  H  H18  1  0.10762000  0.69923000  0.11626000  1.0
  H  H19  1  0.22235000  0.55528000  0.09582000  1.0
  H  H20  1  0.13989000  0.79709000  0.01523000  1.0
  H  H21  1  0.25420000  0.65322000  0.99392000  1.0
  H  H22  1  0.19236000  0.91544000  0.07109000  1.0
  H  H23  1  0.35731000  0.92995000  0.11414000  1.0
  H  H24  1  0.59717000  0.56537000  0.09610000  1.0
  H  H25  1  0.44668000  0.53607000  0.05047000  1.0
  H  H26  1  0.14891000  0.39171000  0.76351000  1.0
  H  H27  1  0.96194000  0.40269000  0.73186000  1.0
  H  H28  1  0.05021000  0.05333000  0.83401000  1.0
  H  H29  1  0.22985000  0.05963000  0.86305000  1.0
  H  H30  1  0.80239000  0.26591000  0.80383000  1.0
  H  H31  1  0.83517000  0.30821000  0.72938000  1.0
  H  H32  1  0.91739000  0.04324000  0.78718000  1.0
  H  H33  1  0.53882000  0.48877000  0.79098000  1.0
  H  H34  1  0.65832000  0.47343000  0.82959000  1.0
  H  H35  1  0.33378000  0.62718000  0.81885000  1.0
  H  H36  1  0.18276000  0.79513000  0.87976000  1.0
  H  H37  1  0.25451000  0.89908000  0.93653000  1.0
  H  H38  1  0.62546000  0.67399000  0.86888000  1.0
  H  H39  1  0.58912000  0.81599000  0.93337000  1.0
  H  H40  1  0.45832000  0.85481000  0.98647000  1.0
  H  H41  1  0.48012000  0.82804000  0.64221000  1.0
  H  H42  1  0.32530000  0.93930000  0.56805000  1.0
  H  H43  1  0.62503000  0.82143000  0.43066000  1.0
  H  H44  1  0.76767000  0.72302000  0.51099000  1.0
  H  H45  1  0.41043000  0.99098000  0.40922000  1.0
  H  H46  1  0.28602000  0.01591000  0.46377000  1.0
  H  H47  1  0.30074000  0.89240000  0.38375000  1.0
  H  H48  1  0.44470000  0.77768000  0.40418000  1.0
  H  H49  1  0.20290000  0.86011000  0.48477000  1.0
  H  H50  1  0.34677000  0.74580000  0.50609000  1.0
  H  H51  1  0.08456000  0.80763000  0.42891000  1.0
  H  H52  1  0.07006000  0.64268000  0.38585000  1.0
  H  H53  1  0.43464000  0.40284000  0.40390000  1.0
  H  H54  1  0.46394000  0.55333000  0.44953000  1.0
  H  H55  1  0.60829000  0.85109000  0.73647000  1.0
  H  H56  1  0.59731000  0.03807000  0.76814000  1.0
  H  H57  1  0.94668000  0.94980000  0.66598000  1.0
  H  H58  1  0.94038000  0.77015000  0.63695000  1.0
  H  H59  1  0.73409000  0.19761000  0.69616000  1.0
  H  H60  1  0.69178000  0.16482000  0.77062000  1.0
  H  H61  1  0.95676000  0.08261000  0.71282000  1.0
  H  H62  1  0.48877000  0.53882000  0.29098000  1.0
  H  H63  1  0.47344000  0.65832000  0.32959000  1.0
  H  H64  1  0.62720000  0.33378000  0.31885000  1.0
  H  H65  1  0.79514000  0.18276000  0.37976000  1.0
  H  H66  1  0.89908000  0.25451000  0.43654000  1.0
  H  H67  1  0.67400000  0.62546000  0.36888000  1.0
  H  H68  1  0.81599000  0.58911000  0.43338000  1.0
  H  H69  1  0.85481000  0.45831000  0.48648000  1.0
  H  H70  1  0.82804000  0.48013000  0.14220000  1.0
  H  H71  1  0.93930000  0.32532000  0.06805000  1.0
  H  H72  1  0.82143000  0.62504000  0.93065000  1.0
  H  H73  1  0.72302000  0.76768000  0.01099000  1.0
  H  H74  1  0.99098000  0.41044000  0.90921000  1.0
  H  H75  1  0.01591000  0.28604000  0.96377000  1.0
  H  H76  1  0.89240000  0.30075000  0.88375000  1.0
  H  H77  1  0.77767000  0.44470000  0.90418000  1.0
  H  H78  1  0.86013000  0.20289000  0.98477000  1.0
  H  H79  1  0.74581000  0.34676000  0.00609000  1.0
  H  H80  1  0.80765000  0.08454000  0.92891000  1.0
  H  H81  1  0.64269000  0.07005000  0.88586000  1.0
  H  H82  1  0.40285000  0.43463000  0.90390000  1.0
  H  H83  1  0.55335000  0.46392000  0.94952000  1.0
  H  H84  1  0.85107000  0.60830000  0.23649000  1.0
  H  H85  1  0.03805000  0.59732000  0.26815000  1.0
  H  H86  1  0.94979000  0.94668000  0.16598000  1.0
  H  H87  1  0.77014000  0.94038000  0.13695000  1.0
  H  H88  1  0.19761000  0.73410000  0.19616000  1.0
  H  H89  1  0.16482000  0.69179000  0.27062000  1.0
  H  H90  1  0.08261000  0.95676000  0.21282000  1.0
  H  H91  1  0.46117000  0.51125000  0.20902000  1.0
  H  H92  1  0.34167000  0.52658000  0.17041000  1.0
  H  H93  1  0.66622000  0.37283000  0.18114000  1.0
  H  H94  1  0.81724000  0.20488000  0.12024000  1.0
  H  H95  1  0.74549000  0.10093000  0.06347000  1.0
  H  H96  1  0.37453000  0.32603000  0.13111000  1.0
  H  H97  1  0.41089000  0.18402000  0.06662000  1.0
  H  H98  1  0.54169000  0.14520000  0.01352000  1.0
  H  H99  1  0.51987000  0.17195000  0.35780000  1.0
  H  H100  1  0.67469000  0.06069000  0.43195000  1.0
  H  H101  1  0.37497000  0.17857000  0.56935000  1.0
  H  H102  1  0.23232000  0.27698000  0.48901000  1.0
  H  H103  1  0.58957000  0.00901000  0.59079000  1.0
  H  H104  1  0.71397000  0.98410000  0.53623000  1.0
  H  H105  1  0.69925000  0.10761000  0.61625000  1.0
  H  H106  1  0.55529000  0.22233000  0.59582000  1.0
  H  H107  1  0.79709000  0.13989000  0.51523000  1.0
  H  H108  1  0.65321000  0.25420000  0.49392000  1.0
  H  H109  1  0.91543000  0.19236000  0.57109000  1.0
  H  H110  1  0.92994000  0.35731000  0.61414000  1.0
  H  H111  1  0.56536000  0.59717000  0.59610000  1.0
  H  H112  1  0.53606000  0.44668000  0.55048000  1.0
  H  H113  1  0.39171000  0.14891000  0.26352000  1.0
  H  H114  1  0.40269000  0.96194000  0.23186000  1.0
  H  H115  1  0.05332000  0.05021000  0.33402000  1.0
  H  H116  1  0.05963000  0.22985000  0.36305000  1.0
  H  H117  1  0.26589000  0.80239000  0.30384000  1.0
  H  H118  1  0.30821000  0.83517000  0.22938000  1.0
  H  H119  1  0.04323000  0.91740000  0.28718000  1.0
  C  C120  1  0.41172000  0.36466000  0.75211000  1.0
  C  C121  1  0.46120000  0.41777000  0.69603000  1.0
  C  C122  1  0.36097000  0.51071000  0.65941000  1.0
  C  C123  1  0.32571000  0.63585000  0.65668000  1.0
  C  C124  1  0.23192000  0.71972000  0.62240000  1.0
  C  C125  1  0.17342000  0.68001000  0.59065000  1.0
  C  C126  1  0.20702000  0.55490000  0.59326000  1.0
  C  C127  1  0.30040000  0.47199000  0.62796000  1.0
  C  C128  1  0.14127000  0.51117000  0.56090000  1.0
  C  C129  1  0.00709000  0.56212000  0.58605000  1.0
  C  C130  1  0.16797000  0.49242000  0.90526000  1.0
  C  C131  1  0.10866000  0.57741000  0.94682000  1.0
  C  C132  1  0.11151000  0.53776000  0.00730000  1.0
  C  C133  1  0.17394000  0.41134000  0.02290000  1.0
  C  C134  1  0.22916000  0.33158000  0.97904000  1.0
  C  C135  1  0.05486000  0.62536000  0.05406000  1.0
  C  C136  1  0.15144000  0.64440000  0.07854000  1.0
  C  C137  1  0.21104000  0.70758000  0.03199000  1.0
  C  C138  1  0.30570000  0.72405000  0.05673000  1.0
  C  C139  1  0.28117000  0.83519000  0.07588000  1.0
  C  C140  1  0.37170000  0.84426000  0.10000000  1.0
  C  C141  1  0.50703000  0.64153000  0.08888000  1.0
  C  C142  1  0.42228000  0.62567000  0.06367000  1.0
  C  C143  1  0.12284000  0.31896000  0.77854000  1.0
  C  C144  1  0.01897000  0.32413000  0.76058000  1.0
  C  C145  1  0.98790000  0.22931000  0.78069000  1.0
  C  C146  1  0.06717000  0.13130000  0.81729000  1.0
  C  C147  1  0.16859000  0.13342000  0.83364000  1.0
  C  C148  1  0.87192000  0.23554000  0.76551000  1.0
  C  C149  1  0.63533000  0.58828000  0.74790000  1.0
  C  C150  1  0.58222000  0.53880000  0.80397000  1.0
  C  C151  1  0.48929000  0.63903000  0.84060000  1.0
  C  C152  1  0.36415000  0.67428000  0.84332000  1.0
  C  C153  1  0.28027000  0.76807000  0.87760000  1.0
  C  C154  1  0.31999000  0.82658000  0.90936000  1.0
  C  C155  1  0.44509000  0.79297000  0.90674000  1.0
  C  C156  1  0.52801000  0.69960000  0.87204000  1.0
  C  C157  1  0.48883000  0.85873000  0.93910000  1.0
  C  C158  1  0.43788000  0.99291000  0.91394000  1.0
  C  C159  1  0.50757000  0.83203000  0.59474000  1.0
  C  C160  1  0.42258000  0.89134000  0.55319000  1.0
  C  C161  1  0.46223000  0.88849000  0.49271000  1.0
  C  C162  1  0.58865000  0.82606000  0.47711000  1.0
  C  C163  1  0.66841000  0.77084000  0.52097000  1.0
  C  C164  1  0.37462000  0.94515000  0.44595000  1.0
  C  C165  1  0.35558000  0.84858000  0.42146000  1.0
  C  C166  1  0.29241000  0.78897000  0.46801000  1.0
  C  C167  1  0.27595000  0.69430000  0.44327000  1.0
  C  C168  1  0.16481000  0.71882000  0.42412000  1.0
  C  C169  1  0.15575000  0.62830000  0.40000000  1.0
  C  C170  1  0.35849000  0.49297000  0.41112000  1.0
  C  C171  1  0.37434000  0.57773000  0.43633000  1.0
  C  C172  1  0.68104000  0.87717000  0.72146000  1.0
  C  C173  1  0.67587000  0.98103000  0.73941000  1.0
  C  C174  1  0.77069000  0.01210000  0.71930000  1.0
  C  C175  1  0.86870000  0.93284000  0.68270000  1.0
  C  C176  1  0.86658000  0.83142000  0.66636000  1.0
  C  C177  1  0.76446000  0.12809000  0.73448000  1.0
  C  C178  1  0.58829000  0.63534000  0.24790000  1.0
  C  C179  1  0.53881000  0.58222000  0.30397000  1.0
  C  C180  1  0.63905000  0.48928000  0.34060000  1.0
  C  C181  1  0.67430000  0.36414000  0.34332000  1.0
  C  C182  1  0.76809000  0.28027000  0.37760000  1.0
  C  C183  1  0.82658000  0.31998000  0.40936000  1.0
  C  C184  1  0.79298000  0.44509000  0.40674000  1.0
  C  C185  1  0.69961000  0.52800000  0.37204000  1.0
  C  C186  1  0.85873000  0.48883000  0.43910000  1.0
  C  C187  1  0.99292000  0.43787000  0.41395000  1.0
  C  C188  1  0.83202000  0.50758000  0.09474000  1.0
  C  C189  1  0.89134000  0.42259000  0.05319000  1.0
  C  C190  1  0.88849000  0.46224000  0.99271000  1.0
  C  C191  1  0.82606000  0.58866000  0.97710000  1.0
  C  C192  1  0.77084000  0.66842000  0.02097000  1.0
  C  C193  1  0.94515000  0.37463000  0.94595000  1.0
  C  C194  1  0.84858000  0.35558000  0.92146000  1.0
  C  C195  1  0.78898000  0.29240000  0.96801000  1.0
  C  C196  1  0.69431000  0.27594000  0.94326000  1.0
  C  C197  1  0.71883000  0.16480000  0.92412000  1.0
  C  C198  1  0.62831000  0.15574000  0.90000000  1.0
  C  C199  1  0.49298000  0.35848000  0.91111000  1.0
  C  C200  1  0.57774000  0.37433000  0.93632000  1.0
  C  C201  1  0.87715000  0.68106000  0.22147000  1.0
  C  C202  1  0.98102000  0.67589000  0.23942000  1.0
  C  C203  1  0.01210000  0.77069000  0.21930000  1.0
  C  C204  1  0.93283000  0.86871000  0.18270000  1.0
  C  C205  1  0.83140000  0.86659000  0.16636000  1.0
  C  C206  1  0.12808000  0.76447000  0.23448000  1.0
  C  C207  1  0.36466000  0.41172000  0.25210000  1.0
  C  C208  1  0.41777000  0.46121000  0.19602000  1.0
  C  C209  1  0.51071000  0.36098000  0.15940000  1.0
  C  C210  1  0.63585000  0.32573000  0.15667000  1.0
  C  C211  1  0.71973000  0.23194000  0.12239000  1.0
  C  C212  1  0.68001000  0.17343000  0.09064000  1.0
  C  C213  1  0.55491000  0.20704000  0.09326000  1.0
  C  C214  1  0.47199000  0.30042000  0.12795000  1.0
  C  C215  1  0.51117000  0.14128000  0.06090000  1.0
  C  C216  1  0.56211000  0.00710000  0.08606000  1.0
  C  C217  1  0.49242000  0.16797000  0.40526000  1.0
  C  C218  1  0.57742000  0.10866000  0.44682000  1.0
  C  C219  1  0.53777000  0.11151000  0.50729000  1.0
  C  C220  1  0.41135000  0.17394000  0.52290000  1.0
  C  C221  1  0.33159000  0.22915000  0.47904000  1.0
  C  C222  1  0.62537000  0.05485000  0.55405000  1.0
  C  C223  1  0.64441000  0.15143000  0.57854000  1.0
  C  C224  1  0.70758000  0.21104000  0.53199000  1.0
  C  C225  1  0.72404000  0.30570000  0.55673000  1.0
  C  C226  1  0.83518000  0.28117000  0.57588000  1.0
  C  C227  1  0.84425000  0.37170000  0.60000000  1.0
  C  C228  1  0.64151000  0.50703000  0.58888000  1.0
  C  C229  1  0.62566000  0.42228000  0.56367000  1.0
  C  C230  1  0.31895000  0.12284000  0.27854000  1.0
  C  C231  1  0.32412000  0.01897000  0.26058000  1.0
  C  C232  1  0.22931000  0.98790000  0.28070000  1.0
  C  C233  1  0.13130000  0.06717000  0.31729000  1.0
  C  C234  1  0.13341000  0.16859000  0.33364000  1.0
  C  C235  1  0.23553000  0.87192000  0.26552000  1.0
  C  C236  1  0.88530000  0.11470000  0.75000000  1.0
  C  C237  1  0.11468000  0.88531000  0.25000000  1.0
  N  N238  1  0.22722000  0.37133000  0.92108000  1.0
  N  N239  1  0.48321000  0.74896000  0.10646000  1.0
  N  N240  1  0.19601000  0.22617000  0.81520000  1.0
  N  N241  1  0.62866000  0.77278000  0.57893000  1.0
  N  N242  1  0.25105000  0.51679000  0.39354000  1.0
  N  N243  1  0.77384000  0.80399000  0.68479000  1.0
  N  N244  1  0.77278000  0.62867000  0.07893000  1.0
  N  N245  1  0.51680000  0.25104000  0.89354000  1.0
  N  N246  1  0.80398000  0.77385000  0.18480000  1.0
  N  N247  1  0.37133000  0.22721000  0.42107000  1.0
  N  N248  1  0.74895000  0.48321000  0.60646000  1.0
  N  N249  1  0.22616000  0.19602000  0.31520000  1.0
  O  O250  1  0.45191000  0.24842000  0.75837000  1.0
  O  O251  1  0.33577000  0.43589000  0.78930000  1.0
  O  O252  1  0.98259000  0.50679000  0.63410000  1.0
  O  O253  1  0.92755000  0.65837000  0.56016000  1.0
  O  O254  1  0.75157000  0.54809000  0.74163000  1.0
  O  O255  1  0.56410000  0.66424000  0.71071000  1.0
  O  O256  1  0.49322000  0.01741000  0.86590000  1.0
  O  O257  1  0.34162000  0.07245000  0.93983000  1.0
  O  O258  1  0.54808000  0.75158000  0.24163000  1.0
  O  O259  1  0.66426000  0.56410000  0.21071000  1.0
  O  O260  1  0.01742000  0.49320000  0.36591000  1.0
  O  O261  1  0.07245000  0.34161000  0.43984000  1.0
  O  O262  1  0.24842000  0.45192000  0.25837000  1.0
  O  O263  1  0.43591000  0.33574000  0.28928000  1.0
  O  O264  1  0.50678000  0.98260000  0.13409000  1.0
  O  O265  1  0.65838000  0.92755000  0.06016000  1.0
