# generated using pymatgen
data_AlH3C8ClO5
_symmetry_space_group_name_H-M   'P 1'
_cell_length_a   6.69829000
_cell_length_b   14.69860000
_cell_length_c   16.67590000
_cell_angle_alpha   85.64430000
_cell_angle_beta   89.99960000
_cell_angle_gamma   89.99910000
_symmetry_Int_Tables_number   1
_chemical_formula_structural   AlH3C8ClO5
_chemical_formula_sum   'Al4 H12 C32 Cl4 O20'
_cell_volume   1637.09183802
_cell_formula_units_Z   4
loop_
 _symmetry_equiv_pos_site_id
 _symmetry_equiv_pos_as_xyz
  1  'x, y, z'
loop_
 _atom_site_type_symbol
 _atom_site_label
 _atom_site_symmetry_multiplicity
 _atom_site_fract_x
 _atom_site_fract_y
 _atom_site_fract_z
 _atom_site_occupancy
  Al  Al0  1  0.12393000  0.49909000  0.49840000  1.0
  Al  Al1  1  0.62393000  0.50091000  0.50160000  1.0
  Al  Al2  1  0.61527000  0.99910000  0.00098000  1.0
  Al  Al3  1  0.11528000  0.00090000  0.99902000  1.0
  H  H4  1  0.62473000  0.38632000  0.74617000  1.0
  H  H5  1  0.12473000  0.61369000  0.25383000  1.0
  H  H6  1  0.31752000  0.14062000  0.77042000  1.0
  H  H7  1  0.81751000  0.85938000  0.22958000  1.0
  H  H8  1  0.11533000  0.16991000  0.60450000  1.0
  H  H9  1  0.61532000  0.83009000  0.39550000  1.0
  H  H10  1  0.14631000  0.06312000  0.72866000  1.0
  H  H11  1  0.64630000  0.93688000  0.27135000  1.0
  H  H12  1  0.37264000  0.38565000  0.53614000  1.0
  H  H13  1  0.87263000  0.61435000  0.46387000  1.0
  H  H14  1  0.36934000  0.11871000  0.97969000  1.0
  H  H15  1  0.86934000  0.88129000  0.02030000  1.0
  C  C16  1  0.37088000  0.61218000  0.59934000  1.0
  C  C17  1  0.87091000  0.38782000  0.40065000  1.0
  C  C18  1  0.37523000  0.60590000  0.38225000  1.0
  C  C19  1  0.87524000  0.39410000  0.61775000  1.0
  C  C20  1  0.01434000  0.25559000  0.69935000  1.0
  C  C21  1  0.51434000  0.74441000  0.30065000  1.0
  C  C22  1  0.87819000  0.32731000  0.68960000  1.0
  C  C23  1  0.37819000  0.67269000  0.31040000  1.0
  C  C24  1  0.73523000  0.33180000  0.75074000  1.0
  C  C25  1  0.23523000  0.66820000  0.24926000  1.0
  C  C26  1  0.72761000  0.26687000  0.81671000  1.0
  C  C27  1  0.22761000  0.73313000  0.18329000  1.0
  C  C28  1  0.86445000  0.19345000  0.82627000  1.0
  C  C29  1  0.36444000  0.80655000  0.17373000  1.0
  C  C30  1  0.00839000  0.19228000  0.76587000  1.0
  C  C31  1  0.50839000  0.80772000  0.23414000  1.0
  C  C32  1  0.17809000  0.13522000  0.73648000  1.0
  C  C33  1  0.67809000  0.86478000  0.26352000  1.0
  C  C34  1  0.17066000  0.20151000  0.65768000  1.0
  C  C35  1  0.67066000  0.79849000  0.34233000  1.0
  C  C36  1  0.86627000  0.16185000  0.17223000  1.0
  C  C37  1  0.36629000  0.83814000  0.82777000  1.0
  C  C38  1  0.86658000  0.21465000  0.22549000  1.0
  C  C39  1  0.36658000  0.78535000  0.77451000  1.0
  C  C40  1  0.86693000  0.27304000  0.28417000  1.0
  C  C41  1  0.36694000  0.72696000  0.71582000  1.0
  C  C42  1  0.86693000  0.32597000  0.33732000  1.0
  C  C43  1  0.36692000  0.67404000  0.66267000  1.0
  C  C44  1  0.36307000  0.88022000  0.10726000  1.0
  C  C45  1  0.86304000  0.11978000  0.89274000  1.0
  C  C46  1  0.36554000  0.89807000  0.89237000  1.0
  C  C47  1  0.86549000  0.10193000  0.10763000  1.0
  Cl  Cl48  1  0.54257000  0.28188000  0.88721000  1.0
  Cl  Cl49  1  0.04257000  0.71812000  0.11279000  1.0
  Cl  Cl50  1  0.40216000  0.25499000  0.62841000  1.0
  Cl  Cl51  1  0.90214000  0.74501000  0.37159000  1.0
  O  O52  1  0.54321000  0.58447000  0.41365000  1.0
  O  O53  1  0.04321000  0.41552000  0.58635000  1.0
  O  O54  1  0.20221000  0.58862000  0.57264000  1.0
  O  O55  1  0.70222000  0.41138000  0.42736000  1.0
  O  O56  1  0.20519000  0.57749000  0.40702000  1.0
  O  O57  1  0.70519000  0.42251000  0.59298000  1.0
  O  O58  1  0.04339000  0.41123000  0.42349000  1.0
  O  O59  1  0.54338000  0.58877000  0.57650000  1.0
  O  O60  1  0.37457000  0.44574000  0.50695000  1.0
  O  O61  1  0.87457000  0.55426000  0.49305000  1.0
  O  O62  1  0.19462000  0.92217000  0.91661000  1.0
  O  O63  1  0.69461000  0.07781000  0.08342000  1.0
  O  O64  1  0.53415000  0.90869000  0.08325000  1.0
  O  O65  1  0.03417000  0.09128000  0.91674000  1.0
  O  O66  1  0.53563000  0.91968000  0.91915000  1.0
  O  O67  1  0.03561000  0.08034000  0.08082000  1.0
  O  O68  1  0.69559000  0.09020000  0.91891000  1.0
  O  O69  1  0.19556000  0.90982000  0.08110000  1.0
  O  O70  1  0.36596000  0.05459000  0.99833000  1.0
  O  O71  1  0.86597000  0.94541000  0.00167000  1.0
