# generated using pymatgen
data_AlH10C14N2O5
_symmetry_space_group_name_H-M   'P 1'
_cell_length_a   6.65162000
_cell_length_b   11.08902070
_cell_length_c   17.72070000
_cell_angle_alpha   89.50029396
_cell_angle_beta   79.90660000
_cell_angle_gamma   73.12389876
_symmetry_Int_Tables_number   1
_chemical_formula_structural   AlH10C14N2O5
_chemical_formula_sum   'Al2 H20 C28 N4 O10'
_cell_volume   1230.19702560
_cell_formula_units_Z   2
loop_
 _symmetry_equiv_pos_site_id
 _symmetry_equiv_pos_as_xyz
  1  'x, y, z'
loop_
 _atom_site_type_symbol
 _atom_site_label
 _atom_site_symmetry_multiplicity
 _atom_site_fract_x
 _atom_site_fract_y
 _atom_site_fract_z
 _atom_site_occupancy
  Al  Al0  1  0.00317000  0.50563000  0.49714000  1.0
  Al  Al1  1  0.50170000  0.50868000  0.49704000  1.0
  H  H2  1  0.35134000  0.35299000  0.46308000  1.0
  H  H3  1  0.65820000  0.65693000  0.54348000  1.0
  H  H4  1  0.87242000  0.42746000  0.71906000  1.0
  H  H5  1  0.80597000  0.40431000  0.86149000  1.0
  H  H6  1  0.43576000  0.53408000  0.73541000  1.0
  H  H7  1  0.53130000  0.54978000  0.26240000  1.0
  H  H8  1  0.20342000  0.43536000  0.26805000  1.0
  H  H9  1  0.28490000  0.41299000  0.12438000  1.0
  H  H10  1  0.56715000  0.24185000  0.60977000  1.0
  H  H11  1  0.35565000  0.12607000  0.69165000  1.0
  H  H12  1  0.80203000  0.77326000  0.59886000  1.0
  H  H13  1  0.47469000  0.88952000  0.68608000  1.0
  H  H14  1  0.33504000  0.54086000  0.94574000  1.0
  H  H15  1  0.49185000  0.57566000  0.86547000  1.0
  H  H16  1  0.61413000  0.55211000  0.05227000  1.0
  H  H17  1  0.42672000  0.58954000  0.13545000  1.0
  H  H18  1  0.44596000  0.78871000  0.41466000  1.0
  H  H19  1  0.49345000  0.92962000  0.40272000  1.0
  H  H20  1  0.18620000  0.22828000  0.40370000  1.0
  H  H21  1  0.31049000  0.08797000  0.35555000  1.0
  C  C22  1  0.86189000  0.27990000  0.50465000  1.0
  C  C23  1  0.81370000  0.50233000  0.35799000  1.0
  C  C24  1  0.13614000  0.73455000  0.49206000  1.0
  C  C25  1  0.19538000  0.49986000  0.63581000  1.0
  C  C26  1  0.15652000  0.48391000  0.72021000  1.0
  C  C27  1  0.97770000  0.44719000  0.75479000  1.0
  C  C28  1  0.94075000  0.43544000  0.83359000  1.0
  C  C29  1  0.07479000  0.46450000  0.87971000  1.0
  C  C30  1  0.25721000  0.50077000  0.84428000  1.0
  C  C31  1  0.29675000  0.50755000  0.76420000  1.0
  C  C32  1  0.02918000  0.46237000  0.96048000  1.0
  C  C33  1  0.99964000  0.46588000  0.03078000  1.0
  C  C34  1  0.95444000  0.47335000  0.11174000  1.0
  C  C35  1  0.73739000  0.51312000  0.15060000  1.0
  C  C36  1  0.69550000  0.52136000  0.23106000  1.0
  C  C37  1  0.86226000  0.49405000  0.27252000  1.0
  C  C38  1  0.07618000  0.45614000  0.23441000  1.0
  C  C39  1  0.12030000  0.44461000  0.15497000  1.0
  C  C40  1  0.93029000  0.14013000  0.50464000  1.0
  C  C41  1  0.80285000  0.07472000  0.55228000  1.0
  C  C42  1  0.11964000  0.07555000  0.45631000  1.0
  C  C43  1  0.61682000  0.13920000  0.60534000  1.0
  C  C44  1  0.49836000  0.07416000  0.65163000  1.0
  C  C45  1  0.06420000  0.87447000  0.49750000  1.0
  C  C46  1  0.19253000  0.94000000  0.45503000  1.0
  C  C47  1  0.86916000  0.93950000  0.54785000  1.0
  C  C48  1  0.74715000  0.87569000  0.59810000  1.0
  C  C49  1  0.56491000  0.94123000  0.64824000  1.0
  N  N50  1  0.39227000  0.52581000  0.88858000  1.0
  N  N51  1  0.57450000  0.53865000  0.10899000  1.0
  N  N52  1  0.38287000  0.88185000  0.40584000  1.0
  N  N53  1  0.24783000  0.13373000  0.40770000  1.0
  O  O54  1  0.00235000  0.33492000  0.51150000  1.0
  O  O55  1  0.61899000  0.52377000  0.39049000  1.0
  O  O56  1  0.33069000  0.67963000  0.49751000  1.0
  O  O57  1  0.03467000  0.51765000  0.60247000  1.0
  O  O58  1  0.00264000  0.67657000  0.48227000  1.0
  O  O59  1  0.38428000  0.49648000  0.60365000  1.0
  O  O60  1  0.67231000  0.33659000  0.49548000  1.0
  O  O61  1  0.97273000  0.48489000  0.39229000  1.0
  O  O62  1  0.29874000  0.44461000  0.46519000  1.0
  O  O63  1  0.70858000  0.56744000  0.52926000  1.0
