# generated using pymatgen
data_ZnH12C6S3(NO4)2
_symmetry_space_group_name_H-M   'P 1'
_cell_length_a   4.94498000
_cell_length_b   9.91904000
_cell_length_c   13.88610000
_cell_angle_alpha   89.99910000
_cell_angle_beta   84.78280000
_cell_angle_gamma   89.99960000
_symmetry_Int_Tables_number   1
_chemical_formula_structural   ZnH12C6S3(NO4)2
_chemical_formula_sum   'Zn2 H24 C12 S6 N4 O16'
_cell_volume   678.28390784
_cell_formula_units_Z   2
loop_
 _symmetry_equiv_pos_site_id
 _symmetry_equiv_pos_as_xyz
  1  'x, y, z'
loop_
 _atom_site_type_symbol
 _atom_site_label
 _atom_site_symmetry_multiplicity
 _atom_site_fract_x
 _atom_site_fract_y
 _atom_site_fract_z
 _atom_site_occupancy
  Zn  Zn0  1  0.52382000  0.96347000  0.62743000  1.0
  Zn  Zn1  1  0.47617000  0.46345000  0.37256000  1.0
  H  H2  1  0.65439000  0.15142000  0.73976000  1.0
  H  H3  1  0.34561000  0.65141000  0.26023000  1.0
  H  H4  1  0.62770000  0.22796000  0.63885000  1.0
  H  H5  1  0.37230000  0.72795000  0.36115000  1.0
  H  H6  1  0.74566000  0.80439000  0.75991000  1.0
  H  H7  1  0.25434000  0.30437000  0.24009000  1.0
  H  H8  1  0.95421000  0.92899000  0.74212000  1.0
  H  H9  1  0.04576000  0.42897000  0.25789000  1.0
  H  H10  1  0.36546000  0.71166000  0.67545000  1.0
  H  H11  1  0.63453000  0.21164000  0.32456000  1.0
  H  H12  1  0.12276000  0.79984000  0.64458000  1.0
  H  H13  1  0.87723000  0.29981000  0.35543000  1.0
  H  H14  1  0.07811000  0.11310000  0.61708000  1.0
  H  H15  1  0.92189000  0.61308000  0.38291000  1.0
  H  H16  1  0.09543000  0.01928000  0.52890000  1.0
  H  H17  1  0.90456000  0.51928000  0.47110000  1.0
  H  H18  1  0.12005000  0.90695000  0.35422000  1.0
  H  H19  1  0.87996000  0.40698000  0.64578000  1.0
  H  H20  1  0.94973000  0.05615000  0.32893000  1.0
  H  H21  1  0.05029000  0.55617000  0.67107000  1.0
  H  H22  1  0.05276000  0.96049000  0.95842000  1.0
  H  H23  1  0.94724000  0.46048000  0.04158000  1.0
  H  H24  1  0.87769000  0.08472000  0.89836000  1.0
  H  H25  1  0.12232000  0.58469000  0.10164000  1.0
  C  C26  1  0.70709000  0.91930000  0.42156000  1.0
  C  C27  1  0.29291000  0.41932000  0.57844000  1.0
  C  C28  1  0.92261000  0.94697000  0.33756000  1.0
  C  C29  1  0.07741000  0.44699000  0.66243000  1.0
  C  C30  1  0.63101000  0.98717000  0.18289000  1.0
  C  C31  1  0.36899000  0.48719000  0.81711000  1.0
  C  C32  1  0.32223000  0.11372000  0.09375000  1.0
  C  C33  1  0.67779000  0.61373000  0.90625000  1.0
  C  C34  1  0.07271000  0.06255000  0.92753000  1.0
  C  C35  1  0.92729000  0.56254000  0.07247000  1.0
  C  C36  1  0.29941000  0.06538000  0.84495000  1.0
  C  C37  1  0.70054000  0.56538000  0.15504000  1.0
  S  S38  1  0.85635000  0.87233000  0.22410000  1.0
  S  S39  1  0.14364000  0.37236000  0.77590000  1.0
  S  S40  1  0.48133000  0.95803000  0.07558000  1.0
  S  S41  1  0.51867000  0.45803000  0.92442000  1.0
  S  S42  1  0.08915000  0.18407000  0.02266000  1.0
  S  S43  1  0.91086000  0.68406000  0.97736000  1.0
  N  N44  1  0.55905000  0.10321000  0.22399000  1.0
  N  N45  1  0.44097000  0.60323000  0.77601000  1.0
  N  N46  1  0.38407000  0.17461000  0.17305000  1.0
  N  N47  1  0.61595000  0.67462000  0.82696000  1.0
  O  O48  1  0.78426000  0.95497000  0.50381000  1.0
  O  O49  1  0.21574000  0.45497000  0.49619000  1.0
  O  O50  1  0.48123000  0.86993000  0.40858000  1.0
  O  O51  1  0.51880000  0.36996000  0.59142000  1.0
  O  O52  1  0.51292000  0.13270000  0.85249000  1.0
  O  O53  1  0.48709000  0.63268000  0.14751000  1.0
  O  O54  1  0.24693000  0.99590000  0.77161000  1.0
  O  O55  1  0.75308000  0.49587000  0.22839000  1.0
  O  O56  1  0.71563000  0.14904000  0.66848000  1.0
  O  O57  1  0.28436000  0.64903000  0.33151000  1.0
  O  O58  1  0.82310000  0.87095000  0.70966000  1.0
  O  O59  1  0.17689000  0.37094000  0.29035000  1.0
  O  O60  1  0.31667000  0.77829000  0.62612000  1.0
  O  O61  1  0.68331000  0.27827000  0.37389000  1.0
  O  O62  1  0.21438000  0.07152000  0.56972000  1.0
  O  O63  1  0.78562000  0.57150000  0.43027000  1.0
