# generated using pymatgen
data_CoPH6C6NO3
_symmetry_space_group_name_H-M   'P 1'
_cell_length_a   5.06191000
_cell_length_b   8.42924000
_cell_length_c   8.68260000
_cell_angle_alpha   75.20690000
_cell_angle_beta   86.10060000
_cell_angle_gamma   86.46460000
_symmetry_Int_Tables_number   1
_chemical_formula_structural   CoPH6C6NO3
_chemical_formula_sum   'Co2 P2 H12 C12 N2 O6'
_cell_volume   356.98381878
_cell_formula_units_Z   2
loop_
 _symmetry_equiv_pos_site_id
 _symmetry_equiv_pos_as_xyz
  1  'x, y, z'
loop_
 _atom_site_type_symbol
 _atom_site_label
 _atom_site_symmetry_multiplicity
 _atom_site_fract_x
 _atom_site_fract_y
 _atom_site_fract_z
 _atom_site_occupancy
  Co  Co0  1  0.71563000  0.86934000  0.65695000  1.0
  Co  Co1  1  0.28437000  0.13066000  0.34305000  1.0
  P  P2  1  0.22692000  0.03897000  0.72353000  1.0
  P  P3  1  0.77308000  0.96103000  0.27647000  1.0
  H  H4  1  0.21693000  0.10101000  0.98024000  1.0
  H  H5  1  0.78307000  0.89899000  0.01975000  1.0
  H  H6  1  0.49678000  0.17704000  0.85295000  1.0
  H  H7  1  0.50322000  0.82296000  0.14706000  1.0
  H  H8  1  0.42927000  0.43216000  0.61854000  1.0
  H  H9  1  0.57073000  0.56784000  0.38147000  1.0
  H  H10  1  0.19525000  0.70782000  0.54474000  1.0
  H  H11  1  0.80476000  0.29218000  0.45525000  1.0
  H  H12  1  0.60306000  0.56237000  0.89759000  1.0
  H  H13  1  0.39695000  0.43763000  0.10240000  1.0
  H  H14  1  0.81497000  0.28135000  0.98845000  1.0
  H  H15  1  0.18502000  0.71865000  0.01155000  1.0
  C  C16  1  0.28053000  0.16688000  0.85845000  1.0
  C  C17  1  0.71947000  0.83312000  0.14155000  1.0
  C  C18  1  0.14275000  0.33254000  0.81007000  1.0
  C  C19  1  0.85725000  0.66746000  0.18993000  1.0
  C  C20  1  0.24631000  0.45633000  0.68362000  1.0
  C  C21  1  0.75370000  0.54367000  0.31638000  1.0
  C  C22  1  0.11708000  0.60975000  0.64196000  1.0
  C  C23  1  0.88293000  0.39025000  0.35803000  1.0
  C  C24  1  0.78664000  0.52720000  0.83949000  1.0
  C  C25  1  0.21337000  0.47280000  0.16051000  1.0
  C  C26  1  0.90476000  0.37076000  0.88766000  1.0
  C  C27  1  0.09524000  0.62924000  0.11235000  1.0
  N  N28  1  0.89023000  0.64614000  0.72008000  1.0
  N  N29  1  0.10977000  0.35386000  0.27991000  1.0
  O  O30  1  0.38031000  0.87184000  0.78448000  1.0
  O  O31  1  0.61968000  0.12817000  0.21552000  1.0
  O  O32  1  0.92577000  0.02172000  0.72452000  1.0
  O  O33  1  0.07423000  0.97827000  0.27548000  1.0
  O  O34  1  0.34790000  0.13210000  0.55996000  1.0
  O  O35  1  0.65208000  0.86790000  0.44004000  1.0
