# generated using pymatgen
data_CdH16C26N7O2
_symmetry_space_group_name_H-M   'P 1'
_cell_length_a   10.55830000
_cell_length_b   10.74590000
_cell_length_c   13.77930000
_cell_angle_alpha   77.24500000
_cell_angle_beta   68.89520000
_cell_angle_gamma   69.70540000
_symmetry_Int_Tables_number   1
_chemical_formula_structural   CdH16C26N7O2
_chemical_formula_sum   'Cd2 H32 C52 N14 O4'
_cell_volume   1359.73035373
_cell_formula_units_Z   2
loop_
 _symmetry_equiv_pos_site_id
 _symmetry_equiv_pos_as_xyz
  1  'x, y, z'
loop_
 _atom_site_type_symbol
 _atom_site_label
 _atom_site_symmetry_multiplicity
 _atom_site_fract_x
 _atom_site_fract_y
 _atom_site_fract_z
 _atom_site_occupancy
  Cd  Cd0  1  0.19121000  0.69037000  0.16371000  1.0
  Cd  Cd1  1  0.80879000  0.30963000  0.83629000  1.0
  H  H2  1  0.89938000  0.50400000  0.62370000  1.0
  H  H3  1  0.10062000  0.49600000  0.37630000  1.0
  H  H4  1  0.59548000  0.12529000  0.94776000  1.0
  H  H5  1  0.40451000  0.87471000  0.05224000  1.0
  H  H6  1  0.00533000  0.11850000  0.16277000  1.0
  H  H7  1  0.99467000  0.88150000  0.83723000  1.0
  H  H8  1  0.27732000  0.41631000  0.05495000  1.0
  H  H9  1  0.72268000  0.58369000  0.94504000  1.0
  H  H10  1  0.88208000  0.00032000  0.18628000  1.0
  H  H11  1  0.11793000  0.99967000  0.81371000  1.0
  H  H12  1  0.44935000  0.19270000  0.30119000  1.0
  H  H13  1  0.55065000  0.80730000  0.69881000  1.0
  H  H14  1  0.21017000  0.39720000  0.94035000  1.0
  H  H15  1  0.78983000  0.60280000  0.05964000  1.0
  H  H16  1  0.22230000  0.81042000  0.47168000  1.0
  H  H17  1  0.77770000  0.18958000  0.52832000  1.0
  H  H18  1  0.85693000  0.05190000  0.37893000  1.0
  H  H19  1  0.14307000  0.94810000  0.62107000  1.0
  H  H20  1  0.16730000  0.05737000  0.21768000  1.0
  H  H21  1  0.83270000  0.94263000  0.78232000  1.0
  H  H22  1  0.21256000  0.52537000  0.80786000  1.0
  H  H23  1  0.78744000  0.47463000  0.19214000  1.0
  H  H24  1  0.31452000  0.03019000  0.32876000  1.0
  H  H25  1  0.68548000  0.96982000  0.67124000  1.0
  H  H26  1  0.05651000  0.65512000  0.54113000  1.0
  H  H27  1  0.94349000  0.34488000  0.45887000  1.0
  H  H28  1  0.55847000  0.94212000  0.09508000  1.0
  H  H29  1  0.44152000  0.05788000  0.90492000  1.0
  H  H30  1  0.70602000  0.88112000  0.21631000  1.0
  H  H31  1  0.29398000  0.11888000  0.78369000  1.0
  H  H32  1  0.21390000  0.66451000  0.63855000  1.0
  H  H33  1  0.78610000  0.33549000  0.36144000  1.0
  C  C34  1  0.11849000  0.25749000  0.06239000  1.0
  C  C35  1  0.88151000  0.74251000  0.93761000  1.0
  C  C36  1  0.97062000  0.51243000  0.66138000  1.0
  C  C37  1  0.02938000  0.48757000  0.33861000  1.0
  C  C38  1  0.65723000  0.09325000  0.00227000  1.0
  C  C39  1  0.34276000  0.90675000  0.99774000  1.0
  C  C40  1  0.01819000  0.18677000  0.09122000  1.0
  C  C41  1  0.98181000  0.81323000  0.90878000  1.0
  C  C42  1  0.04447000  0.35522000  0.90805000  1.0
  C  C43  1  0.95553000  0.64478000  0.09195000  1.0
  C  C44  1  0.93570000  0.20273000  0.02713000  1.0
  C  C45  1  0.06431000  0.79727000  0.97287000  1.0
  C  C46  1  0.04372000  0.92292000  0.41777000  1.0
  C  C47  1  0.95628000  0.07709000  0.58223000  1.0
  C  C48  1  0.45285000  0.40741000  0.15830000  1.0
  C  C49  1  0.54715000  0.59259000  0.84170000  1.0
  C  C50  1  0.28358000  0.33158000  0.11504000  1.0
  C  C51  1  0.71642000  0.66842000  0.88496000  1.0
  C  C52  1  0.37066000  0.31450000  0.17632000  1.0
  C  C53  1  0.62934000  0.68550000  0.82368000  1.0
  C  C54  1  0.81613000  0.02769000  0.13520000  1.0
  C  C55  1  0.18387000  0.97231000  0.86480000  1.0
  C  C56  1  0.05325000  0.44121000  0.80600000  1.0
  C  C57  1  0.94675000  0.55879000  0.19400000  1.0
  C  C58  1  0.20857000  0.24037000  0.12856000  1.0
  C  C59  1  0.79143000  0.75963000  0.87144000  1.0
  C  C60  1  0.38153000  0.20541000  0.25376000  1.0
  C  C61  1  0.61847000  0.79459000  0.74624000  1.0
  C  C62  1  0.83124000  0.12733000  0.05071000  1.0
  C  C63  1  0.16876000  0.87267000  0.94929000  1.0
  C  C64  1  0.09246000  0.84111000  0.32913000  1.0
  C  C65  1  0.90754000  0.15889000  0.67087000  1.0
  C  C66  1  0.13144000  0.34282000  0.96809000  1.0
  C  C67  1  0.86856000  0.65718000  0.03191000  1.0
  C  C68  1  0.12492000  0.89367000  0.48549000  1.0
  C  C69  1  0.87508000  0.10633000  0.51451000  1.0
  C  C70  1  0.91865000  0.02998000  0.43253000  1.0
  C  C71  1  0.08135000  0.97002000  0.56747000  1.0
  C  C72  1  0.22201000  0.13117000  0.20626000  1.0
  C  C73  1  0.77799000  0.86883000  0.79374000  1.0
  C  C74  1  0.14337000  0.52262000  0.76591000  1.0
  C  C75  1  0.85663000  0.47737000  0.23409000  1.0
  C  C76  1  0.30678000  0.11485000  0.26842000  1.0
  C  C77  1  0.69322000  0.88515000  0.73158000  1.0
  C  C78  1  0.05722000  0.59596000  0.61628000  1.0
  C  C79  1  0.94278000  0.40404000  0.38372000  1.0
  C  C80  1  0.63625000  0.99301000  0.08442000  1.0
  C  C81  1  0.36375000  0.00699000  0.91558000  1.0
  C  C82  1  0.71800000  0.95990000  0.15150000  1.0
  C  C83  1  0.28200000  0.04010000  0.84850000  1.0
  C  C84  1  0.14452000  0.60037000  0.67031000  1.0
  C  C85  1  0.85549000  0.39963000  0.32969000  1.0
  N  N86  1  0.40576000  0.54119000  0.13572000  1.0
  N  N87  1  0.59424000  0.45881000  0.86428000  1.0
  N  N88  1  0.51422000  0.58871000  0.12200000  1.0
  N  N89  1  0.48578000  0.41129000  0.87800000  1.0
  N  N90  1  0.62276000  0.48646000  0.13482000  1.0
  N  N91  1  0.37724000  0.51354000  0.86518000  1.0
  N  N92  1  0.58795000  0.37139000  0.15863000  1.0
  N  N93  1  0.41205000  0.62861000  0.84138000  1.0
  N  N94  1  0.94914000  0.28695000  0.93879000  1.0
  N  N95  1  0.05086000  0.71305000  0.06121000  1.0
  N  N96  1  0.75293000  0.15726000  0.98548000  1.0
  N  N97  1  0.24707000  0.84274000  0.01453000  1.0
  N  N98  1  0.96896000  0.43765000  0.75325000  1.0
  N  N99  1  0.03104000  0.56235000  0.24675000  1.0
  O  O100  1  0.17946000  0.72472000  0.33402000  1.0
  O  O101  1  0.82054000  0.27528000  0.66598000  1.0
  O  O102  1  0.04617000  0.89264000  0.25093000  1.0
  O  O103  1  0.95383000  0.10736000  0.74907000  1.0
