# generated using pymatgen
data_CuH8C12(NO2)2
_symmetry_space_group_name_H-M   'P 1'
_cell_length_a   11.55530000
_cell_length_b   12.20380000
_cell_length_c   12.43326177
_cell_angle_alpha   90.00020345
_cell_angle_beta   116.48632666
_cell_angle_gamma   90.00000000
_symmetry_Int_Tables_number   1
_chemical_formula_structural   CuH8C12(NO2)2
_chemical_formula_sum   'Cu4 H32 C48 N8 O16'
_cell_volume   1569.29368169
_cell_formula_units_Z   4
loop_
 _symmetry_equiv_pos_site_id
 _symmetry_equiv_pos_as_xyz
  1  'x, y, z'
loop_
 _atom_site_type_symbol
 _atom_site_label
 _atom_site_symmetry_multiplicity
 _atom_site_fract_x
 _atom_site_fract_y
 _atom_site_fract_z
 _atom_site_occupancy
  Cu  Cu0  1  0.71278000  0.03203000  0.53232000  1.0
  Cu  Cu1  1  0.28722000  0.53204000  0.96768000  1.0
  Cu  Cu2  1  0.28723000  0.96797000  0.46768000  1.0
  Cu  Cu3  1  0.71277000  0.46796000  0.03232000  1.0
  H  H4  1  0.95235000  0.23611000  0.85652000  1.0
  H  H5  1  0.04765000  0.73611000  0.64347000  1.0
  H  H6  1  0.04765000  0.76389000  0.14348000  1.0
  H  H7  1  0.95235000  0.26389000  0.35652000  1.0
  H  H8  1  0.72270000  0.20188000  0.73082000  1.0
  H  H9  1  0.27731000  0.70188000  0.76919000  1.0
  H  H10  1  0.27731000  0.79812000  0.26919000  1.0
  H  H11  1  0.72269000  0.29813000  0.23081000  1.0
  H  H12  1  0.79669000  0.35472000  0.88314000  1.0
  H  H13  1  0.20332000  0.85472000  0.61687000  1.0
  H  H14  1  0.20332000  0.64528000  0.11687000  1.0
  H  H15  1  0.79668000  0.14529000  0.38313000  1.0
  H  H16  1  0.09489000  0.38823000  0.97832000  1.0
  H  H17  1  0.90511000  0.88823000  0.52167000  1.0
  H  H18  1  0.90510000  0.61177000  0.02168000  1.0
  H  H19  1  0.09489000  0.11177000  0.47832000  1.0
  H  H20  1  0.26891000  0.41520000  0.75094000  1.0
  H  H21  1  0.73109000  0.91519000  0.74905000  1.0
  H  H22  1  0.73109000  0.58480000  0.24907000  1.0
  H  H23  1  0.26891000  0.08481000  0.25094000  1.0
  H  H24  1  0.38401000  0.17171000  0.79104000  1.0
  H  H25  1  0.61599000  0.67171000  0.70896000  1.0
  H  H26  1  0.61599000  0.82829000  0.20896000  1.0
  H  H27  1  0.38401000  0.32829000  0.29104000  1.0
  H  H28  1  0.47493000  0.32215000  0.94498000  1.0
  H  H29  1  0.52506000  0.82215000  0.55502000  1.0
  H  H30  1  0.52507000  0.67785000  0.05502000  1.0
  H  H31  1  0.47493000  0.17785000  0.44498000  1.0
  H  H32  1  0.13316000  0.25988000  0.62015000  1.0
  H  H33  1  0.86684000  0.75988000  0.87984000  1.0
  H  H34  1  0.86684000  0.74011000  0.37985000  1.0
  H  H35  1  0.13316000  0.24012000  0.12015000  1.0
  C  C36  1  0.94065000  0.15176000  0.64427000  1.0
  C  C37  1  0.05936000  0.65176000  0.85573000  1.0
  C  C38  1  0.05936000  0.84824000  0.35573000  1.0
  C  C39  1  0.94064000  0.34824000  0.14427000  1.0
  C  C40  1  0.49870000  0.08650000  0.65465000  1.0
  C  C41  1  0.50130000  0.58650000  0.84536000  1.0
  C  C42  1  0.50130000  0.91350000  0.34535000  1.0
  C  C43  1  0.49870000  0.41350000  0.15465000  1.0
  C  C44  1  0.02173000  0.27301000  0.83038000  1.0
  C  C45  1  0.97827000  0.77301000  0.66961000  1.0
  C  C46  1  0.97826000  0.72698000  0.16962000  1.0
  C  C47  1  0.02174000  0.22699000  0.33038000  1.0
  C  C48  1  0.54675000  0.17557000  0.74904000  1.0
  C  C49  1  0.45325000  0.67557000  0.75096000  1.0
  C  C50  1  0.45325000  0.82443000  0.25096000  1.0
  C  C51  1  0.54675000  0.32443000  0.24904000  1.0
  C  C52  1  0.66448000  0.22713000  0.77555000  1.0
  C  C53  1  0.33552000  0.72713000  0.72445000  1.0
  C  C54  1  0.33551000  0.77287000  0.22444000  1.0
  C  C55  1  0.66448000  0.27288000  0.27555000  1.0
  C  C56  1  0.70617000  0.31115000  0.85966000  1.0
  C  C57  1  0.29384000  0.81116000  0.64035000  1.0
  C  C58  1  0.29383000  0.68884000  0.14034000  1.0
  C  C59  1  0.70617000  0.18885000  0.35966000  1.0
  C  C60  1  0.10186000  0.35706000  0.89919000  1.0
  C  C61  1  0.89814000  0.85705000  0.60080000  1.0
  C  C62  1  0.89813000  0.64294000  0.10081000  1.0
  C  C63  1  0.10186000  0.14294000  0.39919000  1.0
  C  C64  1  0.03042000  0.23750000  0.72732000  1.0
  C  C65  1  0.96957000  0.73750000  0.77267000  1.0
  C  C66  1  0.96958000  0.76250000  0.27268000  1.0
  C  C67  1  0.03042000  0.26250000  0.22732000  1.0
  C  C68  1  0.19774000  0.37181000  0.77006000  1.0
  C  C69  1  0.80226000  0.87181000  0.72993000  1.0
  C  C70  1  0.80226000  0.62819000  0.22995000  1.0
  C  C71  1  0.19774000  0.12820000  0.27006000  1.0
  C  C72  1  0.47664000  0.20938000  0.81031000  1.0
  C  C73  1  0.52336000  0.70938000  0.68970000  1.0
  C  C74  1  0.52337000  0.79062000  0.18970000  1.0
  C  C75  1  0.47664000  0.29062000  0.31031000  1.0
  C  C76  1  0.52622000  0.29243000  0.89554000  1.0
  C  C77  1  0.47377000  0.79243000  0.60446000  1.0
  C  C78  1  0.47378000  0.70757000  0.10446000  1.0
  C  C79  1  0.52623000  0.20756000  0.39555000  1.0
  C  C80  1  0.12221000  0.28704000  0.69853000  1.0
  C  C81  1  0.87779000  0.78704000  0.80146000  1.0
  C  C82  1  0.87779000  0.71296000  0.30147000  1.0
  C  C83  1  0.12221000  0.21296000  0.19853000  1.0
  N  N84  1  0.18727000  0.40583000  0.86828000  1.0
  N  N85  1  0.81274000  0.90583000  0.63172000  1.0
  N  N86  1  0.81273000  0.59417000  0.13173000  1.0
  N  N87  1  0.18727000  0.09417000  0.36827000  1.0
  N  N88  1  0.63867000  0.34284000  0.91916000  1.0
  N  N89  1  0.36133000  0.84284000  0.58085000  1.0
  N  N90  1  0.36133000  0.65716000  0.08084000  1.0
  N  N91  1  0.63867000  0.15716000  0.41916000  1.0
  O  O92  1  0.57956000  0.03368000  0.63379000  1.0
  O  O93  1  0.42044000  0.53368000  0.86621000  1.0
  O  O94  1  0.42043000  0.96632000  0.36621000  1.0
  O  O95  1  0.57956000  0.46632000  0.13379000  1.0
  O  O96  1  0.37501000  0.07449000  0.60241000  1.0
  O  O97  1  0.62498000  0.57450000  0.89759000  1.0
  O  O98  1  0.62498000  0.92551000  0.39758000  1.0
  O  O99  1  0.37502000  0.42551000  0.10242000  1.0
  O  O100  1  0.83759000  0.13406000  0.65796000  1.0
  O  O101  1  0.16241000  0.63406000  0.84204000  1.0
  O  O102  1  0.16241000  0.86593000  0.34204000  1.0
  O  O103  1  0.83759000  0.36593000  0.15796000  1.0
  O  O104  1  0.96755000  0.10735000  0.56776000  1.0
  O  O105  1  0.03244000  0.60735000  0.93223000  1.0
  O  O106  1  0.03245000  0.89265000  0.43224000  1.0
  O  O107  1  0.96755000  0.39266000  0.06776000  1.0
