# generated using pymatgen
data_CuH4C6SNO2
_symmetry_space_group_name_H-M   'P 1'
_cell_length_a   3.80995000
_cell_length_b   19.63790000
_cell_length_c   19.63740000
_cell_angle_alpha   90.00160000
_cell_angle_beta   89.99520000
_cell_angle_gamma   89.99960000
_symmetry_Int_Tables_number   1
_chemical_formula_structural   CuH4C6SNO2
_chemical_formula_sum   'Cu8 H32 C48 S8 N8 O16'
_cell_volume   1469.25881569
_cell_formula_units_Z   8
loop_
 _symmetry_equiv_pos_site_id
 _symmetry_equiv_pos_as_xyz
  1  'x, y, z'
loop_
 _atom_site_type_symbol
 _atom_site_label
 _atom_site_symmetry_multiplicity
 _atom_site_fract_x
 _atom_site_fract_y
 _atom_site_fract_z
 _atom_site_occupancy
  Cu  Cu0  1  0.49984000  0.27584000  0.31573000  1.0
  Cu  Cu1  1  0.00007000  0.68427000  0.77585000  1.0
  Cu  Cu2  1  0.00002000  0.81572000  0.72416000  1.0
  Cu  Cu3  1  0.50007000  0.22417000  0.18426000  1.0
  Cu  Cu4  1  0.50000000  0.72415000  0.68427000  1.0
  Cu  Cu5  1  0.00015000  0.31574000  0.22417000  1.0
  Cu  Cu6  1  0.00004000  0.18428000  0.27583000  1.0
  Cu  Cu7  1  0.49999000  0.77583000  0.81573000  1.0
  H  H8  1  0.76972000  0.26816000  0.50640000  1.0
  H  H9  1  0.27024000  0.49358000  0.76818000  1.0
  H  H10  1  0.27017000  0.00641000  0.73182000  1.0
  H  H11  1  0.77024000  0.23181000  0.99359000  1.0
  H  H12  1  0.22990000  0.73180000  0.49358000  1.0
  H  H13  1  0.73016000  0.50640000  0.23183000  1.0
  H  H14  1  0.72994000  0.99359000  0.26818000  1.0
  H  H15  1  0.22972000  0.76819000  0.00643000  1.0
  H  H16  1  0.80111000  0.19408000  0.60895000  1.0
  H  H17  1  0.30160000  0.39104000  0.69410000  1.0
  H  H18  1  0.30152000  0.10895000  0.80591000  1.0
  H  H19  1  0.80161000  0.30590000  0.89105000  1.0
  H  H20  1  0.19852000  0.80590000  0.39104000  1.0
  H  H21  1  0.69870000  0.60896000  0.30589000  1.0
  H  H22  1  0.69850000  0.89105000  0.19410000  1.0
  H  H23  1  0.19838000  0.69409000  0.10896000  1.0
  H  H24  1  0.29841000  0.03680000  0.48948000  1.0
  H  H25  1  0.79867000  0.51052000  0.53680000  1.0
  H  H26  1  0.79861000  0.98947000  0.96319000  1.0
  H  H27  1  0.29854000  0.46322000  0.01052000  1.0
  H  H28  1  0.70126000  0.96318000  0.51052000  1.0
  H  H29  1  0.20148000  0.48951000  0.46319000  1.0
  H  H30  1  0.20148000  0.01051000  0.03680000  1.0
  H  H31  1  0.70134000  0.53681000  0.98947000  1.0
  H  H32  1  0.26735000  0.10994000  0.38687000  1.0
  H  H33  1  0.76765000  0.61312000  0.60997000  1.0
  H  H34  1  0.76762000  0.88686000  0.89003000  1.0
  H  H35  1  0.26754000  0.39008000  0.11315000  1.0
  H  H36  1  0.73224000  0.89003000  0.61315000  1.0
  H  H37  1  0.23259000  0.38688000  0.39006000  1.0
  H  H38  1  0.23261000  0.11314000  0.10994000  1.0
  H  H39  1  0.73231000  0.60997000  0.88686000  1.0
  C  C40  1  0.01594000  0.19362000  0.44048000  1.0
  C  C41  1  0.51618000  0.55952000  0.69363000  1.0
  C  C42  1  0.51618000  0.94047000  0.80637000  1.0
  C  C43  1  0.01616000  0.30638000  0.05954000  1.0
  C  C44  1  0.98382000  0.80637000  0.55953000  1.0
  C  C45  1  0.48404000  0.44048000  0.30637000  1.0
  C  C46  1  0.48396000  0.05953000  0.19363000  1.0
  C  C47  1  0.98376000  0.69363000  0.94047000  1.0
  C  C48  1  0.88370000  0.21746000  0.50281000  1.0
  C  C49  1  0.38409000  0.49718000  0.71747000  1.0
  C  C50  1  0.38403000  0.00281000  0.78253000  1.0
  C  C51  1  0.88413000  0.28252000  0.99719000  1.0
  C  C52  1  0.11605000  0.78251000  0.49719000  1.0
  C  C53  1  0.61629000  0.50281000  0.28253000  1.0
  C  C54  1  0.61605000  0.99719000  0.21747000  1.0
  C  C55  1  0.11587000  0.71748000  0.00282000  1.0
  C  C56  1  0.90102000  0.17637000  0.56015000  1.0
  C  C57  1  0.40148000  0.43984000  0.67639000  1.0
  C  C58  1  0.40138000  0.06015000  0.82362000  1.0
  C  C59  1  0.90140000  0.32363000  0.93984000  1.0
  C  C60  1  0.09868000  0.82361000  0.43984000  1.0
  C  C61  1  0.59891000  0.56016000  0.32361000  1.0
  C  C62  1  0.59868000  0.93985000  0.17639000  1.0
  C  C63  1  0.09860000  0.67638000  0.06015000  1.0
  C  C64  1  0.05237000  0.11172000  0.55444000  1.0
  C  C65  1  0.55263000  0.44556000  0.61172000  1.0
  C  C66  1  0.55259000  0.05443000  0.88828000  1.0
  C  C67  1  0.05264000  0.38828000  0.94556000  1.0
  C  C68  1  0.94735000  0.88826000  0.44556000  1.0
  C  C69  1  0.44749000  0.55445000  0.38826000  1.0
  C  C70  1  0.44744000  0.94556000  0.11173000  1.0
  C  C71  1  0.94733000  0.61172000  0.05444000  1.0
  C  C72  1  0.18325000  0.08733000  0.49254000  1.0
  C  C73  1  0.68354000  0.50745000  0.58733000  1.0
  C  C74  1  0.68348000  0.99254000  0.91267000  1.0
  C  C75  1  0.18340000  0.41269000  0.00746000  1.0
  C  C76  1  0.81640000  0.91265000  0.50746000  1.0
  C  C77  1  0.31669000  0.49256000  0.41266000  1.0
  C  C78  1  0.31666000  0.00746000  0.08733000  1.0
  C  C79  1  0.81646000  0.58734000  0.99254000  1.0
  C  C80  1  0.16464000  0.12847000  0.43521000  1.0
  C  C81  1  0.66495000  0.56478000  0.62848000  1.0
  C  C82  1  0.66490000  0.93521000  0.87153000  1.0
  C  C83  1  0.16484000  0.37154000  0.06479000  1.0
  C  C84  1  0.83496000  0.87151000  0.56479000  1.0
  C  C85  1  0.33536000  0.43522000  0.37153000  1.0
  C  C86  1  0.33528000  0.06479000  0.12847000  1.0
  C  C87  1  0.83502000  0.62848000  0.93521000  1.0
  S  S88  1  0.00064000  0.25116000  0.37098000  1.0
  S  S89  1  0.50076000  0.62903000  0.75118000  1.0
  S  S90  1  0.50079000  0.87097000  0.74882000  1.0
  S  S91  1  0.00090000  0.24883000  0.12903000  1.0
  S  S92  1  0.99922000  0.74882000  0.62903000  1.0
  S  S93  1  0.49931000  0.37098000  0.24883000  1.0
  S  S94  1  0.49931000  0.12903000  0.25118000  1.0
  S  S95  1  0.99910000  0.75118000  0.87096000  1.0
  N  N96  1  0.07603000  0.06888000  0.61476000  1.0
  N  N97  1  0.57609000  0.38523000  0.56888000  1.0
  N  N98  1  0.57614000  0.11477000  0.93111000  1.0
  N  N99  1  0.07605000  0.43113000  0.88524000  1.0
  N  N100  1  0.92387000  0.93110000  0.38522000  1.0
  N  N101  1  0.42394000  0.61477000  0.43112000  1.0
  N  N102  1  0.42392000  0.88524000  0.06888000  1.0
  N  N103  1  0.92386000  0.56889000  0.11478000  1.0
  O  O104  1  0.93562000  0.08929000  0.66827000  1.0
  O  O105  1  0.43571000  0.33173000  0.58931000  1.0
  O  O106  1  0.43582000  0.16827000  0.91068000  1.0
  O  O107  1  0.93567000  0.41071000  0.83174000  1.0
  O  O108  1  0.06428000  0.91068000  0.33172000  1.0
  O  O109  1  0.56423000  0.66828000  0.41070000  1.0
  O  O110  1  0.56417000  0.83174000  0.08930000  1.0
  O  O111  1  0.06433000  0.58931000  0.16827000  1.0
  O  O112  1  0.23687000  0.01365000  0.61004000  1.0
  O  O113  1  0.73666000  0.38995000  0.51360000  1.0
  O  O114  1  0.73667000  0.11003000  0.98639000  1.0
  O  O115  1  0.23666000  0.48640000  0.88996000  1.0
  O  O116  1  0.76334000  0.98638000  0.38995000  1.0
  O  O117  1  0.26343000  0.61004000  0.48640000  1.0
  O  O118  1  0.26336000  0.88997000  0.01360000  1.0
  O  O119  1  0.76332000  0.51362000  0.11005000  1.0
