# generated using pymatgen
data_Zn2H34C40I11N13O8
_symmetry_space_group_name_H-M   'P 1'
_cell_length_a   14.56480000
_cell_length_b   15.92950000
_cell_length_c   17.20410000
_cell_angle_alpha   88.29400000
_cell_angle_beta   83.09730000
_cell_angle_gamma   84.50590000
_symmetry_Int_Tables_number   1
_chemical_formula_structural   Zn2H34C40I11N13O8
_chemical_formula_sum   'Zn2 H34 C40 I11 N13 O8'
_cell_volume   3943.71343478
_cell_formula_units_Z   1
loop_
 _symmetry_equiv_pos_site_id
 _symmetry_equiv_pos_as_xyz
  1  'x, y, z'
loop_
 _atom_site_type_symbol
 _atom_site_label
 _atom_site_symmetry_multiplicity
 _atom_site_fract_x
 _atom_site_fract_y
 _atom_site_fract_z
 _atom_site_occupancy
  Zn  Zn0  1  0.40285000  0.50525000  0.50014000  1.0
  Zn  Zn1  1  0.59677000  0.48888000  0.50217000  1.0
  H  H2  1  0.50998000  0.34179000  0.11628000  1.0
  H  H3  1  0.55886000  0.60419000  0.10171000  1.0
  H  H4  1  0.33694000  0.47680000  0.75316000  1.0
  H  H5  1  0.56687000  0.61348000  0.88428000  1.0
  H  H6  1  0.45594000  0.09703000  0.31010000  1.0
  H  H7  1  0.55785000  0.06333000  0.33539000  1.0
  H  H8  1  0.64577000  0.84998000  0.39380000  1.0
  H  H9  1  0.71226000  0.93179000  0.38804000  1.0
  H  H10  1  0.38040000  0.14481000  0.62351000  1.0
  H  H11  1  0.33933000  0.05470000  0.65483000  1.0
  H  H12  1  0.34730000  0.15560000  0.44989000  1.0
  H  H13  1  0.48796000  0.94008000  0.36248000  1.0
  H  H14  1  0.32033000  0.08606000  0.38830000  1.0
  H  H15  1  0.57810000  0.00309000  0.63208000  1.0
  H  H16  1  0.49047000  0.04556000  0.69036000  1.0
  H  H17  1  0.15874000  0.64653000  0.42898000  1.0
  H  H18  1  0.05756000  0.69355000  0.40556000  1.0
  H  H19  1  0.92707000  0.61855000  0.63331000  1.0
  H  H20  1  0.91229000  0.55016000  0.70598000  1.0
  H  H21  1  0.82279000  0.44314000  0.66132000  1.0
  H  H22  1  0.88738000  0.37341000  0.60309000  1.0
  H  H23  1  0.02500000  0.35613000  0.63745000  1.0
  H  H24  1  0.63678000  0.06557000  0.42801000  1.0
  H  H25  1  0.12713000  0.35775000  0.58108000  1.0
  H  H26  1  0.62917000  0.39886000  0.97673000  1.0
  H  H27  1  0.54889000  0.41374000  0.91440000  1.0
  H  H28  1  0.37766000  0.64925000  0.01480000  1.0
  H  H29  1  0.39134000  0.58417000  0.09226000  1.0
  H  H30  1  0.63900000  0.05399000  0.52936000  1.0
  H  H31  1  0.36821000  0.95083000  0.54812000  1.0
  H  H32  1  0.38038000  0.94172000  0.42391000  1.0
  H  H33  1  0.93856000  0.59533000  0.41596000  1.0
  H  H34  1  0.94486000  0.38028000  0.48978000  1.0
  H  H35  1  0.91665000  0.44150000  0.40699000  1.0
  C  C36  1  0.49169000  0.65909000  0.47744000  1.0
  C  C37  1  0.54420000  0.47262000  0.26299000  1.0
  C  C38  1  0.45115000  0.96109000  0.41881000  1.0
  C  C39  1  0.47024000  0.52594000  0.65014000  1.0
  C  C40  1  0.60115000  0.94264000  0.47197000  1.0
  C  C41  1  0.60158000  0.03786000  0.48132000  1.0
  C  C42  1  0.49701000  0.24499000  0.51316000  1.0
  C  C43  1  0.50099000  0.91470000  0.48612000  1.0
  C  C44  1  0.44787000  0.05860000  0.42543000  1.0
  C  C45  1  0.50029000  0.07909000  0.49719000  1.0
  C  C46  1  0.45803000  0.04067000  0.57934000  1.0
  C  C47  1  0.38705000  0.50658000  0.78283000  1.0
  C  C48  1  0.44002000  0.94901000  0.56131000  1.0
  C  C49  1  0.49971000  0.16934000  0.50481000  1.0
  C  C50  1  0.49955000  0.82477000  0.47879000  1.0
  C  C51  1  0.49682000  0.33551000  0.51693000  1.0
  C  C52  1  0.49542000  0.74959000  0.47242000  1.0
  C  C53  1  0.94015000  0.59817000  0.47958000  1.0
  C  C54  1  0.95252000  0.44116000  0.45942000  1.0
  C  C55  1  0.05592000  0.45280000  0.43715000  1.0
  C  C56  1  0.90693000  0.51392000  0.51490000  1.0
  C  C57  1  0.04267000  0.60326000  0.49003000  1.0
  C  C58  1  0.54921000  0.54685000  0.13661000  1.0
  C  C59  1  0.08500000  0.50926000  0.50560000  1.0
  C  C60  1  0.04282000  0.46842000  0.58723000  1.0
  C  C61  1  0.93287000  0.49385000  0.60144000  1.0
  C  C62  1  0.18481000  0.50758000  0.50029000  1.0
  C  C63  1  0.53838000  0.47622000  0.35091000  1.0
  C  C64  1  0.80781000  0.51099000  0.51637000  1.0
  C  C65  1  0.46027000  0.54166000  0.73652000  1.0
  C  C66  1  0.52407000  0.58253000  0.77355000  1.0
  C  C67  1  0.51684000  0.58295000  0.85513000  1.0
  C  C68  1  0.44788000  0.54231000  0.90209000  1.0
  C  C69  1  0.55640000  0.54556000  0.21654000  1.0
  C  C70  1  0.38106000  0.50629000  0.86432000  1.0
  C  C71  1  0.52990000  0.39883000  0.22496000  1.0
  C  C72  1  0.52301000  0.39893000  0.14478000  1.0
  C  C73  1  0.52923000  0.47397000  0.10026000  1.0
  C  C74  1  0.45344000  0.53686000  0.98772000  1.0
  C  C75  1  0.51541000  0.47777000  0.01660000  1.0
  I  I76  1  0.63021000  0.64771000  0.71147000  1.0
  I  I77  1  0.06553000  0.70109000  0.58926000  1.0
  I  I78  1  0.27435000  0.44397000  0.92851000  1.0
  I  I79  1  0.68961000  0.87525000  0.57315000  1.0
  I  I80  1  0.43413000  0.86687000  0.66470000  1.0
  I  I81  1  0.58337000  0.65932000  0.26642000  1.0
  I  I82  1  0.07361000  0.50063000  0.31403000  1.0
  I  I83  1  0.14171000  0.33141000  0.42105000  1.0
  I  I84  1  0.51642000  0.28427000  0.28993000  1.0
  I  I85  1  0.11373000  0.50748000  0.69227000  1.0
  I  I86  1  0.84153000  0.71030000  0.50433000  1.0
  N  N87  1  0.26466000  0.50924000  0.49190000  1.0
  N  N88  1  0.88906000  0.42268000  0.63917000  1.0
  N  N89  1  0.05881000  0.38005000  0.58734000  1.0
  N  N90  1  0.56004000  0.40953000  0.97173000  1.0
  N  N91  1  0.38538000  0.58822000  0.03391000  1.0
  N  N92  1  0.73156000  0.49677000  0.51498000  1.0
  N  N93  1  0.49673000  0.09776000  0.35440000  1.0
  N  N94  1  0.64730000  0.91313000  0.40142000  1.0
  N  N95  1  0.36941000  0.08583000  0.60698000  1.0
  N  N96  1  0.35170000  0.09291000  0.43747000  1.0
  N  N97  1  0.52478000  0.05031000  0.63531000  1.0
  N  N98  1  0.09090000  0.63898000  0.42440000  1.0
  N  N99  1  0.89769000  0.56406000  0.65009000  1.0
  O  O100  1  0.41293000  0.63187000  0.47508000  1.0
  O  O101  1  0.56841000  0.61667000  0.48565000  1.0
  O  O102  1  0.39672000  0.53239000  0.61657000  1.0
  O  O103  1  0.55214000  0.50392000  0.61895000  1.0
  O  O104  1  0.41758000  0.37786000  0.52335000  1.0
  O  O105  1  0.57609000  0.36389000  0.51224000  1.0
  O  O106  1  0.45596000  0.48175000  0.38552000  1.0
  O  O107  1  0.61306000  0.47541000  0.38189000  1.0
