# generated using pymatgen
data_NaYbH16(C14O5)2
_symmetry_space_group_name_H-M   'P 1'
_cell_length_a   7.22595000
_cell_length_b   14.93743270
_cell_length_c   15.41760000
_cell_angle_alpha   61.02500000
_cell_angle_beta   90.00020000
_cell_angle_gamma   89.99958714
_symmetry_Int_Tables_number   1
_chemical_formula_structural   NaYbH16(C14O5)2
_chemical_formula_sum   'Na2 Yb2 H32 C56 O20'
_cell_volume   1455.83424933
_cell_formula_units_Z   2
loop_
 _symmetry_equiv_pos_site_id
 _symmetry_equiv_pos_as_xyz
  1  'x, y, z'
loop_
 _atom_site_type_symbol
 _atom_site_label
 _atom_site_symmetry_multiplicity
 _atom_site_fract_x
 _atom_site_fract_y
 _atom_site_fract_z
 _atom_site_occupancy
  Na  Na0  1  0.29693000  0.36776000  0.00000000  1.0
  Na  Na1  1  0.79692000  0.63224000  0.00001000  1.0
  Yb  Yb2  1  0.79195000  0.37218000  0.00000000  1.0
  Yb  Yb3  1  0.29194000  0.62781000  0.00001000  1.0
  H  H4  1  0.82863000  0.03575000  0.27279000  1.0
  H  H5  1  0.32859000  0.96423000  0.72723000  1.0
  H  H6  1  0.32861000  0.69146000  0.27279000  1.0
  H  H7  1  0.82861000  0.30855000  0.72720000  1.0
  H  H8  1  0.26816000  0.13767000  0.19166000  1.0
  H  H9  1  0.76812000  0.86234000  0.80835000  1.0
  H  H10  1  0.76815000  0.67069000  0.19164000  1.0
  H  H11  1  0.26815000  0.32930000  0.80837000  1.0
  H  H12  1  0.71403000  0.87206000  0.41561000  1.0
  H  H13  1  0.21401000  0.12793000  0.58440000  1.0
  H  H14  1  0.21400000  0.71233000  0.41561000  1.0
  H  H15  1  0.71401000  0.28768000  0.58438000  1.0
  H  H16  1  0.15239000  0.97104000  0.33014000  1.0
  H  H17  1  0.65235000  0.02897000  0.66986000  1.0
  H  H18  1  0.65237000  0.69882000  0.33013000  1.0
  H  H19  1  0.15237000  0.30116000  0.66987000  1.0
  H  H20  1  0.45845000  0.62872000  0.54781000  1.0
  H  H21  1  0.95844000  0.37128000  0.45218000  1.0
  H  H22  1  0.95843000  0.82348000  0.54780000  1.0
  H  H23  1  0.45844000  0.17652000  0.45219000  1.0
  H  H24  1  0.42116000  0.90818000  0.56339000  1.0
  H  H25  1  0.92116000  0.09182000  0.43661000  1.0
  H  H26  1  0.92116000  0.52843000  0.56340000  1.0
  H  H27  1  0.42116000  0.47157000  0.43660000  1.0
  H  H28  1  0.57198000  0.53650000  0.72299000  1.0
  H  H29  1  0.07198000  0.46350000  0.27701000  1.0
  H  H30  1  0.07196000  0.74054000  0.72297000  1.0
  H  H31  1  0.57197000  0.25947000  0.27702000  1.0
  H  H32  1  0.51725000  0.81276000  0.74185000  1.0
  H  H33  1  0.01727000  0.18724000  0.25815000  1.0
  H  H34  1  0.01724000  0.44540000  0.74186000  1.0
  H  H35  1  0.51725000  0.55460000  0.25814000  1.0
  C  C36  1  0.62656000  0.19352000  0.14093000  1.0
  C  C37  1  0.12652000  0.80647000  0.85908000  1.0
  C  C38  1  0.12657000  0.66555000  0.14093000  1.0
  C  C39  1  0.62656000  0.33445000  0.85907000  1.0
  C  C40  1  0.55580000  0.09673000  0.22441000  1.0
  C  C41  1  0.05575000  0.90326000  0.77561000  1.0
  C  C42  1  0.05579000  0.67887000  0.22439000  1.0
  C  C43  1  0.55579000  0.32113000  0.77561000  1.0
  C  C44  1  0.68104000  0.02193000  0.28783000  1.0
  C  C45  1  0.18101000  0.97807000  0.71218000  1.0
  C  C46  1  0.18102000  0.69024000  0.28783000  1.0
  C  C47  1  0.68102000  0.30976000  0.71217000  1.0
  C  C48  1  0.36515000  0.07908000  0.24076000  1.0
  C  C49  1  0.86511000  0.92093000  0.75925000  1.0
  C  C50  1  0.86514000  0.68017000  0.24075000  1.0
  C  C51  1  0.36513000  0.31983000  0.75925000  1.0
  C  C52  1  0.61814000  0.93136000  0.36708000  1.0
  C  C53  1  0.11811000  0.06863000  0.63293000  1.0
  C  C54  1  0.11812000  0.70156000  0.36708000  1.0
  C  C55  1  0.61812000  0.29845000  0.63291000  1.0
  C  C56  1  0.30007000  0.98716000  0.31805000  1.0
  C  C57  1  0.80004000  0.01285000  0.68196000  1.0
  C  C58  1  0.80005000  0.69480000  0.31804000  1.0
  C  C59  1  0.30005000  0.30519000  0.68196000  1.0
  C  C60  1  0.42756000  0.91393000  0.38076000  1.0
  C  C61  1  0.92755000  0.08608000  0.61923000  1.0
  C  C62  1  0.92754000  0.70531000  0.38076000  1.0
  C  C63  1  0.42755000  0.29469000  0.61923000  1.0
  C  C64  1  0.43674000  0.77325000  0.54627000  1.0
  C  C65  1  0.93674000  0.22674000  0.45374000  1.0
  C  C66  1  0.93673000  0.68049000  0.54626000  1.0
  C  C67  1  0.43674000  0.31951000  0.45374000  1.0
  C  C68  1  0.47697000  0.66894000  0.59022000  1.0
  C  C69  1  0.97697000  0.33106000  0.40978000  1.0
  C  C70  1  0.97696000  0.74085000  0.59021000  1.0
  C  C71  1  0.47697000  0.25915000  0.40978000  1.0
  C  C72  1  0.45647000  0.82711000  0.59880000  1.0
  C  C73  1  0.95648000  0.17289000  0.40120000  1.0
  C  C74  1  0.95647000  0.57409000  0.59881000  1.0
  C  C75  1  0.45648000  0.42591000  0.40119000  1.0
  C  C76  1  0.53973000  0.61774000  0.68787000  1.0
  C  C77  1  0.03973000  0.38226000  0.31214000  1.0
  C  C78  1  0.03971000  0.69442000  0.68785000  1.0
  C  C79  1  0.53972000  0.30559000  0.31214000  1.0
  C  C80  1  0.51165000  0.77441000  0.69726000  1.0
  C  C81  1  0.01166000  0.22559000  0.30274000  1.0
  C  C82  1  0.01164000  0.52835000  0.69726000  1.0
  C  C83  1  0.51165000  0.47166000  0.30273000  1.0
  C  C84  1  0.55554000  0.66976000  0.74245000  1.0
  C  C85  1  0.05555000  0.33024000  0.25756000  1.0
  C  C86  1  0.05553000  0.58781000  0.74244000  1.0
  C  C87  1  0.55554000  0.41219000  0.25756000  1.0
  C  C88  1  0.60581000  0.61712000  0.84937000  1.0
  C  C89  1  0.10582000  0.38288000  0.15064000  1.0
  C  C90  1  0.10581000  0.53354000  0.84936000  1.0
  C  C91  1  0.60582000  0.46646000  0.15064000  1.0
  O  O92  1  0.79349000  0.19904000  0.11140000  1.0
  O  O93  1  0.29344000  0.80095000  0.88862000  1.0
  O  O94  1  0.29351000  0.68955000  0.11141000  1.0
  O  O95  1  0.79349000  0.31044000  0.88860000  1.0
  O  O96  1  0.52091000  0.27207000  0.10051000  1.0
  O  O97  1  0.02087000  0.72792000  0.89948000  1.0
  O  O98  1  0.02092000  0.62743000  0.10050000  1.0
  O  O99  1  0.52091000  0.37259000  0.89948000  1.0
  O  O100  1  0.35962000  0.82021000  0.45207000  1.0
  O  O101  1  0.85961000  0.17979000  0.54793000  1.0
  O  O102  1  0.85960000  0.72772000  0.45207000  1.0
  O  O103  1  0.35961000  0.27228000  0.54793000  1.0
  O  O104  1  0.70730000  0.53741000  0.88722000  1.0
  O  O105  1  0.20731000  0.46259000  0.11278000  1.0
  O  O106  1  0.20731000  0.57539000  0.88720000  1.0
  O  O107  1  0.70731000  0.42461000  0.11279000  1.0
  O  O108  1  0.54489000  0.65829000  0.90003000  1.0
  O  O109  1  0.04490000  0.34172000  0.09996000  1.0
  O  O110  1  0.04489000  0.44171000  0.90003000  1.0
  O  O111  1  0.54489000  0.55830000  0.09996000  1.0
