# generated using pymatgen
data_CuH8(C5N4)2
_symmetry_space_group_name_H-M   'P 1'
_cell_length_a   6.49270000
_cell_length_b   8.44113000
_cell_length_c   10.81090000
_cell_angle_alpha   87.76850000
_cell_angle_beta   88.58000000
_cell_angle_gamma   76.96060000
_symmetry_Int_Tables_number   1
_chemical_formula_structural   CuH8(C5N4)2
_chemical_formula_sum   'Cu2 H16 C20 N16'
_cell_volume   576.70609986
_cell_formula_units_Z   2
loop_
 _symmetry_equiv_pos_site_id
 _symmetry_equiv_pos_as_xyz
  1  'x, y, z'
loop_
 _atom_site_type_symbol
 _atom_site_label
 _atom_site_symmetry_multiplicity
 _atom_site_fract_x
 _atom_site_fract_y
 _atom_site_fract_z
 _atom_site_occupancy
  Cu  Cu0  1  0.24518000  0.50163000  0.55168000  1.0
  Cu  Cu1  1  0.75482000  0.49837000  0.44832000  1.0
  H  H2  1  0.13947000  0.74225000  0.97389000  1.0
  H  H3  1  0.86053000  0.25775000  0.02611000  1.0
  H  H4  1  0.97726000  0.02944000  0.90037000  1.0
  H  H5  1  0.02273000  0.97055000  0.09964000  1.0
  H  H6  1  0.91079000  0.08715000  0.67513000  1.0
  H  H7  1  0.08920000  0.91285000  0.32487000  1.0
  H  H8  1  0.00971000  0.85474000  0.52900000  1.0
  H  H9  1  0.99029000  0.14526000  0.47100000  1.0
  H  H10  1  0.25308000  0.48935000  0.01898000  1.0
  H  H11  1  0.74692000  0.51066000  0.98101000  1.0
  H  H12  1  0.41135000  0.19768000  0.04839000  1.0
  H  H13  1  0.58865000  0.80233000  0.95162000  1.0
  H  H14  1  0.51312000  0.02449000  0.85721000  1.0
  H  H15  1  0.48686000  0.97551000  0.14279000  1.0
  H  H16  1  0.45621000  0.16389000  0.64888000  1.0
  H  H17  1  0.54380000  0.83611000  0.35113000  1.0
  C  C18  1  0.16458000  0.65215000  0.78842000  1.0
  C  C19  1  0.83541000  0.34785000  0.21157000  1.0
  C  C20  1  0.10949000  0.77297000  0.87611000  1.0
  C  C21  1  0.89050000  0.22702000  0.12389000  1.0
  C  C22  1  0.01963000  0.93135000  0.83553000  1.0
  C  C23  1  0.98037000  0.06864000  0.16446000  1.0
  C  C24  1  0.98286000  0.96511000  0.70968000  1.0
  C  C25  1  0.01714000  0.03489000  0.29031000  1.0
  C  C26  1  0.03811000  0.83862000  0.62817000  1.0
  C  C27  1  0.96189000  0.16138000  0.37183000  1.0
  C  C28  1  0.26668000  0.48115000  0.81826000  1.0
  C  C29  1  0.73332000  0.51884000  0.18174000  1.0
  C  C30  1  0.29893000  0.41465000  0.93848000  1.0
  C  C31  1  0.70106000  0.58535000  0.06152000  1.0
  C  C32  1  0.38806000  0.24908000  0.95450000  1.0
  C  C33  1  0.61194000  0.75092000  0.04550000  1.0
  C  C34  1  0.44415000  0.15448000  0.85083000  1.0
  C  C35  1  0.55585000  0.84552000  0.14918000  1.0
  C  C36  1  0.41208000  0.22973000  0.73388000  1.0
  C  C37  1  0.58792000  0.77028000  0.26613000  1.0
  N  N38  1  0.12772000  0.68664000  0.66666667  1.0
  N  N39  1  0.87226000  0.31335000  0.33339000  1.0
  N  N40  1  0.32588000  0.38863000  0.71832000  1.0
  N  N41  1  0.67412000  0.61137000  0.28168000  1.0
  N  N42  1  0.43045000  0.32410000  0.46415000  1.0
  N  N43  1  0.56957000  0.67590000  0.53585000  1.0
  N  N44  1  0.41050000  0.28017000  0.36131000  1.0
  N  N45  1  0.58950000  0.71983000  0.63869000  1.0
  N  N46  1  0.40289000  0.23129000  0.26223000  1.0
  N  N47  1  0.59711000  0.76871000  0.73777000  1.0
  N  N48  1  0.09625000  0.62161000  0.40873000  1.0
  N  N49  1  0.90377000  0.37839000  0.59128000  1.0
  N  N50  1  0.14412000  0.62051000  0.30041000  1.0
  N  N51  1  0.85589000  0.37948000  0.69960000  1.0
  N  N52  1  0.17667000  0.62869000  0.19371000  1.0
  N  N53  1  0.82334000  0.37131000  0.80629000  1.0
