# generated using pymatgen
data_ZnH8C14(N2O)2
_symmetry_space_group_name_H-M   'P 1'
_cell_length_a   7.65647000
_cell_length_b   10.97150000
_cell_length_c   15.86470000
_cell_angle_alpha   98.76090000
_cell_angle_beta   89.99990000
_cell_angle_gamma   90.00000000
_symmetry_Int_Tables_number   1
_chemical_formula_structural   ZnH8C14(N2O)2
_chemical_formula_sum   'Zn4 H32 C56 N16 O8'
_cell_volume   1317.13277453
_cell_formula_units_Z   4
loop_
 _symmetry_equiv_pos_site_id
 _symmetry_equiv_pos_as_xyz
  1  'x, y, z'
loop_
 _atom_site_type_symbol
 _atom_site_label
 _atom_site_symmetry_multiplicity
 _atom_site_fract_x
 _atom_site_fract_y
 _atom_site_fract_z
 _atom_site_occupancy
  Zn  Zn0  1  0.94760000  0.97534000  0.11650000  1.0
  Zn  Zn1  1  0.44760000  0.02466000  0.38350000  1.0
  Zn  Zn2  1  0.05240000  0.02466000  0.88350000  1.0
  Zn  Zn3  1  0.55240000  0.97534000  0.61650000  1.0
  H  H4  1  0.17086000  0.46877000  0.22660000  1.0
  H  H5  1  0.67085000  0.53123000  0.27340000  1.0
  H  H6  1  0.82915000  0.53123000  0.77340000  1.0
  H  H7  1  0.32915000  0.46877000  0.72660000  1.0
  H  H8  1  0.44777000  0.63511000  0.18241000  1.0
  H  H9  1  0.94777000  0.36489000  0.31759000  1.0
  H  H10  1  0.55223000  0.36489000  0.81759000  1.0
  H  H11  1  0.05222000  0.63511000  0.68240000  1.0
  H  H12  1  0.06240000  0.67548000  0.29292000  1.0
  H  H13  1  0.56240000  0.32453000  0.20708000  1.0
  H  H14  1  0.93760000  0.32452000  0.70708000  1.0
  H  H15  1  0.43760000  0.67547000  0.79292000  1.0
  H  H16  1  0.78183000  0.45783000  0.02924000  1.0
  H  H17  1  0.28183000  0.54217000  0.47076000  1.0
  H  H18  1  0.21817000  0.54217000  0.97076000  1.0
  H  H19  1  0.71816000  0.45783000  0.52924000  1.0
  H  H20  1  0.02770000  0.35874000  0.09677000  1.0
  H  H21  1  0.52770000  0.64126000  0.40323000  1.0
  H  H22  1  0.97230000  0.64126000  0.90323000  1.0
  H  H23  1  0.47230000  0.35874000  0.59677000  1.0
  H  H24  1  0.19542000  0.73667000  0.12359000  1.0
  H  H25  1  0.69542000  0.26333000  0.37641000  1.0
  H  H26  1  0.80458000  0.26333000  0.87641000  1.0
  H  H27  1  0.30457000  0.73667000  0.62359000  1.0
  H  H28  1  0.77534000  0.73540000  0.98264000  1.0
  H  H29  1  0.27534000  0.26460000  0.51736000  1.0
  H  H30  1  0.22466000  0.26460000  0.01736000  1.0
  H  H31  1  0.72466000  0.73540000  0.48263000  1.0
  H  H32  1  0.52344000  0.83860000  0.92525000  1.0
  H  H33  1  0.02344000  0.16141000  0.57475000  1.0
  H  H34  1  0.47656000  0.16141000  0.07475000  1.0
  H  H35  1  0.97656000  0.83859000  0.42525000  1.0
  C  C36  1  0.79080000  0.80163000  0.23863000  1.0
  C  C37  1  0.29080000  0.19837000  0.26137000  1.0
  C  C38  1  0.20921000  0.19837000  0.76137000  1.0
  C  C39  1  0.70921000  0.80163000  0.73863000  1.0
  C  C40  1  0.06158000  0.51125000  0.19820000  1.0
  C  C41  1  0.56158000  0.48876000  0.30180000  1.0
  C  C42  1  0.93842000  0.48875000  0.80180000  1.0
  C  C43  1  0.43842000  0.51125000  0.69820000  1.0
  C  C44  1  0.46411000  0.67877000  0.12559000  1.0
  C  C45  1  0.96411000  0.32123000  0.37441000  1.0
  C  C46  1  0.53589000  0.32123000  0.87441000  1.0
  C  C47  1  0.03589000  0.67877000  0.62559000  1.0
  C  C48  1  0.78095000  0.62105000  0.12354000  1.0
  C  C49  1  0.28095000  0.37896000  0.37646000  1.0
  C  C50  1  0.21905000  0.37896000  0.87646000  1.0
  C  C51  1  0.71905000  0.62104000  0.62354000  1.0
  C  C52  1  0.00105000  0.62691000  0.23542000  1.0
  C  C53  1  0.50105000  0.37309000  0.26458000  1.0
  C  C54  1  0.99895000  0.37309000  0.76459000  1.0
  C  C55  1  0.49895000  0.62691000  0.73542000  1.0
  C  C56  1  0.86054000  0.68164000  0.19872000  1.0
  C  C57  1  0.36054000  0.31836000  0.30128000  1.0
  C  C58  1  0.13946000  0.31836000  0.80128000  1.0
  C  C59  1  0.63946000  0.68164000  0.69872000  1.0
  C  C60  1  0.62849000  0.67782000  0.08617000  1.0
  C  C61  1  0.12849000  0.32218000  0.41383000  1.0
  C  C62  1  0.37151000  0.32218000  0.91383000  1.0
  C  C63  1  0.87151000  0.67782000  0.58617000  1.0
  C  C64  1  0.84405000  0.50530000  0.08688000  1.0
  C  C65  1  0.34405000  0.49470000  0.41312000  1.0
  C  C66  1  0.15595000  0.49470000  0.91312000  1.0
  C  C67  1  0.65594000  0.50530000  0.58688000  1.0
  C  C68  1  0.98210000  0.45014000  0.12446000  1.0
  C  C69  1  0.48210000  0.54986000  0.37554000  1.0
  C  C70  1  0.01790000  0.54986000  0.87554000  1.0
  C  C71  1  0.51790000  0.45014000  0.62446000  1.0
  C  C72  1  0.32256000  0.73576000  0.09284000  1.0
  C  C73  1  0.82256000  0.26424000  0.40716000  1.0
  C  C74  1  0.67744000  0.26423000  0.90716000  1.0
  C  C75  1  0.17744000  0.73576000  0.59284000  1.0
  C  C76  1  0.64791000  0.73376000  0.01284000  1.0
  C  C77  1  0.14791000  0.26624000  0.48716000  1.0
  C  C78  1  0.35209000  0.26624000  0.98716000  1.0
  C  C79  1  0.85209000  0.73376000  0.51284000  1.0
  C  C80  1  0.34337000  0.79370000  0.02060000  1.0
  C  C81  1  0.84337000  0.20630000  0.47940000  1.0
  C  C82  1  0.65663000  0.20630000  0.97940000  1.0
  C  C83  1  0.15663000  0.79370000  0.52060000  1.0
  C  C84  1  0.50704000  0.79203000  0.98065000  1.0
  C  C85  1  0.00704000  0.20797000  0.51935000  1.0
  C  C86  1  0.49296000  0.20797000  0.01935000  1.0
  C  C87  1  0.99296000  0.79203000  0.48065000  1.0
  C  C88  1  0.19485000  0.85987000  0.98805000  1.0
  C  C89  1  0.69485000  0.14013000  0.51195000  1.0
  C  C90  1  0.80515000  0.14013000  0.01195000  1.0
  C  C91  1  0.30515000  0.85987000  0.48805000  1.0
  N  N92  1  0.69001000  0.81910000  0.30834000  1.0
  N  N93  1  0.19001000  0.18090000  0.19166000  1.0
  N  N94  1  0.30999000  0.18090000  0.69166000  1.0
  N  N95  1  0.80999000  0.81910000  0.80834000  1.0
  N  N96  1  0.80914000  0.90916000  0.20698000  1.0
  N  N97  1  0.30913000  0.09084000  0.29302000  1.0
  N  N98  1  0.19087000  0.09084000  0.79302000  1.0
  N  N99  1  0.69087000  0.90916000  0.70698000  1.0
  N  N100  1  0.71847000  0.99500000  0.25766000  1.0
  N  N101  1  0.21847000  0.00500000  0.24234000  1.0
  N  N102  1  0.28154000  0.00500000  0.74235000  1.0
  N  N103  1  0.78154000  0.99500000  0.75766000  1.0
  N  N104  1  0.64846000  0.93964000  0.31751000  1.0
  N  N105  1  0.14846000  0.06036000  0.18249000  1.0
  N  N106  1  0.35154000  0.06036000  0.68249000  1.0
  N  N107  1  0.85154000  0.93964000  0.81751000  1.0
  O  O108  1  0.04366000  0.85710000  0.02292000  1.0
  O  O109  1  0.54366000  0.14290000  0.47708000  1.0
  O  O110  1  0.95634000  0.14290000  0.97708000  1.0
  O  O111  1  0.45634000  0.85710000  0.52292000  1.0
  O  O112  1  0.22512000  0.91644000  0.92505000  1.0
  O  O113  1  0.72512000  0.08356000  0.57495000  1.0
  O  O114  1  0.77488000  0.08356000  0.07495000  1.0
  O  O115  1  0.27488000  0.91644000  0.42505000  1.0
