# generated using pymatgen
data_ZnH6C4N3Cl
_symmetry_space_group_name_H-M   'P 1'
_cell_length_a   7.55323000
_cell_length_b   9.23095000
_cell_length_c   9.85202000
_cell_angle_alpha   89.99940000
_cell_angle_beta   100.35300000
_cell_angle_gamma   89.99930000
_symmetry_Int_Tables_number   1
_chemical_formula_structural   ZnH6C4N3Cl
_chemical_formula_sum   'Zn4 H24 C16 N12 Cl4'
_cell_volume   675.73365530
_cell_formula_units_Z   4
loop_
 _symmetry_equiv_pos_site_id
 _symmetry_equiv_pos_as_xyz
  1  'x, y, z'
loop_
 _atom_site_type_symbol
 _atom_site_label
 _atom_site_symmetry_multiplicity
 _atom_site_fract_x
 _atom_site_fract_y
 _atom_site_fract_z
 _atom_site_occupancy
  Zn  Zn0  1  0.30692000  0.94396000  0.36054000  1.0
  Zn  Zn1  1  0.69308000  0.44395000  0.13946000  1.0
  Zn  Zn2  1  0.69308000  0.05605000  0.63946000  1.0
  Zn  Zn3  1  0.30693000  0.55606000  0.86054000  1.0
  H  H4  1  0.05275000  0.74402000  0.94573000  1.0
  H  H5  1  0.94726000  0.24402000  0.55424000  1.0
  H  H6  1  0.94725000  0.25595000  0.05429000  1.0
  H  H7  1  0.05274000  0.75600000  0.44572000  1.0
  H  H8  1  0.14926000  0.91912000  0.97348000  1.0
  H  H9  1  0.85074000  0.41910000  0.52650000  1.0
  H  H10  1  0.85070000  0.08087000  0.02653000  1.0
  H  H11  1  0.14927000  0.58088000  0.47346000  1.0
  H  H12  1  0.02839000  0.84536000  0.09649000  1.0
  H  H13  1  0.97159000  0.34535000  0.40350000  1.0
  H  H14  1  0.97160000  0.15461000  0.90354000  1.0
  H  H15  1  0.02837000  0.65464000  0.59649000  1.0
  H  H16  1  0.70266000  0.81214000  0.41127000  1.0
  H  H17  1  0.29733000  0.31213000  0.08874000  1.0
  H  H18  1  0.29737000  0.18789000  0.58873000  1.0
  H  H19  1  0.70266000  0.68784000  0.91127000  1.0
  H  H20  1  0.60835000  0.65255000  0.46974000  1.0
  H  H21  1  0.39164000  0.15256000  0.03027000  1.0
  H  H22  1  0.39167000  0.34747000  0.53029000  1.0
  H  H23  1  0.60832000  0.84745000  0.96974000  1.0
  H  H24  1  0.77637000  0.64013000  0.36366000  1.0
  H  H25  1  0.22364000  0.14014000  0.13635000  1.0
  H  H26  1  0.22366000  0.35988000  0.63636000  1.0
  H  H27  1  0.77639000  0.85987000  0.86366000  1.0
  C  C28  1  0.28519000  0.75142000  0.10148000  1.0
  C  C29  1  0.71482000  0.25142000  0.39853000  1.0
  C  C30  1  0.71483000  0.24857000  0.89855000  1.0
  C  C31  1  0.28521000  0.74858000  0.60148000  1.0
  C  C32  1  0.51907000  0.70057000  0.25543000  1.0
  C  C33  1  0.48091000  0.20057000  0.24455000  1.0
  C  C34  1  0.48093000  0.29944000  0.74456000  1.0
  C  C35  1  0.51905000  0.79942000  0.75541000  1.0
  C  C36  1  0.11938000  0.81882000  0.02507000  1.0
  C  C37  1  0.88064000  0.31882000  0.47492000  1.0
  C  C38  1  0.88063000  0.18115000  0.97496000  1.0
  C  C39  1  0.11940000  0.68120000  0.52507000  1.0
  C  C40  1  0.65872000  0.70128000  0.38222000  1.0
  C  C41  1  0.34127000  0.20128000  0.11777000  1.0
  C  C42  1  0.34128000  0.29874000  0.61778000  1.0
  C  C43  1  0.65867000  0.79872000  0.88218000  1.0
  N  N44  1  0.37433000  0.79079000  0.22884000  1.0
  N  N45  1  0.62566000  0.29077000  0.27116000  1.0
  N  N46  1  0.62567000  0.20922000  0.77118000  1.0
  N  N47  1  0.37432000  0.70919000  0.72883000  1.0
  N  N48  1  0.37096000  0.64235000  0.05199000  1.0
  N  N49  1  0.62905000  0.14235000  0.44800000  1.0
  N  N50  1  0.62905000  0.35764000  0.94801000  1.0
  N  N51  1  0.37098000  0.85765000  0.55199000  1.0
  N  N52  1  0.51965000  0.60985000  0.14996000  1.0
  N  N53  1  0.48034000  0.10985000  0.35003000  1.0
  N  N54  1  0.48036000  0.39016000  0.85004000  1.0
  N  N55  1  0.51965000  0.89016000  0.64995000  1.0
  Cl  Cl56  1  0.02115000  0.01338000  0.30839000  1.0
  Cl  Cl57  1  0.97885000  0.51339000  0.19161000  1.0
  Cl  Cl58  1  0.97885000  0.98664000  0.69162000  1.0
  Cl  Cl59  1  0.02115000  0.48663000  0.80838000  1.0
