# generated using pymatgen
data_CdH14C10(NO)4
_symmetry_space_group_name_H-M   'P 1'
_cell_length_a   5.11355000
_cell_length_b   7.71002000
_cell_length_c   8.77158000
_cell_angle_alpha   75.42580000
_cell_angle_beta   89.88350000
_cell_angle_gamma   75.63840000
_symmetry_Int_Tables_number   1
_chemical_formula_structural   CdH14C10(NO)4
_chemical_formula_sum   'Cd1 H14 C10 N4 O4'
_cell_volume   323.56430977
_cell_formula_units_Z   1
loop_
 _symmetry_equiv_pos_site_id
 _symmetry_equiv_pos_as_xyz
  1  'x, y, z'
loop_
 _atom_site_type_symbol
 _atom_site_label
 _atom_site_symmetry_multiplicity
 _atom_site_fract_x
 _atom_site_fract_y
 _atom_site_fract_z
 _atom_site_occupancy
  Cd  Cd0  1  0.00000000  0.00000000  0.00000000  1.0
  H  H1  1  0.64258000  0.71807000  0.97689000  1.0
  H  H2  1  0.35742000  0.28194000  0.02311000  1.0
  H  H3  1  0.70029000  0.46406000  0.81957000  1.0
  H  H4  1  0.29971000  0.53594000  0.18043000  1.0
  H  H5  1  0.10133000  0.52719000  0.61657000  1.0
  H  H6  1  0.89867000  0.47281000  0.38343000  1.0
  H  H7  1  0.24655000  0.82170000  0.68947000  1.0
  H  H8  1  0.75345000  0.17830000  0.31052000  1.0
  H  H9  1  0.77083000  0.22481000  0.63065000  1.0
  H  H10  1  0.22917000  0.77519000  0.36935000  1.0
  H  H11  1  0.44020000  0.30095000  0.52866000  1.0
  H  H12  1  0.55980000  0.69905000  0.47134000  1.0
  H  H13  1  0.60759000  0.06299000  0.58506000  1.0
  H  H14  1  0.39241000  0.93700000  0.41494000  1.0
  C  C15  1  0.81526000  0.56797000  0.80295000  1.0
  C  C16  1  0.18474000  0.43204000  0.19705000  1.0
  C  C17  1  0.01937000  0.60134000  0.70271000  1.0
  C  C18  1  0.98063000  0.39866000  0.29729000  1.0
  C  C19  1  0.09720000  0.74921000  0.73925000  1.0
  C  C20  1  0.90279000  0.25080000  0.26075000  1.0
  C  C21  1  0.43956000  0.17293000  0.77571000  1.0
  C  C22  1  0.56044000  0.82707000  0.22429000  1.0
  C  C23  1  0.57561000  0.19275000  0.62108000  1.0
  C  C24  1  0.42439000  0.80724000  0.37892000  1.0
  N  N25  1  0.95013000  0.80227000  0.85438000  1.0
  N  N26  1  0.04987000  0.19773000  0.14562000  1.0
  N  N27  1  0.78001000  0.69142000  0.89101000  1.0
  N  N28  1  0.21999000  0.30858000  0.10899000  1.0
  O  O29  1  0.55606000  0.20381000  0.89257000  1.0
  O  O30  1  0.44394000  0.79619000  0.10744000  1.0
  O  O31  1  0.21621000  0.12921000  0.78043000  1.0
  O  O32  1  0.78379000  0.87079000  0.21957000  1.0
