# generated using pymatgen
data_MnH46C48N6(O5F2)2
_symmetry_space_group_name_H-M   'P 1'
_cell_length_a   9.93393000
_cell_length_b   10.76430000
_cell_length_c   10.95360000
_cell_angle_alpha   96.19910000
_cell_angle_beta   112.03300000
_cell_angle_gamma   99.95630000
_symmetry_Int_Tables_number   1
_chemical_formula_structural   MnH46C48N6(O5F2)2
_chemical_formula_sum   'Mn1 H46 C48 N6 O10 F4'
_cell_volume   1050.05702916
_cell_formula_units_Z   1
loop_
 _symmetry_equiv_pos_site_id
 _symmetry_equiv_pos_as_xyz
  1  'x, y, z'
loop_
 _atom_site_type_symbol
 _atom_site_label
 _atom_site_symmetry_multiplicity
 _atom_site_fract_x
 _atom_site_fract_y
 _atom_site_fract_z
 _atom_site_occupancy
  Mn  Mn0  1  0.00000000  0.00000000  0.00000000  1.0
  H  H1  1  0.80597000  0.39083000  0.16513000  1.0
  H  H2  1  0.19403000  0.60918000  0.83487000  1.0
  H  H3  1  0.33757000  0.31235000  0.08841000  1.0
  H  H4  1  0.66242000  0.68765000  0.91158000  1.0
  H  H5  1  0.83419000  0.58917000  0.19087000  1.0
  H  H6  1  0.16581000  0.41084000  0.80913000  1.0
  H  H7  1  0.98052000  0.69997000  0.18049000  1.0
  H  H8  1  0.01949000  0.30003000  0.81951000  1.0
  H  H9  1  0.99580000  0.73645000  0.41336000  1.0
  H  H10  1  0.00420000  0.26355000  0.58665000  1.0
  H  H11  1  0.15185000  0.67733000  0.41355000  1.0
  H  H12  1  0.84815000  0.32266000  0.58645000  1.0
  H  H13  1  0.99778000  0.57223000  0.42302000  1.0
  H  H14  1  0.00221000  0.42776000  0.57697000  1.0
  H  H15  1  0.48573000  0.83210000  0.03283000  1.0
  H  H16  1  0.51428000  0.16790000  0.96717000  1.0
  H  H17  1  0.52869000  0.67989000  0.03434000  1.0
  H  H18  1  0.47132000  0.32011000  0.96566000  1.0
  H  H19  1  0.75890000  0.85819000  0.09375000  1.0
  H  H20  1  0.24111000  0.14181000  0.90625000  1.0
  H  H21  1  0.77349000  0.77238000  0.22759000  1.0
  H  H22  1  0.22652000  0.22762000  0.77241000  1.0
  H  H23  1  0.72875000  0.87145000  0.41755000  1.0
  H  H24  1  0.27125000  0.12855000  0.58244000  1.0
  H  H25  1  0.46475000  0.84396000  0.36586000  1.0
  H  H26  1  0.53524000  0.15604000  0.63414000  1.0
  H  H27  1  0.43731000  0.93247000  0.23331000  1.0
  H  H28  1  0.56269000  0.06754000  0.76668000  1.0
  H  H29  1  0.65221000  0.04528000  0.52545000  1.0
  H  H30  1  0.34778000  0.95472000  0.47455000  1.0
  H  H31  1  0.63707000  0.12890000  0.39074000  1.0
  H  H32  1  0.36293000  0.87110000  0.60926000  1.0
  H  H33  1  0.81354000  0.10516000  0.49812000  1.0
  H  H34  1  0.18646000  0.89483000  0.50189000  1.0
  H  H35  1  0.09147000  0.30059000  0.44145000  1.0
  H  H36  1  0.90855000  0.69942000  0.55858000  1.0
  H  H37  1  0.28096000  0.50351000  0.53712000  1.0
  H  H38  1  0.71907000  0.49648000  0.46290000  1.0
  H  H39  1  0.56720000  0.33754000  0.38562000  1.0
  H  H40  1  0.43280000  0.66245000  0.61437000  1.0
  H  H41  1  0.37152000  0.13783000  0.28575000  1.0
  H  H42  1  0.62846000  0.86217000  0.71424000  1.0
  H  H43  1  0.69819000  0.02590000  0.20137000  1.0
  H  H44  1  0.30181000  0.97410000  0.79863000  1.0
  H  H45  1  0.85539000  0.99416000  0.30984000  1.0
  H  H46  1  0.14461000  0.00584000  0.69016000  1.0
  C  C47  1  0.81944000  0.15542000  0.08324000  1.0
  C  C48  1  0.18055000  0.84458000  0.91676000  1.0
  C  C49  1  0.93131000  0.27509000  0.10329000  1.0
  C  C50  1  0.06868000  0.72491000  0.89671000  1.0
  C  C51  1  0.06458000  0.27685000  0.08151000  1.0
  C  C52  1  0.93541000  0.72315000  0.91848000  1.0
  C  C53  1  0.17048000  0.39923000  0.11791000  1.0
  C  C54  1  0.82951000  0.60077000  0.88208000  1.0
  C  C55  1  0.13757000  0.51511000  0.16243000  1.0
  C  C56  1  0.86242000  0.48490000  0.83757000  1.0
  C  C57  1  0.90732000  0.39055000  0.14842000  1.0
  C  C58  1  0.09267000  0.60945000  0.85158000  1.0
  C  C59  1  0.31003000  0.40263000  0.11213000  1.0
  C  C60  1  0.68996000  0.59737000  0.88787000  1.0
  C  C61  1  0.41216000  0.51704000  0.14545000  1.0
  C  C62  1  0.58784000  0.48297000  0.85455000  1.0
  C  C63  1  0.38269000  0.63718000  0.17894000  1.0
  C  C64  1  0.61731000  0.36282000  0.82105000  1.0
  C  C65  1  0.24356000  0.63064000  0.18770000  1.0
  C  C66  1  0.75644000  0.36936000  0.81229000  1.0
  C  C67  1  0.95586000  0.61836000  0.22598000  1.0
  C  C68  1  0.04414000  0.38165000  0.77402000  1.0
  C  C69  1  0.02988000  0.65270000  0.37808000  1.0
  C  C70  1  0.97011000  0.34730000  0.62192000  1.0
  C  C71  1  0.54675000  0.77136000  0.09853000  1.0
  C  C72  1  0.45325000  0.22865000  0.90147000  1.0
  C  C73  1  0.71157000  0.83422000  0.16620000  1.0
  C  C74  1  0.28844000  0.16578000  0.83380000  1.0
  C  C75  1  0.66839000  0.93519000  0.35754000  1.0
  C  C76  1  0.33161000  0.06481000  0.64245000  1.0
  C  C77  1  0.50297000  0.86741000  0.28765000  1.0
  C  C78  1  0.49703000  0.13259000  0.71235000  1.0
  C  C79  1  0.69398000  0.06166000  0.44757000  1.0
  C  C80  1  0.30601000  0.93833000  0.55243000  1.0
  C  C81  1  0.21887000  0.20443000  0.35917000  1.0
  C  C82  1  0.78113000  0.79557000  0.64084000  1.0
  C  C83  1  0.19684000  0.31014000  0.43036000  1.0
  C  C84  1  0.80317000  0.68985000  0.56965000  1.0
  C  C85  1  0.30470000  0.42433000  0.48395000  1.0
  C  C86  1  0.69531000  0.57566000  0.51607000  1.0
  C  C87  1  0.44265000  0.43890000  0.47147000  1.0
  C  C88  1  0.55736000  0.56109000  0.52854000  1.0
  C  C89  1  0.46371000  0.33169000  0.40008000  1.0
  C  C90  1  0.53629000  0.66830000  0.59992000  1.0
  C  C91  1  0.35397000  0.21778000  0.34363000  1.0
  C  C92  1  0.64602000  0.78222000  0.65637000  1.0
  C  C93  1  0.10035000  0.08170000  0.30861000  1.0
  C  C94  1  0.89965000  0.91830000  0.69140000  1.0
  N  N95  1  0.73568000  0.95575000  0.25795000  1.0
  N  N96  1  0.26432000  0.04425000  0.74205000  1.0
  N  N97  1  0.48469000  0.74977000  0.19839000  1.0
  N  N98  1  0.51531000  0.25023000  0.80160000  1.0
  N  N99  1  0.00071000  0.50715000  0.17369000  1.0
  N  N100  1  0.99929000  0.49285000  0.82630000  1.0
  O  O101  1  0.83031000  0.04888000  0.02452000  1.0
  O  O102  1  0.16968000  0.95112000  0.97548000  1.0
  O  O103  1  0.71686000  0.16013000  0.12507000  1.0
  O  O104  1  0.28313000  0.83988000  0.87493000  1.0
  O  O105  1  0.09771000  0.17696000  0.03409000  1.0
  O  O106  1  0.90229000  0.82305000  0.96591000  1.0
  O  O107  1  0.08502000  0.00158000  0.20623000  1.0
  O  O108  1  0.91496000  0.99843000  0.79377000  1.0
  O  O109  1  0.02298000  0.06245000  0.37795000  1.0
  O  O110  1  0.97702000  0.93756000  0.62205000  1.0
  F  F111  1  0.55216000  0.51561000  0.15051000  1.0
  F  F112  1  0.44784000  0.48439000  0.84950000  1.0
  F  F113  1  0.21203000  0.74574000  0.21797000  1.0
  F  F114  1  0.78797000  0.25426000  0.78203000  1.0
