# generated using pymatgen
data_HoPH11C9SNO9
_symmetry_space_group_name_H-M   'P 1'
_cell_length_a   6.73161000
_cell_length_b   7.50346000
_cell_length_c   13.32900000
_cell_angle_alpha   90.68620000
_cell_angle_beta   93.01290000
_cell_angle_gamma   101.79000000
_symmetry_Int_Tables_number   1
_chemical_formula_structural   HoPH11C9SNO9
_chemical_formula_sum   'Ho2 P2 H22 C18 S2 N2 O18'
_cell_volume   657.96040653
_cell_formula_units_Z   2
loop_
 _symmetry_equiv_pos_site_id
 _symmetry_equiv_pos_as_xyz
  1  'x, y, z'
loop_
 _atom_site_type_symbol
 _atom_site_label
 _atom_site_symmetry_multiplicity
 _atom_site_fract_x
 _atom_site_fract_y
 _atom_site_fract_z
 _atom_site_occupancy
  Ho  Ho0  1  0.28580000  0.76875000  0.45532000  1.0
  Ho  Ho1  1  0.71420000  0.23125000  0.54468000  1.0
  P  P2  1  0.25000000  0.38652000  0.62026000  1.0
  P  P3  1  0.74999000  0.61347000  0.37974000  1.0
  H  H4  1  0.16769000  0.10617000  0.77419000  1.0
  H  H5  1  0.83231000  0.89383000  0.22581000  1.0
  H  H6  1  0.16949000  0.12566000  0.96156000  1.0
  H  H7  1  0.83052000  0.87435000  0.03845000  1.0
  H  H8  1  0.21541000  0.32021000  0.12018000  1.0
  H  H9  1  0.78461000  0.67979000  0.87983000  1.0
  H  H10  1  0.27247000  0.62892000  0.19902000  1.0
  H  H11  1  0.72755000  0.37108000  0.80098000  1.0
  H  H12  1  0.32793000  0.90146000  0.09557000  1.0
  H  H13  1  0.67208000  0.09854000  0.90443000  1.0
  H  H14  1  0.33096000  0.87292000  0.90713000  1.0
  H  H15  1  0.66905000  0.12708000  0.09287000  1.0
  H  H16  1  0.30875000  0.67923000  0.76583000  1.0
  H  H17  1  0.69124000  0.32077000  0.23417000  1.0
  H  H18  1  0.02673000  0.41845000  0.38656000  1.0
  H  H19  1  0.97327000  0.58154000  0.61344000  1.0
  H  H20  1  0.23423000  0.39171000  0.34441000  1.0
  H  H21  1  0.76577000  0.60828000  0.65559000  1.0
  H  H22  1  0.22817000  0.92076000  0.64429000  1.0
  H  H23  1  0.77183000  0.07924000  0.35571000  1.0
  H  H24  1  0.10772000  0.03909000  0.57564000  1.0
  H  H25  1  0.89228000  0.96090000  0.42436000  1.0
  C  C26  1  0.23843000  0.39686000  0.75787000  1.0
  C  C27  1  0.76156000  0.60314000  0.24213000  1.0
  C  C28  1  0.19730000  0.23682000  0.81395000  1.0
  C  C29  1  0.80270000  0.76318000  0.18605000  1.0
  C  C30  1  0.19805000  0.24866000  0.91717000  1.0
  C  C31  1  0.80195000  0.75134000  0.08283000  1.0
  C  C32  1  0.23486000  0.41985000  0.96781000  1.0
  C  C33  1  0.76514000  0.58015000  0.03219000  1.0
  C  C34  1  0.23763000  0.44053000  0.07364000  1.0
  C  C35  1  0.76238000  0.55947000  0.92636000  1.0
  C  C36  1  0.27130000  0.61179000  0.11784000  1.0
  C  C37  1  0.72871000  0.38822000  0.88216000  1.0
  C  C38  1  0.30317000  0.76829000  0.05793000  1.0
  C  C39  1  0.69684000  0.23172000  0.94207000  1.0
  C  C40  1  0.30376000  0.75404000  0.95450000  1.0
  C  C41  1  0.69624000  0.24596000  0.04550000  1.0
  C  C42  1  0.27019000  0.57905000  0.90868000  1.0
  C  C43  1  0.72981000  0.42095000  0.09132000  1.0
  S  S44  1  0.39814000  0.07894000  0.30960000  1.0
  S  S45  1  0.60185000  0.92106000  0.69040000  1.0
  N  N46  1  0.27140000  0.55843000  0.80622000  1.0
  N  N47  1  0.72859000  0.44157000  0.19378000  1.0
  O  O48  1  0.24777000  0.58093000  0.58768000  1.0
  O  O49  1  0.75223000  0.41907000  0.41232000  1.0
  O  O50  1  0.44261000  0.31930000  0.60256000  1.0
  O  O51  1  0.55738000  0.68070000  0.39744000  1.0
  O  O52  1  0.05689000  0.25054000  0.58437000  1.0
  O  O53  1  0.94310000  0.74945000  0.41563000  1.0
  O  O54  1  0.27047000  0.89467000  0.28828000  1.0
  O  O55  1  0.72952000  0.10534000  0.71171000  1.0
  O  O56  1  0.43359000  0.08586000  0.42329000  1.0
  O  O57  1  0.56640000  0.91415000  0.57671000  1.0
  O  O58  1  0.29890000  0.22512000  0.27432000  1.0
  O  O59  1  0.70107000  0.77488000  0.72568000  1.0
  O  O60  1  0.59840000  0.09642000  0.26241000  1.0
  O  O61  1  0.40160000  0.90360000  0.73759000  1.0
  O  O62  1  0.16305000  0.48465000  0.37086000  1.0
  O  O63  1  0.83696000  0.51535000  0.62915000  1.0
  O  O64  1  0.14013000  0.91563000  0.58173000  1.0
  O  O65  1  0.85988000  0.08436000  0.41828000  1.0
