# generated using pymatgen
data_AgH7C10S2(NO)2
_symmetry_space_group_name_H-M   'P 1'
_cell_length_a   11.68740000
_cell_length_b   14.04180000
_cell_length_c   15.12030000
_cell_angle_alpha   76.29500000
_cell_angle_beta   89.99950000
_cell_angle_gamma   89.99970000
_symmetry_Int_Tables_number   1
_chemical_formula_structural   AgH7C10S2(NO)2
_chemical_formula_sum   'Ag8 H56 C80 S16 N16 O16'
_cell_volume   2410.77467793
_cell_formula_units_Z   8
loop_
 _symmetry_equiv_pos_site_id
 _symmetry_equiv_pos_as_xyz
  1  'x, y, z'
loop_
 _atom_site_type_symbol
 _atom_site_label
 _atom_site_symmetry_multiplicity
 _atom_site_fract_x
 _atom_site_fract_y
 _atom_site_fract_z
 _atom_site_occupancy
  Ag  Ag0  1  0.44268000  0.10613000  0.51564000  1.0
  Ag  Ag1  1  0.94266000  0.39389000  0.98433000  1.0
  Ag  Ag2  1  0.55733000  0.89389000  0.48433000  1.0
  Ag  Ag3  1  0.05732000  0.60612000  0.01566000  1.0
  Ag  Ag4  1  0.47596000  0.38059000  0.42545000  1.0
  Ag  Ag5  1  0.97594000  0.11941000  0.07454000  1.0
  Ag  Ag6  1  0.52406000  0.61941000  0.57457000  1.0
  Ag  Ag7  1  0.02408000  0.88059000  0.92543000  1.0
  H  H8  1  0.62559000  0.69994000  0.87994000  1.0
  H  H9  1  0.12559000  0.80005000  0.62007000  1.0
  H  H10  1  0.37441000  0.30007000  0.12006000  1.0
  H  H11  1  0.87441000  0.19995000  0.37995000  1.0
  H  H12  1  0.61306000  0.88040000  0.81209000  1.0
  H  H13  1  0.11307000  0.61960000  0.68793000  1.0
  H  H14  1  0.38694000  0.11961000  0.18791000  1.0
  H  H15  1  0.88693000  0.38040000  0.31207000  1.0
  H  H16  1  0.96824000  0.88307000  0.73647000  1.0
  H  H17  1  0.46826000  0.61692000  0.76353000  1.0
  H  H18  1  0.03176000  0.11691000  0.26353000  1.0
  H  H19  1  0.53174000  0.38308000  0.23646000  1.0
  H  H20  1  0.98038000  0.70394000  0.80821000  1.0
  H  H21  1  0.48038000  0.79604000  0.69180000  1.0
  H  H22  1  0.01961000  0.29604000  0.19179000  1.0
  H  H23  1  0.51962000  0.20396000  0.30820000  1.0
  H  H24  1  0.86760000  0.03122000  0.70295000  1.0
  H  H25  1  0.36761000  0.46877000  0.79704000  1.0
  H  H26  1  0.13240000  0.96878000  0.29703000  1.0
  H  H27  1  0.63238000  0.53124000  0.20295000  1.0
  H  H28  1  0.75838000  0.04216000  0.78290000  1.0
  H  H29  1  0.25838000  0.45784000  0.71710000  1.0
  H  H30  1  0.24162000  0.95783000  0.21710000  1.0
  H  H31  1  0.74159000  0.54218000  0.28290000  1.0
  H  H32  1  0.71857000  0.40190000  0.53507000  1.0
  H  H33  1  0.21857000  0.09810000  0.96492000  1.0
  H  H34  1  0.28140000  0.59810000  0.46494000  1.0
  H  H35  1  0.78144000  0.90190000  0.03509000  1.0
  H  H36  1  0.92516000  0.81429000  0.25541000  1.0
  H  H37  1  0.42515000  0.68569000  0.24462000  1.0
  H  H38  1  0.07485000  0.18570000  0.74459000  1.0
  H  H39  1  0.57482000  0.31431000  0.75541000  1.0
  H  H40  1  0.93115000  0.63536000  0.33110000  1.0
  H  H41  1  0.43113000  0.86461000  0.16893000  1.0
  H  H42  1  0.06886000  0.36463000  0.66890000  1.0
  H  H43  1  0.56886000  0.13539000  0.83109000  1.0
  H  H44  1  0.22829000  0.60228000  0.17172000  1.0
  H  H45  1  0.72827000  0.89772000  0.32829000  1.0
  H  H46  1  0.77172000  0.39773000  0.82827000  1.0
  H  H47  1  0.27173000  0.10228000  0.67171000  1.0
  H  H48  1  0.22255000  0.78284000  0.09980000  1.0
  H  H49  1  0.72257000  0.71714000  0.40021000  1.0
  H  H50  1  0.77744000  0.21716000  0.90020000  1.0
  H  H51  1  0.27743000  0.28285000  0.59980000  1.0
  H  H52  1  0.06493000  0.45675000  0.24770000  1.0
  H  H53  1  0.56490000  0.04324000  0.25231000  1.0
  H  H54  1  0.93510000  0.54327000  0.75229000  1.0
  H  H55  1  0.43509000  0.95676000  0.74769000  1.0
  H  H56  1  0.01660000  0.48085000  0.35392000  1.0
  H  H57  1  0.51658000  0.01915000  0.14607000  1.0
  H  H58  1  0.98340000  0.51917000  0.64607000  1.0
  H  H59  1  0.48340000  0.98083000  0.85394000  1.0
  H  H60  1  0.16266000  0.09897000  0.48904000  1.0
  H  H61  1  0.66264000  0.40102000  0.01096000  1.0
  H  H62  1  0.83733000  0.90103000  0.51097000  1.0
  H  H63  1  0.33733000  0.59897000  0.98904000  1.0
  C  C64  1  0.80968000  0.58287000  0.89417000  1.0
  C  C65  1  0.30972000  0.91712000  0.60585000  1.0
  C  C66  1  0.19031000  0.41713000  0.10584000  1.0
  C  C67  1  0.69028000  0.08289000  0.39415000  1.0
  C  C68  1  0.80307000  0.69076000  0.84824000  1.0
  C  C69  1  0.30309000  0.80923000  0.65174000  1.0
  C  C70  1  0.19692000  0.30923000  0.15175000  1.0
  C  C71  1  0.69692000  0.19077000  0.34824000  1.0
  C  C72  1  0.69998000  0.74140000  0.84868000  1.0
  C  C73  1  0.19999000  0.75861000  0.65133000  1.0
  C  C74  1  0.30001000  0.25860000  0.15131000  1.0
  C  C75  1  0.80001000  0.24140000  0.34868000  1.0
  C  C76  1  0.69386000  0.84181000  0.81109000  1.0
  C  C77  1  0.19387000  0.65819000  0.68892000  1.0
  C  C78  1  0.30613000  0.15818000  0.18891000  1.0
  C  C79  1  0.80612000  0.34182000  0.31109000  1.0
  C  C80  1  0.79036000  0.89419000  0.77095000  1.0
  C  C81  1  0.29036000  0.60581000  0.72906000  1.0
  C  C82  1  0.20964000  0.10581000  0.22904000  1.0
  C  C83  1  0.70963000  0.39421000  0.27094000  1.0
  C  C84  1  0.89317000  0.84328000  0.76895000  1.0
  C  C85  1  0.39317000  0.65670000  0.73106000  1.0
  C  C86  1  0.10683000  0.15671000  0.23104000  1.0
  C  C87  1  0.60682000  0.34330000  0.26894000  1.0
  C  C88  1  0.89952000  0.74268000  0.80784000  1.0
  C  C89  1  0.39952000  0.75731000  0.69216000  1.0
  C  C90  1  0.10048000  0.25731000  0.19215000  1.0
  C  C91  1  0.60047000  0.24270000  0.30783000  1.0
  C  C92  1  0.78446000  0.00301000  0.73119000  1.0
  C  C93  1  0.28446000  0.49698000  0.76880000  1.0
  C  C94  1  0.21555000  0.99698000  0.26880000  1.0
  C  C95  1  0.71553000  0.50303000  0.23119000  1.0
  C  C96  1  0.67765000  0.14973000  0.60195000  1.0
  C  C97  1  0.17763000  0.35027000  0.89805000  1.0
  C  C98  1  0.32237000  0.85027000  0.39807000  1.0
  C  C99  1  0.82237000  0.64973000  0.10194000  1.0
  C  C100  1  0.69862000  0.32385000  0.55045000  1.0
  C  C101  1  0.19859000  0.17615000  0.94956000  1.0
  C  C102  1  0.30139000  0.67615000  0.44957000  1.0
  C  C103  1  0.80141000  0.82384000  0.05043000  1.0
  C  C104  1  0.06872000  0.91588000  0.12481000  1.0
  C  C105  1  0.56874000  0.58411000  0.37521000  1.0
  C  C106  1  0.93127000  0.08411000  0.87518000  1.0
  C  C107  1  0.43126000  0.41589000  0.62481000  1.0
  C  C108  1  0.07375000  0.80864000  0.17295000  1.0
  C  C109  1  0.57375000  0.69136000  0.32706000  1.0
  C  C110  1  0.92627000  0.19137000  0.82706000  1.0
  C  C111  1  0.42626000  0.30864000  0.67294000  1.0
  C  C112  1  0.99163000  0.76723000  0.23833000  1.0
  C  C113  1  0.49161000  0.73276000  0.26169000  1.0
  C  C114  1  0.00838000  0.23276000  0.76167000  1.0
  C  C115  1  0.50838000  0.26724000  0.73832000  1.0
  C  C116  1  0.99523000  0.66747000  0.28007000  1.0
  C  C117  1  0.49522000  0.83252000  0.21994000  1.0
  C  C118  1  0.00477000  0.33254000  0.71993000  1.0
  C  C119  1  0.50477000  0.16747000  0.78007000  1.0
  C  C120  1  0.07962000  0.60716000  0.25626000  1.0
  C  C121  1  0.57963000  0.89282000  0.24373000  1.0
  C  C122  1  0.92040000  0.39285000  0.74374000  1.0
  C  C123  1  0.42039000  0.10717000  0.75626000  1.0
  C  C124  1  0.16236000  0.64874000  0.19094000  1.0
  C  C125  1  0.66236000  0.85125000  0.30907000  1.0
  C  C126  1  0.83766000  0.35126000  0.80906000  1.0
  C  C127  1  0.33765000  0.14875000  0.69093000  1.0
  C  C128  1  0.15953000  0.74883000  0.15065000  1.0
  C  C129  1  0.65954000  0.75115000  0.34937000  1.0
  C  C130  1  0.84046000  0.25116000  0.84934000  1.0
  C  C131  1  0.34047000  0.24884000  0.65064000  1.0
  C  C132  1  0.08060000  0.49900000  0.29932000  1.0
  C  C133  1  0.58059000  0.00099000  0.20068000  1.0
  C  C134  1  0.91942000  0.50100000  0.70068000  1.0
  C  C135  1  0.41941000  0.99901000  0.79931000  1.0
  C  C136  1  0.21744000  0.34557000  0.39077000  1.0
  C  C137  1  0.71744000  0.15442000  0.10922000  1.0
  C  C138  1  0.78258000  0.65443000  0.60922000  1.0
  C  C139  1  0.28256000  0.84557000  0.89079000  1.0
  C  C140  1  0.18827000  0.17445000  0.45813000  1.0
  C  C141  1  0.68827000  0.32555000  0.04185000  1.0
  C  C142  1  0.81173000  0.82556000  0.54186000  1.0
  C  C143  1  0.31172000  0.67445000  0.95814000  1.0
  S  S144  1  0.67605000  0.02410000  0.64161000  1.0
  S  S145  1  0.17604000  0.47589000  0.85839000  1.0
  S  S146  1  0.32396000  0.97590000  0.35838000  1.0
  S  S147  1  0.82395000  0.52410000  0.14162000  1.0
  S  S148  1  0.77843000  0.23359000  0.62073000  1.0
  S  S149  1  0.27842000  0.26641000  0.87928000  1.0
  S  S150  1  0.22158000  0.76641000  0.37930000  1.0
  S  S151  1  0.72160000  0.73359000  0.12072000  1.0
  S  S152  1  0.22380000  0.47016000  0.34666000  1.0
  S  S153  1  0.72380000  0.02983000  0.15335000  1.0
  S  S154  1  0.77621000  0.52984000  0.65335000  1.0
  S  S155  1  0.27618000  0.97017000  0.84665000  1.0
  S  S156  1  0.09738000  0.27277000  0.42335000  1.0
  S  S157  1  0.59738000  0.22722000  0.07662000  1.0
  S  S158  1  0.90263000  0.72724000  0.57662000  1.0
  S  S159  1  0.40261000  0.77277000  0.92337000  1.0
  N  N160  1  0.59408000  0.19193000  0.54738000  1.0
  N  N161  1  0.09407000  0.30807000  0.95263000  1.0
  N  N162  1  0.40593000  0.80806000  0.45263000  1.0
  N  N163  1  0.90593000  0.69193000  0.04736000  1.0
  N  N164  1  0.60699000  0.29064000  0.51814000  1.0
  N  N165  1  0.10697000  0.20936000  0.98186000  1.0
  N  N166  1  0.39301000  0.70935000  0.48189000  1.0
  N  N167  1  0.89303000  0.79064000  0.01812000  1.0
  N  N168  1  0.31412000  0.29524000  0.40798000  1.0
  N  N169  1  0.81411000  0.20476000  0.09201000  1.0
  N  N170  1  0.68590000  0.70476000  0.59202000  1.0
  N  N171  1  0.18588000  0.79524000  0.90799000  1.0
  N  N172  1  0.29654000  0.19837000  0.44652000  1.0
  N  N173  1  0.79653000  0.30163000  0.05346000  1.0
  N  N174  1  0.70347000  0.80163000  0.55348000  1.0
  N  N175  1  0.20345000  0.69837000  0.94654000  1.0
  O  O176  1  0.71969000  0.53632000  0.92081000  1.0
  O  O177  1  0.21972000  0.96368000  0.57918000  1.0
  O  O178  1  0.28030000  0.46367000  0.07918000  1.0
  O  O179  1  0.78028000  0.03633000  0.42081000  1.0
  O  O180  1  0.91266000  0.54763000  0.90251000  1.0
  O  O181  1  0.41270000  0.95235000  0.59751000  1.0
  O  O182  1  0.08733000  0.45237000  0.09749000  1.0
  O  O183  1  0.58731000  0.04765000  0.40249000  1.0
  O  O184  1  0.99316000  0.96563000  0.15572000  1.0
  O  O185  1  0.49319000  0.53436000  0.34429000  1.0
  O  O186  1  0.00684000  0.03436000  0.84429000  1.0
  O  O187  1  0.50681000  0.46564000  0.65571000  1.0
  O  O188  1  0.13689000  0.94792000  0.05955000  1.0
  O  O189  1  0.63693000  0.55207000  0.44047000  1.0
  O  O190  1  0.86310000  0.05206000  0.94045000  1.0
  O  O191  1  0.36308000  0.44795000  0.55955000  1.0
