# generated using pymatgen
data_AgH10C10S4(NO)3
_symmetry_space_group_name_H-M   'P 1'
_cell_length_a   10.88920000
_cell_length_b   10.88920000
_cell_length_c   12.83570000
_cell_angle_alpha   92.38080000
_cell_angle_beta   92.38070000
_cell_angle_gamma   100.58800000
_symmetry_Int_Tables_number   1
_chemical_formula_structural   AgH10C10S4(NO)3
_chemical_formula_sum   'Ag4 H40 C40 S16 N12 O12'
_cell_volume   1492.90930444
_cell_formula_units_Z   4
loop_
 _symmetry_equiv_pos_site_id
 _symmetry_equiv_pos_as_xyz
  1  'x, y, z'
loop_
 _atom_site_type_symbol
 _atom_site_label
 _atom_site_symmetry_multiplicity
 _atom_site_fract_x
 _atom_site_fract_y
 _atom_site_fract_z
 _atom_site_occupancy
  Ag  Ag0  1  0.97903000  0.64715000  0.47350000  1.0
  Ag  Ag1  1  0.35285000  0.02097000  0.02650000  1.0
  Ag  Ag2  1  0.02097000  0.35285000  0.52650000  1.0
  Ag  Ag3  1  0.64715000  0.97903000  0.97350000  1.0
  H  H4  1  0.05929000  0.94614000  0.39477000  1.0
  H  H5  1  0.05386000  0.94071000  0.10523000  1.0
  H  H6  1  0.94071000  0.05386000  0.60523000  1.0
  H  H7  1  0.94614000  0.05930000  0.89477000  1.0
  H  H8  1  0.28234000  0.06146000  0.33113000  1.0
  H  H9  1  0.93854000  0.71766000  0.16887000  1.0
  H  H10  1  0.71767000  0.93854000  0.66887000  1.0
  H  H11  1  0.06146000  0.28234000  0.83113000  1.0
  H  H12  1  0.49486000  0.65426000  0.41718000  1.0
  H  H13  1  0.34575000  0.50514000  0.08282000  1.0
  H  H14  1  0.50514000  0.34575000  0.58282000  1.0
  H  H15  1  0.65425000  0.49486000  0.91718000  1.0
  H  H16  1  0.42446000  0.49500000  0.43845000  1.0
  H  H17  1  0.50500000  0.57554000  0.06155000  1.0
  H  H18  1  0.57554000  0.50500000  0.56155000  1.0
  H  H19  1  0.49500000  0.42446000  0.93845000  1.0
  H  H20  1  0.30347000  0.47803000  0.26433000  1.0
  H  H21  1  0.52197000  0.69653000  0.23567000  1.0
  H  H22  1  0.69653000  0.52197000  0.73567000  1.0
  H  H23  1  0.47803000  0.30347000  0.76433000  1.0
  H  H24  1  0.25625000  0.35677000  0.69435000  1.0
  H  H25  1  0.64323000  0.74375000  0.80565000  1.0
  H  H26  1  0.74375000  0.64323000  0.30565000  1.0
  H  H27  1  0.35677000  0.25625000  0.19435000  1.0
  H  H28  1  0.32575000  0.49859000  0.86950000  1.0
  H  H29  1  0.50141000  0.67425000  0.63050000  1.0
  H  H30  1  0.67425000  0.50141000  0.13050000  1.0
  H  H31  1  0.49859000  0.32575000  0.36950000  1.0
  H  H32  1  0.94137000  0.75134000  0.81374000  1.0
  H  H33  1  0.24866000  0.05862000  0.68626000  1.0
  H  H34  1  0.05863000  0.24866000  0.18626000  1.0
  H  H35  1  0.75134000  0.94137000  0.31374000  1.0
  H  H36  1  0.86722000  0.79172000  0.69759000  1.0
  H  H37  1  0.20828000  0.13278000  0.80241000  1.0
  H  H38  1  0.13278000  0.20828000  0.30241000  1.0
  H  H39  1  0.79172000  0.86722000  0.19759000  1.0
  H  H40  1  0.08251000  0.88494000  0.62979000  1.0
  H  H41  1  0.11506000  0.91749000  0.87021000  1.0
  H  H42  1  0.91749000  0.11506000  0.37021000  1.0
  H  H43  1  0.88494000  0.08251000  0.12979000  1.0
  C  C44  1  0.14568000  0.90958000  0.39437000  1.0
  C  C45  1  0.09042000  0.85432000  0.10564000  1.0
  C  C46  1  0.85432000  0.09042000  0.60563000  1.0
  C  C47  1  0.90958000  0.14568000  0.89437000  1.0
  C  C48  1  0.25832000  0.96935000  0.36215000  1.0
  C  C49  1  0.03065000  0.74168000  0.13784000  1.0
  C  C50  1  0.74168000  0.03065000  0.63784000  1.0
  C  C51  1  0.96935000  0.25832000  0.86216000  1.0
  C  C52  1  0.25780000  0.76006000  0.42200000  1.0
  C  C53  1  0.23994000  0.74220000  0.07800000  1.0
  C  C54  1  0.74220000  0.23994000  0.57800000  1.0
  C  C55  1  0.76006000  0.25780000  0.92200000  1.0
  C  C56  1  0.41179000  0.58072000  0.40024000  1.0
  C  C57  1  0.41928000  0.58821000  0.09976000  1.0
  C  C58  1  0.58821000  0.41928000  0.59976000  1.0
  C  C59  1  0.58072000  0.41179000  0.90024000  1.0
  C  C60  1  0.38155000  0.55432000  0.28672000  1.0
  C  C61  1  0.44569000  0.61845000  0.21328000  1.0
  C  C62  1  0.61845000  0.44569000  0.71328000  1.0
  C  C63  1  0.55431000  0.38155000  0.78672000  1.0
  C  C64  1  0.21551000  0.43501000  0.72256000  1.0
  C  C65  1  0.56499000  0.78449000  0.77744000  1.0
  C  C66  1  0.78449000  0.56499000  0.27744000  1.0
  C  C67  1  0.43501000  0.21551000  0.22256000  1.0
  C  C68  1  0.25286000  0.50722000  0.81185000  1.0
  C  C69  1  0.49278000  0.74714000  0.68815000  1.0
  C  C70  1  0.74714000  0.49278000  0.18815000  1.0
  C  C71  1  0.50722000  0.25286000  0.31185000  1.0
  C  C72  1  0.07871000  0.56419000  0.71248000  1.0
  C  C73  1  0.43581000  0.92129000  0.78752000  1.0
  C  C74  1  0.92129000  0.43581000  0.28752000  1.0
  C  C75  1  0.56419000  0.07871000  0.21248000  1.0
  C  C76  1  0.95438000  0.76793000  0.73064000  1.0
  C  C77  1  0.23207000  0.04562000  0.76935000  1.0
  C  C78  1  0.04562000  0.23207000  0.26935000  1.0
  C  C79  1  0.76793000  0.95438000  0.23065000  1.0
  C  C80  1  0.06379000  0.86654000  0.71136000  1.0
  C  C81  1  0.13346000  0.93621000  0.78864000  1.0
  C  C82  1  0.93621000  0.13346000  0.28864000  1.0
  C  C83  1  0.86654000  0.06379000  0.21136000  1.0
  S  S84  1  0.36906000  0.87649000  0.37536000  1.0
  S  S85  1  0.12351000  0.63094000  0.12464000  1.0
  S  S86  1  0.63094000  0.12351000  0.62464000  1.0
  S  S87  1  0.87649000  0.36906000  0.87536000  1.0
  S  S88  1  0.28080000  0.61979000  0.47140000  1.0
  S  S89  1  0.38021000  0.71921000  0.02860000  1.0
  S  S90  1  0.71920000  0.38021000  0.52860000  1.0
  S  S91  1  0.61979000  0.28079000  0.97139000  1.0
  S  S92  1  0.16257000  0.61960000  0.82739000  1.0
  S  S93  1  0.38041000  0.83743000  0.67261000  1.0
  S  S94  1  0.83743000  0.38041000  0.17261000  1.0
  S  S95  1  0.61959000  0.16257000  0.32739000  1.0
  S  S96  1  0.94803000  0.61653000  0.66127000  1.0
  S  S97  1  0.38347000  0.05198000  0.83873000  1.0
  S  S98  1  0.05197000  0.38347000  0.33873000  1.0
  S  S99  1  0.61653000  0.94803000  0.16127000  1.0
  N  N100  1  0.14578000  0.79101000  0.42713000  1.0
  N  N101  1  0.20899000  0.85422000  0.07287000  1.0
  N  N102  1  0.85422000  0.20899000  0.57287000  1.0
  N  N103  1  0.79101000  0.14578000  0.92713000  1.0
  N  N104  1  0.11706000  0.46768000  0.66625000  1.0
  N  N105  1  0.53232000  0.88294000  0.83375000  1.0
  N  N106  1  0.88294000  0.53232000  0.33375000  1.0
  N  N107  1  0.46768000  0.11706000  0.16625000  1.0
  N  N108  1  0.73655000  0.77878000  0.47976000  1.0
  N  N109  1  0.22122000  0.26345000  0.02024000  1.0
  N  N110  1  0.26345000  0.22122000  0.52024000  1.0
  N  N111  1  0.77878000  0.73655000  0.97977000  1.0
  O  O112  1  0.84747000  0.81821000  0.45146000  1.0
  O  O113  1  0.18179000  0.15253000  0.04854000  1.0
  O  O114  1  0.15253000  0.18179000  0.54854000  1.0
  O  O115  1  0.81821000  0.84747000  0.95146000  1.0
  O  O116  1  0.71849000  0.69899000  0.54976000  1.0
  O  O117  1  0.30101000  0.28151000  0.95024000  1.0
  O  O118  1  0.28151000  0.30101000  0.45024000  1.0
  O  O119  1  0.69899000  0.71849000  0.04976000  1.0
  O  O120  1  0.64570000  0.81880000  0.43757000  1.0
  O  O121  1  0.18120000  0.35430000  0.06243000  1.0
  O  O122  1  0.35430000  0.18120000  0.56242000  1.0
  O  O123  1  0.81880000  0.64570000  0.93757000  1.0
