# generated using pymatgen
data_AgH13C15N8O3
_symmetry_space_group_name_H-M   'P 1'
_cell_length_a   9.14820000
_cell_length_b   9.31384000
_cell_length_c   11.82800000
_cell_angle_alpha   92.25570000
_cell_angle_beta   105.49600000
_cell_angle_gamma   115.90400000
_symmetry_Int_Tables_number   1
_chemical_formula_structural   AgH13C15N8O3
_chemical_formula_sum   'Ag2 H26 C30 N16 O6'
_cell_volume   859.31519307
_cell_formula_units_Z   2
loop_
 _symmetry_equiv_pos_site_id
 _symmetry_equiv_pos_as_xyz
  1  'x, y, z'
loop_
 _atom_site_type_symbol
 _atom_site_label
 _atom_site_symmetry_multiplicity
 _atom_site_fract_x
 _atom_site_fract_y
 _atom_site_fract_z
 _atom_site_occupancy
  Ag  Ag0  1  0.37297000  0.59104000  0.33101000  1.0
  Ag  Ag1  1  0.62703000  0.40896000  0.66899000  1.0
  H  H2  1  0.24258000  0.41498000  0.55264000  1.0
  H  H3  1  0.75742000  0.58502000  0.44736000  1.0
  H  H4  1  0.04514000  0.27206000  0.66939000  1.0
  H  H5  1  0.95486000  0.72794000  0.33061000  1.0
  H  H6  1  0.73194000  0.13695000  0.57594000  1.0
  H  H7  1  0.26806000  0.86305000  0.42405000  1.0
  H  H8  1  0.59780000  0.12890000  0.36129000  1.0
  H  H9  1  0.40220000  0.87110000  0.63870000  1.0
  H  H10  1  0.69074000  0.26571000  0.04529000  1.0
  H  H11  1  0.30926000  0.73429000  0.95471000  1.0
  H  H12  1  0.55972000  0.15993000  0.13600000  1.0
  H  H13  1  0.44028000  0.84007000  0.86400000  1.0
  H  H14  1  0.62262000  0.86806000  0.20182000  1.0
  H  H15  1  0.37738000  0.13194000  0.79818000  1.0
  H  H16  1  0.82473000  0.00061000  0.08633000  1.0
  H  H17  1  0.17526000  0.99939000  0.91366000  1.0
  H  H18  1  0.95438000  0.85400000  0.00419000  1.0
  H  H19  1  0.04562000  0.14600000  0.99581000  1.0
  H  H20  1  0.87806000  0.56756000  0.02229000  1.0
  H  H21  1  0.12195000  0.43244000  0.97771000  1.0
  H  H22  1  0.81431000  0.78973000  0.76396000  1.0
  H  H23  1  0.18569000  0.21027000  0.23604000  1.0
  H  H24  1  0.74939000  0.94447000  0.76446000  1.0
  H  H25  1  0.25061000  0.05553000  0.23554000  1.0
  H  H26  1  0.91116000  0.96273000  0.69796000  1.0
  H  H27  1  0.08883000  0.03727000  0.30204000  1.0
  C  C28  1  0.02771000  0.35306000  0.39225000  1.0
  C  C29  1  0.97229000  0.64694000  0.60775000  1.0
  C  C30  1  0.10385000  0.35394000  0.51230000  1.0
  C  C31  1  0.89615000  0.64606000  0.48770000  1.0
  C  C32  1  0.99307000  0.27393000  0.57539000  1.0
  C  C33  1  0.00693000  0.72607000  0.42461000  1.0
  C  C34  1  0.81289000  0.19503000  0.52154000  1.0
  C  C35  1  0.18711000  0.80497000  0.47846000  1.0
  C  C36  1  0.73617000  0.19236000  0.40254000  1.0
  C  C37  1  0.26383000  0.80764000  0.59746000  1.0
  C  C38  1  0.84797000  0.27369000  0.33929000  1.0
  C  C39  1  0.15203000  0.72631000  0.66071000  1.0
  C  C40  1  0.66849000  0.27210000  0.13172000  1.0
  C  C41  1  0.33151000  0.72791000  0.86828000  1.0
  C  C42  1  0.63047000  0.64057000  0.16967000  1.0
  C  C43  1  0.36953000  0.35943000  0.83033000  1.0
  C  C44  1  0.67505000  0.80323000  0.16062000  1.0
  C  C45  1  0.32495000  0.19677000  0.83938000  1.0
  C  C46  1  0.79008000  0.87596000  0.09893000  1.0
  C  C47  1  0.20992000  0.12404000  0.90107000  1.0
  C  C48  1  0.86168000  0.79112000  0.04977000  1.0
  C  C49  1  0.13832000  0.20888000  0.95023000  1.0
  C  C50  1  0.82063000  0.63078000  0.05903000  1.0
  C  C51  1  0.17937000  0.36922000  0.94097000  1.0
  C  C52  1  0.70144000  0.55685000  0.11925000  1.0
  C  C53  1  0.29856000  0.44315000  0.88075000  1.0
  C  C54  1  0.66087000  0.79348000  0.60013000  1.0
  C  C55  1  0.33913000  0.20652000  0.39987000  1.0
  C  C56  1  0.79191000  0.87811000  0.71294000  1.0
  C  C57  1  0.20809000  0.12189000  0.28706000  1.0
  N  N58  1  0.82436000  0.30012000  0.22370000  1.0
  N  N59  1  0.17564000  0.69988000  0.77630000  1.0
  N  N60  1  0.97724000  0.39099000  0.20633000  1.0
  N  N61  1  0.02276000  0.60901000  0.79367000  1.0
  N  N62  1  0.09880000  0.42211000  0.30629000  1.0
  N  N63  1  0.90120000  0.57790000  0.69371000  1.0
  N  N64  1  0.62914000  0.40507000  0.14777000  1.0
  N  N65  1  0.37086000  0.59493000  0.85223000  1.0
  N  N66  1  0.52389000  0.39580000  0.21222000  1.0
  N  N67  1  0.47611000  0.60420000  0.78778000  1.0
  N  N68  1  0.52305000  0.53531000  0.22497000  1.0
  N  N69  1  0.47695000  0.46469000  0.77503000  1.0
  N  N70  1  0.31509000  0.82867000  0.16357000  1.0
  N  N71  1  0.68491000  0.17133000  0.83643000  1.0
  N  N72  1  0.55547000  0.72632000  0.50877000  1.0
  N  N73  1  0.44453000  0.27368000  0.49123000  1.0
  O  O74  1  0.25227000  0.68362000  0.11233000  1.0
  O  O75  1  0.74773000  0.31638000  0.88767000  1.0
  O  O76  1  0.38348000  0.86616000  0.27679000  1.0
  O  O77  1  0.61652000  0.13384000  0.72322000  1.0
  O  O78  1  0.31354000  0.93840000  0.10344000  1.0
  O  O79  1  0.68646000  0.06160000  0.89656000  1.0
