# generated using pymatgen
data_GdPH15C21NO11
_symmetry_space_group_name_H-M   'P 1'
_cell_length_a   11.63240000
_cell_length_b   14.86910000
_cell_length_c   17.58920000
_cell_angle_alpha   89.99990000
_cell_angle_beta   89.99990000
_cell_angle_gamma   91.57400000
_symmetry_Int_Tables_number   1
_chemical_formula_structural   GdPH15C21NO11
_chemical_formula_sum   'Gd4 P4 H60 C84 N4 O44'
_cell_volume   3041.13850000
_cell_formula_units_Z   4
loop_
 _symmetry_equiv_pos_site_id
 _symmetry_equiv_pos_as_xyz
  1  'x, y, z'
loop_
 _atom_site_type_symbol
 _atom_site_label
 _atom_site_symmetry_multiplicity
 _atom_site_fract_x
 _atom_site_fract_y
 _atom_site_fract_z
 _atom_site_occupancy
  Gd  Gd0  1  0.07575000  0.59422000  0.57392000  1.0
  Gd  Gd1  1  0.42425000  0.90578000  0.07392000  1.0
  Gd  Gd2  1  0.92426000  0.40578000  0.42608000  1.0
  Gd  Gd3  1  0.57574000  0.09422000  0.92608000  1.0
  P  P4  1  0.33517000  0.75073000  0.58000000  1.0
  P  P5  1  0.16483000  0.74927000  0.08000000  1.0
  P  P6  1  0.66483000  0.24927000  0.42000000  1.0
  P  P7  1  0.83517000  0.25073000  0.92000000  1.0
  H  H8  1  0.10936000  0.13516000  0.32853000  1.0
  H  H9  1  0.39064000  0.36484000  0.82853000  1.0
  H  H10  1  0.89064000  0.86484000  0.67147000  1.0
  H  H11  1  0.60936000  0.63516000  0.17147000  1.0
  H  H12  1  0.18330000  0.49203000  0.72324000  1.0
  H  H13  1  0.31670000  0.00797000  0.22324000  1.0
  H  H14  1  0.81671000  0.50797000  0.27676000  1.0
  H  H15  1  0.68330000  0.99203000  0.77676000  1.0
  H  H16  1  0.24682000  0.49667000  0.64446000  1.0
  H  H17  1  0.25318000  0.00333000  0.14446000  1.0
  H  H18  1  0.75318000  0.50333000  0.35554000  1.0
  H  H19  1  0.74682000  0.99667000  0.85554000  1.0
  H  H20  1  0.40032000  0.61190000  0.47868000  1.0
  H  H21  1  0.09967000  0.88810000  0.97868000  1.0
  H  H22  1  0.59968000  0.38811000  0.52132000  1.0
  H  H23  1  0.90032000  0.11190000  0.02132000  1.0
  H  H24  1  0.58846000  0.54283000  0.44959000  1.0
  H  H25  1  0.91154000  0.95716000  0.94960000  1.0
  H  H26  1  0.41154000  0.45717000  0.55041000  1.0
  H  H27  1  0.08846000  0.04284000  0.05041000  1.0
  H  H28  1  0.75946000  0.72766000  0.60265000  1.0
  H  H29  1  0.74054000  0.77234000  0.10265000  1.0
  H  H30  1  0.24054000  0.27233000  0.39735000  1.0
  H  H31  1  0.25946000  0.22767000  0.89735000  1.0
  H  H32  1  0.57344000  0.79688000  0.63351000  1.0
  H  H33  1  0.92656000  0.70311000  0.13351000  1.0
  H  H34  1  0.42656000  0.20311000  0.36649000  1.0
  H  H35  1  0.07344000  0.29689000  0.86649000  1.0
  H  H36  1  0.13360000  0.85840000  0.55961000  1.0
  H  H37  1  0.36639000  0.64160000  0.05961000  1.0
  H  H38  1  0.86640000  0.14160000  0.44039000  1.0
  H  H39  1  0.63361000  0.35840000  0.94039000  1.0
  H  H40  1  0.08670000  0.97873000  0.46761000  1.0
  H  H41  1  0.41330000  0.52128000  0.96761000  1.0
  H  H42  1  0.91330000  0.02128000  0.53239000  1.0
  H  H43  1  0.58670000  0.47872000  0.03239000  1.0
  H  H44  1  0.41732000  0.95407000  0.36115000  1.0
  H  H45  1  0.08268000  0.54593000  0.86115000  1.0
  H  H46  1  0.58269000  0.04593000  0.63885000  1.0
  H  H47  1  0.91732000  0.45407000  0.13885000  1.0
  H  H48  1  0.46697000  0.83409000  0.45350000  1.0
  H  H49  1  0.03303000  0.66592000  0.95350000  1.0
  H  H50  1  0.53303000  0.16592000  0.54650000  1.0
  H  H51  1  0.96697000  0.33408000  0.04650000  1.0
  H  H52  1  0.28784000  0.67343000  0.72448000  1.0
  H  H53  1  0.21215000  0.82657000  0.22448000  1.0
  H  H54  1  0.71216000  0.32657000  0.27552000  1.0
  H  H55  1  0.78784000  0.17343000  0.77552000  1.0
  H  H56  1  0.32898000  0.72786000  0.85740000  1.0
  H  H57  1  0.17102000  0.77215000  0.35740000  1.0
  H  H58  1  0.67102000  0.27215000  0.14259000  1.0
  H  H59  1  0.82898000  0.22785000  0.64259000  1.0
  H  H60  1  0.44644000  0.98397000  0.76933000  1.0
  H  H61  1  0.05357000  0.51604000  0.26933000  1.0
  H  H62  1  0.55357000  0.01604000  0.23067000  1.0
  H  H63  1  0.94644000  0.48397000  0.73066000  1.0
  H  H64  1  0.40580000  0.93154000  0.63711000  1.0
  H  H65  1  0.09420000  0.56846000  0.13711000  1.0
  H  H66  1  0.59421000  0.06846000  0.36289000  1.0
  H  H67  1  0.90580000  0.43154000  0.86289000  1.0
  C  C68  1  0.47511000  0.70932000  0.55702000  1.0
  C  C69  1  0.02489000  0.79067000  0.05702000  1.0
  C  C70  1  0.52489000  0.29068000  0.44298000  1.0
  C  C71  1  0.97511000  0.20932000  0.94298000  1.0
  C  C72  1  0.47952000  0.63815000  0.50468000  1.0
  C  C73  1  0.02048000  0.86185000  0.00469000  1.0
  C  C74  1  0.52049000  0.36185000  0.49531000  1.0
  C  C75  1  0.97952000  0.13815000  0.99532000  1.0
  C  C76  1  0.58436000  0.59945000  0.48870000  1.0
  C  C77  1  0.91563000  0.90055000  0.98870000  1.0
  C  C78  1  0.41564000  0.40055000  0.51130000  1.0
  C  C79  1  0.08436000  0.09945000  0.01130000  1.0
  C  C80  1  0.68522000  0.63113000  0.52448000  1.0
  C  C81  1  0.81477000  0.86887000  0.02448000  1.0
  C  C82  1  0.31478000  0.36887000  0.47552000  1.0
  C  C83  1  0.18522000  0.13113000  0.97552000  1.0
  C  C84  1  0.68056000  0.70344000  0.57535000  1.0
  C  C85  1  0.81944000  0.79656000  0.07535000  1.0
  C  C86  1  0.31944000  0.29656000  0.42465000  1.0
  C  C87  1  0.18056000  0.20344000  0.92465000  1.0
  C  C88  1  0.57602000  0.74235000  0.59213000  1.0
  C  C89  1  0.92397000  0.75764000  0.09213000  1.0
  C  C90  1  0.42398000  0.25764000  0.40787000  1.0
  C  C91  1  0.07602000  0.24235000  0.90787000  1.0
  C  C92  1  0.79737000  0.58582000  0.51116000  1.0
  C  C93  1  0.70262000  0.91418000  0.01116000  1.0
  C  C94  1  0.20263000  0.41418000  0.48884000  1.0
  C  C95  1  0.29737000  0.08582000  0.98885000  1.0
  C  C96  1  0.30425000  0.83941000  0.51314000  1.0
  C  C97  1  0.19575000  0.66059000  0.01314000  1.0
  C  C98  1  0.69575000  0.16059000  0.48686000  1.0
  C  C99  1  0.80425000  0.33941000  0.98686000  1.0
  C  C100  1  0.19659000  0.87991000  0.51693000  1.0
  C  C101  1  0.30341000  0.62009000  0.01693000  1.0
  C  C102  1  0.80341000  0.12010000  0.48307000  1.0
  C  C103  1  0.69659000  0.37991000  0.98307000  1.0
  C  C104  1  0.16984000  0.94701000  0.46524000  1.0
  C  C105  1  0.33016000  0.55299000  0.96523000  1.0
  C  C106  1  0.83016000  0.05299000  0.53476000  1.0
  C  C107  1  0.66984000  0.44701000  0.03476000  1.0
  C  C108  1  0.24972000  0.97433000  0.40935000  1.0
  C  C109  1  0.25028000  0.52567000  0.90935000  1.0
  C  C110  1  0.75028000  0.02567000  0.59065000  1.0
  C  C111  1  0.74972000  0.47433000  0.09065000  1.0
  C  C112  1  0.35647000  0.93317000  0.40527000  1.0
  C  C113  1  0.14353000  0.56683000  0.90527000  1.0
  C  C114  1  0.64353000  0.06683000  0.59473000  1.0
  C  C115  1  0.85647000  0.43317000  0.09473000  1.0
  C  C116  1  0.38388000  0.86605000  0.45699000  1.0
  C  C117  1  0.11612000  0.63395000  0.95699000  1.0
  C  C118  1  0.61612000  0.13395000  0.54301000  1.0
  C  C119  1  0.88388000  0.36605000  0.04301000  1.0
  C  C120  1  0.22424000  0.04744000  0.35429000  1.0
  C  C121  1  0.27576000  0.45256000  0.85429000  1.0
  C  C122  1  0.77576000  0.95256000  0.64571000  1.0
  C  C123  1  0.72425000  0.54744000  0.14571000  1.0
  C  C124  1  0.34687000  0.79887000  0.67325000  1.0
  C  C125  1  0.15312000  0.70113000  0.17325000  1.0
  C  C126  1  0.65313000  0.20113000  0.32675000  1.0
  C  C127  1  0.84688000  0.29887000  0.82675000  1.0
  C  C128  1  0.32292000  0.74118000  0.73488000  1.0
  C  C129  1  0.17707000  0.75882000  0.23488000  1.0
  C  C130  1  0.67707000  0.25882000  0.26512000  1.0
  C  C131  1  0.82293000  0.24118000  0.76512000  1.0
  C  C132  1  0.34559000  0.77112000  0.80838000  1.0
  C  C133  1  0.15441000  0.72888000  0.30838000  1.0
  C  C134  1  0.65441000  0.22889000  0.19162000  1.0
  C  C135  1  0.84559000  0.27112000  0.69162000  1.0
  C  C136  1  0.39291000  0.85770000  0.82041000  1.0
  C  C137  1  0.10709000  0.64230000  0.32041000  1.0
  C  C138  1  0.60709000  0.14230000  0.17959000  1.0
  C  C139  1  0.89291000  0.35770000  0.67959000  1.0
  C  C140  1  0.41275000  0.91604000  0.75897000  1.0
  C  C141  1  0.08725000  0.58396000  0.25897000  1.0
  C  C142  1  0.58725000  0.08396000  0.24103000  1.0
  C  C143  1  0.91275000  0.41604000  0.74103000  1.0
  C  C144  1  0.38959000  0.88672000  0.68527000  1.0
  C  C145  1  0.11041000  0.61328000  0.18527000  1.0
  C  C146  1  0.61041000  0.11328000  0.31473000  1.0
  C  C147  1  0.88959000  0.38672000  0.81473000  1.0
  C  C148  1  0.42323000  0.88675000  0.89934000  1.0
  C  C149  1  0.07678000  0.61325000  0.39934000  1.0
  C  C150  1  0.57678000  0.11325000  0.10066000  1.0
  C  C151  1  0.92323000  0.38675000  0.60066000  1.0
  N  N152  1  0.97796000  0.72196000  0.68197000  1.0
  N  N153  1  0.52204000  0.77804000  0.18197000  1.0
  N  N154  1  0.02204000  0.27804000  0.31803000  1.0
  N  N155  1  0.47796000  0.22196000  0.81803000  1.0
  O  O156  1  0.24772000  0.67414000  0.57884000  1.0
  O  O157  1  0.25228000  0.82586000  0.07884000  1.0
  O  O158  1  0.75228000  0.32586000  0.42116000  1.0
  O  O159  1  0.74772000  0.17414000  0.92116000  1.0
  O  O160  1  0.79379000  0.51258000  0.47320000  1.0
  O  O161  1  0.70621000  0.98742000  0.97320000  1.0
  O  O162  1  0.20621000  0.48742000  0.52680000  1.0
  O  O163  1  0.29379000  0.01258000  0.02680000  1.0
  O  O164  1  0.88687000  0.62301000  0.53939000  1.0
  O  O165  1  0.61313000  0.87699000  0.03940000  1.0
  O  O166  1  0.11314000  0.37699000  0.46061000  1.0
  O  O167  1  0.38686000  0.12300000  0.96061000  1.0
  O  O168  1  0.12261000  0.08390000  0.36540000  1.0
  O  O169  1  0.37739000  0.41609000  0.86540000  1.0
  O  O170  1  0.87739000  0.91609000  0.63460000  1.0
  O  O171  1  0.62261000  0.58390000  0.13460000  1.0
  O  O172  1  0.29250000  0.07213000  0.30382000  1.0
  O  O173  1  0.20750000  0.42787000  0.80382000  1.0
  O  O174  1  0.70750000  0.92788000  0.69618000  1.0
  O  O175  1  0.79250000  0.57213000  0.19618000  1.0
  O  O176  1  0.47484000  0.96276000  0.90880000  1.0
  O  O177  1  0.02516000  0.53724000  0.40880000  1.0
  O  O178  1  0.52516000  0.03723000  0.09120000  1.0
  O  O179  1  0.97484000  0.46276000  0.59120000  1.0
  O  O180  1  0.39622000  0.83521000  0.95429000  1.0
  O  O181  1  0.10378000  0.66479000  0.45429000  1.0
  O  O182  1  0.60378000  0.16479000  0.04570000  1.0
  O  O183  1  0.89623000  0.33521000  0.54571000  1.0
  O  O184  1  0.02779000  0.75017000  0.62167000  1.0
  O  O185  1  0.47221000  0.74983000  0.12167000  1.0
  O  O186  1  0.97221000  0.24983000  0.37833000  1.0
  O  O187  1  0.52778000  0.25017000  0.87833000  1.0
  O  O188  1  0.98883000  0.63932000  0.69944000  1.0
  O  O189  1  0.51116000  0.86067000  0.19944000  1.0
  O  O190  1  0.01117000  0.36068000  0.30056000  1.0
  O  O191  1  0.48883000  0.13932000  0.80056000  1.0
  O  O192  1  0.91905000  0.77322000  0.72208000  1.0
  O  O193  1  0.58094000  0.72678000  0.22208000  1.0
  O  O194  1  0.08095000  0.22678000  0.27792000  1.0
  O  O195  1  0.41906000  0.27322000  0.77792000  1.0
  O  O196  1  0.19516000  0.52980000  0.67734000  1.0
  O  O197  1  0.30484000  0.97020000  0.17734000  1.0
  O  O198  1  0.80484000  0.47020000  0.32266000  1.0
  O  O199  1  0.69516000  0.02980000  0.82266000  1.0
