# generated using pymatgen
data_ZnH14C22NO4
_symmetry_space_group_name_H-M   'P 1'
_cell_length_a   9.39215000
_cell_length_b   10.35140000
_cell_length_c   11.01320000
_cell_angle_alpha   90.29180000
_cell_angle_beta   103.89100000
_cell_angle_gamma   99.98730000
_symmetry_Int_Tables_number   1
_chemical_formula_structural   ZnH14C22NO4
_chemical_formula_sum   'Zn2 H28 C44 N2 O8'
_cell_volume   1022.43556858
_cell_formula_units_Z   2
loop_
 _symmetry_equiv_pos_site_id
 _symmetry_equiv_pos_as_xyz
  1  'x, y, z'
loop_
 _atom_site_type_symbol
 _atom_site_label
 _atom_site_symmetry_multiplicity
 _atom_site_fract_x
 _atom_site_fract_y
 _atom_site_fract_z
 _atom_site_occupancy
  Zn  Zn0  1  0.40199000  0.40421000  0.55260000  1.0
  Zn  Zn1  1  0.59801000  0.59579000  0.44740000  1.0
  H  H2  1  0.19581000  0.44939000  0.70299000  1.0
  H  H3  1  0.80419000  0.55061000  0.29702000  1.0
  H  H4  1  0.90648000  0.79668000  0.57766000  1.0
  H  H5  1  0.09352000  0.20332000  0.42234000  1.0
  H  H6  1  0.04264000  0.62178000  0.55207000  1.0
  H  H7  1  0.95736000  0.37822000  0.44793000  1.0
  H  H8  1  0.39184000  0.13266000  0.64818000  1.0
  H  H9  1  0.60816000  0.86734000  0.35182000  1.0
  H  H10  1  0.05786000  0.32678000  0.84713000  1.0
  H  H11  1  0.94214000  0.67322000  0.15288000  1.0
  H  H12  1  0.35165000  0.90776000  0.13509000  1.0
  H  H13  1  0.64835000  0.09224000  0.86492000  1.0
  H  H14  1  0.04528000  0.88662000  0.81713000  1.0
  H  H15  1  0.95473000  0.11338000  0.18287000  1.0
  H  H16  1  0.08114000  0.24096000  0.03874000  1.0
  H  H17  1  0.91887000  0.75904000  0.96126000  1.0
  H  H18  1  0.26256000  0.99576000  0.78789000  1.0
  H  H19  1  0.73744000  0.00424000  0.21211000  1.0
  H  H20  1  0.33953000  0.88709000  0.38777000  1.0
  H  H21  1  0.66046000  0.11291000  0.61223000  1.0
  H  H22  1  0.30980000  0.07009000  0.27881000  1.0
  H  H23  1  0.69020000  0.92991000  0.72119000  1.0
  H  H24  1  0.20256000  0.06570000  0.41011000  1.0
  H  H25  1  0.79743000  0.93430000  0.58988000  1.0
  H  H26  1  0.56627000  0.37886000  0.12327000  1.0
  H  H27  1  0.43373000  0.62114000  0.87673000  1.0
  H  H28  1  0.60857000  0.21936000  0.97525000  1.0
  H  H29  1  0.39143000  0.78063000  0.02474000  1.0
  C  C30  1  0.28989000  0.63868000  0.45719000  1.0
  C  C31  1  0.71011000  0.36132000  0.54281000  1.0
  C  C32  1  0.20823000  0.34920000  0.72683000  1.0
  C  C33  1  0.79177000  0.65080000  0.27317000  1.0
  C  C34  1  0.00114000  0.81981000  0.53559000  1.0
  C  C35  1  0.99885000  0.18019000  0.46441000  1.0
  C  C36  1  0.04147000  0.94656000  0.49406000  1.0
  C  C37  1  0.95854000  0.05344000  0.50594000  1.0
  C  C38  1  0.07827000  0.71952000  0.52163000  1.0
  C  C39  1  0.92173000  0.28048000  0.47837000  1.0
  C  C40  1  0.19993000  0.74250000  0.46701000  1.0
  C  C41  1  0.80007000  0.25750000  0.53299000  1.0
  C  C42  1  0.31668000  0.17134000  0.69449000  1.0
  C  C43  1  0.68333000  0.82866000  0.30551000  1.0
  C  C44  1  0.48574000  0.04875000  0.04305000  1.0
  C  C45  1  0.51426000  0.95124000  0.95695000  1.0
  C  C46  1  0.07177000  0.07350000  0.91675000  1.0
  C  C47  1  0.92823000  0.92650000  0.08326000  1.0
  C  C48  1  0.14908000  0.14985000  0.83147000  1.0
  C  C49  1  0.85093000  0.85015000  0.16853000  1.0
  C  C50  1  0.42127000  0.33174000  0.30755000  1.0
  C  C51  1  0.57873000  0.66826000  0.69245000  1.0
  C  C52  1  0.43543000  0.23504000  0.21136000  1.0
  C  C53  1  0.56457000  0.76496000  0.78864000  1.0
  C  C54  1  0.13274000  0.28029000  0.80693000  1.0
  C  C55  1  0.86726000  0.71971000  0.19307000  1.0
  C  C56  1  0.40020000  0.01046000  0.13016000  1.0
  C  C57  1  0.59980000  0.98954000  0.86984000  1.0
  C  C58  1  0.02788000  0.93651000  0.89842000  1.0
  C  C59  1  0.97212000  0.06349000  0.10158000  1.0
  C  C60  1  0.04255000  0.13563000  0.01966000  1.0
  C  C61  1  0.95746000  0.86437000  0.98034000  1.0
  C  C62  1  0.24351000  0.09575000  0.77231000  1.0
  C  C63  1  0.75649000  0.90425000  0.22769000  1.0
  C  C64  1  0.24278000  0.86874000  0.42763000  1.0
  C  C65  1  0.75722000  0.13126000  0.57237000  1.0
  C  C66  1  0.37569000  0.10170000  0.21224000  1.0
  C  C67  1  0.62432000  0.89830000  0.78776000  1.0
  C  C68  1  0.16503000  0.96840000  0.44046000  1.0
  C  C69  1  0.83497000  0.03160000  0.55954000  1.0
  C  C70  1  0.51916000  0.27507000  0.12417000  1.0
  C  C71  1  0.48084000  0.72492000  0.87582000  1.0
  C  C72  1  0.54334000  0.18393000  0.04173000  1.0
  C  C73  1  0.45666000  0.81607000  0.95827000  1.0
  N  N74  1  0.29906000  0.29579000  0.67140000  1.0
  N  N75  1  0.70094000  0.70421000  0.32860000  1.0
  O  O76  1  0.40570000  0.67353000  0.41581000  1.0
  O  O77  1  0.59430000  0.32647000  0.58419000  1.0
  O  O78  1  0.24804000  0.52493000  0.49437000  1.0
  O  O79  1  0.75196000  0.47508000  0.50563000  1.0
  O  O80  1  0.49529000  0.44693000  0.30873000  1.0
  O  O81  1  0.50471000  0.55306000  0.69127000  1.0
  O  O82  1  0.34245000  0.29148000  0.38454000  1.0
  O  O83  1  0.65755000  0.70852000  0.61545000  1.0
