# generated using pymatgen
data_Zn4H34C36O25
_symmetry_space_group_name_H-M   'P 1'
_cell_length_a   13.90250000
_cell_length_b   15.17120000
_cell_length_c   16.45220000
_cell_angle_alpha   89.83850000
_cell_angle_beta   89.77550000
_cell_angle_gamma   92.37820000
_symmetry_Int_Tables_number   1
_chemical_formula_structural   Zn4H34C36O25
_chemical_formula_sum   'Zn8 H68 C72 O50'
_cell_volume   3467.02782739
_cell_formula_units_Z   2
loop_
 _symmetry_equiv_pos_site_id
 _symmetry_equiv_pos_as_xyz
  1  'x, y, z'
loop_
 _atom_site_type_symbol
 _atom_site_label
 _atom_site_symmetry_multiplicity
 _atom_site_fract_x
 _atom_site_fract_y
 _atom_site_fract_z
 _atom_site_occupancy
  Zn  Zn0  1  0.47910000  0.39729000  0.91399000  1.0
  Zn  Zn1  1  0.50423000  0.39134000  0.10615000  1.0
  Zn  Zn2  1  0.00577000  0.45453000  0.41202000  1.0
  Zn  Zn3  1  0.98367000  0.44171000  0.59808000  1.0
  Zn  Zn4  1  0.37471000  0.54002000  0.02620000  1.0
  Zn  Zn5  1  0.87414000  0.59317000  0.50224000  1.0
  Zn  Zn6  1  0.59768000  0.55423000  0.00014000  1.0
  Zn  Zn7  1  0.10513000  0.61117000  0.51534000  1.0
  H  H8  1  0.35231000  0.79500000  0.08383000  1.0
  H  H9  1  0.78624000  0.75981000  0.69704000  1.0
  H  H10  1  0.69851000  0.84145000  0.69154000  1.0
  H  H11  1  0.20745000  0.85530000  0.33105000  1.0
  H  H12  1  0.11848000  0.93648000  0.32225000  1.0
  H  H13  1  0.08233000  0.73592000  0.33250000  1.0
  H  H14  1  0.98927000  0.81264000  0.33339000  1.0
  H  H15  1  0.04284000  0.86831000  0.19473000  1.0
  H  H16  1  0.01057000  0.75450000  0.19301000  1.0
  H  H17  1  0.13424000  0.78931000  0.19373000  1.0
  H  H18  1  0.73117000  0.98292000  0.77052000  1.0
  H  H19  1  0.82532000  0.85571000  0.53433000  1.0
  H  H20  1  0.73521000  0.09182000  0.81117000  1.0
  H  H21  1  0.55617000  0.98953000  0.74727000  1.0
  H  H22  1  0.55375000  0.09398000  0.79495000  1.0
  H  H23  1  0.66034000  0.16173000  0.68772000  1.0
  H  H24  1  0.55815000  0.10866000  0.64215000  1.0
  H  H25  1  0.67109000  0.05792000  0.63983000  1.0
  H  H26  1  0.33797000  0.02082000  0.37212000  1.0
  H  H27  1  0.32625000  0.12642000  0.41739000  1.0
  H  H28  1  0.21630000  0.05558000  0.26838000  1.0
  H  H29  1  0.19830000  0.15944000  0.31349000  1.0
  H  H30  1  0.40579000  0.10322000  0.08001000  1.0
  H  H31  1  0.37467000  0.20314000  0.28781000  1.0
  H  H32  1  0.30946000  0.18161000  0.19769000  1.0
  H  H33  1  0.38754000  0.10138000  0.23594000  1.0
  H  H34  1  0.19547000  0.95498000  0.15518000  1.0
  H  H35  1  0.22109000  0.89223000  0.06709000  1.0
  H  H36  1  0.22271000  0.09461000  0.07634000  1.0
  H  H37  1  0.24918000  0.03377000  0.98800000  1.0
  H  H38  1  0.08037000  0.96473000  0.98940000  1.0
  H  H39  1  0.07709000  0.08163000  0.98742000  1.0
  H  H40  1  0.05410000  0.02344000  0.07949000  1.0
  H  H41  1  0.88474000  0.16275000  0.52184000  1.0
  H  H42  1  0.72698000  0.97437000  0.41615000  1.0
  H  H43  1  0.78677000  0.08033000  0.40648000  1.0
  H  H44  1  0.60063000  0.04021000  0.50325000  1.0
  H  H45  1  0.65975000  0.14514000  0.49427000  1.0
  H  H46  1  0.63364000  0.14116000  0.34122000  1.0
  H  H47  1  0.52317000  0.13056000  0.39500000  1.0
  H  H48  1  0.57368000  0.03613000  0.35130000  1.0
  H  H49  1  0.79494000  0.21438000  0.89586000  1.0
  H  H50  1  0.77787000  0.12554000  0.96725000  1.0
  H  H51  1  0.71332000  0.31518000  0.98975000  1.0
  H  H52  1  0.58586000  0.86044000  0.81148000  1.0
  H  H53  1  0.69774000  0.22977000  0.06301000  1.0
  H  H54  1  0.87905000  0.22055000  0.07304000  1.0
  H  H55  1  0.84207000  0.32866000  0.09547000  1.0
  H  H56  1  0.89304000  0.30664000  0.99943000  1.0
  H  H57  1  0.26674000  0.14843000  0.55850000  1.0
  H  H58  1  0.19909000  0.24057000  0.58826000  1.0
  H  H59  1  0.38825000  0.25324000  0.49051000  1.0
  H  H60  1  0.32361000  0.34372000  0.52555000  1.0
  H  H61  1  0.34922000  0.29727000  0.67084000  1.0
  H  H62  1  0.46111000  0.31131000  0.61962000  1.0
  H  H63  1  0.56284000  0.74719000  0.83917000  1.0
  H  H64  1  0.41064000  0.20351000  0.63716000  1.0
  H  H65  1  0.42023000  0.68520000  0.23142000  1.0
  H  H66  1  0.46651000  0.58886000  0.73128000  1.0
  H  H67  1  0.95212000  0.52121000  0.83994000  1.0
  H  H68  1  0.97637000  0.59252000  0.20849000  1.0
  H  H69  1  0.49802000  0.48522000  0.62598000  1.0
  H  H70  1  0.70879000  0.33195000  0.31915000  1.0
  H  H71  1  0.21611000  0.31367000  0.39375000  1.0
  H  H72  1  0.14180000  0.34304000  0.82155000  1.0
  H  H73  1  0.76496000  0.83373000  0.83332000  1.0
  H  H74  1  0.73463000  0.71947000  0.83843000  1.0
  H  H75  1  0.66215000  0.72780000  0.69622000  1.0
  C  C76  1  0.33932000  0.46064000  0.18872000  1.0
  C  C77  1  0.05255000  0.91284000  0.46609000  1.0
  C  C78  1  0.40454000  0.84035000  0.05471000  1.0
  C  C79  1  0.88666000  0.89858000  0.51663000  1.0
  C  C80  1  0.40145000  0.92931000  0.06737000  1.0
  C  C81  1  0.87726000  0.98786000  0.51028000  1.0
  C  C82  1  0.73296000  0.47604000  0.78332000  1.0
  C  C83  1  0.76287000  0.50282000  0.20951000  1.0
  C  C84  1  0.25904000  0.54561000  0.29778000  1.0
  C  C85  1  0.24471000  0.50961000  0.72650000  1.0
  C  C86  1  0.27872000  0.46733000  0.26418000  1.0
  C  C87  1  0.29790000  0.47558000  0.86843000  1.0
  C  C88  1  0.22299000  0.48496000  0.80330000  1.0
  C  C89  1  0.71227000  0.49596000  0.70573000  1.0
  C  C90  1  0.74473000  0.48173000  0.28778000  1.0
  C  C91  1  0.65757000  0.47374000  0.84838000  1.0
  C  C92  1  0.68457000  0.49068000  0.14782000  1.0
  C  C93  1  0.18032000  0.55094000  0.36031000  1.0
  C  C94  1  0.16789000  0.51709000  0.66341000  1.0
  C  C95  1  0.48044000  0.70727000  0.00455000  1.0
  C  C96  1  0.97997000  0.76309000  0.50532000  1.0
  C  C97  1  0.50360000  0.23421000  0.00424000  1.0
  C  C98  1  0.78972000  0.50256000  0.64288000  1.0
  C  C99  1  0.02278000  0.28920000  0.49688000  1.0
  C  C100  1  0.47864000  0.80498000  0.00648000  1.0
  C  C101  1  0.97530000  0.86056000  0.49706000  1.0
  C  C102  1  0.52205000  0.13865000  0.99857000  1.0
  C  C103  1  0.03224000  0.19206000  0.48843000  1.0
  C  C104  1  0.60539000  0.01858000  0.93408000  1.0
  C  C105  1  0.13015000  0.06724000  0.45234000  1.0
  C  C106  1  0.59611000  0.10909000  0.94748000  1.0
  C  C107  1  0.12129000  0.15773000  0.46520000  1.0
  C  C108  1  0.46166000  0.07988000  0.04001000  1.0
  C  C109  1  0.81783000  0.49509000  0.35392000  1.0
  C  C110  1  0.95256000  0.13665000  0.50170000  1.0
  C  C111  1  0.61447000  0.80401000  0.84465000  1.0
  C  C112  1  0.71301000  0.78231000  0.81193000  1.0
  C  C113  1  0.71486000  0.77755000  0.71906000  1.0
  C  C114  1  0.13299000  0.87036000  0.34628000  1.0
  C  C115  1  0.06237000  0.80127000  0.31084000  1.0
  C  C116  1  0.06284000  0.80351000  0.21795000  1.0
  C  C117  1  0.68977000  0.03148000  0.80378000  1.0
  C  C118  1  0.59849000  0.05140000  0.75792000  1.0
  C  C119  1  0.62347000  0.09723000  0.67738000  1.0
  C  C120  1  0.46961000  0.98865000  0.02864000  1.0
  C  C121  1  0.28811000  0.07395000  0.38289000  1.0
  C  C122  1  0.25210000  0.10965000  0.30278000  1.0
  C  C123  1  0.33586000  0.15091000  0.25332000  1.0
  C  C124  1  0.23570000  0.95605000  0.09751000  1.0
  C  C125  1  0.20578000  0.03237000  0.04418000  1.0
  C  C126  1  0.09852000  0.02506000  0.02395000  1.0
  C  C127  1  0.73954000  0.03870000  0.44649000  1.0
  C  C128  1  0.64519000  0.08240000  0.46228000  1.0
  C  C129  1  0.59111000  0.09836000  0.38318000  1.0
  C  C130  1  0.74917000  0.18814000  0.94569000  1.0
  C  C131  1  0.95922000  0.04474000  0.49245000  1.0
  C  C132  1  0.74534000  0.25538000  0.01397000  1.0
  C  C133  1  0.84553000  0.27884000  0.04739000  1.0
  C  C134  1  0.25025000  0.21685000  0.54251000  1.0
  C  C135  1  0.34116000  0.27537000  0.53973000  1.0
  C  C136  1  0.39339000  0.27158000  0.62133000  1.0
  C  C137  1  0.30385000  0.63191000  0.27068000  1.0
  C  C138  1  0.34684000  0.52918000  0.70019000  1.0
  C  C139  1  0.83183000  0.45841000  0.81510000  1.0
  C  C140  1  0.85896000  0.53418000  0.17753000  1.0
  C  C141  1  0.61209000  0.52074000  0.68424000  1.0
  C  C142  1  0.54272000  0.95518000  0.97614000  1.0
  C  C143  1  0.64874000  0.44383000  0.31786000  1.0
  C  C144  1  0.23507000  0.38043000  0.29365000  1.0
  C  C145  1  0.12180000  0.46665000  0.83279000  1.0
  C  C146  1  0.04833000  0.00752000  0.46798000  1.0
  C  C147  1  0.54834000  0.86103000  0.96824000  1.0
  O  O148  1  0.48765000  0.46885000  0.01197000  1.0
  O  O149  1  0.09551000  0.46296000  0.67038000  1.0
  O  O150  1  0.28809000  0.52214000  0.93131000  1.0
  O  O151  1  0.31058000  0.50468000  0.12833000  1.0
  O  O152  1  0.80646000  0.56012000  0.39997000  1.0
  O  O153  1  0.77860000  0.55859000  0.58626000  1.0
  O  O154  1  0.67660000  0.55429000  0.09838000  1.0
  O  O155  1  0.68163000  0.51490000  0.91265000  1.0
  O  O156  1  0.18251000  0.57716000  0.61069000  1.0
  O  O157  1  0.19739000  0.59410000  0.42480000  1.0
  O  O158  1  0.40737000  0.66529000  0.03693000  1.0
  O  O159  1  0.99281000  0.52747000  0.50903000  1.0
  O  O160  1  0.89948000  0.71941000  0.49772000  1.0
  O  O161  1  0.50172000  0.26754000  0.07528000  1.0
  O  O162  1  0.48772000  0.27307000  0.93715000  1.0
  O  O163  1  0.98790000  0.31758000  0.56324000  1.0
  O  O164  1  0.04851000  0.33605000  0.43536000  1.0
  O  O165  1  0.55250000  0.66977000  0.97351000  1.0
  O  O166  1  0.06080000  0.73050000  0.52168000  1.0
  O  O167  1  0.62531000  0.82757000  0.92937000  1.0
  O  O168  1  0.12992000  0.87217000  0.43447000  1.0
  O  O169  1  0.67270000  0.98841000  0.88206000  1.0
  O  O170  1  0.40934000  0.40990000  0.19229000  1.0
  O  O171  1  0.21439000  0.03029000  0.43343000  1.0
  O  O172  1  0.33602000  0.96457000  0.12009000  1.0
  O  O173  1  0.78869000  0.02428000  0.52284000  1.0
  O  O174  1  0.65546000  0.17062000  0.90860000  1.0
  O  O175  1  0.20229000  0.21510000  0.46344000  1.0
  O  O176  1  0.26013000  0.70008000  0.26784000  1.0
  O  O177  1  0.39810000  0.62669000  0.25112000  1.0
  O  O178  1  0.38010000  0.49244000  0.63972000  1.0
  O  O179  1  0.39467000  0.58500000  0.74805000  1.0
  O  O180  1  0.85232000  0.38552000  0.83967000  1.0
  O  O181  1  0.35979000  0.41851000  0.85341000  1.0
  O  O182  1  0.88681000  0.53240000  0.81686000  1.0
  O  O183  1  0.88773000  0.51501000  0.11006000  1.0
  O  O184  1  0.91189000  0.58251000  0.23212000  1.0
  O  O185  1  0.57532000  0.58398000  0.71853000  1.0
  O  O186  1  0.56869000  0.46996000  0.62952000  1.0
  O  O187  1  0.57965000  0.48803000  0.32981000  1.0
  O  O188  1  0.64815000  0.35644000  0.33691000  1.0
  O  O189  1  0.19797000  0.32607000  0.24764000  1.0
  O  O190  1  0.24571000  0.37091000  0.37424000  1.0
  O  O191  1  0.06991000  0.52637000  0.85144000  1.0
  O  O192  1  0.85992000  0.45257000  0.65295000  1.0
  O  O193  1  0.09392000  0.38161000  0.84431000  1.0
  O  O194  1  0.88063000  0.43633000  0.35795000  1.0
  O  O195  1  0.57918000  0.43087000  0.83363000  1.0
  O  O196  1  0.63250000  0.41989000  0.15288000  1.0
  O  O197  1  0.10111000  0.51153000  0.33987000  1.0
