# generated using pymatgen
data_Zn2H17C30BrO8
_symmetry_space_group_name_H-M   'P 1'
_cell_length_a   12.14730000
_cell_length_b   12.36830000
_cell_length_c   23.27780000
_cell_angle_alpha   90.91710000
_cell_angle_beta   90.80950000
_cell_angle_gamma   90.67980000
_symmetry_Int_Tables_number   1
_chemical_formula_structural   Zn2H17C30BrO8
_chemical_formula_sum   'Zn4 H34 C60 Br2 O16'
_cell_volume   3496.23774536
_cell_formula_units_Z   2
loop_
 _symmetry_equiv_pos_site_id
 _symmetry_equiv_pos_as_xyz
  1  'x, y, z'
loop_
 _atom_site_type_symbol
 _atom_site_label
 _atom_site_symmetry_multiplicity
 _atom_site_fract_x
 _atom_site_fract_y
 _atom_site_fract_z
 _atom_site_occupancy
  Zn  Zn0  1  0.50253000  0.10322000  0.50173000  1.0
  Zn  Zn1  1  0.49747000  0.89678000  0.49827000  1.0
  Zn  Zn2  1  0.10503000  0.49871000  0.00262000  1.0
  Zn  Zn3  1  0.89497000  0.50129000  0.99738000  1.0
  H  H4  1  0.28726000  0.17131000  0.35527000  1.0
  H  H5  1  0.71274000  0.82869000  0.64473000  1.0
  H  H6  1  0.85495000  0.83954000  0.27690000  1.0
  H  H7  1  0.14505000  0.16046000  0.72310000  1.0
  H  H8  1  0.15283000  0.06866000  0.17363000  1.0
  H  H9  1  0.84717000  0.93134000  0.82637000  1.0
  H  H10  1  0.15938000  0.87714000  0.21660000  1.0
  H  H11  1  0.84062000  0.12287000  0.78340000  1.0
  H  H12  1  0.83967000  0.17704000  0.23489000  1.0
  H  H13  1  0.16033000  0.82296000  0.76511000  1.0
  H  H14  1  0.06626000  0.83991000  0.31084000  1.0
  H  H15  1  0.93374000  0.16009000  0.68916000  1.0
  H  H16  1  0.93213000  0.17075000  0.32274000  1.0
  H  H17  1  0.06787000  0.82925000  0.67726000  1.0
  H  H18  1  0.71584000  0.83460000  0.35359000  1.0
  H  H19  1  0.28416000  0.16540000  0.64641000  1.0
  H  H20  1  0.15457000  0.21870000  0.10481000  1.0
  H  H21  1  0.84543000  0.78130000  0.89519000  1.0
  H  H22  1  0.82263000  0.78545000  0.10360000  1.0
  H  H23  1  0.17737000  0.21455000  0.89640000  1.0
  H  H24  1  0.16434000  0.73326000  0.14207000  1.0
  H  H25  1  0.83566000  0.26674000  0.85794000  1.0
  H  H26  1  0.21608000  0.83587000  0.38402000  1.0
  H  H27  1  0.78392000  0.16413000  0.61598000  1.0
  H  H28  1  0.78727000  0.16720000  0.39651000  1.0
  H  H29  1  0.21273000  0.83280000  0.60349000  1.0
  H  H30  1  0.14317000  0.17432000  0.27875000  1.0
  H  H31  1  0.85683000  0.82568000  0.72125000  1.0
  H  H32  1  0.76256000  0.33220000  0.20660000  1.0
  H  H33  1  0.83661000  0.43006000  0.16641000  1.0
  H  H34  1  0.75709000  0.33026000  0.13001000  1.0
  H  H35  1  0.23744000  0.66780000  0.79340000  1.0
  H  H36  1  0.24291000  0.66974000  0.86999000  1.0
  H  H37  1  0.16339000  0.56994000  0.83359000  1.0
  C  C38  1  0.65158000  0.99862000  0.58011000  1.0
  C  C39  1  0.34843000  0.00139000  0.41989000  1.0
  C  C40  1  0.89658000  0.80550000  0.12868000  1.0
  C  C41  1  0.10342000  0.19450000  0.87133000  1.0
  C  C42  1  0.08461000  0.85727000  0.19214000  1.0
  C  C43  1  0.91539000  0.14273000  0.80786000  1.0
  C  C44  1  0.08822000  0.77594000  0.15038000  1.0
  C  C45  1  0.91178000  0.22406000  0.84962000  1.0
  C  C46  1  0.90970000  0.18546000  0.20660000  1.0
  C  C47  1  0.09030000  0.81454000  0.79340000  1.0
  C  C48  1  0.90772000  0.27004000  0.16717000  1.0
  C  C49  1  0.09228000  0.72996000  0.83283000  1.0
  C  C50  1  0.11654000  0.91220000  0.31913000  1.0
  C  C51  1  0.88346000  0.08780000  0.68087000  1.0
  C  C52  1  0.19952000  0.90966000  0.36067000  1.0
  C  C53  1  0.80048000  0.09034000  0.63933000  1.0
  C  C54  1  0.88195000  0.09799000  0.32763000  1.0
  C  C55  1  0.11805000  0.90202000  0.67237000  1.0
  C  C56  1  0.80201000  0.09601000  0.36971000  1.0
  C  C57  1  0.19799000  0.90399000  0.63029000  1.0
  C  C58  1  0.99321000  0.01058000  0.24798000  1.0
  C  C59  1  0.00679000  0.98942000  0.75202000  1.0
  C  C60  1  0.65255000  0.00036000  0.42281000  1.0
  C  C61  1  0.34745000  0.99963000  0.57719000  1.0
  C  C62  1  0.09516000  0.00692000  0.28845000  1.0
  C  C63  1  0.90484000  0.99308000  0.71155000  1.0
  C  C64  1  0.26148000  0.00338000  0.37411000  1.0
  C  C65  1  0.73853000  0.99662000  0.62589000  1.0
  C  C66  1  0.89978000  0.00733000  0.29202000  1.0
  C  C67  1  0.10022000  0.99267000  0.70798000  1.0
  C  C68  1  0.74028000  0.00145000  0.37875000  1.0
  C  C69  1  0.25972000  0.99855000  0.62124000  1.0
  C  C70  1  0.99529000  0.11137000  0.20964000  1.0
  C  C71  1  0.00471000  0.88863000  0.79036000  1.0
  C  C72  1  0.99704000  0.28028000  0.12945000  1.0
  C  C73  1  0.00296000  0.71972000  0.87055000  1.0
  C  C74  1  0.98860000  0.91574000  0.20402000  1.0
  C  C75  1  0.01140000  0.08426000  0.79598000  1.0
  C  C76  1  0.99293000  0.74783000  0.11895000  1.0
  C  C77  1  0.00706000  0.25217000  0.88105000  1.0
  C  C78  1  0.99324000  0.65818000  0.07522000  1.0
  C  C79  1  0.00676000  0.34182000  0.92478000  1.0
  C  C80  1  0.00142000  0.36210000  0.08315000  1.0
  C  C81  1  0.99857000  0.63790000  0.91686000  1.0
  C  C82  1  0.15844000  0.09967000  0.30156000  1.0
  C  C83  1  0.84155000  0.90033000  0.69844000  1.0
  C  C84  1  0.23979000  0.09838000  0.34440000  1.0
  C  C85  1  0.76021000  0.90162000  0.65560000  1.0
  C  C86  1  0.84047000  0.91206000  0.30275000  1.0
  C  C87  1  0.15953000  0.08794000  0.69725000  1.0
  C  C88  1  0.76211000  0.90873000  0.34574000  1.0
  C  C89  1  0.23790000  0.09127000  0.65426000  1.0
  C  C90  1  0.08447000  0.12491000  0.17258000  1.0
  C  C91  1  0.91553000  0.87509000  0.82742000  1.0
  C  C92  1  0.08555000  0.20857000  0.13368000  1.0
  C  C93  1  0.91445000  0.79143000  0.86632000  1.0
  C  C94  1  0.89544000  0.88937000  0.16935000  1.0
  C  C95  1  0.10456000  0.11063000  0.83065000  1.0
  C  C96  1  0.81087000  0.34475000  0.16774000  1.0
  C  C97  1  0.18913000  0.65525000  0.83226000  1.0
  Br  Br98  1  0.76000000  0.96633000  0.17229000  1.0
  Br  Br99  1  0.24000000  0.03367000  0.82771000  1.0
  O  O100  1  0.62091000  0.09159000  0.56317000  1.0
  O  O101  1  0.37909000  0.90841000  0.43683000  1.0
  O  O102  1  0.61453000  0.90820000  0.43786000  1.0
  O  O103  1  0.38547000  0.09180000  0.56213000  1.0
  O  O104  1  0.62108000  0.09228000  0.44212000  1.0
  O  O105  1  0.37892000  0.90772000  0.55788000  1.0
  O  O106  1  0.61415000  0.90747000  0.56109000  1.0
  O  O107  1  0.38585000  0.09253000  0.43890000  1.0
  O  O108  1  0.08700000  0.62148000  0.06073000  1.0
  O  O109  1  0.91300000  0.37852000  0.93927000  1.0
  O  O110  1  0.91010000  0.39542000  0.06214000  1.0
  O  O111  1  0.08990000  0.60458000  0.93786000  1.0
  O  O112  1  0.09705000  0.39177000  0.06647000  1.0
  O  O113  1  0.90295000  0.60823000  0.93353000  1.0
  O  O114  1  0.89967000  0.62464000  0.05580000  1.0
  O  O115  1  0.10032000  0.37536000  0.94420000  1.0
