# generated using pymatgen
data_CdH10C14(SN4)2
_symmetry_space_group_name_H-M   'P 1'
_cell_length_a   7.27023000
_cell_length_b   9.04116000
_cell_length_c   13.16708107
_cell_angle_alpha   69.91451174
_cell_angle_beta   78.08263395
_cell_angle_gamma   90.00260000
_symmetry_Int_Tables_number   1
_chemical_formula_structural   CdH10C14(SN4)2
_chemical_formula_sum   'Cd2 H20 C28 S4 N16'
_cell_volume   792.95677964
_cell_formula_units_Z   2
loop_
 _symmetry_equiv_pos_site_id
 _symmetry_equiv_pos_as_xyz
  1  'x, y, z'
loop_
 _atom_site_type_symbol
 _atom_site_label
 _atom_site_symmetry_multiplicity
 _atom_site_fract_x
 _atom_site_fract_y
 _atom_site_fract_z
 _atom_site_occupancy
  Cd  Cd0  1  0.74996000  0.39520000  0.00006000  1.0
  Cd  Cd1  1  0.25004000  0.60480000  0.99994000  1.0
  H  H2  1  0.18735000  0.93165000  0.14796000  1.0
  H  H3  1  0.31253000  0.07884000  0.85222000  1.0
  H  H4  1  0.81265000  0.06836000  0.85203000  1.0
  H  H5  1  0.68747000  0.92115000  0.14779000  1.0
  H  H6  1  0.10904000  0.64027000  0.22858000  1.0
  H  H7  1  0.39128000  0.86829000  0.77147000  1.0
  H  H8  1  0.89096000  0.35973000  0.77142000  1.0
  H  H9  1  0.60872000  0.13171000  0.22853000  1.0
  H  H10  1  0.91191000  0.51809000  0.41706000  1.0
  H  H11  1  0.58828000  0.93495000  0.58293000  1.0
  H  H12  1  0.08809000  0.48192000  0.58293000  1.0
  H  H13  1  0.41172000  0.06505000  0.41707000  1.0
  H  H14  1  0.79555000  0.68569000  0.53034000  1.0
  H  H15  1  0.70390000  0.21609000  0.46964000  1.0
  H  H16  1  0.20444000  0.31432000  0.46965000  1.0
  H  H17  1  0.29609000  0.78391000  0.53036000  1.0
  H  H18  1  0.87095000  0.97639000  0.44984000  1.0
  H  H19  1  0.62825000  0.42602000  0.55032000  1.0
  H  H20  1  0.12905000  0.02361000  0.55016000  1.0
  H  H21  1  0.37174000  0.57397000  0.44969000  1.0
  C  C22  1  0.07127000  0.24079000  0.14471000  1.0
  C  C23  1  0.42878000  0.38518000  0.85537000  1.0
  C  C24  1  0.92873000  0.75921000  0.85529000  1.0
  C  C25  1  0.57122000  0.61482000  0.14463000  1.0
  C  C26  1  0.02729000  0.96957000  0.29347000  1.0
  C  C27  1  0.47224000  0.26255000  0.70671000  1.0
  C  C28  1  0.97272000  0.03043000  0.70653000  1.0
  C  C29  1  0.52776000  0.73745000  0.29329000  1.0
  C  C30  1  0.09638000  0.87758000  0.22999000  1.0
  C  C31  1  0.40346000  0.10697000  0.77016000  1.0
  C  C32  1  0.90362000  0.12243000  0.77000000  1.0
  C  C33  1  0.59654000  0.89302000  0.22985000  1.0
  C  C34  1  0.05313000  0.71486000  0.27553000  1.0
  C  C35  1  0.44693000  0.98992000  0.72454000  1.0
  C  C36  1  0.94687000  0.28514000  0.72447000  1.0
  C  C37  1  0.55307000  0.01008000  0.27546000  1.0
  C  C38  1  0.94413000  0.64551000  0.38286000  1.0
  C  C39  1  0.55584000  0.02812000  0.61716000  1.0
  C  C40  1  0.05586000  0.35449000  0.61714000  1.0
  C  C41  1  0.44416000  0.97188000  0.38284000  1.0
  C  C42  1  0.87853000  0.73901000  0.44592000  1.0
  C  C43  1  0.62102000  0.18478000  0.55413000  1.0
  C  C44  1  0.12147000  0.26099000  0.55408000  1.0
  C  C45  1  0.37897000  0.81520000  0.44588000  1.0
  C  C46  1  0.91985000  0.90208000  0.40146000  1.0
  C  C47  1  0.57953000  0.30326000  0.59867000  1.0
  C  C48  1  0.08015000  0.09792000  0.59854000  1.0
  C  C49  1  0.42046000  0.69673000  0.40134000  1.0
  S  S50  1  0.99774000  0.20119000  0.04074000  1.0
  S  S51  1  0.50261000  0.24169000  0.95925000  1.0
  S  S52  1  0.00226000  0.79881000  0.95926000  1.0
  S  S53  1  0.49740000  0.75832000  0.04075000  1.0
  N  N54  1  0.07258000  0.13584000  0.24806000  1.0
  N  N55  1  0.42692000  0.38337000  0.75214000  1.0
  N  N56  1  0.92742000  0.86416000  0.75194000  1.0
  N  N57  1  0.57309000  0.61663000  0.24786000  1.0
  N  N58  1  0.13516000  0.21328000  0.30863000  1.0
  N  N59  1  0.36412000  0.52130000  0.69160000  1.0
  N  N60  1  0.86484000  0.78672000  0.69137000  1.0
  N  N61  1  0.63588000  0.47870000  0.30841000  1.0
  N  N62  1  0.17388000  0.35922000  0.24516000  1.0
  N  N63  1  0.32582000  0.60393000  0.75497000  1.0
  N  N64  1  0.82612000  0.64078000  0.75483000  1.0
  N  N65  1  0.67419000  0.39607000  0.24503000  1.0
  N  N66  1  0.13846000  0.38048000  0.14404000  1.0
  N  N67  1  0.36171000  0.52424000  0.85601000  1.0
  N  N68  1  0.86154000  0.61952000  0.85596000  1.0
  N  N69  1  0.63830000  0.47577000  0.14399000  1.0
