# generated using pymatgen
data_Al2H9C20Br2O10F
_symmetry_space_group_name_H-M   'P 1'
_cell_length_a   6.63677000
_cell_length_b   10.97520000
_cell_length_c   11.04784642
_cell_angle_alpha   92.80758127
_cell_angle_beta   105.99777772
_cell_angle_gamma   105.51610000
_symmetry_Int_Tables_number   1
_chemical_formula_structural   Al2H9C20Br2O10F
_chemical_formula_sum   'Al2 H9 C20 Br2 O10 F1'
_cell_volume   738.79682773
_cell_formula_units_Z   1
loop_
 _symmetry_equiv_pos_site_id
 _symmetry_equiv_pos_as_xyz
  1  'x, y, z'
loop_
 _atom_site_type_symbol
 _atom_site_label
 _atom_site_symmetry_multiplicity
 _atom_site_fract_x
 _atom_site_fract_y
 _atom_site_fract_z
 _atom_site_occupancy
  Al  Al0  1  0.00269000  0.49706000  0.49989000  1.0
  Al  Al1  1  0.50151000  0.49735000  0.49679000  1.0
  H  H2  1  0.64528000  0.40806000  0.34476000  1.0
  H  H3  1  0.36132000  0.56494000  0.65665000  1.0
  H  H4  1  0.61061000  0.89535000  0.47635000  1.0
  H  H5  1  0.26018000  0.86355000  0.52625000  1.0
  H  H6  1  0.75091000  0.12977000  0.46690000  1.0
  H  H7  1  0.46059000  0.68253000  0.24677000  1.0
  H  H8  1  0.68111000  0.83104000  0.14017000  1.0
  H  H9  1  0.19959000  0.67758000  0.77764000  1.0
  H  H10  1  0.54837000  0.82948000  0.90480000  1.0
  C  C11  1  0.14126000  0.50640000  0.27409000  1.0
  C  C12  1  0.15394000  0.26919000  0.48627000  1.0
  C  C13  1  0.85886000  0.48874000  0.72351000  1.0
  C  C14  1  0.85041000  0.72570000  0.50883000  1.0
  C  C15  1  0.08104000  0.12891000  0.49079000  1.0
  C  C16  1  0.92664000  0.86532000  0.50182000  1.0
  C  C17  1  0.22111000  0.05104000  0.50745000  1.0
  C  C18  1  0.78198000  0.94000000  0.48438000  1.0
  C  C19  1  0.14769000  0.92142000  0.51320000  1.0
  C  C20  1  0.85948000  0.06969000  0.47904000  1.0
  C  C21  1  0.06872000  0.50219000  0.13220000  1.0
  C  C22  1  0.20132000  0.58918000  0.07303000  1.0
  C  C23  1  0.87428000  0.41459000  0.05968000  1.0
  C  C24  1  0.40251000  0.67992000  0.14410000  1.0
  C  C25  1  0.52600000  0.76321000  0.08425000  1.0
  C  C26  1  0.92764000  0.49390000  0.86557000  1.0
  C  C27  1  0.80313000  0.40994000  0.92540000  1.0
  C  C28  1  0.12827000  0.58585000  0.93766000  1.0
  C  C29  1  0.25690000  0.67580000  0.87972000  1.0
  C  C30  1  0.45187000  0.76179000  0.95126000  1.0
  Br  Br31  1  0.54341000  0.28457000  0.82734000  1.0
  Br  Br32  1  0.70758000  0.29236000  0.13822000  1.0
  O  O33  1  0.01744000  0.53377000  0.33358000  1.0
  O  O34  1  0.35652000  0.32279000  0.50371000  1.0
  O  O35  1  0.68089000  0.51308000  0.67056000  1.0
  O  O36  1  0.99873000  0.66930000  0.53791000  1.0
  O  O37  1  0.99024000  0.46488000  0.66762000  1.0
  O  O38  1  0.64545000  0.67366000  0.48653000  1.0
  O  O39  1  0.32118000  0.48268000  0.32381000  1.0
  O  O40  1  0.00391000  0.32471000  0.46421000  1.0
  O  O41  1  0.69956000  0.44336000  0.43403000  1.0
  O  O42  1  0.30759000  0.55287000  0.56445000  1.0
  F  F43  1  0.43703000  0.10022000  0.51889000  1.0
