# generated using pymatgen
data_Na4ZnH10(C6O7)2
_symmetry_space_group_name_H-M   'P 1'
_cell_length_a   7.96264000
_cell_length_b   8.68477000
_cell_length_c   12.54490000
_cell_angle_alpha   90.00000000
_cell_angle_beta   90.00000000
_cell_angle_gamma   113.97500000
_symmetry_Int_Tables_number   1
_chemical_formula_structural   Na4ZnH10(C6O7)2
_chemical_formula_sum   'Na8 Zn2 H20 C24 O28'
_cell_volume   792.67851810
_cell_formula_units_Z   2
loop_
 _symmetry_equiv_pos_site_id
 _symmetry_equiv_pos_as_xyz
  1  'x, y, z'
loop_
 _atom_site_type_symbol
 _atom_site_label
 _atom_site_symmetry_multiplicity
 _atom_site_fract_x
 _atom_site_fract_y
 _atom_site_fract_z
 _atom_site_occupancy
  Na  Na0  1  0.05544000  0.15984000  0.87794000  1.0
  Na  Na1  1  0.94456000  0.34016000  0.37794000  1.0
  Na  Na2  1  0.94456000  0.84016000  0.12206000  1.0
  Na  Na3  1  0.05544000  0.65984000  0.62206000  1.0
  Na  Na4  1  0.89946000  0.46279000  0.88387000  1.0
  Na  Na5  1  0.10054000  0.03721000  0.38387000  1.0
  Na  Na6  1  0.10054000  0.53721000  0.11613000  1.0
  Na  Na7  1  0.89946000  0.96279000  0.61613000  1.0
  Zn  Zn8  1  0.50000000  0.50000000  0.00000000  1.0
  Zn  Zn9  1  0.50000000  0.00000000  0.50000000  1.0
  H  H10  1  0.31133000  0.07872000  0.18714000  1.0
  H  H11  1  0.68867000  0.42128000  0.68714000  1.0
  H  H12  1  0.68867000  0.92128000  0.81286000  1.0
  H  H13  1  0.31133000  0.57872000  0.31286000  1.0
  H  H14  1  0.46361000  0.21253000  0.28095000  1.0
  H  H15  1  0.53639000  0.28747000  0.78095000  1.0
  H  H16  1  0.53639000  0.78747000  0.71905000  1.0
  H  H17  1  0.46361000  0.71253000  0.21905000  1.0
  H  H18  1  0.69285000  0.10806000  0.20351000  1.0
  H  H19  1  0.30715000  0.39194000  0.70351000  1.0
  H  H20  1  0.30714000  0.89194000  0.79649000  1.0
  H  H21  1  0.69286000  0.60806000  0.29649000  1.0
  H  H22  1  0.52240000  0.98855000  0.11108000  1.0
  H  H23  1  0.47760000  0.51145000  0.61108000  1.0
  H  H24  1  0.47760000  0.01145000  0.88892000  1.0
  H  H25  1  0.52240000  0.48855000  0.38892000  1.0
  H  H26  1  0.38370000  0.15956000  0.00009000  1.0
  H  H27  1  0.61630000  0.34044000  0.50009000  1.0
  H  H28  1  0.61630000  0.84044000  0.99991000  1.0
  H  H29  1  0.38370000  0.65956000  0.49991000  1.0
  C  C30  1  0.29581000  0.31558000  0.20131000  1.0
  C  C31  1  0.70419000  0.18442000  0.70131000  1.0
  C  C32  1  0.70419000  0.68442000  0.79869000  1.0
  C  C33  1  0.29581000  0.81558000  0.29869000  1.0
  C  C34  1  0.72022000  0.42150000  0.15173000  1.0
  C  C35  1  0.27978000  0.07850000  0.65173000  1.0
  C  C36  1  0.27978000  0.57850000  0.84827000  1.0
  C  C37  1  0.72022000  0.92150000  0.34827000  1.0
  C  C38  1  0.40897000  0.21002000  0.20029000  1.0
  C  C39  1  0.59103000  0.28998000  0.70029000  1.0
  C  C40  1  0.59103000  0.78998000  0.79971000  1.0
  C  C41  1  0.40897000  0.71002000  0.29971000  1.0
  C  C42  1  0.56716000  0.25031000  0.11993000  1.0
  C  C43  1  0.43284000  0.24969000  0.61993000  1.0
  C  C44  1  0.43284000  0.74969000  0.88007000  1.0
  C  C45  1  0.56716000  0.75031000  0.38007000  1.0
  C  C46  1  0.63737000  0.11125000  0.12380000  1.0
  C  C47  1  0.36262000  0.38875000  0.62380000  1.0
  C  C48  1  0.36262000  0.88875000  0.87620000  1.0
  C  C49  1  0.63737000  0.61125000  0.37620000  1.0
  C  C50  1  0.79061000  0.13265000  0.04540000  1.0
  C  C51  1  0.20939000  0.36735000  0.54540000  1.0
  C  C52  1  0.20939000  0.86735000  0.95460000  1.0
  C  C53  1  0.79061000  0.63265000  0.45460000  1.0
  O  O54  1  0.50667000  0.26149000  0.01250000  1.0
  O  O55  1  0.49333000  0.23852000  0.51250000  1.0
  O  O56  1  0.49333000  0.73851000  0.98750000  1.0
  O  O57  1  0.50667000  0.76149000  0.48750000  1.0
  O  O58  1  0.72423000  0.55374000  0.10368000  1.0
  O  O59  1  0.27577000  0.94626000  0.60368000  1.0
  O  O60  1  0.27577000  0.44626000  0.89632000  1.0
  O  O61  1  0.72423000  0.05374000  0.39632000  1.0
  O  O62  1  0.82744000  0.42411000  0.22598000  1.0
  O  O63  1  0.17256000  0.07588000  0.72598000  1.0
  O  O64  1  0.17256000  0.57589000  0.77402000  1.0
  O  O65  1  0.82744000  0.92412000  0.27402000  1.0
  O  O66  1  0.17963000  0.28513000  0.27579000  1.0
  O  O67  1  0.82037000  0.21487000  0.77579000  1.0
  O  O68  1  0.82037000  0.71487000  0.72421000  1.0
  O  O69  1  0.17963000  0.78513000  0.22421000  1.0
  O  O70  1  0.31760000  0.42696000  0.12942000  1.0
  O  O71  1  0.68240000  0.07304000  0.62942000  1.0
  O  O72  1  0.68240000  0.57304000  0.87058000  1.0
  O  O73  1  0.31760000  0.92696000  0.37058000  1.0
  O  O74  1  0.80133000  0.99750000  0.01015000  1.0
  O  O75  1  0.19867000  0.50250000  0.51015000  1.0
  O  O76  1  0.19867000  0.00250000  0.98985000  1.0
  O  O77  1  0.80133000  0.49750000  0.48985000  1.0
  O  O78  1  0.90402000  0.27839000  0.01891000  1.0
  O  O79  1  0.09598000  0.22161000  0.51891000  1.0
  O  O80  1  0.09598000  0.72161000  0.98109000  1.0
  O  O81  1  0.90402000  0.77839000  0.48109000  1.0
