# generated using pymatgen
data_AlH10C12O5
_symmetry_space_group_name_H-M   'P 1'
_cell_length_a   6.60934000
_cell_length_b   11.06471273
_cell_length_c   11.09220238
_cell_angle_alpha   81.86312227
_cell_angle_beta   72.67772131
_cell_angle_gamma   73.26179245
_symmetry_Int_Tables_number   1
_chemical_formula_structural   AlH10C12O5
_chemical_formula_sum   'Al2 H20 C24 O10'
_cell_volume   740.19451680
_cell_formula_units_Z   2
loop_
 _symmetry_equiv_pos_site_id
 _symmetry_equiv_pos_as_xyz
  1  'x, y, z'
loop_
 _atom_site_type_symbol
 _atom_site_label
 _atom_site_symmetry_multiplicity
 _atom_site_fract_x
 _atom_site_fract_y
 _atom_site_fract_z
 _atom_site_occupancy
  Al  Al0  1  0.50137000  0.49923000  0.49925000  1.0
  Al  Al1  1  0.00091000  0.49993000  0.49924000  1.0
  H  H2  1  0.21085000  0.65239000  0.42894000  1.0
  H  H3  1  0.79486000  0.34592000  0.56778000  1.0
  H  H4  1  0.29823000  0.59310000  0.86534000  1.0
  H  H5  1  0.70318000  0.40883000  0.13289000  1.0
  H  H6  1  0.77597000  0.76006000  0.68503000  1.0
  H  H7  1  0.85466000  0.87368000  0.83346000  1.0
  H  H8  1  0.53674000  0.23037000  0.67617000  1.0
  H  H9  1  0.73269000  0.11030000  0.82935000  1.0
  H  H10  1  0.32192000  0.56367000  0.17405000  1.0
  H  H11  1  0.11177000  0.70300000  0.17162000  1.0
  H  H12  1  0.34261000  0.67009000  0.03698000  1.0
  H  H13  1  0.65987000  0.33120000  0.96138000  1.0
  H  H14  1  0.89092000  0.29898000  0.82640000  1.0
  H  H15  1  0.67920000  0.43775000  0.82444000  1.0
  H  H16  1  0.37577000  0.11038000  0.21580000  1.0
  H  H17  1  0.24602000  0.24251000  0.31027000  1.0
  H  H18  1  0.11737000  0.11924000  0.32579000  1.0
  H  H19  1  0.21658000  0.87894000  0.34890000  1.0
  H  H20  1  0.47772000  0.76725000  0.32167000  1.0
  H  H21  1  0.43999000  0.91031000  0.22728000  1.0
  C  C22  1  0.62829000  0.72644000  0.50781000  1.0
  C  C23  1  0.87390000  0.50391000  0.27077000  1.0
  C  C24  1  0.37290000  0.27288000  0.48940000  1.0
  C  C25  1  0.12830000  0.49648000  0.72752000  1.0
  C  C26  1  0.94239000  0.50587000  0.12999000  1.0
  C  C27  1  0.05919000  0.49581000  0.86827000  1.0
  C  C28  1  0.11304000  0.56002000  0.05685000  1.0
  C  C29  1  0.88834000  0.44188000  0.94142000  1.0
  C  C30  1  0.16752000  0.55260000  0.92593000  1.0
  C  C31  1  0.83376000  0.44938000  0.07228000  1.0
  C  C32  1  0.56170000  0.86762000  0.50296000  1.0
  C  C33  1  0.61571000  0.92986000  0.58902000  1.0
  C  C34  1  0.45027000  0.93406000  0.41549000  1.0
  C  C35  1  0.72509000  0.86298000  0.68090000  1.0
  C  C36  1  0.76878000  0.92673000  0.76453000  1.0
  C  C37  1  0.43848000  0.13169000  0.49321000  1.0
  C  C38  1  0.38882000  0.06942000  0.40973000  1.0
  C  C39  1  0.55027000  0.06520000  0.58492000  1.0
  C  C40  1  0.59286000  0.12772000  0.67477000  1.0
  C  C41  1  0.70103000  0.06014000  0.76185000  1.0
  C  C42  1  0.22928000  0.62737000  0.11246000  1.0
  C  C43  1  0.77264000  0.37424000  0.88578000  1.0
  C  C44  1  0.27666000  0.13996000  0.31086000  1.0
  C  C45  1  0.39505000  0.86824000  0.32412000  1.0
  O  O46  1  0.47763000  0.66932000  0.53168000  1.0
  O  O47  1  0.02571000  0.48169000  0.32598000  1.0
  O  O48  1  0.16878000  0.32775000  0.51219000  1.0
  O  O49  1  0.33349000  0.47458000  0.67269000  1.0
  O  O50  1  0.52438000  0.32936000  0.46642000  1.0
  O  O51  1  0.97653000  0.51913000  0.67219000  1.0
  O  O52  1  0.83268000  0.67211000  0.48602000  1.0
  O  O53  1  0.66894000  0.52423000  0.32580000  1.0
  O  O54  1  0.24923000  0.56127000  0.44485000  1.0
  O  O55  1  0.75370000  0.43728000  0.55354000  1.0
