# generated using pymatgen
data_CuH6C7N4
_symmetry_space_group_name_H-M   'P 1'
_cell_length_a   7.31014000
_cell_length_b   7.45080000
_cell_length_c   7.45085000
_cell_angle_alpha   73.26400000
_cell_angle_beta   89.98540000
_cell_angle_gamma   89.98510000
_symmetry_Int_Tables_number   1
_chemical_formula_structural   CuH6C7N4
_chemical_formula_sum   'Cu2 H12 C14 N8'
_cell_volume   388.63102740
_cell_formula_units_Z   2
loop_
 _symmetry_equiv_pos_site_id
 _symmetry_equiv_pos_as_xyz
  1  'x, y, z'
loop_
 _atom_site_type_symbol
 _atom_site_label
 _atom_site_symmetry_multiplicity
 _atom_site_fract_x
 _atom_site_fract_y
 _atom_site_fract_z
 _atom_site_occupancy
  Cu  Cu0  1  0.00000000  0.50000000  0.50000000  1.0
  Cu  Cu1  1  0.50000000  0.50000000  0.50000000  1.0
  H  H2  1  0.95391000  0.06736000  0.66789000  1.0
  H  H3  1  0.45375000  0.93265000  0.33218000  1.0
  H  H4  1  0.54625000  0.66782000  0.06735000  1.0
  H  H5  1  0.04609000  0.33212000  0.93265000  1.0
  H  H6  1  0.04609000  0.93264000  0.33211000  1.0
  H  H7  1  0.54625000  0.06735000  0.66781000  1.0
  H  H8  1  0.45375000  0.33219000  0.93265000  1.0
  H  H9  1  0.95391000  0.66788000  0.06736000  1.0
  H  H10  1  0.12940000  0.71191000  0.71191000  1.0
  H  H11  1  0.62916000  0.28814000  0.28813000  1.0
  H  H12  1  0.37084000  0.71186000  0.71187000  1.0
  H  H13  1  0.87060000  0.28809000  0.28809000  1.0
  C  C14  1  0.25012000  0.76717000  0.76718000  1.0
  C  C15  1  0.74988000  0.23283000  0.23282000  1.0
  C  C16  1  0.25011000  0.97734000  0.69471000  1.0
  C  C17  1  0.74989000  0.02266000  0.30529000  1.0
  C  C18  1  0.25011000  0.69471000  0.97734000  1.0
  C  C19  1  0.74989000  0.30529000  0.02266000  1.0
  C  C20  1  0.09921000  0.09834000  0.65524000  1.0
  C  C21  1  0.59905000  0.90164000  0.34481000  1.0
  C  C22  1  0.40095000  0.65519000  0.09836000  1.0
  C  C23  1  0.90079000  0.34477000  0.90165000  1.0
  C  C24  1  0.90079000  0.90166000  0.34477000  1.0
  C  C25  1  0.40095000  0.09836000  0.65519000  1.0
  C  C26  1  0.59905000  0.34481000  0.90164000  1.0
  C  C27  1  0.09921000  0.65523000  0.09835000  1.0
  N  N28  1  0.15870000  0.27766000  0.59385000  1.0
  N  N29  1  0.65860000  0.72233000  0.40617000  1.0
  N  N30  1  0.34140000  0.59383000  0.27767000  1.0
  N  N31  1  0.84130000  0.40615000  0.72234000  1.0
  N  N32  1  0.84130000  0.72234000  0.40615000  1.0
  N  N33  1  0.34140000  0.27767000  0.59383000  1.0
  N  N34  1  0.65861000  0.40617000  0.72233000  1.0
  N  N35  1  0.15870000  0.59385000  0.27766000  1.0
