# generated using pymatgen
data_Cu3H18(C3N)7
_symmetry_space_group_name_H-M   'P 1'
_cell_length_a   29.99770000
_cell_length_b   30.04790000
_cell_length_c   30.20310000
_cell_angle_alpha   89.88890000
_cell_angle_beta   89.73140000
_cell_angle_gamma   90.83260000
_symmetry_Int_Tables_number   1
_chemical_formula_structural   Cu3H18(C3N)7
_chemical_formula_sum   'Cu12 H72 C84 N28'
_cell_volume   27220.87617263
_cell_formula_units_Z   4
loop_
 _symmetry_equiv_pos_site_id
 _symmetry_equiv_pos_as_xyz
  1  'x, y, z'
loop_
 _atom_site_type_symbol
 _atom_site_label
 _atom_site_symmetry_multiplicity
 _atom_site_fract_x
 _atom_site_fract_y
 _atom_site_fract_z
 _atom_site_occupancy
  Cu  Cu0  1  0.56968000  0.60652000  0.66228000  1.0
  Cu  Cu1  1  0.61443000  0.65456000  0.57920000  1.0
  Cu  Cu2  1  0.64827000  0.55975000  0.61133000  1.0
  Cu  Cu3  1  0.91783000  0.38474000  0.17373000  1.0
  Cu  Cu4  1  0.88365000  0.34428000  0.08336000  1.0
  Cu  Cu5  1  0.84344000  0.43499000  0.11992000  1.0
  Cu  Cu6  1  0.42913000  0.11297000  0.84923000  1.0
  Cu  Cu7  1  0.39093000  0.15390000  0.93807000  1.0
  Cu  Cu8  1  0.33612000  0.07857000  0.88885000  1.0
  Cu  Cu9  1  0.07662000  0.89127000  0.34988000  1.0
  Cu  Cu10  1  0.11470000  0.85067000  0.43831000  1.0
  Cu  Cu11  1  0.17053000  0.92519000  0.38745000  1.0
  H  H12  1  0.50125000  0.68007000  0.69242000  1.0
  H  H13  1  0.56022000  0.74477000  0.57750000  1.0
  H  H14  1  0.66465000  0.47672000  0.67458000  1.0
  H  H15  1  0.54892000  0.53451000  0.73731000  1.0
  H  H16  1  0.67848000  0.67127000  0.49679000  1.0
  H  H17  1  0.71630000  0.53770000  0.53393000  1.0
  H  H18  1  0.97966000  0.30637000  0.20706000  1.0
  H  H19  1  0.94427000  0.25847000  0.07641000  1.0
  H  H20  1  0.83215000  0.52165000  0.17914000  1.0
  H  H21  1  0.94191000  0.45801000  0.24574000  1.0
  H  H22  1  0.82777000  0.33237000  0.99548000  1.0
  H  H23  1  0.77422000  0.45640000  0.04383000  1.0
  H  H24  1  0.51681000  0.17277000  0.83679000  1.0
  H  H25  1  0.47243000  0.21623000  0.96621000  1.0
  H  H26  1  0.30803000  0.00828000  0.81579000  1.0
  H  H27  1  0.43549000  0.05331000  0.76296000  1.0
  H  H28  1  0.31812000  0.18633000  0.00738000  1.0
  H  H29  1  0.24768000  0.07517000  0.94722000  1.0
  H  H30  1  0.99001000  0.83017000  0.33717000  1.0
  H  H31  1  0.03559000  0.78422000  0.46508000  1.0
  H  H32  1  0.19917000  0.99330000  0.31180000  1.0
  H  H33  1  0.06901000  0.95168000  0.26442000  1.0
  H  H34  1  0.18508000  0.82133000  0.51019000  1.0
  H  H35  1  0.25847000  0.92890000  0.44608000  1.0
  H  H36  1  0.01412000  0.20875000  0.08512000  1.0
  H  H37  1  0.05602000  0.15768000  0.16429000  1.0
  H  H38  1  0.01322000  0.22260000  0.18619000  1.0
  H  H39  1  0.07147000  0.15060000  0.06297000  1.0
  H  H40  1  0.48741000  0.79416000  0.58208000  1.0
  H  H41  1  0.44395000  0.84172000  0.66284000  1.0
  H  H42  1  0.47832000  0.77024000  0.68094000  1.0
  H  H43  1  0.43192000  0.85474000  0.56182000  1.0
  H  H44  1  0.94256000  0.75645000  0.33809000  1.0
  H  H45  1  0.88962000  0.70476000  0.41145000  1.0
  H  H46  1  0.95263000  0.74928000  0.43931000  1.0
  H  H47  1  0.88834000  0.69768000  0.30906000  1.0
  H  H48  1  0.56353000  0.24663000  0.83839000  1.0
  H  H49  1  0.61961000  0.29491000  0.91103000  1.0
  H  H50  1  0.55719000  0.24914000  0.94019000  1.0
  H  H51  1  0.61619000  0.30616000  0.80903000  1.0
  H  H52  1  0.07585000  0.02165000  0.21397000  1.0
  H  H53  1  0.15468000  0.06427000  0.16037000  1.0
  H  H54  1  0.17764000  0.02474000  0.22693000  1.0
  H  H55  1  0.05271000  0.07848000  0.15518000  1.0
  H  H56  1  0.67283000  0.43677000  0.75332000  1.0
  H  H57  1  0.60139000  0.38639000  0.81054000  1.0
  H  H58  1  0.57240000  0.44979000  0.76953000  1.0
  H  H59  1  0.70463000  0.38477000  0.81293000  1.0
  H  H60  1  0.42944000  0.98140000  0.71462000  1.0
  H  H61  1  0.35013000  0.93957000  0.66200000  1.0
  H  H62  1  0.32780000  0.97796000  0.72956000  1.0
  H  H63  1  0.45182000  0.92374000  0.65547000  1.0
  H  H64  1  0.82704000  0.56559000  0.25671000  1.0
  H  H65  1  0.90234000  0.61548000  0.30850000  1.0
  H  H66  1  0.92687000  0.54789000  0.27033000  1.0
  H  H67  1  0.79943000  0.61934000  0.31571000  1.0
  H  H68  1  0.20040000  0.07847000  0.02267000  1.0
  H  H69  1  0.15449000  0.15980000  0.06683000  1.0
  H  H70  1  0.22633000  0.17767000  0.03049000  1.0
  H  H71  1  0.14126000  0.05823000  0.08046000  1.0
  H  H72  1  0.75074000  0.67107000  0.45058000  1.0
  H  H73  1  0.79896000  0.60012000  0.39321000  1.0
  H  H74  1  0.75354000  0.56864000  0.45350000  1.0
  H  H75  1  0.81026000  0.70274000  0.39809000  1.0
  H  H76  1  0.75554000  0.32999000  0.94787000  1.0
  H  H77  1  0.70507000  0.40200000  0.89394000  1.0
  H  H78  1  0.74511000  0.43123000  0.95855000  1.0
  H  H79  1  0.69769000  0.29903000  0.89411000  1.0
  H  H80  1  0.30419000  0.92760000  0.52315000  1.0
  H  H81  1  0.34854000  0.84593000  0.56815000  1.0
  H  H82  1  0.27674000  0.82895000  0.53308000  1.0
  H  H83  1  0.36346000  0.94722000  0.58181000  1.0
  C  C84  1  0.52027000  0.68975000  0.66319000  1.0
  C  C85  1  0.51819000  0.72913000  0.63805000  1.0
  C  C86  1  0.54968000  0.72253000  0.60404000  1.0
  C  C87  1  0.63690000  0.49696000  0.68525000  1.0
  C  C88  1  0.60675000  0.49034000  0.72063000  1.0
  C  C89  1  0.57727000  0.52611000  0.71663000  1.0
  C  C90  1  0.68335000  0.63903000  0.51217000  1.0
  C  C91  1  0.71130000  0.60404000  0.49928000  1.0
  C  C92  1  0.70207000  0.57058000  0.53081000  1.0
  C  C93  1  0.96632000  0.30077000  0.17414000  1.0
  C  C94  1  0.97493000  0.26594000  0.14435000  1.0
  C  C95  1  0.94888000  0.27654000  0.10719000  1.0
  C  C96  1  0.85786000  0.49971000  0.19121000  1.0
  C  C97  1  0.88860000  0.50617000  0.22579000  1.0
  C  C98  1  0.91451000  0.46753000  0.22453000  1.0
  C  C99  1  0.81877000  0.36203000  0.01373000  1.0
  C  C100  1  0.78790000  0.39521000  0.00306000  1.0
  C  C101  1  0.79208000  0.42575000  0.03812000  1.0
  C  C102  1  0.49946000  0.17923000  0.86769000  1.0
  C  C103  1  0.51137000  0.20777000  0.90278000  1.0
  C  C104  1  0.47710000  0.20077000  0.93409000  1.0
  C  C105  1  0.34013000  0.02405000  0.80890000  1.0
  C  C106  1  0.36937000  0.01755000  0.77299000  1.0
  C  C107  1  0.40554000  0.04642000  0.78225000  1.0
  C  C108  1  0.30702000  0.15790000  0.98799000  1.0
  C  C109  1  0.26630000  0.13411000  0.99008000  1.0
  C  C110  1  0.27130000  0.10059000  0.95799000  1.0
  C  C111  1  0.00747000  0.82333000  0.36778000  1.0
  C  C112  1  0.99645000  0.79333000  0.40218000  1.0
  C  C113  1  0.03048000  0.80048000  0.43340000  1.0
  C  C114  1  0.16646000  0.97841000  0.30635000  1.0
  C  C115  1  0.13640000  0.98556000  0.27151000  1.0
  C  C116  1  0.09972000  0.95778000  0.28241000  1.0
  C  C117  1  0.19699000  0.84881000  0.48972000  1.0
  C  C118  1  0.23802000  0.87202000  0.49125000  1.0
  C  C119  1  0.23420000  0.90434000  0.45770000  1.0
  C  C120  1  0.00408000  0.22887000  0.15169000  1.0
  C  C121  1  0.02160000  0.20213000  0.11997000  1.0
  C  C122  1  0.05055000  0.16585000  0.12944000  1.0
  C  C123  1  0.07237000  0.14193000  0.09810000  1.0
  C  C124  1  0.49039000  0.76701000  0.64683000  1.0
  C  C125  1  0.47753000  0.79799000  0.61681000  1.0
  C  C126  1  0.45022000  0.83525000  0.62774000  1.0
  C  C127  1  0.43050000  0.86178000  0.59727000  1.0
  C  C128  1  0.95983000  0.76178000  0.40590000  1.0
  C  C129  1  0.93481000  0.74562000  0.37195000  1.0
  C  C130  1  0.89919000  0.71373000  0.37755000  1.0
  C  C131  1  0.87785000  0.69307000  0.34348000  1.0
  C  C132  1  0.54877000  0.23833000  0.90661000  1.0
  C  C133  1  0.57274000  0.25578000  0.87227000  1.0
  C  C134  1  0.60861000  0.28733000  0.87736000  1.0
  C  C135  1  0.62824000  0.30950000  0.84295000  1.0
  C  C136  1  0.14313000  0.01443000  0.23376000  1.0
  C  C137  1  0.11077000  0.03011000  0.20676000  1.0
  C  C138  1  0.11972000  0.05843000  0.16945000  1.0
  C  C139  1  0.08790000  0.07946000  0.14569000  1.0
  C  C140  1  0.60490000  0.45550000  0.75365000  1.0
  C  C141  1  0.63954000  0.43022000  0.76716000  1.0
  C  C142  1  0.63517000  0.39559000  0.79974000  1.0
  C  C143  1  0.67000000  0.37449000  0.81879000  1.0
  C  C144  1  0.36235000  0.98845000  0.73562000  1.0
  C  C145  1  0.39448000  0.97288000  0.70803000  1.0
  C  C146  1  0.38517000  0.94483000  0.67077000  1.0
  C  C147  1  0.41659000  0.92357000  0.64644000  1.0
  C  C148  1  0.89369000  0.54317000  0.25595000  1.0
  C  C149  1  0.86101000  0.57125000  0.26882000  1.0
  C  C150  1  0.86795000  0.60699000  0.29961000  1.0
  C  C151  1  0.83440000  0.62903000  0.31996000  1.0
  C  C152  1  0.22871000  0.14339000  0.01855000  1.0
  C  C153  1  0.19721000  0.11341000  0.03233000  1.0
  C  C154  1  0.16051000  0.12450000  0.06072000  1.0
  C  C155  1  0.13432000  0.09380000  0.08183000  1.0
  C  C156  1  0.74262000  0.60193000  0.46295000  1.0
  C  C157  1  0.76009000  0.63744000  0.44054000  1.0
  C  C158  1  0.79144000  0.63365000  0.40488000  1.0
  C  C159  1  0.81322000  0.66877000  0.38569000  1.0
  C  C160  1  0.75823000  0.39818000  0.96570000  1.0
  C  C161  1  0.74438000  0.36363000  0.93998000  1.0
  C  C162  1  0.71383000  0.36824000  0.90396000  1.0
  C  C163  1  0.69351000  0.33340000  0.88323000  1.0
  C  C164  1  0.27498000  0.86301000  0.52030000  1.0
  C  C165  1  0.30673000  0.89277000  0.53351000  1.0
  C  C166  1  0.34304000  0.88132000  0.56194000  1.0
  C  C167  1  0.36971000  0.91150000  0.58286000  1.0
  N  N168  1  0.56878000  0.68245000  0.60881000  1.0
  N  N169  1  0.55028000  0.66193000  0.64539000  1.0
  N  N170  1  0.58924000  0.55212000  0.68203000  1.0
  N  N171  1  0.62606000  0.53379000  0.66234000  1.0
  N  N172  1  0.67150000  0.58475000  0.56026000  1.0
  N  N173  1  0.65966000  0.62718000  0.54846000  1.0
  N  N174  1  0.92681000  0.31461000  0.11452000  1.0
  N  N175  1  0.93788000  0.32987000  0.15598000  1.0
  N  N176  1  0.90002000  0.44017000  0.19217000  1.0
  N  N177  1  0.86507000  0.46035000  0.17122000  1.0
  N  N178  1  0.82260000  0.41161000  0.06740000  1.0
  N  N179  1  0.83939000  0.37217000  0.05205000  1.0
  N  N180  1  0.44696000  0.17100000  0.91859000  1.0
  N  N181  1  0.46108000  0.15737000  0.87748000  1.0
  N  N182  1  0.39819000  0.06816000  0.82054000  1.0
  N  N183  1  0.35769000  0.05405000  0.83728000  1.0
  N  N184  1  0.31176000  0.10433000  0.93857000  1.0
  N  N185  1  0.33411000  0.13970000  0.95746000  1.0
  N  N186  1  0.05956000  0.83177000  0.41854000  1.0
  N  N187  1  0.04507000  0.84617000  0.37791000  1.0
  N  N188  1  0.10757000  0.93602000  0.32060000  1.0
  N  N189  1  0.14893000  0.94905000  0.33566000  1.0
  N  N190  1  0.19408000  0.90042000  0.43797000  1.0
  N  N191  1  0.17082000  0.86617000  0.45812000  1.0
  N  N192  1  0.09713000  0.10423000  0.10753000  1.0
  N  N193  1  0.40679000  0.89991000  0.60792000  1.0
  N  N194  1  0.84094000  0.66479000  0.34877000  1.0
  N  N195  1  0.66496000  0.33807000  0.84726000  1.0
