# generated using pymatgen
data_NiH28C34N4(ClO2)2
_symmetry_space_group_name_H-M   'P 1'
_cell_length_a   11.94490000
_cell_length_b   11.94890000
_cell_length_c   13.12580000
_cell_angle_alpha   68.80090000
_cell_angle_beta   68.80390000
_cell_angle_gamma   62.65030000
_symmetry_Int_Tables_number   1
_chemical_formula_structural   NiH28C34N4(ClO2)2
_chemical_formula_sum   'Ni2 H56 C68 N8 Cl4 O8'
_cell_volume   1507.58644185
_cell_formula_units_Z   2
loop_
 _symmetry_equiv_pos_site_id
 _symmetry_equiv_pos_as_xyz
  1  'x, y, z'
loop_
 _atom_site_type_symbol
 _atom_site_label
 _atom_site_symmetry_multiplicity
 _atom_site_fract_x
 _atom_site_fract_y
 _atom_site_fract_z
 _atom_site_occupancy
  Ni  Ni0  1  0.95566000  0.04432000  0.25003000  1.0
  Ni  Ni1  1  0.04549000  0.95452000  0.75006000  1.0
  H  H2  1  0.03823000  0.85712000  0.46110000  1.0
  H  H3  1  0.14292000  0.96157000  0.03894000  1.0
  H  H4  1  0.96133000  0.14252000  0.53720000  1.0
  H  H5  1  0.85739000  0.03886000  0.96287000  1.0
  H  H6  1  0.71293000  0.85915000  0.54489000  1.0
  H  H7  1  0.14094000  0.28710000  0.95484000  1.0
  H  H8  1  0.28670000  0.14039000  0.45525000  1.0
  H  H9  1  0.85987000  0.71311000  0.04468000  1.0
  H  H10  1  0.54321000  0.39041000  0.35348000  1.0
  H  H11  1  0.60958000  0.45687000  0.14656000  1.0
  H  H12  1  0.45611000  0.61023000  0.64598000  1.0
  H  H13  1  0.38976000  0.54399000  0.85395000  1.0
  H  H14  1  0.50916000  0.79611000  0.36821000  1.0
  H  H15  1  0.20389000  0.49076000  0.13186000  1.0
  H  H16  1  0.48957000  0.20495000  0.63189000  1.0
  H  H17  1  0.79497000  0.51039000  0.86809000  1.0
  H  H18  1  0.35224000  0.59600000  0.37039000  1.0
  H  H19  1  0.40397000  0.64782000  0.12954000  1.0
  H  H20  1  0.64710000  0.40466000  0.62906000  1.0
  H  H21  1  0.59532000  0.35297000  0.87103000  1.0
  H  H22  1  0.21959000  0.13899000  0.11495000  1.0
  H  H23  1  0.86112000  0.78017000  0.38519000  1.0
  H  H24  1  0.78062000  0.86054000  0.88329000  1.0
  H  H25  1  0.13952000  0.21949000  0.61670000  1.0
  H  H26  1  0.18803000  0.71149000  0.57902000  1.0
  H  H27  1  0.28842000  0.81199000  0.92098000  1.0
  H  H28  1  0.81156000  0.28917000  0.42029000  1.0
  H  H29  1  0.71078000  0.18856000  0.07975000  1.0
  H  H30  1  0.28597000  0.78454000  0.57741000  1.0
  H  H31  1  0.21536000  0.71407000  0.92255000  1.0
  H  H32  1  0.71336000  0.21664000  0.42145000  1.0
  H  H33  1  0.78346000  0.28661000  0.07859000  1.0
  H  H34  1  0.68834000  0.84543000  0.24448000  1.0
  H  H35  1  0.15439000  0.31168000  0.25551000  1.0
  H  H36  1  0.31080000  0.15480000  0.75572000  1.0
  H  H37  1  0.84516000  0.68907000  0.74434000  1.0
  H  H38  1  0.64995000  0.01388000  0.18634000  1.0
  H  H39  1  0.98587000  0.35021000  0.31367000  1.0
  H  H40  1  0.34966000  0.98629000  0.81387000  1.0
  H  H41  1  0.01376000  0.65023000  0.68617000  1.0
  H  H42  1  0.68241000  0.91238000  0.10080000  1.0
  H  H43  1  0.08750000  0.31754000  0.39922000  1.0
  H  H44  1  0.31712000  0.08797000  0.89927000  1.0
  H  H45  1  0.91199000  0.68283000  0.60076000  1.0
  H  H46  1  0.49009000  0.19952000  0.07547000  1.0
  H  H47  1  0.80027000  0.50998000  0.42470000  1.0
  H  H48  1  0.50976000  0.80049000  0.92447000  1.0
  H  H49  1  0.19962000  0.49022000  0.57550000  1.0
  H  H50  1  0.38784000  0.20961000  0.99990000  1.0
  H  H51  1  0.79033000  0.61221000  0.50013000  1.0
  H  H52  1  0.61217000  0.79090000  0.99958000  1.0
  H  H53  1  0.20914000  0.38787000  0.50040000  1.0
  H  H54  1  0.54754000  0.09020000  0.98968000  1.0
  H  H55  1  0.90961000  0.45253000  0.51049000  1.0
  H  H56  1  0.45240000  0.91012000  0.00991000  1.0
  H  H57  1  0.08991000  0.54759000  0.49009000  1.0
  C  C58  1  0.61307000  0.02298000  0.42929000  1.0
  C  C59  1  0.97707000  0.38693000  0.07050000  1.0
  C  C60  1  0.38681000  0.97585000  0.57070000  1.0
  C  C61  1  0.02441000  0.61306000  0.92917000  1.0
  C  C62  1  0.74013000  0.03523000  0.36235000  1.0
  C  C63  1  0.96473000  0.25995000  0.13762000  1.0
  C  C64  1  0.26126000  0.96251000  0.64088000  1.0
  C  C65  1  0.03769000  0.73865000  0.85911000  1.0
  C  C66  1  0.31567000  0.88969000  0.33762000  1.0
  C  C67  1  0.11033000  0.68421000  0.16244000  1.0
  C  C68  1  0.68368000  0.11071000  0.66141000  1.0
  C  C69  1  0.88926000  0.31636000  0.83860000  1.0
  C  C70  1  0.49064000  0.10382000  0.40542000  1.0
  C  C71  1  0.89628000  0.50933000  0.09435000  1.0
  C  C72  1  0.50942000  0.89476000  0.59429000  1.0
  C  C73  1  0.10542000  0.49049000  0.90555000  1.0
  C  C74  1  0.11851000  0.88508000  0.40516000  1.0
  C  C75  1  0.11495000  0.88133000  0.09493000  1.0
  C  C76  1  0.88118000  0.11440000  0.59332000  1.0
  C  C77  1  0.88555000  0.11894000  0.90672000  1.0
  C  C78  1  0.61892000  0.91975000  0.52475000  1.0
  C  C79  1  0.08034000  0.38104000  0.97504000  1.0
  C  C80  1  0.38081000  0.07911000  0.47513000  1.0
  C  C81  1  0.92110000  0.61909000  0.02471000  1.0
  C  C82  1  0.23387000  0.98369000  0.26564000  1.0
  C  C83  1  0.01637000  0.76598000  0.23446000  1.0
  C  C84  1  0.76597000  0.01601000  0.73274000  1.0
  C  C85  1  0.98398000  0.23408000  0.76726000  1.0
  C  C86  1  0.39135000  0.61614000  0.51002000  1.0
  C  C87  1  0.38386000  0.60871000  0.98993000  1.0
  C  C88  1  0.60813000  0.38468000  0.48925000  1.0
  C  C89  1  0.61530000  0.39194000  0.01079000  1.0
  C  C90  1  0.52433000  0.43950000  0.41716000  1.0
  C  C91  1  0.56052000  0.47573000  0.08285000  1.0
  C  C92  1  0.47513000  0.56132000  0.58213000  1.0
  C  C93  1  0.43867000  0.52497000  0.91782000  1.0
  C  C94  1  0.44602000  0.87096000  0.31370000  1.0
  C  C95  1  0.12903000  0.55391000  0.18636000  1.0
  C  C96  1  0.55314000  0.12974000  0.68591000  1.0
  C  C97  1  0.87022000  0.44685000  0.81409000  1.0
  C  C98  1  0.41692000  0.55452000  0.42702000  1.0
  C  C99  1  0.44548000  0.58312000  0.07295000  1.0
  C  C100  1  0.58252000  0.44627000  0.57229000  1.0
  C  C101  1  0.55370000  0.41757000  0.92773000  1.0
  C  C102  1  0.49447000  0.95045000  0.21701000  1.0
  C  C103  1  0.04951000  0.50546000  0.28304000  1.0
  C  C104  1  0.50496000  0.05003000  0.78266000  1.0
  C  C105  1  0.94996000  0.49502000  0.71735000  1.0
  C  C106  1  0.28191000  0.06531000  0.17036000  1.0
  C  C107  1  0.93476000  0.71791000  0.32975000  1.0
  C  C108  1  0.71802000  0.93450000  0.82823000  1.0
  C  C109  1  0.06552000  0.28204000  0.67178000  1.0
  C  C110  1  0.41091000  0.05055000  0.14710000  1.0
  C  C111  1  0.94943000  0.58899000  0.35297000  1.0
  C  C112  1  0.58880000  0.94971000  0.85220000  1.0
  C  C113  1  0.05033000  0.41121000  0.64781000  1.0
  C  C114  1  0.27284000  0.73643000  0.52811000  1.0
  C  C115  1  0.26352000  0.72716000  0.97186000  1.0
  C  C116  1  0.72658000  0.26437000  0.47103000  1.0
  C  C117  1  0.73561000  0.27350000  0.02902000  1.0
  C  C118  1  0.63563000  0.92940000  0.18605000  1.0
  C  C119  1  0.07045000  0.36438000  0.31398000  1.0
  C  C120  1  0.36380000  0.07093000  0.81402000  1.0
  C  C121  1  0.92907000  0.63613000  0.68600000  1.0
  C  C122  1  0.46159000  0.14176000  0.04782000  1.0
  C  C123  1  0.85814000  0.53843000  0.45227000  1.0
  C  C124  1  0.53828000  0.85855000  0.95174000  1.0
  C  C125  1  0.14150000  0.46172000  0.54825000  1.0
  N  N126  1  0.11129000  0.97707000  0.31017000  1.0
  N  N127  1  0.02301000  0.88853000  0.18995000  1.0
  N  N128  1  0.88882000  0.02205000  0.68786000  1.0
  N  N129  1  0.97793000  0.11128000  0.81218000  1.0
  N  N130  1  0.23888000  0.82913000  0.42537000  1.0
  N  N131  1  0.17083000  0.76102000  0.07464000  1.0
  N  N132  1  0.76043000  0.17134000  0.57363000  1.0
  N  N133  1  0.82861000  0.23966000  0.92640000  1.0
  Cl  Cl134  1  0.46779000  0.23763000  0.29284000  1.0
  Cl  Cl135  1  0.76239000  0.53226000  0.20686000  1.0
  Cl  Cl136  1  0.53387000  0.76057000  0.70636000  1.0
  Cl  Cl137  1  0.23966000  0.46614000  0.79350000  1.0
  O  O138  1  0.83222000  0.98418000  0.41245000  1.0
  O  O139  1  0.01583000  0.16768000  0.08774000  1.0
  O  O140  1  0.16448000  0.01577000  0.59526000  1.0
  O  O141  1  0.98442000  0.83533000  0.90481000  1.0
  O  O142  1  0.75802000  0.09112000  0.25792000  1.0
  O  O143  1  0.90871000  0.24227000  0.24202000  1.0
  O  O144  1  0.24854000  0.90291000  0.74389000  1.0
  O  O145  1  0.09718000  0.75154000  0.75607000  1.0
