# generated using pymatgen
data_Cu2H4C5SNCl
_symmetry_space_group_name_H-M   'P 1'
_cell_length_a   3.86588000
_cell_length_b   7.85317000
_cell_length_c   11.13180000
_cell_angle_alpha   89.99980000
_cell_angle_beta   85.46260000
_cell_angle_gamma   89.99970000
_symmetry_Int_Tables_number   1
_chemical_formula_structural   Cu2H4C5SNCl
_chemical_formula_sum   'Cu4 H8 C10 S2 N2 Cl2'
_cell_volume   336.89572969
_cell_formula_units_Z   2
loop_
 _symmetry_equiv_pos_site_id
 _symmetry_equiv_pos_as_xyz
  1  'x, y, z'
loop_
 _atom_site_type_symbol
 _atom_site_label
 _atom_site_symmetry_multiplicity
 _atom_site_fract_x
 _atom_site_fract_y
 _atom_site_fract_z
 _atom_site_occupancy
  Cu  Cu0  1  0.55845000  0.37638000  0.16273000  1.0
  Cu  Cu1  1  0.55845000  0.62362000  0.66273000  1.0
  Cu  Cu2  1  0.14802000  0.48927000  0.37410000  1.0
  Cu  Cu3  1  0.14802000  0.51073000  0.87409000  1.0
  H  H4  1  0.89428000  0.68529000  0.18216000  1.0
  H  H5  1  0.89427000  0.31471000  0.68216000  1.0
  H  H6  1  0.82639000  0.98686000  0.12486000  1.0
  H  H7  1  0.82638000  0.01315000  0.62485000  1.0
  H  H8  1  0.30028000  0.12834000  0.44931000  1.0
  H  H9  1  0.30028000  0.87165000  0.94931000  1.0
  H  H10  1  0.34167000  0.81734000  0.49600000  1.0
  H  H11  1  0.34167000  0.18265000  0.99600000  1.0
  C  C12  1  0.98040000  0.78631000  0.23978000  1.0
  C  C13  1  0.98039000  0.21370000  0.73978000  1.0
  C  C14  1  0.94371000  0.95515000  0.20772000  1.0
  C  C15  1  0.94370000  0.04485000  0.70772000  1.0
  C  C16  1  0.06136000  0.08320000  0.28230000  1.0
  C  C17  1  0.06135000  0.91680000  0.78230000  1.0
  C  C18  1  0.20595000  0.03317000  0.38852000  1.0
  C  C19  1  0.20594000  0.96683000  0.88851000  1.0
  C  C20  1  0.23024000  0.86074000  0.41412000  1.0
  C  C21  1  0.23024000  0.13926000  0.91412000  1.0
  S  S22  1  0.04054000  0.29806000  0.23739000  1.0
  S  S23  1  0.04054000  0.70195000  0.73739000  1.0
  N  N24  1  0.12153000  0.73683000  0.34168000  1.0
  N  N25  1  0.12153000  0.26317000  0.84168000  1.0
  Cl  Cl26  1  0.56941000  0.56350000  0.01034000  1.0
  Cl  Cl27  1  0.56941000  0.43649000  0.51034000  1.0
