# generated using pymatgen
data_LiBH13C4NO
_symmetry_space_group_name_H-M   'P 1'
_cell_length_a   8.74643000
_cell_length_b   9.38370000
_cell_length_c   10.38367660
_cell_angle_alpha   81.30955042
_cell_angle_beta   65.35163417
_cell_angle_gamma   63.89470000
_symmetry_Int_Tables_number   1
_chemical_formula_structural   LiBH13C4NO
_chemical_formula_sum   'Li4 B4 H52 C16 N4 O4'
_cell_volume   695.01142536
_cell_formula_units_Z   4
loop_
 _symmetry_equiv_pos_site_id
 _symmetry_equiv_pos_as_xyz
  1  'x, y, z'
loop_
 _atom_site_type_symbol
 _atom_site_label
 _atom_site_symmetry_multiplicity
 _atom_site_fract_x
 _atom_site_fract_y
 _atom_site_fract_z
 _atom_site_occupancy
  Li  Li0  1  0.50640000  0.35842000  0.64450000  1.0
  Li  Li1  1  0.49360000  0.64158000  0.35550000  1.0
  Li  Li2  1  0.32036000  0.93329000  0.61893000  1.0
  Li  Li3  1  0.67965000  0.06671000  0.38107000  1.0
  B  B4  1  0.31394000  0.66946000  0.63368000  1.0
  B  B5  1  0.68606000  0.33054000  0.36632000  1.0
  B  B6  1  0.49529000  0.09339000  0.65463000  1.0
  B  B7  1  0.50471000  0.90662000  0.34537000  1.0
  H  H8  1  0.85961000  0.03573000  0.67011000  1.0
  H  H9  1  0.14039000  0.96426000  0.32989000  1.0
  H  H10  1  0.66585000  0.78153000  0.70216000  1.0
  H  H11  1  0.33414000  0.21847000  0.29784000  1.0
  H  H12  1  0.48318000  0.76853000  0.85898000  1.0
  H  H13  1  0.51682000  0.23148000  0.14102000  1.0
  H  H14  1  0.98479000  0.20548000  0.48967000  1.0
  H  H15  1  0.01521000  0.79453000  0.51033000  1.0
  H  H16  1  0.86718000  0.43331000  0.73212000  1.0
  H  H17  1  0.13282000  0.56669000  0.26789000  1.0
  H  H18  1  0.65086000  0.01284000  0.56840000  1.0
  H  H19  1  0.34914000  0.98716000  0.43160000  1.0
  H  H20  1  0.60653000  0.19914000  0.88363000  1.0
  H  H21  1  0.39348000  0.80085000  0.11637000  1.0
  H  H22  1  0.13193000  0.26857000  0.52278000  1.0
  H  H23  1  0.86806000  0.73143000  0.47723000  1.0
  H  H24  1  0.07554000  0.44795000  0.83608000  1.0
  H  H25  1  0.92446000  0.55205000  0.16392000  1.0
  H  H26  1  0.46624000  0.66564000  0.60919000  1.0
  H  H27  1  0.53376000  0.33436000  0.39081000  1.0
  H  H28  1  0.93433000  0.98263000  0.81369000  1.0
  H  H29  1  0.06568000  0.01737000  0.18630000  1.0
  H  H30  1  0.28451000  0.11354000  0.94625000  1.0
  H  H31  1  0.71548000  0.88647000  0.05375000  1.0
  H  H32  1  0.19122000  0.80450000  0.67635000  1.0
  H  H33  1  0.80878000  0.19550000  0.32365000  1.0
  H  H34  1  0.30711000  0.64014000  0.52555000  1.0
  H  H35  1  0.69290000  0.35986000  0.47445000  1.0
  H  H36  1  0.51535000  0.17013000  0.72889000  1.0
  H  H37  1  0.48465000  0.82987000  0.27111000  1.0
  H  H38  1  0.75915000  0.26598000  0.90393000  1.0
  H  H39  1  0.24086000  0.73401000  0.09607000  1.0
  H  H40  1  0.23394000  0.48788000  0.95640000  1.0
  H  H41  1  0.76606000  0.51212000  0.04360000  1.0
  H  H42  1  0.14728000  0.16997000  0.84380000  1.0
  H  H43  1  0.85272000  0.83004000  0.15619000  1.0
  H  H44  1  0.79915000  0.48222000  0.58448000  1.0
  H  H45  1  0.20085000  0.51778000  0.41553000  1.0
  H  H46  1  0.39560000  0.18616000  0.59478000  1.0
  H  H47  1  0.60440000  0.81384000  0.40522000  1.0
  H  H48  1  0.17903000  0.99094000  0.93765000  1.0
  H  H49  1  0.82097000  0.00907000  0.06234000  1.0
  H  H50  1  0.11446000  0.50645000  0.65758000  1.0
  H  H51  1  0.88554000  0.49355000  0.34242000  1.0
  H  H52  1  0.14078000  0.69651000  0.92921000  1.0
  H  H53  1  0.85922000  0.30349000  0.07079000  1.0
  H  H54  1  0.97824000  0.65366000  0.79912000  1.0
  H  H55  1  0.02176000  0.34634000  0.20088000  1.0
  H  H56  1  0.59284000  0.89038000  0.85950000  1.0
  H  H57  1  0.40716000  0.10963000  0.14050000  1.0
  H  H58  1  0.38612000  0.58331000  0.87083000  1.0
  H  H59  1  0.61388000  0.41669000  0.12917000  1.0
  C  C60  1  0.89358000  0.07840000  0.74365000  1.0
  C  C61  1  0.10642000  0.92160000  0.25635000  1.0
  C  C62  1  0.83980000  0.38781000  0.65586000  1.0
  C  C63  1  0.16021000  0.61219000  0.34414000  1.0
  C  C64  1  0.00913000  0.24292000  0.57250000  1.0
  C  C65  1  0.99087000  0.75708000  0.42750000  1.0
  C  C66  1  0.72888000  0.22429000  0.82733000  1.0
  C  C67  1  0.27113000  0.77570000  0.17267000  1.0
  C  C68  1  0.54400000  0.84953000  0.79497000  1.0
  C  C69  1  0.45600000  0.15047000  0.20503000  1.0
  C  C70  1  0.10175000  0.53852000  0.76019000  1.0
  C  C71  1  0.89825000  0.46148000  0.23982000  1.0
  C  C72  1  0.25735000  0.58033000  0.88163000  1.0
  C  C73  1  0.74264000  0.41967000  0.11838000  1.0
  C  C74  1  0.24770000  0.06800000  0.87555000  1.0
  C  C75  1  0.75230000  0.93201000  0.12444000  1.0
  N  N76  1  0.27144000  0.54704000  0.74350000  1.0
  N  N77  1  0.72857000  0.45296000  0.25650000  1.0
  N  N78  1  0.41022000  0.98187000  0.75014000  1.0
  N  N79  1  0.58978000  0.01813000  0.24986000  1.0
  O  O80  1  0.68320000  0.34996000  0.73275000  1.0
  O  O81  1  0.31680000  0.65004000  0.26726000  1.0
  O  O82  1  0.05227000  0.11375000  0.66460000  1.0
  O  O83  1  0.94773000  0.88625000  0.33540000  1.0
