# generated using pymatgen
data_ZnH14C8(NO3)2
_symmetry_space_group_name_H-M   'P 1'
_cell_length_a   7.82638000
_cell_length_b   9.84019000
_cell_length_c   15.42100000
_cell_angle_alpha   90.00000000
_cell_angle_beta   90.00000000
_cell_angle_gamma   90.00000000
_symmetry_Int_Tables_number   1
_chemical_formula_structural   ZnH14C8(NO3)2
_chemical_formula_sum   'Zn4 H56 C32 N8 O24'
_cell_volume   1187.61849406
_cell_formula_units_Z   4
loop_
 _symmetry_equiv_pos_site_id
 _symmetry_equiv_pos_as_xyz
  1  'x, y, z'
loop_
 _atom_site_type_symbol
 _atom_site_label
 _atom_site_symmetry_multiplicity
 _atom_site_fract_x
 _atom_site_fract_y
 _atom_site_fract_z
 _atom_site_occupancy
  Zn  Zn0  1  0.15874000  0.75000000  0.00000000  1.0
  Zn  Zn1  1  0.34127000  0.25000000  0.50000000  1.0
  Zn  Zn2  1  0.84127000  0.25000000  0.00000000  1.0
  Zn  Zn3  1  0.65874000  0.75000000  0.50000000  1.0
  H  H4  1  0.47221000  0.87461000  0.92981000  1.0
  H  H5  1  0.02779000  0.12539000  0.42981000  1.0
  H  H6  1  0.47221000  0.62539000  0.07019000  1.0
  H  H7  1  0.02779000  0.37461000  0.57019000  1.0
  H  H8  1  0.52779000  0.12539000  0.07019000  1.0
  H  H9  1  0.97221000  0.87461000  0.57019000  1.0
  H  H10  1  0.52779000  0.37461000  0.92981000  1.0
  H  H11  1  0.97221000  0.62539000  0.42981000  1.0
  H  H12  1  0.70326000  0.56831000  0.81759000  1.0
  H  H13  1  0.79674000  0.43169000  0.31759000  1.0
  H  H14  1  0.70326000  0.93169000  0.18241000  1.0
  H  H15  1  0.79674000  0.06831000  0.68241000  1.0
  H  H16  1  0.29674000  0.43169000  0.18241000  1.0
  H  H17  1  0.20326000  0.56831000  0.68241000  1.0
  H  H18  1  0.29674000  0.06831000  0.81759000  1.0
  H  H19  1  0.20326000  0.93169000  0.31759000  1.0
  H  H20  1  0.64555000  0.65981000  0.72073000  1.0
  H  H21  1  0.85445000  0.34019000  0.22073000  1.0
  H  H22  1  0.64555000  0.84019000  0.27927000  1.0
  H  H23  1  0.85446000  0.15981000  0.77927000  1.0
  H  H24  1  0.35446000  0.34019000  0.27927000  1.0
  H  H25  1  0.14555000  0.65981000  0.77927000  1.0
  H  H26  1  0.35445000  0.15981000  0.72073000  1.0
  H  H27  1  0.14555000  0.84019000  0.22073000  1.0
  H  H28  1  0.48356000  0.58359000  0.78621000  1.0
  H  H29  1  0.01644000  0.41641000  0.28621000  1.0
  H  H30  1  0.48356000  0.91641000  0.21379000  1.0
  H  H31  1  0.01644000  0.08359000  0.71379000  1.0
  H  H32  1  0.51644000  0.41641000  0.21379000  1.0
  H  H33  1  0.98356000  0.58359000  0.71379000  1.0
  H  H34  1  0.51644000  0.08359000  0.78621000  1.0
  H  H35  1  0.98356000  0.91641000  0.28621000  1.0
  H  H36  1  0.70089000  0.94960000  0.86662000  1.0
  H  H37  1  0.79911000  0.05040000  0.36662000  1.0
  H  H38  1  0.70089000  0.55040000  0.13338000  1.0
  H  H39  1  0.79911000  0.44960000  0.63338000  1.0
  H  H40  1  0.29911000  0.05040000  0.13338000  1.0
  H  H41  1  0.20089000  0.94960000  0.63338000  1.0
  H  H42  1  0.29911000  0.44960000  0.86662000  1.0
  H  H43  1  0.20089000  0.55040000  0.36662000  1.0
  H  H44  1  0.72495000  0.89411000  0.75672000  1.0
  H  H45  1  0.77505000  0.10589000  0.25672000  1.0
  H  H46  1  0.72495000  0.60589000  0.24328000  1.0
  H  H47  1  0.77505000  0.39411000  0.74328000  1.0
  H  H48  1  0.27505000  0.10589000  0.24328000  1.0
  H  H49  1  0.22495000  0.89411000  0.74328000  1.0
  H  H50  1  0.27505000  0.39411000  0.75672000  1.0
  H  H51  1  0.22495000  0.60589000  0.25672000  1.0
  H  H52  1  0.85033000  0.81748000  0.84086000  1.0
  H  H53  1  0.64966000  0.18252000  0.34086000  1.0
  H  H54  1  0.85033000  0.68252000  0.15914000  1.0
  H  H55  1  0.64966000  0.31748000  0.65913000  1.0
  H  H56  1  0.14966000  0.18252000  0.15914000  1.0
  H  H57  1  0.35034000  0.81748000  0.65913000  1.0
  H  H58  1  0.14966000  0.31748000  0.84087000  1.0
  H  H59  1  0.35034000  0.68252000  0.34087000  1.0
  C  C60  1  0.95068000  0.52068000  0.95799000  1.0
  C  C61  1  0.54932000  0.47932000  0.45799000  1.0
  C  C62  1  0.95068000  0.97932000  0.04201000  1.0
  C  C63  1  0.54932000  0.02068000  0.54201000  1.0
  C  C64  1  0.04932000  0.47932000  0.04201000  1.0
  C  C65  1  0.45068000  0.52068000  0.54201000  1.0
  C  C66  1  0.04932000  0.02068000  0.95799000  1.0
  C  C67  1  0.45068000  0.97932000  0.45799000  1.0
  C  C68  1  0.46993000  0.77606000  0.89593000  1.0
  C  C69  1  0.03007000  0.22394000  0.39593000  1.0
  C  C70  1  0.46993000  0.72394000  0.10407000  1.0
  C  C71  1  0.03007000  0.27606000  0.60407000  1.0
  C  C72  1  0.53007000  0.22394000  0.10407000  1.0
  C  C73  1  0.96993000  0.77606000  0.60407000  1.0
  C  C74  1  0.53007000  0.27606000  0.89593000  1.0
  C  C75  1  0.96993000  0.72394000  0.39593000  1.0
  C  C76  1  0.60744000  0.63492000  0.78731000  1.0
  C  C77  1  0.89256000  0.36508000  0.28731000  1.0
  C  C78  1  0.60744000  0.86508000  0.21269000  1.0
  C  C79  1  0.89256000  0.13492000  0.71269000  1.0
  C  C80  1  0.39256000  0.36508000  0.21269000  1.0
  C  C81  1  0.10744000  0.63492000  0.71269000  1.0
  C  C82  1  0.39256000  0.13492000  0.78731000  1.0
  C  C83  1  0.10744000  0.86508000  0.28731000  1.0
  C  C84  1  0.72538000  0.86152000  0.82484000  1.0
  C  C85  1  0.77462000  0.13848000  0.32484000  1.0
  C  C86  1  0.72538000  0.63848000  0.17516000  1.0
  C  C87  1  0.77462000  0.36152000  0.67516000  1.0
  C  C88  1  0.27462000  0.13848000  0.17516000  1.0
  C  C89  1  0.22538000  0.86152000  0.67516000  1.0
  C  C90  1  0.27462000  0.36152000  0.82484000  1.0
  C  C91  1  0.22538000  0.63848000  0.32484000  1.0
  N  N92  1  0.59279000  0.75971000  0.83740000  1.0
  N  N93  1  0.90721000  0.24029000  0.33740000  1.0
  N  N94  1  0.59279000  0.74029000  0.16260000  1.0
  N  N95  1  0.90721000  0.25971000  0.66260000  1.0
  N  N96  1  0.40722000  0.24029000  0.16260000  1.0
  N  N97  1  0.09279000  0.75971000  0.66260000  1.0
  N  N98  1  0.40721000  0.25971000  0.83740000  1.0
  N  N99  1  0.09279000  0.74029000  0.33740000  1.0
  O  O100  1  0.85044000  0.43289000  0.92575000  1.0
  O  O101  1  0.64957000  0.56711000  0.42575000  1.0
  O  O102  1  0.85044000  0.06711000  0.07425000  1.0
  O  O103  1  0.64957000  0.93289000  0.57425000  1.0
  O  O104  1  0.14956000  0.56711000  0.07425000  1.0
  O  O105  1  0.35043000  0.43289000  0.57425000  1.0
  O  O106  1  0.14956000  0.93289000  0.92575000  1.0
  O  O107  1  0.35043000  0.06711000  0.42575000  1.0
  O  O108  1  0.97787000  0.63835000  0.92776000  1.0
  O  O109  1  0.52213000  0.36165000  0.42776000  1.0
  O  O110  1  0.97787000  0.86165000  0.07224000  1.0
  O  O111  1  0.52213000  0.13835000  0.57224000  1.0
  O  O112  1  0.02213000  0.36165000  0.07224000  1.0
  O  O113  1  0.47787000  0.63835000  0.57224000  1.0
  O  O114  1  0.02213000  0.13835000  0.92776000  1.0
  O  O115  1  0.47787000  0.86165000  0.42776000  1.0
  O  O116  1  0.35701000  0.68792000  0.91254000  1.0
  O  O117  1  0.14299000  0.31207000  0.41254000  1.0
  O  O118  1  0.35701000  0.81207000  0.08746000  1.0
  O  O119  1  0.14299000  0.18793000  0.58746000  1.0
  O  O120  1  0.64299000  0.31207000  0.08746000  1.0
  O  O121  1  0.85701000  0.68793000  0.58746000  1.0
  O  O122  1  0.64299000  0.18793000  0.91254000  1.0
  O  O123  1  0.85701000  0.81207000  0.41254000  1.0
