# generated using pymatgen
data_ZnH28C29NO4
_symmetry_space_group_name_H-M   'P 1'
_cell_length_a   11.82050000
_cell_length_b   14.34390000
_cell_length_c   14.80920000
_cell_angle_alpha   89.99290000
_cell_angle_beta   92.08130000
_cell_angle_gamma   89.99870000
_symmetry_Int_Tables_number   1
_chemical_formula_structural   ZnH28C29NO4
_chemical_formula_sum   'Zn2 H56 C58 N2 O8'
_cell_volume   2509.27403375
_cell_formula_units_Z   2
loop_
 _symmetry_equiv_pos_site_id
 _symmetry_equiv_pos_as_xyz
  1  'x, y, z'
loop_
 _atom_site_type_symbol
 _atom_site_label
 _atom_site_symmetry_multiplicity
 _atom_site_fract_x
 _atom_site_fract_y
 _atom_site_fract_z
 _atom_site_occupancy
  Zn  Zn0  1  0.49993000  0.60575000  0.49999000  1.0
  Zn  Zn1  1  0.49986000  0.38532000  0.50004000  1.0
  H  H2  1  0.23124000  0.39497000  0.16134000  1.0
  H  H3  1  0.30413000  0.38162000  0.26752000  1.0
  H  H4  1  0.15986000  0.41542000  0.26366000  1.0
  H  H5  1  0.28278000  0.55310000  0.29762000  1.0
  H  H6  1  0.20688000  0.56527000  0.19444000  1.0
  H  H7  1  0.76862000  0.39496000  0.83847000  1.0
  H  H8  1  0.69587000  0.38181000  0.73222000  1.0
  H  H9  1  0.84015000  0.41557000  0.73625000  1.0
  H  H10  1  0.71724000  0.55332000  0.70242000  1.0
  H  H11  1  0.79311000  0.56531000  0.80565000  1.0
  H  H12  1  0.76227000  0.46122000  0.19753000  1.0
  H  H13  1  0.73892000  0.54403000  0.28450000  1.0
  H  H14  1  0.67530000  0.43275000  0.28810000  1.0
  H  H15  1  0.32470000  0.43275000  0.71194000  1.0
  H  H16  1  0.23774000  0.46120000  0.80253000  1.0
  H  H17  1  0.26106000  0.54402000  0.71554000  1.0
  H  H18  1  0.72713000  0.77443000  0.12864000  1.0
  H  H19  1  0.69167000  0.69933000  0.21841000  1.0
  H  H20  1  0.83045000  0.74669000  0.21505000  1.0
  H  H21  1  0.83358000  0.58153000  0.16452000  1.0
  H  H22  1  0.86822000  0.65495000  0.07624000  1.0
  H  H23  1  0.27278000  0.77443000  0.87139000  1.0
  H  H24  1  0.30829000  0.69935000  0.78162000  1.0
  H  H25  1  0.16950000  0.74668000  0.78497000  1.0
  H  H26  1  0.16644000  0.58150000  0.83547000  1.0
  H  H27  1  0.13173000  0.65487000  0.92375000  1.0
  H  H28  1  0.80895000  0.72740000  0.96611000  1.0
  H  H29  1  0.87563000  0.63093000  0.91632000  1.0
  H  H30  1  0.76373000  0.69030000  0.85730000  1.0
  H  H31  1  0.19091000  0.72726000  0.03388000  1.0
  H  H32  1  0.12433000  0.63075000  0.08372000  1.0
  H  H33  1  0.23620000  0.69021000  0.14269000  1.0
  H  H34  1  0.31169000  0.70144000  0.41471000  1.0
  H  H35  1  0.30466000  0.79636000  0.33693000  1.0
  H  H36  1  0.40038000  0.70134000  0.32211000  1.0
  H  H37  1  0.67998000  0.29026000  0.59229000  1.0
  H  H38  1  0.58420000  0.28563000  0.68032000  1.0
  H  H39  1  0.68691000  0.19510000  0.66965000  1.0
  H  H40  1  0.68851000  0.70138000  0.58522000  1.0
  H  H41  1  0.69555000  0.79627000  0.66302000  1.0
  H  H42  1  0.59982000  0.70126000  0.67781000  1.0
  H  H43  1  0.31995000  0.29024000  0.40776000  1.0
  H  H44  1  0.41569000  0.28561000  0.31971000  1.0
  H  H45  1  0.31301000  0.19508000  0.33044000  1.0
  H  H46  1  0.48027000  0.92285000  0.79651000  1.0
  H  H47  1  0.51988000  0.81908000  0.74251000  1.0
  H  H48  1  0.62482000  0.89445000  0.79055000  1.0
  H  H49  1  0.51808000  0.05867000  0.20167000  1.0
  H  H50  1  0.37631000  0.09440000  0.21022000  1.0
  H  H51  1  0.48780000  0.16516000  0.25527000  1.0
  H  H52  1  0.51989000  0.92296000  0.20338000  1.0
  H  H53  1  0.48028000  0.81918000  0.25741000  1.0
  H  H54  1  0.37533000  0.89459000  0.20944000  1.0
  H  H55  1  0.48194000  0.05852000  0.79827000  1.0
  H  H56  1  0.62371000  0.09432000  0.78982000  1.0
  H  H57  1  0.51221000  0.16502000  0.74471000  1.0
  C  C58  1  0.51273000  0.49455000  0.67317000  1.0
  C  C59  1  0.48719000  0.49451000  0.32685000  1.0
  C  C60  1  0.28261000  0.49870000  0.50744000  1.0
  C  C61  1  0.71714000  0.49854000  0.49271000  1.0
  C  C62  1  0.16045000  0.49562000  0.50521000  1.0
  C  C63  1  0.83930000  0.49548000  0.49515000  1.0
  C  C64  1  0.05691000  0.49522000  0.50195000  1.0
  C  C65  1  0.94284000  0.49518000  0.49845000  1.0
  C  C66  1  0.38628000  0.54182000  0.18145000  1.0
  C  C67  1  0.61370000  0.54187000  0.81856000  1.0
  C  C68  1  0.48852000  0.51571000  0.22703000  1.0
  C  C69  1  0.51146000  0.51573000  0.77299000  1.0
  C  C70  1  0.59566000  0.52314000  0.18899000  1.0
  C  C71  1  0.40433000  0.52315000  0.81104000  1.0
  C  C72  1  0.60137000  0.55855000  0.10006000  1.0
  C  C73  1  0.39862000  0.55854000  0.89996000  1.0
  C  C74  1  0.49791000  0.56891000  0.04817000  1.0
  C  C75  1  0.50208000  0.56890000  0.95185000  1.0
  C  C76  1  0.39101000  0.56993000  0.09006000  1.0
  C  C77  1  0.60898000  0.56996000  0.90996000  1.0
  C  C78  1  0.70318000  0.59337000  0.05849000  1.0
  C  C79  1  0.29680000  0.59334000  0.94153000  1.0
  C  C80  1  0.70429000  0.60435000  0.96599000  1.0
  C  C81  1  0.29568000  0.60429000  0.03403000  1.0
  C  C82  1  0.44674000  0.79831000  0.43061000  1.0
  C  C83  1  0.55040000  0.18936000  0.57050000  1.0
  C  C84  1  0.55350000  0.79829000  0.56933000  1.0
  C  C85  1  0.44958000  0.18936000  0.42954000  1.0
  C  C86  1  0.53451000  0.89518000  0.57961000  1.0
  C  C87  1  0.46715000  0.09217000  0.41995000  1.0
  C  C88  1  0.46576000  0.89520000  0.42032000  1.0
  C  C89  1  0.53296000  0.09215000  0.58005000  1.0
  C  C90  1  0.50013000  0.94424000  0.49997000  1.0
  C  C91  1  0.50007000  0.04309000  0.49999000  1.0
  C  C92  1  0.54555000  0.94505000  0.66431000  1.0
  C  C93  1  0.45575000  0.04173000  0.33540000  1.0
  C  C94  1  0.45470000  0.94512000  0.33564000  1.0
  C  C95  1  0.54441000  0.04166000  0.66458000  1.0
  C  C96  1  0.27563000  0.52651000  0.22805000  1.0
  C  C97  1  0.24078000  0.42340000  0.23011000  1.0
  C  C98  1  0.72436000  0.52662000  0.77196000  1.0
  C  C99  1  0.75918000  0.42351000  0.76975000  1.0
  C  C100  1  0.69881000  0.48905000  0.24246000  1.0
  C  C101  1  0.30119000  0.48904000  0.75758000  1.0
  C  C102  1  0.79786000  0.63415000  0.11808000  1.0
  C  C103  1  0.75968000  0.71850000  0.17329000  1.0
  C  C104  1  0.20210000  0.63412000  0.88192000  1.0
  C  C105  1  0.24027000  0.71850000  0.82673000  1.0
  C  C106  1  0.79320000  0.66533000  0.92402000  1.0
  C  C107  1  0.20673000  0.66520000  0.07600000  1.0
  C  C108  1  0.36179000  0.74702000  0.37183000  1.0
  C  C109  1  0.62950000  0.24232000  0.63235000  1.0
  C  C110  1  0.63842000  0.74695000  0.62810000  1.0
  C  C111  1  0.37042000  0.24230000  0.36770000  1.0
  C  C112  1  0.54319000  0.89219000  0.75239000  1.0
  C  C113  1  0.45916000  0.09317000  0.24666000  1.0
  C  C114  1  0.45700000  0.89230000  0.24755000  1.0
  C  C115  1  0.54090000  0.09305000  0.75332000  1.0
  N  N116  1  0.50009000  0.75199000  0.49998000  1.0
  N  N117  1  0.49994000  0.23597000  0.50004000  1.0
  O  O118  1  0.53177000  0.56713000  0.62667000  1.0
  O  O119  1  0.50654000  0.41365000  0.35840000  1.0
  O  O120  1  0.46808000  0.56708000  0.37333000  1.0
  O  O121  1  0.49335000  0.41369000  0.64164000  1.0
  O  O122  1  0.32710000  0.57787000  0.52307000  1.0
  O  O123  1  0.66787000  0.42113000  0.50720000  1.0
  O  O124  1  0.67269000  0.57770000  0.47695000  1.0
  O  O125  1  0.33187000  0.42130000  0.49289000  1.0
