# generated using pymatgen
data_K2H72PdC48S4(NO3)4
_symmetry_space_group_name_H-M   'P 1'
_cell_length_a   10.76800000
_cell_length_b   11.34230000
_cell_length_c   12.77860000
_cell_angle_alpha   101.57800000
_cell_angle_beta   110.66600000
_cell_angle_gamma   98.90430000
_symmetry_Int_Tables_number   1
_chemical_formula_structural   K2H72PdC48S4(NO3)4
_chemical_formula_sum   'K2 H72 Pd1 C48 S4 N4 O12'
_cell_volume   1386.54915188
_cell_formula_units_Z   1
loop_
 _symmetry_equiv_pos_site_id
 _symmetry_equiv_pos_as_xyz
  1  'x, y, z'
loop_
 _atom_site_type_symbol
 _atom_site_label
 _atom_site_symmetry_multiplicity
 _atom_site_fract_x
 _atom_site_fract_y
 _atom_site_fract_z
 _atom_site_occupancy
  K  K0  1  0.53320000  0.28733000  0.75050000  1.0
  K  K1  1  0.46680000  0.71267000  0.24950000  1.0
  H  H2  1  0.26000000  0.11783000  0.38659000  1.0
  H  H3  1  0.73999000  0.88217000  0.61340000  1.0
  H  H4  1  0.05103000  0.18599000  0.31869000  1.0
  H  H5  1  0.94896000  0.81401000  0.68132000  1.0
  H  H6  1  0.02623000  0.07254000  0.38913000  1.0
  H  H7  1  0.97377000  0.92746000  0.61087000  1.0
  H  H8  1  0.06348000  0.23760000  0.56814000  1.0
  H  H9  1  0.93652000  0.76240000  0.43186000  1.0
  H  H10  1  0.93070000  0.25245000  0.44509000  1.0
  H  H11  1  0.06930000  0.74755000  0.55492000  1.0
  H  H12  1  0.09232000  0.41991000  0.42526000  1.0
  H  H13  1  0.90767000  0.58008000  0.57474000  1.0
  H  H14  1  0.09405000  0.45910000  0.56694000  1.0
  H  H15  1  0.90595000  0.54090000  0.43306000  1.0
  H  H16  1  0.33593000  0.49752000  0.57866000  1.0
  H  H17  1  0.66406000  0.50248000  0.42134000  1.0
  H  H18  1  0.30164000  0.38094000  0.64366000  1.0
  H  H19  1  0.69836000  0.61906000  0.35634000  1.0
  H  H20  1  0.29095000  0.33593000  0.39481000  1.0
  H  H21  1  0.70904000  0.66407000  0.60519000  1.0
  H  H22  1  0.49936000  0.29524000  0.38462000  1.0
  H  H23  1  0.50064000  0.70476000  0.61538000  1.0
  H  H24  1  0.49368000  0.16885000  0.44864000  1.0
  H  H25  1  0.50631000  0.83115000  0.55136000  1.0
  H  H26  1  0.73314000  0.28500000  0.48305000  1.0
  H  H27  1  0.26685000  0.71500000  0.51695000  1.0
  H  H28  1  0.70686000  0.41883000  0.56580000  1.0
  H  H29  1  0.29314000  0.58117000  0.43420000  1.0
  H  H30  1  0.88096000  0.42499000  0.72840000  1.0
  H  H31  1  0.11903000  0.57501000  0.27160000  1.0
  H  H32  1  0.92434000  0.28404000  0.67806000  1.0
  H  H33  1  0.07566000  0.71596000  0.32194000  1.0
  H  H34  1  0.84317000  0.19635000  0.81780000  1.0
  H  H35  1  0.15682000  0.80365000  0.18220000  1.0
  H  H36  1  0.99218000  0.32169000  0.88473000  1.0
  H  H37  1  0.00782000  0.67831000  0.11527000  1.0
  H  H38  1  0.95034000  0.39923000  0.05763000  1.0
  H  H39  1  0.04966000  0.60077000  0.94237000  1.0
  H  H40  1  0.65298000  0.42184000  0.99321000  1.0
  H  H41  1  0.34701000  0.57816000  0.00679000  1.0
  H  H42  1  0.79957000  0.54541000  0.04294000  1.0
  H  H43  1  0.20042000  0.45459000  0.95705000  1.0
  H  H44  1  0.72128000  0.51664000  0.20109000  1.0
  H  H45  1  0.27872000  0.48336000  0.79891000  1.0
  H  H46  1  0.88908000  0.49576000  0.23355000  1.0
  H  H47  1  0.11092000  0.50424000  0.76645000  1.0
  H  H48  1  0.75133000  0.32732000  0.27398000  1.0
  H  H49  1  0.24867000  0.67268000  0.72602000  1.0
  H  H50  1  0.62483000  0.28859000  0.13091000  1.0
  H  H51  1  0.37517000  0.71141000  0.86909000  1.0
  H  H52  1  0.78413000  0.14428000  0.14604000  1.0
  H  H53  1  0.21587000  0.85572000  0.85396000  1.0
  H  H54  1  0.92451000  0.27254000  0.19510000  1.0
  H  H55  1  0.07549000  0.72746000  0.80490000  1.0
  H  H56  1  0.86205000  0.17683000  0.99154000  1.0
  H  H57  1  0.13794000  0.82317000  0.00846000  1.0
  H  H58  1  0.68529000  0.01581000  0.84755000  1.0
  H  H59  1  0.31471000  0.98419000  0.15246000  1.0
  H  H60  1  0.65710000  0.00981000  0.97535000  1.0
  H  H61  1  0.34290000  0.99019000  0.02465000  1.0
  H  H62  1  0.41720000  0.03269000  0.87820000  1.0
  H  H63  1  0.58280000  0.96731000  0.12180000  1.0
  H  H64  1  0.45147000  0.89298000  0.81293000  1.0
  H  H65  1  0.54853000  0.10702000  0.18707000  1.0
  H  H66  1  0.23710000  0.02647000  0.70392000  1.0
  H  H67  1  0.76290000  0.97352000  0.29608000  1.0
  H  H68  1  0.26131000  0.88111000  0.64060000  1.0
  H  H69  1  0.73869000  0.11889000  0.35940000  1.0
  H  H70  1  0.31490000  0.97187000  0.49204000  1.0
  H  H71  1  0.68510000  0.02813000  0.50796000  1.0
  H  H72  1  0.14586000  0.96582000  0.48633000  1.0
  H  H73  1  0.85414000  0.03418000  0.51367000  1.0
  Pd  Pd74  1  0.00000000  0.00000000  0.00000000  1.0
  C  C75  1  0.23603000  0.17871000  0.45228000  1.0
  C  C76  1  0.76397000  0.82129000  0.54772000  1.0
  C  C77  1  0.08157000  0.16860000  0.40482000  1.0
  C  C78  1  0.91843000  0.83140000  0.59518000  1.0
  C  C79  1  0.04150000  0.26062000  0.48462000  1.0
  C  C80  1  0.95850000  0.73938000  0.51539000  1.0
  C  C81  1  0.12111000  0.39352000  0.50773000  1.0
  C  C82  1  0.87888000  0.60647000  0.49228000  1.0
  C  C83  1  0.27480000  0.40316000  0.55977000  1.0
  C  C84  1  0.72520000  0.59684000  0.44023000  1.0
  C  C85  1  0.31560000  0.31344000  0.47925000  1.0
  C  C86  1  0.68440000  0.68656000  0.52075000  1.0
  C  C87  1  0.52543000  0.27096000  0.46812000  1.0
  C  C88  1  0.47457000  0.72904000  0.53188000  1.0
  C  C89  1  0.67831000  0.31632000  0.53798000  1.0
  C  C90  1  0.32169000  0.68368000  0.46202000  1.0
  C  C91  1  0.85651000  0.32338000  0.71549000  1.0
  C  C92  1  0.14349000  0.67662000  0.28450000  1.0
  C  C93  1  0.88096000  0.29669000  0.83128000  1.0
  C  C94  1  0.11904000  0.70331000  0.16872000  1.0
  C  C95  1  0.83859000  0.36517000  0.00468000  1.0
  C  C96  1  0.16141000  0.63482000  0.99532000  1.0
  C  C97  1  0.76295000  0.45239000  0.04949000  1.0
  C  C98  1  0.23705000  0.54761000  0.95051000  1.0
  C  C99  1  0.78061000  0.45554000  0.17419000  1.0
  C  C100  1  0.21939000  0.54446000  0.82581000  1.0
  C  C101  1  0.73555000  0.32488000  0.18349000  1.0
  C  C102  1  0.26445000  0.67512000  0.81651000  1.0
  C  C103  1  0.81402000  0.23915000  0.14019000  1.0
  C  C104  1  0.18598000  0.76085000  0.85981000  1.0
  C  C105  1  0.79643000  0.23401000  0.01497000  1.0
  C  C106  1  0.20357000  0.76599000  0.98503000  1.0
  C  C107  1  0.62680000  0.04697000  0.89896000  1.0
  C  C108  1  0.37320000  0.95303000  0.10104000  1.0
  C  C109  1  0.47558000  0.99509000  0.82914000  1.0
  C  C110  1  0.52442000  0.00491000  0.17087000  1.0
  C  C111  1  0.29272000  0.98263000  0.65527000  1.0
  C  C112  1  0.70728000  0.01736000  0.34473000  1.0
  C  C113  1  0.25546000  0.01096000  0.53931000  1.0
  C  C114  1  0.74454000  0.98904000  0.46069000  1.0
  C  C115  1  0.29003000  0.24976000  0.90590000  1.0
  C  C116  1  0.70999000  0.75025000  0.09410000  1.0
  C  C117  1  0.21331000  0.19334000  0.96006000  1.0
  C  C118  1  0.78671000  0.80666000  0.03994000  1.0
  C  C119  1  0.24132000  0.24087000  0.07689000  1.0
  C  C120  1  0.75870000  0.75913000  0.92312000  1.0
  C  C121  1  0.34476000  0.35051000  0.14484000  1.0
  C  C122  1  0.65524000  0.64949000  0.85516000  1.0
  S  S123  1  0.08510000  0.06083000  0.87163000  1.0
  S  S124  1  0.91492000  0.93917000  0.12837000  1.0
  S  S125  1  0.15136000  0.17102000  0.14645000  1.0
  S  S126  1  0.84864000  0.82898000  0.85355000  1.0
  N  N127  1  0.35169000  0.29293000  0.85757000  1.0
  N  N128  1  0.64833000  0.70707000  0.14244000  1.0
  N  N129  1  0.42929000  0.44202000  0.20225000  1.0
  N  N130  1  0.57072000  0.55799000  0.79776000  1.0
  O  O131  1  0.28179000  0.14225000  0.55846000  1.0
  O  O132  1  0.71821000  0.85775000  0.44154000  1.0
  O  O133  1  0.46084000  0.33154000  0.53558000  1.0
  O  O134  1  0.53916000  0.66846000  0.46442000  1.0
  O  O135  1  0.71588000  0.27057000  0.63828000  1.0
  O  O136  1  0.28412000  0.72943000  0.36172000  1.0
  O  O137  1  0.81270000  0.36873000  0.88714000  1.0
  O  O138  1  0.18730000  0.63127000  0.11286000  1.0
  O  O139  1  0.65642000  0.17949000  0.93398000  1.0
  O  O140  1  0.34358000  0.82051000  0.06602000  1.0
  O  O141  1  0.43689000  0.02624000  0.72093000  1.0
  O  O142  1  0.56311000  0.97376000  0.27907000  1.0
