# generated using pymatgen
data_ZnH14C14(N3O2)2
_symmetry_space_group_name_H-M   'P 1'
_cell_length_a   7.89386000
_cell_length_b   10.09320000
_cell_length_c   10.55070000
_cell_angle_alpha   79.49100000
_cell_angle_beta   72.48330000
_cell_angle_gamma   84.48300000
_symmetry_Int_Tables_number   1
_chemical_formula_structural   ZnH14C14(N3O2)2
_chemical_formula_sum   'Zn2 H28 C28 N12 O8'
_cell_volume   787.43015176
_cell_formula_units_Z   2
loop_
 _symmetry_equiv_pos_site_id
 _symmetry_equiv_pos_as_xyz
  1  'x, y, z'
loop_
 _atom_site_type_symbol
 _atom_site_label
 _atom_site_symmetry_multiplicity
 _atom_site_fract_x
 _atom_site_fract_y
 _atom_site_fract_z
 _atom_site_occupancy
  Zn  Zn0  1  0.47369000  0.51662000  0.13941000  1.0
  Zn  Zn1  1  0.52632000  0.48339000  0.86058000  1.0
  H  H2  1  0.26451000  0.67449000  0.59925000  1.0
  H  H3  1  0.73548000  0.32549000  0.40076000  1.0
  H  H4  1  0.93035000  0.37625000  0.11628000  1.0
  H  H5  1  0.06965000  0.62376000  0.88372000  1.0
  H  H6  1  0.03161000  0.24023000  0.20200000  1.0
  H  H7  1  0.96839000  0.75978000  0.79800000  1.0
  H  H8  1  0.09715000  0.11526000  0.01292000  1.0
  H  H9  1  0.90286000  0.88475000  0.98709000  1.0
  H  H10  1  0.03278000  0.25544000  0.90847000  1.0
  H  H11  1  0.96723000  0.74456000  0.09154000  1.0
  H  H12  1  0.80039000  0.08231000  0.99817000  1.0
  H  H13  1  0.19961000  0.91770000  0.00184000  1.0
  H  H14  1  0.78028000  0.10496000  0.16626000  1.0
  H  H15  1  0.21972000  0.89506000  0.83375000  1.0
  H  H16  1  0.28342000  0.26384000  0.33296000  1.0
  H  H17  1  0.71659000  0.73616000  0.66702000  1.0
  H  H18  1  0.06216000  0.14151000  0.53001000  1.0
  H  H19  1  0.93784000  0.85848000  0.46996000  1.0
  H  H20  1  0.92200000  0.24589000  0.73532000  1.0
  H  H21  1  0.07800000  0.75408000  0.26466000  1.0
  H  H22  1  0.00760000  0.46943000  0.75448000  1.0
  H  H23  1  0.99239000  0.53055000  0.24551000  1.0
  H  H24  1  0.56494000  0.77146000  0.42113000  1.0
  H  H25  1  0.43505000  0.22854000  0.57888000  1.0
  H  H26  1  0.62217000  0.71541000  0.26192000  1.0
  H  H27  1  0.37783000  0.28459000  0.73809000  1.0
  H  H28  1  0.54964000  0.88908000  0.07509000  1.0
  H  H29  1  0.45036000  0.11093000  0.92492000  1.0
  C  C30  1  0.21019000  0.36769000  0.04748000  1.0
  C  C31  1  0.78981000  0.63232000  0.95252000  1.0
  C  C32  1  0.03642000  0.29609000  0.10129000  1.0
  C  C33  1  0.96359000  0.70392000  0.89871000  1.0
  C  C34  1  0.00391000  0.20340000  0.01293000  1.0
  C  C35  1  0.99609000  0.79661000  0.98708000  1.0
  C  C36  1  0.81244000  0.15470000  0.06063000  1.0
  C  C37  1  0.18757000  0.84531000  0.93937000  1.0
  C  C38  1  0.68242000  0.27339000  0.04615000  1.0
  C  C39  1  0.31758000  0.72662000  0.95385000  1.0
  C  C40  1  0.27244000  0.43469000  0.43458000  1.0
  C  C41  1  0.72756000  0.56531000  0.56541000  1.0
  C  C42  1  0.22622000  0.30738000  0.42434000  1.0
  C  C43  1  0.77378000  0.69262000  0.57565000  1.0
  C  C44  1  0.10196000  0.24031000  0.53518000  1.0
  C  C45  1  0.89804000  0.75968000  0.46480000  1.0
  C  C46  1  0.02403000  0.29864000  0.65230000  1.0
  C  C47  1  0.97597000  0.70134000  0.34768000  1.0
  C  C48  1  0.07163000  0.42385000  0.66511000  1.0
  C  C49  1  0.92837000  0.57613000  0.33488000  1.0
  C  C50  1  0.19961000  0.48941000  0.55501000  1.0
  C  C51  1  0.80038000  0.51058000  0.44498000  1.0
  C  C52  1  0.39297000  0.62851000  0.40393000  1.0
  C  C53  1  0.60702000  0.37149000  0.59608000  1.0
  C  C54  1  0.51118000  0.74469000  0.34491000  1.0
  C  C55  1  0.48881000  0.25531000  0.65510000  1.0
  C  C56  1  0.45047000  0.92391000  0.16015000  1.0
  C  C57  1  0.54953000  0.07610000  0.83985000  1.0
  N  N58  1  0.38976000  0.52529000  0.34189000  1.0
  N  N59  1  0.61024000  0.47471000  0.65810000  1.0
  N  N60  1  0.28095000  0.61087000  0.53171000  1.0
  N  N61  1  0.71903000  0.38912000  0.46830000  1.0
  N  N62  1  0.42200000  0.86446000  0.28924000  1.0
  N  N63  1  0.57800000  0.13554000  0.71077000  1.0
  N  N64  1  0.28720000  0.93333000  0.36777000  1.0
  N  N65  1  0.71280000  0.06667000  0.63224000  1.0
  N  N66  1  0.23687000  0.03155000  0.28653000  1.0
  N  N67  1  0.76313000  0.96845000  0.71348000  1.0
  N  N68  1  0.33665000  0.02918000  0.15618000  1.0
  N  N69  1  0.66335000  0.97083000  0.84383000  1.0
  O  O70  1  0.25718000  0.41856000  0.13263000  1.0
  O  O71  1  0.74282000  0.58145000  0.86737000  1.0
  O  O72  1  0.29458000  0.37756000  0.92233000  1.0
  O  O73  1  0.70544000  0.62244000  0.07768000  1.0
  O  O74  1  0.65368000  0.30675000  0.93178000  1.0
  O  O75  1  0.34634000  0.69326000  0.06821000  1.0
  O  O76  1  0.61853000  0.33531000  0.14680000  1.0
  O  O77  1  0.38146000  0.66470000  0.85320000  1.0
