# generated using pymatgen
data_CdH19C24N3O5
_symmetry_space_group_name_H-M   'P 1'
_cell_length_a   12.07940000
_cell_length_b   15.57550000
_cell_length_c   16.27780000
_cell_angle_alpha   76.30700000
_cell_angle_beta   68.22680000
_cell_angle_gamma   67.19050000
_symmetry_Int_Tables_number   1
_chemical_formula_structural   CdH19C24N3O5
_chemical_formula_sum   'Cd4 H76 C96 N12 O20'
_cell_volume   2606.16557602
_cell_formula_units_Z   4
loop_
 _symmetry_equiv_pos_site_id
 _symmetry_equiv_pos_as_xyz
  1  'x, y, z'
loop_
 _atom_site_type_symbol
 _atom_site_label
 _atom_site_symmetry_multiplicity
 _atom_site_fract_x
 _atom_site_fract_y
 _atom_site_fract_z
 _atom_site_occupancy
  Cd  Cd0  1  0.15217000  0.08681000  0.53299000  1.0
  Cd  Cd1  1  0.22819000  0.58649000  0.03306000  1.0
  Cd  Cd2  1  0.77182000  0.41352000  0.96694000  1.0
  Cd  Cd3  1  0.84783000  0.91318000  0.46701000  1.0
  H  H4  1  0.53293000  0.21188000  0.34829000  1.0
  H  H5  1  0.62083000  0.33985000  0.31429000  1.0
  H  H6  1  0.27268000  0.50519000  0.49050000  1.0
  H  H7  1  0.18462000  0.37896000  0.51703000  1.0
  H  H8  1  0.70310000  0.42737000  0.31927000  1.0
  H  H9  1  0.85394000  0.44338000  0.20207000  1.0
  H  H10  1  0.06335000  0.44548000  0.10707000  1.0
  H  H11  1  0.03620000  0.66845000  0.21929000  1.0
  H  H12  1  0.81706000  0.67755000  0.32188000  1.0
  H  H13  1  0.33342000  0.61113000  0.44848000  1.0
  H  H14  1  0.56773000  0.81087000  0.38222000  1.0
  H  H15  1  0.43612000  0.96709000  0.44158000  1.0
  H  H16  1  0.11583000  0.89074000  0.54887000  1.0
  H  H17  1  0.22931000  0.73442000  0.49470000  1.0
  H  H18  1  0.72036000  0.18175000  0.71565000  1.0
  H  H19  1  0.72531000  0.06918000  0.70104000  1.0
  H  H20  1  0.78992000  0.07832000  0.77867000  1.0
  H  H21  1  0.08950000  0.16719000  0.36632000  1.0
  H  H22  1  0.09521000  0.05992000  0.38050000  1.0
  H  H23  1  0.90619000  0.71137000  0.84875000  1.0
  H  H24  1  0.72447000  0.83944000  0.81475000  1.0
  H  H25  1  0.73221000  0.00495000  0.99038000  1.0
  H  H26  1  0.91993000  0.87852000  0.01690000  1.0
  H  H27  1  0.55041000  0.92736000  0.81912000  1.0
  H  H28  1  0.50008000  0.94302000  0.70246000  1.0
  H  H29  1  0.38333000  0.94530000  0.60747000  1.0
  H  H30  1  0.07644000  0.16925000  0.71897000  1.0
  H  H31  1  0.18408000  0.17810000  0.82156000  1.0
  H  H32  1  0.60704000  0.11073000  0.94889000  1.0
  H  H33  1  0.23952000  0.31063000  0.88249000  1.0
  H  H34  1  0.15568000  0.46685000  0.94179000  1.0
  H  H35  1  0.44525000  0.39061000  0.04885000  1.0
  H  H36  1  0.54196000  0.23418000  0.99491000  1.0
  H  H37  1  0.38208000  0.68211000  0.21534000  1.0
  H  H38  1  0.50434000  0.56956000  0.20108000  1.0
  H  H39  1  0.35291000  0.57880000  0.27864000  1.0
  H  H40  1  0.37670000  0.66690000  0.86608000  1.0
  H  H41  1  0.46422000  0.55971000  0.88040000  1.0
  H  H42  1  0.09382000  0.28864000  0.15122000  1.0
  H  H43  1  0.27554000  0.16057000  0.18524000  1.0
  H  H44  1  0.26779000  0.99505000  0.00962000  1.0
  H  H45  1  0.08009000  0.12148000  0.98310000  1.0
  H  H46  1  0.44958000  0.07264000  0.18088000  1.0
  H  H47  1  0.49992000  0.05698000  0.29754000  1.0
  H  H48  1  0.61667000  0.05470000  0.39253000  1.0
  H  H49  1  0.92355000  0.83074000  0.28103000  1.0
  H  H50  1  0.81590000  0.82190000  0.17845000  1.0
  H  H51  1  0.39295000  0.88927000  0.05111000  1.0
  H  H52  1  0.76048000  0.68938000  0.11751000  1.0
  H  H53  1  0.84433000  0.53316000  0.05820000  1.0
  H  H54  1  0.55474000  0.60940000  0.95115000  1.0
  H  H55  1  0.45802000  0.76582000  0.00511000  1.0
  H  H56  1  0.61792000  0.31790000  0.78465000  1.0
  H  H57  1  0.49566000  0.43044000  0.79891000  1.0
  H  H58  1  0.64709000  0.42121000  0.72135000  1.0
  H  H59  1  0.62331000  0.33311000  0.13391000  1.0
  H  H60  1  0.53578000  0.44029000  0.11961000  1.0
  H  H61  1  0.46706000  0.78811000  0.65172000  1.0
  H  H62  1  0.37917000  0.66014000  0.68572000  1.0
  H  H63  1  0.72730000  0.49481000  0.50948000  1.0
  H  H64  1  0.81537000  0.62104000  0.48295000  1.0
  H  H65  1  0.29691000  0.57262000  0.68073000  1.0
  H  H66  1  0.14607000  0.55662000  0.79792000  1.0
  H  H67  1  0.93665000  0.55452000  0.89293000  1.0
  H  H68  1  0.96380000  0.33155000  0.78071000  1.0
  H  H69  1  0.18293000  0.32244000  0.67813000  1.0
  H  H70  1  0.66657000  0.38886000  0.55154000  1.0
  H  H71  1  0.43228000  0.18912000  0.61779000  1.0
  H  H72  1  0.56387000  0.03290000  0.55842000  1.0
  H  H73  1  0.88416000  0.10926000  0.45113000  1.0
  H  H74  1  0.77068000  0.26558000  0.50530000  1.0
  H  H75  1  0.27964000  0.81823000  0.28437000  1.0
  H  H76  1  0.27470000  0.93080000  0.29897000  1.0
  H  H77  1  0.21008000  0.92167000  0.22135000  1.0
  H  H78  1  0.91050000  0.83282000  0.63368000  1.0
  H  H79  1  0.90481000  0.94009000  0.61949000  1.0
  C  C80  1  0.30148000  0.20752000  0.45934000  1.0
  C  C81  1  0.35355000  0.28684000  0.43563000  1.0
  C  C82  1  0.47639000  0.27717000  0.37827000  1.0
  C  C83  1  0.52592000  0.34905000  0.36064000  1.0
  C  C84  1  0.45533000  0.43256000  0.40128000  1.0
  C  C85  1  0.33098000  0.44227000  0.45706000  1.0
  C  C86  1  0.28068000  0.37115000  0.47332000  1.0
  C  C87  1  0.50953000  0.50756000  0.38603000  1.0
  C  C88  1  0.63799000  0.49487000  0.34157000  1.0
  C  C89  1  0.68328000  0.56976000  0.32487000  1.0
  C  C90  1  0.81619000  0.56090000  0.27195000  1.0
  C  C91  1  0.88954000  0.49330000  0.21211000  1.0
  C  C92  1  0.00879000  0.49449000  0.15712000  1.0
  C  C93  1  0.99127000  0.61966000  0.21923000  1.0
  C  C94  1  0.87061000  0.62418000  0.27604000  1.0
  C  C95  1  0.43411000  0.59621000  0.41469000  1.0
  C  C96  1  0.48718000  0.66615000  0.39947000  1.0
  C  C97  1  0.41082000  0.75859000  0.43347000  1.0
  C  C98  1  0.46766000  0.82639000  0.41892000  1.0
  C  C99  1  0.39573000  0.91246000  0.45166000  1.0
  C  C100  1  0.21634000  0.86952000  0.51246000  1.0
  C  C101  1  0.28174000  0.78193000  0.48188000  1.0
  C  C102  1  0.90486000  0.09338000  0.64512000  1.0
  C  C103  1  0.77614000  0.10729000  0.71340000  1.0
  C  C104  1  0.03153000  0.70701000  0.95934000  1.0
  C  C105  1  0.92401000  0.78649000  0.93556000  1.0
  C  C106  1  0.86783000  0.77680000  0.87846000  1.0
  C  C107  1  0.76409000  0.84872000  0.86088000  1.0
  C  C108  1  0.71096000  0.93234000  0.90134000  1.0
  C  C109  1  0.77002000  0.94198000  0.95705000  1.0
  C  C110  1  0.87518000  0.87077000  0.97326000  1.0
  C  C111  1  0.59714000  0.00738000  0.88604000  1.0
  C  C112  1  0.52582000  0.99480000  0.84149000  1.0
  C  C113  1  0.42236000  0.06969000  0.82484000  1.0
  C  C114  1  0.35106000  0.06098000  0.77194000  1.0
  C  C115  1  0.40473000  0.99323000  0.71228000  1.0
  C  C116  1  0.33916000  0.99455000  0.65731000  1.0
  C  C117  1  0.17007000  0.12024000  0.71905000  1.0
  C  C118  1  0.22946000  0.12457000  0.77588000  1.0
  C  C119  1  0.55518000  0.09594000  0.91491000  1.0
  C  C120  1  0.44746000  0.16594000  0.89964000  1.0
  C  C121  1  0.39743000  0.25832000  0.93375000  1.0
  C  C122  1  0.28739000  0.32610000  0.91920000  1.0
  C  C123  1  0.24061000  0.41219000  0.95186000  1.0
  C  C124  1  0.40226000  0.36936000  0.01255000  1.0
  C  C125  1  0.45487000  0.28171000  0.98207000  1.0
  C  C126  1  0.35659000  0.59341000  0.14514000  1.0
  C  C127  1  0.40305000  0.60761000  0.21331000  1.0
  C  C128  1  0.96848000  0.29301000  0.04064000  1.0
  C  C129  1  0.07599000  0.21351000  0.06443000  1.0
  C  C130  1  0.13218000  0.22321000  0.12153000  1.0
  C  C131  1  0.23591000  0.15128000  0.13912000  1.0
  C  C132  1  0.28904000  0.06766000  0.09865000  1.0
  C  C133  1  0.22998000  0.05802000  0.04294000  1.0
  C  C134  1  0.12483000  0.12923000  0.02673000  1.0
  C  C135  1  0.40289000  0.99261000  0.11396000  1.0
  C  C136  1  0.47417000  0.00520000  0.15852000  1.0
  C  C137  1  0.57762000  0.93031000  0.17516000  1.0
  C  C138  1  0.64893000  0.93903000  0.22806000  1.0
  C  C139  1  0.59526000  0.00676000  0.28774000  1.0
  C  C140  1  0.66084000  0.00545000  0.34270000  1.0
  C  C141  1  0.82993000  0.87976000  0.28095000  1.0
  C  C142  1  0.77054000  0.87542000  0.22412000  1.0
  C  C143  1  0.44481000  0.90407000  0.08510000  1.0
  C  C144  1  0.55254000  0.83406000  0.10036000  1.0
  C  C145  1  0.60255000  0.74169000  0.06625000  1.0
  C  C146  1  0.71261000  0.67391000  0.08081000  1.0
  C  C147  1  0.75941000  0.58781000  0.04813000  1.0
  C  C148  1  0.59775000  0.63065000  0.98744000  1.0
  C  C149  1  0.54512000  0.71829000  0.01794000  1.0
  C  C150  1  0.64342000  0.40660000  0.85485000  1.0
  C  C151  1  0.59695000  0.39240000  0.78668000  1.0
  C  C152  1  0.69851000  0.79247000  0.54066000  1.0
  C  C153  1  0.64643000  0.71317000  0.56437000  1.0
  C  C154  1  0.52360000  0.72282000  0.62173000  1.0
  C  C155  1  0.47408000  0.65094000  0.63937000  1.0
  C  C156  1  0.54469000  0.56742000  0.59870000  1.0
  C  C157  1  0.66903000  0.55773000  0.54293000  1.0
  C  C158  1  0.71932000  0.62885000  0.52667000  1.0
  C  C159  1  0.49046000  0.49243000  0.61398000  1.0
  C  C160  1  0.36200000  0.50512000  0.65844000  1.0
  C  C161  1  0.31672000  0.43024000  0.67512000  1.0
  C  C162  1  0.18381000  0.43910000  0.72805000  1.0
  C  C163  1  0.11045000  0.50670000  0.78789000  1.0
  C  C164  1  0.99121000  0.50551000  0.84288000  1.0
  C  C165  1  0.00873000  0.38035000  0.78075000  1.0
  C  C166  1  0.12938000  0.37582000  0.72395000  1.0
  C  C167  1  0.56590000  0.40378000  0.58532000  1.0
  C  C168  1  0.51284000  0.33383000  0.60053000  1.0
  C  C169  1  0.58919000  0.24140000  0.56653000  1.0
  C  C170  1  0.53235000  0.17360000  0.58109000  1.0
  C  C171  1  0.60428000  0.08753000  0.54835000  1.0
  C  C172  1  0.78366000  0.13048000  0.48755000  1.0
  C  C173  1  0.71826000  0.21807000  0.51812000  1.0
  C  C174  1  0.09516000  0.90660000  0.35488000  1.0
  C  C175  1  0.22387000  0.89269000  0.28661000  1.0
  N  N176  1  0.60960000  0.65362000  0.35383000  1.0
  N  N177  1  0.05909000  0.55681000  0.15942000  1.0
  N  N178  1  0.27169000  0.93426000  0.49751000  1.0
  N  N179  1  0.38330000  0.15353000  0.85385000  1.0
  N  N180  1  0.22453000  0.05720000  0.65943000  1.0
  N  N181  1  0.29709000  0.43404000  0.99763000  1.0
  N  N182  1  0.61670000  0.84647000  0.14616000  1.0
  N  N183  1  0.77547000  0.94280000  0.34057000  1.0
  N  N184  1  0.70290000  0.56597000  0.00238000  1.0
  N  N185  1  0.39041000  0.34638000  0.64616000  1.0
  N  N186  1  0.94092000  0.44319000  0.84058000  1.0
  N  N187  1  0.72830000  0.06574000  0.50248000  1.0
  O  O188  1  0.37637000  0.12595000  0.44223000  1.0
  O  O189  1  0.18189000  0.22831000  0.49818000  1.0
  O  O190  1  0.96842000  0.01341000  0.61543000  1.0
  O  O191  1  0.94881000  0.16069000  0.62068000  1.0
  O  O192  1  0.13465000  0.10412000  0.38722000  1.0
  O  O193  1  0.05466000  0.62542000  0.94258000  1.0
  O  O194  1  0.09193000  0.72770000  0.99790000  1.0
  O  O195  1  0.40285000  0.51341000  0.11548000  1.0
  O  O196  1  0.26968000  0.66057000  0.12067000  1.0
  O  O197  1  0.37380000  0.60382000  0.88710000  1.0
  O  O198  1  0.94534000  0.37458000  0.05742000  1.0
  O  O199  1  0.90805000  0.27230000  0.00212000  1.0
  O  O200  1  0.59714000  0.48660000  0.88452000  1.0
  O  O201  1  0.73032000  0.33943000  0.87933000  1.0
  O  O202  1  0.62619000  0.39619000  0.11290000  1.0
  O  O203  1  0.62360000  0.87405000  0.55778000  1.0
  O  O204  1  0.81809000  0.77169000  0.50183000  1.0
  O  O205  1  0.03159000  0.98658000  0.38458000  1.0
  O  O206  1  0.05119000  0.83932000  0.37933000  1.0
  O  O207  1  0.86536000  0.89589000  0.61278000  1.0
