# generated using pymatgen
data_CoH16C15NO7
_symmetry_space_group_name_H-M   'P 1'
_cell_length_a   9.93190000
_cell_length_b   9.98341000
_cell_length_c   11.30764744
_cell_angle_alpha   93.60936888
_cell_angle_beta   112.72751198
_cell_angle_gamma   114.73510000
_symmetry_Int_Tables_number   1
_chemical_formula_structural   CoH16C15NO7
_chemical_formula_sum   'Co2 H32 C30 N2 O14'
_cell_volume   904.87188275
_cell_formula_units_Z   2
loop_
 _symmetry_equiv_pos_site_id
 _symmetry_equiv_pos_as_xyz
  1  'x, y, z'
loop_
 _atom_site_type_symbol
 _atom_site_label
 _atom_site_symmetry_multiplicity
 _atom_site_fract_x
 _atom_site_fract_y
 _atom_site_fract_z
 _atom_site_occupancy
  Co  Co0  1  0.57996000  0.73681000  0.92664000  1.0
  Co  Co1  1  0.42004000  0.26319000  0.07336000  1.0
  H  H2  1  0.06398000  0.76516000  0.94487000  1.0
  H  H3  1  0.93602000  0.23484000  0.05513000  1.0
  H  H4  1  0.95315000  0.58951000  0.25248000  1.0
  H  H5  1  0.04684000  0.41049000  0.74752000  1.0
  H  H6  1  0.38481000  0.62329000  0.22178000  1.0
  H  H7  1  0.61518000  0.37671000  0.77822000  1.0
  H  H8  1  0.33160000  0.43043000  0.32140000  1.0
  H  H9  1  0.66840000  0.56957000  0.67861000  1.0
  H  H10  1  0.33170000  0.45362000  0.48098000  1.0
  H  H11  1  0.66830000  0.54638000  0.51902000  1.0
  H  H12  1  0.45069000  0.61654000  0.43816000  1.0
  H  H13  1  0.54931000  0.38345000  0.56185000  1.0
  H  H14  1  0.78280000  0.93745000  0.83522000  1.0
  H  H15  1  0.21722000  0.06256000  0.16479000  1.0
  H  H16  1  0.77814000  0.07442000  0.66226000  1.0
  H  H17  1  0.22187000  0.92559000  0.33775000  1.0
  H  H18  1  0.24035000  0.81401000  0.47843000  1.0
  H  H19  1  0.75966000  0.18598000  0.52157000  1.0
  H  H20  1  0.23619000  0.54221000  0.66108000  1.0
  H  H21  1  0.76382000  0.45780000  0.33892000  1.0
  H  H22  1  0.11337000  0.61738000  0.55830000  1.0
  H  H23  1  0.88665000  0.38263000  0.44169000  1.0
  H  H24  1  0.20384000  0.68083000  0.73518000  1.0
  H  H25  1  0.79618000  0.31917000  0.26482000  1.0
  H  H26  1  0.52054000  0.45184000  0.87768000  1.0
  H  H27  1  0.47946000  0.54816000  0.12232000  1.0
  H  H28  1  0.34598000  0.43069000  0.83032000  1.0
  H  H29  1  0.65402000  0.56931000  0.16968000  1.0
  H  H30  1  0.78411000  0.94257000  0.13847000  1.0
  H  H31  1  0.21588000  0.05743000  0.86152000  1.0
  H  H32  1  0.70171000  0.03782000  0.05340000  1.0
  H  H33  1  0.29827000  0.96217000  0.94659000  1.0
  C  C34  1  0.34279000  0.73772000  0.00710000  1.0
  C  C35  1  0.65719000  0.26227000  0.99289000  1.0
  C  C36  1  0.23715000  0.70047000  0.07788000  1.0
  C  C37  1  0.76284000  0.29953000  0.92212000  1.0
  C  C38  1  0.09642000  0.72067000  0.03100000  1.0
  C  C39  1  0.90357000  0.27933000  0.96900000  1.0
  C  C40  1  0.99552000  0.68210000  0.09535000  1.0
  C  C41  1  0.00448000  0.31790000  0.90465000  1.0
  C  C42  1  0.03304000  0.62091000  0.20372000  1.0
  C  C43  1  0.96696000  0.37909000  0.79628000  1.0
  C  C44  1  0.17086000  0.59603000  0.24773000  1.0
  C  C45  1  0.82914000  0.40397000  0.75227000  1.0
  C  C46  1  0.27556000  0.63922000  0.18694000  1.0
  C  C47  1  0.72443000  0.36078000  0.81306000  1.0
  C  C48  1  0.84601000  0.70455000  0.04963000  1.0
  C  C49  1  0.15399000  0.29545000  0.95037000  1.0
  C  C50  1  0.33557000  0.50594000  0.39933000  1.0
  C  C51  1  0.66442000  0.49406000  0.60067000  1.0
  C  C52  1  0.66469000  0.91278000  0.75305000  1.0
  C  C53  1  0.33532000  0.08723000  0.24695000  1.0
  C  C54  1  0.66044000  0.98940000  0.65500000  1.0
  C  C55  1  0.33957000  0.01061000  0.34500000  1.0
  C  C56  1  0.50626000  0.95940000  0.55267000  1.0
  C  C57  1  0.49375000  0.04061000  0.44733000  1.0
  C  C58  1  0.36441000  0.84687000  0.55562000  1.0
  C  C59  1  0.63560000  0.15313000  0.44438000  1.0
  C  C60  1  0.37604000  0.76973000  0.65486000  1.0
  C  C61  1  0.62398000  0.23027000  0.34515000  1.0
  C  C62  1  0.22285000  0.64530000  0.65169000  1.0
  C  C63  1  0.77716000  0.35470000  0.34831000  1.0
  N  N64  1  0.52658000  0.80542000  0.75529000  1.0
  N  N65  1  0.47343000  0.19458000  0.24471000  1.0
  O  O66  1  0.34728000  0.83411000  0.93946000  1.0
  O  O67  1  0.65270000  0.16587000  0.06053000  1.0
  O  O68  1  0.42497000  0.66415000  0.01445000  1.0
  O  O69  1  0.57503000  0.33585000  0.98555000  1.0
  O  O70  1  0.19238000  0.52815000  0.34971000  1.0
  O  O71  1  0.80761000  0.47185000  0.65029000  1.0
  O  O72  1  0.77936000  0.71318000  0.93018000  1.0
  O  O73  1  0.22065000  0.28682000  0.06983000  1.0
  O  O74  1  0.78638000  0.71428000  0.12960000  1.0
  O  O75  1  0.21362000  0.28572000  0.87040000  1.0
  O  O76  1  0.44925000  0.49223000  0.82235000  1.0
  O  O77  1  0.55074000  0.50777000  0.17765000  1.0
  O  O78  1  0.73798000  0.95645000  0.04992000  1.0
  O  O79  1  0.26201000  0.04355000  0.95007000  1.0
