# generated using pymatgen
data_ZnH12C16(NO2)2
_symmetry_space_group_name_H-M   'P 1'
_cell_length_a   7.40727000
_cell_length_b   7.40733000
_cell_length_c   29.26200000
_cell_angle_alpha   90.00000000
_cell_angle_beta   90.00000000
_cell_angle_gamma   90.00000000
_symmetry_Int_Tables_number   1
_chemical_formula_structural   ZnH12C16(NO2)2
_chemical_formula_sum   'Zn4 H48 C64 N8 O16'
_cell_volume   1605.55014583
_cell_formula_units_Z   4
loop_
 _symmetry_equiv_pos_site_id
 _symmetry_equiv_pos_as_xyz
  1  'x, y, z'
loop_
 _atom_site_type_symbol
 _atom_site_label
 _atom_site_symmetry_multiplicity
 _atom_site_fract_x
 _atom_site_fract_y
 _atom_site_fract_z
 _atom_site_occupancy
  Zn  Zn0  1  0.74297000  0.68662000  0.69157000  1.0
  Zn  Zn1  1  0.25703000  0.31338000  0.19157000  1.0
  Zn  Zn2  1  0.31338000  0.74297000  0.44157000  1.0
  Zn  Zn3  1  0.68662000  0.25703000  0.94157000  1.0
  H  H4  1  0.27883000  0.01974000  0.74610000  1.0
  H  H5  1  0.72116000  0.98026000  0.24610000  1.0
  H  H6  1  0.98026000  0.27883000  0.49610000  1.0
  H  H7  1  0.01973000  0.72117000  0.99610000  1.0
  H  H8  1  0.10266000  0.46712000  0.73544000  1.0
  H  H9  1  0.89734000  0.53288000  0.23544000  1.0
  H  H10  1  0.53288000  0.10266000  0.48544000  1.0
  H  H11  1  0.46712000  0.89734000  0.98544000  1.0
  H  H12  1  0.47645000  0.55435000  0.84717000  1.0
  H  H13  1  0.52355000  0.44565000  0.34717000  1.0
  H  H14  1  0.44565000  0.47645000  0.59717000  1.0
  H  H15  1  0.55434000  0.52355000  0.09717000  1.0
  H  H16  1  0.38003000  0.08453000  0.82366000  1.0
  H  H17  1  0.61997000  0.91547000  0.32366000  1.0
  H  H18  1  0.91547000  0.38003000  0.57366000  1.0
  H  H19  1  0.08453000  0.61997000  0.07366000  1.0
  H  H20  1  0.94820000  0.32174000  0.78197000  1.0
  H  H21  1  0.05180000  0.67826000  0.28197000  1.0
  H  H22  1  0.67826000  0.94820000  0.53197000  1.0
  H  H23  1  0.32174000  0.05180000  0.03197000  1.0
  H  H24  1  0.00460000  0.89161000  0.81838000  1.0
  H  H25  1  0.99540000  0.10839000  0.31838000  1.0
  H  H26  1  0.10839000  0.00460000  0.56838000  1.0
  H  H27  1  0.89161000  0.99540000  0.06838000  1.0
  H  H28  1  0.70485000  0.64685000  0.78927000  1.0
  H  H29  1  0.29515000  0.35315000  0.28927000  1.0
  H  H30  1  0.35315000  0.70485000  0.53927000  1.0
  H  H31  1  0.64684000  0.29515000  0.03927000  1.0
  H  H32  1  0.72844000  0.23355000  0.84244000  1.0
  H  H33  1  0.27156000  0.76645000  0.34244000  1.0
  H  H34  1  0.76645000  0.72844000  0.59244000  1.0
  H  H35  1  0.23355000  0.27156000  0.09244000  1.0
  H  H36  1  0.34683000  0.56005000  0.68276000  1.0
  H  H37  1  0.65317000  0.43995000  0.18276000  1.0
  H  H38  1  0.43995000  0.34683000  0.43276000  1.0
  H  H39  1  0.56005000  0.65317000  0.93276000  1.0
  H  H40  1  0.24510000  0.60783000  0.88725000  1.0
  H  H41  1  0.75490000  0.39217000  0.38725000  1.0
  H  H42  1  0.39217000  0.24510000  0.63725000  1.0
  H  H43  1  0.60783000  0.75490000  0.13725000  1.0
  H  H44  1  0.10273000  0.98094000  0.89811000  1.0
  H  H45  1  0.89727000  0.01906000  0.39811000  1.0
  H  H46  1  0.01905000  0.10273000  0.64811000  1.0
  H  H47  1  0.98095000  0.89727000  0.14811000  1.0
  H  H48  1  0.01341000  0.50673000  0.94252000  1.0
  H  H49  1  0.98659000  0.49327000  0.44252000  1.0
  H  H50  1  0.49327000  0.01341000  0.69252000  1.0
  H  H51  1  0.50673000  0.98659000  0.19252000  1.0
  C  C52  1  0.03891000  0.87129000  0.72473000  1.0
  C  C53  1  0.96108000  0.12871000  0.22473000  1.0
  C  C54  1  0.12871000  0.03891000  0.47473000  1.0
  C  C55  1  0.87129000  0.96109000  0.97473000  1.0
  C  C56  1  0.15664000  0.95667000  0.75951000  1.0
  C  C57  1  0.84336000  0.04333000  0.25951000  1.0
  C  C58  1  0.04333000  0.15664000  0.50951000  1.0
  C  C59  1  0.95667000  0.84337000  0.00951000  1.0
  C  C60  1  0.23399000  0.50487000  0.74930000  1.0
  C  C61  1  0.76601000  0.49513000  0.24930000  1.0
  C  C62  1  0.49513000  0.23399000  0.49930000  1.0
  C  C63  1  0.50487000  0.76601000  0.99930000  1.0
  C  C64  1  0.35780000  0.11585000  0.91510000  1.0
  C  C65  1  0.64220000  0.88415000  0.41510000  1.0
  C  C66  1  0.88415000  0.35780000  0.66510000  1.0
  C  C67  1  0.11585000  0.64220000  0.16510000  1.0
  C  C68  1  0.44001000  0.55682000  0.81116000  1.0
  C  C69  1  0.55999000  0.44318000  0.31116000  1.0
  C  C70  1  0.44318000  0.44001000  0.56116000  1.0
  C  C71  1  0.55682000  0.55998000  0.06116000  1.0
  C  C72  1  0.12216000  0.46681000  0.82976000  1.0
  C  C73  1  0.87784000  0.53318000  0.32976000  1.0
  C  C74  1  0.53318000  0.12216000  0.57976000  1.0
  C  C75  1  0.46682000  0.87784000  0.07976000  1.0
  C  C76  1  0.25468000  0.02793000  0.83732000  1.0
  C  C77  1  0.74532000  0.97207000  0.33731000  1.0
  C  C78  1  0.97207000  0.25468000  0.58731000  1.0
  C  C79  1  0.02793000  0.74533000  0.08731000  1.0
  C  C80  1  0.96949000  0.36609000  0.81706000  1.0
  C  C81  1  0.03051000  0.63391000  0.31706000  1.0
  C  C82  1  0.63391000  0.96949000  0.56706000  1.0
  C  C83  1  0.36609000  0.03051000  0.06706000  1.0
  C  C84  1  0.26579000  0.50951000  0.79655000  1.0
  C  C85  1  0.73421000  0.49049000  0.29655000  1.0
  C  C86  1  0.49049000  0.26579000  0.54655000  1.0
  C  C87  1  0.50951000  0.73421000  0.04655000  1.0
  C  C88  1  0.12820000  0.95308000  0.80513000  1.0
  C  C89  1  0.87180000  0.04691000  0.30512000  1.0
  C  C90  1  0.04691000  0.12820000  0.55513000  1.0
  C  C91  1  0.95308000  0.87180000  0.05513000  1.0
  C  C92  1  0.56943000  0.60550000  0.77929000  1.0
  C  C93  1  0.43056000  0.39451000  0.27929000  1.0
  C  C94  1  0.39451000  0.56943000  0.52929000  1.0
  C  C95  1  0.60549000  0.43057000  0.02929000  1.0
  C  C96  1  0.84585000  0.31639000  0.85035000  1.0
  C  C97  1  0.15415000  0.68361000  0.35035000  1.0
  C  C98  1  0.68361000  0.84585000  0.60035000  1.0
  C  C99  1  0.31639000  0.15415000  0.10035000  1.0
  C  C100  1  0.37085000  0.55550000  0.71951000  1.0
  C  C101  1  0.62915000  0.44450000  0.21951000  1.0
  C  C102  1  0.44450000  0.37085000  0.46951000  1.0
  C  C103  1  0.55550000  0.62915000  0.96951000  1.0
  C  C104  1  0.13533000  0.52190000  0.87553000  1.0
  C  C105  1  0.86467000  0.47810000  0.37553000  1.0
  C  C106  1  0.47810000  0.13533000  0.62553000  1.0
  C  C107  1  0.52190000  0.86467000  0.12553000  1.0
  C  C108  1  0.22646000  0.03456000  0.88294000  1.0
  C  C109  1  0.77354000  0.96544000  0.38294000  1.0
  C  C110  1  0.96544000  0.22646000  0.63294000  1.0
  C  C111  1  0.03456000  0.77355000  0.13294000  1.0
  C  C112  1  0.00522000  0.46769000  0.90670000  1.0
  C  C113  1  0.99478000  0.53231000  0.40670000  1.0
  C  C114  1  0.53231000  0.00522000  0.65670000  1.0
  C  C115  1  0.46769000  0.99478000  0.15670000  1.0
  N  N116  1  0.53545000  0.60726000  0.73399000  1.0
  N  N117  1  0.46455000  0.39274000  0.23399000  1.0
  N  N118  1  0.39274000  0.53544000  0.48399000  1.0
  N  N119  1  0.60726000  0.46455000  0.98399000  1.0
  N  N120  1  0.86399000  0.36382000  0.89466000  1.0
  N  N121  1  0.13602000  0.63617000  0.39466000  1.0
  N  N122  1  0.63618000  0.86399000  0.64466000  1.0
  N  N123  1  0.36382000  0.13601000  0.14466000  1.0
  O  O124  1  0.09303000  0.86001000  0.68421000  1.0
  O  O125  1  0.90696000  0.13999000  0.18421000  1.0
  O  O126  1  0.13999000  0.09303000  0.43421000  1.0
  O  O127  1  0.86001000  0.90697000  0.93421000  1.0
  O  O128  1  0.50329000  0.18536000  0.89711000  1.0
  O  O129  1  0.49671000  0.81464000  0.39711000  1.0
  O  O130  1  0.81464000  0.50329000  0.64710000  1.0
  O  O131  1  0.18536000  0.49671000  0.14710000  1.0
  O  O132  1  0.32630000  0.11364000  0.95730000  1.0
  O  O133  1  0.67370000  0.88637000  0.45730000  1.0
  O  O134  1  0.88636000  0.32630000  0.70730000  1.0
  O  O135  1  0.11365000  0.67370000  0.20730000  1.0
  O  O136  1  0.88549000  0.80613000  0.73925000  1.0
  O  O137  1  0.11450000  0.19387000  0.23925000  1.0
  O  O138  1  0.19386000  0.88549000  0.48925000  1.0
  O  O139  1  0.80614000  0.11451000  0.98925000  1.0
