# generated using pymatgen
data_AgH20C26(NO)3
_symmetry_space_group_name_H-M   'P 1'
_cell_length_a   9.24013000
_cell_length_b   9.30517000
_cell_length_c   27.44860000
_cell_angle_alpha   90.00050000
_cell_angle_beta   90.00000000
_cell_angle_gamma   104.44700000
_symmetry_Int_Tables_number   1
_chemical_formula_structural   AgH20C26(NO)3
_chemical_formula_sum   'Ag4 H80 C104 N12 O12'
_cell_volume   2285.42976871
_cell_formula_units_Z   4
loop_
 _symmetry_equiv_pos_site_id
 _symmetry_equiv_pos_as_xyz
  1  'x, y, z'
loop_
 _atom_site_type_symbol
 _atom_site_label
 _atom_site_symmetry_multiplicity
 _atom_site_fract_x
 _atom_site_fract_y
 _atom_site_fract_z
 _atom_site_occupancy
  Ag  Ag0  1  0.78333000  0.47002000  0.90616000  1.0
  Ag  Ag1  1  0.21667000  0.02998000  0.40616000  1.0
  Ag  Ag2  1  0.21667000  0.52998000  0.09384000  1.0
  Ag  Ag3  1  0.78333000  0.97002000  0.59384000  1.0
  H  H4  1  0.25966000  0.36139000  0.92525000  1.0
  H  H5  1  0.74034000  0.13862000  0.42525000  1.0
  H  H6  1  0.74034000  0.63862000  0.07476000  1.0
  H  H7  1  0.25966000  0.86138000  0.57475000  1.0
  H  H8  1  0.51218000  0.76517000  0.82139000  1.0
  H  H9  1  0.48782000  0.73482000  0.32139000  1.0
  H  H10  1  0.48782000  0.23483000  0.17861000  1.0
  H  H11  1  0.51217000  0.26518000  0.67861000  1.0
  H  H12  1  0.44405000  0.86109000  0.74195000  1.0
  H  H13  1  0.55596000  0.63891000  0.24195000  1.0
  H  H14  1  0.55596000  0.13891000  0.25805000  1.0
  H  H15  1  0.44403000  0.36109000  0.75805000  1.0
  H  H16  1  0.20362000  0.73806000  0.70207000  1.0
  H  H17  1  0.79639000  0.76195000  0.20207000  1.0
  H  H18  1  0.79638000  0.26194000  0.29793000  1.0
  H  H19  1  0.20361000  0.23805000  0.79793000  1.0
  H  H20  1  0.02426000  0.52755000  0.74279000  1.0
  H  H21  1  0.97575000  0.97246000  0.24279000  1.0
  H  H22  1  0.97574000  0.47245000  0.25722000  1.0
  H  H23  1  0.02425000  0.02754000  0.75721000  1.0
  H  H24  1  0.06454000  0.24420000  0.96035000  1.0
  H  H25  1  0.93545000  0.25581000  0.46035000  1.0
  H  H26  1  0.93546000  0.75580000  0.03965000  1.0
  H  H27  1  0.06454000  0.74419000  0.53965000  1.0
  H  H28  1  0.88698000  0.01471000  0.98841000  1.0
  H  H29  1  0.11303000  0.48530000  0.48841000  1.0
  H  H30  1  0.11302000  0.98528000  0.01159000  1.0
  H  H31  1  0.88697000  0.51471000  0.51159000  1.0
  H  H32  1  0.71552000  0.85058000  0.92919000  1.0
  H  H33  1  0.28449000  0.64942000  0.42919000  1.0
  H  H34  1  0.28449000  0.14942000  0.07081000  1.0
  H  H35  1  0.71551000  0.35058000  0.57081000  1.0
  H  H36  1  0.72082000  0.92254000  0.84245000  1.0
  H  H37  1  0.27918000  0.57745000  0.34246000  1.0
  H  H38  1  0.27918000  0.07746000  0.15754000  1.0
  H  H39  1  0.72082000  0.42255000  0.65754000  1.0
  H  H40  1  0.89644000  0.15847000  0.81406000  1.0
  H  H41  1  0.10356000  0.34153000  0.31406000  1.0
  H  H42  1  0.10356000  0.84153000  0.18594000  1.0
  H  H43  1  0.89644000  0.65847000  0.68594000  1.0
  H  H44  1  0.92121000  0.72173000  0.83565000  1.0
  H  H45  1  0.07879000  0.77827000  0.33565000  1.0
  H  H46  1  0.07879000  0.27827000  0.16435000  1.0
  H  H47  1  0.92121000  0.22174000  0.66435000  1.0
  H  H48  1  0.13718000  0.94308000  0.83193000  1.0
  H  H49  1  0.86282000  0.55691000  0.33193000  1.0
  H  H50  1  0.86282000  0.05692000  0.16807000  1.0
  H  H51  1  0.13719000  0.44309000  0.66807000  1.0
  H  H52  1  0.28011000  0.80672000  0.97071000  1.0
  H  H53  1  0.71990000  0.69329000  0.47071000  1.0
  H  H54  1  0.71990000  0.19328000  0.02929000  1.0
  H  H55  1  0.28010000  0.30671000  0.52929000  1.0
  H  H56  1  0.06051000  0.59072000  0.96840000  1.0
  H  H57  1  0.93950000  0.90928000  0.46840000  1.0
  H  H58  1  0.93949000  0.40927000  0.03160000  1.0
  H  H59  1  0.06050000  0.09072000  0.53160000  1.0
  H  H60  1  0.57159000  0.27800000  0.97895000  1.0
  H  H61  1  0.42841000  0.22200000  0.47895000  1.0
  H  H62  1  0.42841000  0.72199000  0.02105000  1.0
  H  H63  1  0.57159000  0.77800000  0.52105000  1.0
  H  H64  1  0.35636000  0.05864000  0.98058000  1.0
  H  H65  1  0.64364000  0.44136000  0.48058000  1.0
  H  H66  1  0.64364000  0.94134000  0.01942000  1.0
  H  H67  1  0.35637000  0.55864000  0.51942000  1.0
  H  H68  1  0.39433000  0.03359000  0.82384000  1.0
  H  H69  1  0.60567000  0.46641000  0.32385000  1.0
  H  H70  1  0.60567000  0.96641000  0.17615000  1.0
  H  H71  1  0.39434000  0.53359000  0.67615000  1.0
  H  H72  1  0.61377000  0.25103000  0.82892000  1.0
  H  H73  1  0.38623000  0.24897000  0.32893000  1.0
  H  H74  1  0.38623000  0.74897000  0.17107000  1.0
  H  H75  1  0.61377000  0.75103000  0.67107000  1.0
  H  H76  1  0.63973000  0.60302000  0.97430000  1.0
  H  H77  1  0.36027000  0.89698000  0.47430000  1.0
  H  H78  1  0.36027000  0.39699000  0.02570000  1.0
  H  H79  1  0.63973000  0.10302000  0.52570000  1.0
  H  H80  1  0.66030000  0.49933000  0.01657000  1.0
  H  H81  1  0.33971000  0.00068000  0.51657000  1.0
  H  H82  1  0.33971000  0.50067000  0.98343000  1.0
  H  H83  1  0.66029000  0.99933000  0.48344000  1.0
  C  C84  1  0.33968000  0.53232000  0.87245000  1.0
  C  C85  1  0.66031000  0.96768000  0.37245000  1.0
  C  C86  1  0.66032000  0.46768000  0.12755000  1.0
  C  C87  1  0.33968000  0.03232000  0.62755000  1.0
  C  C88  1  0.30756000  0.59284000  0.82716000  1.0
  C  C89  1  0.69244000  0.90716000  0.32716000  1.0
  C  C90  1  0.69244000  0.40716000  0.17284000  1.0
  C  C91  1  0.30756000  0.09284000  0.67284000  1.0
  C  C92  1  0.16656000  0.52525000  0.80478000  1.0
  C  C93  1  0.83344000  0.97475000  0.30478000  1.0
  C  C94  1  0.83344000  0.47475000  0.19522000  1.0
  C  C95  1  0.16656000  0.02525000  0.69522000  1.0
  C  C96  1  0.10035000  0.35071000  0.86614000  1.0
  C  C97  1  0.89964000  0.14929000  0.36614000  1.0
  C  C98  1  0.89965000  0.64929000  0.13386000  1.0
  C  C99  1  0.10035000  0.85071000  0.63386000  1.0
  C  C100  1  0.23656000  0.41100000  0.89111000  1.0
  C  C101  1  0.76343000  0.08900000  0.39111000  1.0
  C  C102  1  0.76344000  0.58901000  0.10889000  1.0
  C  C103  1  0.23656000  0.91099000  0.60889000  1.0
  C  C104  1  0.48482000  0.59569000  0.89921000  1.0
  C  C105  1  0.51519000  0.90431000  0.39920000  1.0
  C  C106  1  0.51519000  0.40431000  0.10079000  1.0
  C  C107  1  0.48481000  0.09569000  0.60080000  1.0
  C  C108  1  0.40584000  0.71531000  0.80391000  1.0
  C  C109  1  0.59416000  0.78469000  0.30390000  1.0
  C  C110  1  0.59417000  0.28470000  0.19609000  1.0
  C  C111  1  0.40583000  0.21531000  0.69610000  1.0
  C  C112  1  0.36818000  0.76686000  0.75977000  1.0
  C  C113  1  0.63183000  0.73315000  0.25977000  1.0
  C  C114  1  0.63182000  0.23315000  0.24023000  1.0
  C  C115  1  0.36816000  0.26685000  0.74023000  1.0
  C  C116  1  0.23082000  0.69794000  0.73717000  1.0
  C  C117  1  0.76918000  0.80207000  0.23717000  1.0
  C  C118  1  0.76918000  0.30206000  0.26283000  1.0
  C  C119  1  0.23081000  0.19793000  0.76283000  1.0
  C  C120  1  0.13145000  0.58111000  0.75938000  1.0
  C  C121  1  0.86855000  0.91889000  0.25938000  1.0
  C  C122  1  0.86855000  0.41889000  0.24062000  1.0
  C  C123  1  0.13144000  0.08110000  0.74062000  1.0
  C  C124  1  0.99273000  0.21606000  0.88479000  1.0
  C  C125  1  0.00727000  0.28394000  0.38479000  1.0
  C  C126  1  0.00728000  0.78394000  0.11521000  1.0
  C  C127  1  0.99272000  0.71606000  0.61521000  1.0
  C  C128  1  0.98933000  0.17465000  0.93416000  1.0
  C  C129  1  0.01067000  0.32535000  0.43416000  1.0
  C  C130  1  0.01067000  0.82535000  0.06584000  1.0
  C  C131  1  0.98932000  0.67465000  0.56584000  1.0
  C  C132  1  0.88844000  0.04518000  0.95002000  1.0
  C  C133  1  0.11156000  0.45483000  0.45002000  1.0
  C  C134  1  0.11157000  0.95481000  0.04998000  1.0
  C  C135  1  0.88843000  0.54518000  0.54998000  1.0
  C  C136  1  0.79136000  0.95409000  0.91730000  1.0
  C  C137  1  0.20864000  0.54591000  0.41730000  1.0
  C  C138  1  0.20864000  0.04591000  0.08270000  1.0
  C  C139  1  0.79136000  0.45409000  0.58270000  1.0
  C  C140  1  0.79467000  0.99483000  0.86821000  1.0
  C  C141  1  0.20533000  0.50517000  0.36821000  1.0
  C  C142  1  0.20533000  0.00517000  0.13179000  1.0
  C  C143  1  0.79467000  0.49483000  0.63179000  1.0
  C  C144  1  0.89332000  0.12478000  0.85216000  1.0
  C  C145  1  0.10667000  0.37522000  0.35216000  1.0
  C  C146  1  0.10668000  0.87522000  0.14784000  1.0
  C  C147  1  0.89332000  0.62478000  0.64784000  1.0
  C  C148  1  0.00420000  0.74447000  0.86468000  1.0
  C  C149  1  0.99580000  0.75553000  0.36468000  1.0
  C  C150  1  0.99580000  0.25554000  0.13532000  1.0
  C  C151  1  0.00421000  0.24447000  0.63532000  1.0
  C  C152  1  0.12501000  0.86793000  0.86292000  1.0
  C  C153  1  0.87499000  0.63207000  0.36292000  1.0
  C  C154  1  0.87499000  0.13207000  0.13708000  1.0
  C  C155  1  0.12501000  0.36793000  0.63708000  1.0
  C  C156  1  0.22704000  0.89541000  0.90161000  1.0
  C  C157  1  0.77296000  0.60459000  0.40162000  1.0
  C  C158  1  0.77296000  0.10459000  0.09839000  1.0
  C  C159  1  0.22704000  0.39541000  0.59839000  1.0
  C  C160  1  0.20232000  0.79413000  0.94038000  1.0
  C  C161  1  0.79769000  0.70588000  0.44038000  1.0
  C  C162  1  0.79768000  0.20587000  0.05962000  1.0
  C  C163  1  0.20232000  0.29413000  0.55962000  1.0
  C  C164  1  0.08032000  0.67229000  0.93911000  1.0
  C  C165  1  0.91969000  0.82771000  0.43912000  1.0
  C  C166  1  0.91968000  0.32770000  0.06088000  1.0
  C  C167  1  0.08031000  0.17229000  0.56088000  1.0
  C  C168  1  0.53219000  0.21837000  0.94541000  1.0
  C  C169  1  0.46781000  0.28163000  0.44541000  1.0
  C  C170  1  0.46781000  0.78162000  0.05459000  1.0
  C  C171  1  0.53220000  0.71837000  0.55458000  1.0
  C  C172  1  0.41039000  0.09591000  0.94596000  1.0
  C  C173  1  0.58961000  0.40409000  0.44596000  1.0
  C  C174  1  0.58961000  0.90408000  0.05404000  1.0
  C  C175  1  0.41039000  0.59591000  0.55404000  1.0
  C  C176  1  0.35627000  0.02540000  0.90207000  1.0
  C  C177  1  0.64373000  0.47461000  0.40208000  1.0
  C  C178  1  0.64373000  0.97460000  0.09793000  1.0
  C  C179  1  0.35628000  0.52540000  0.59792000  1.0
  C  C180  1  0.42988000  0.08390000  0.85909000  1.0
  C  C181  1  0.57012000  0.41610000  0.35909000  1.0
  C  C182  1  0.57012000  0.91609000  0.14091000  1.0
  C  C183  1  0.42988000  0.58390000  0.64091000  1.0
  C  C184  1  0.55293000  0.20504000  0.86166000  1.0
  C  C185  1  0.44707000  0.29496000  0.36167000  1.0
  C  C186  1  0.44707000  0.79496000  0.13834000  1.0
  C  C187  1  0.55294000  0.70504000  0.63833000  1.0
  N  N188  1  0.98179000  0.64720000  0.90201000  1.0
  N  N189  1  0.01821000  0.85280000  0.40201000  1.0
  N  N190  1  0.01821000  0.35280000  0.09799000  1.0
  N  N191  1  0.98179000  0.14720000  0.59799000  1.0
  N  N192  1  0.60446000  0.27190000  0.90402000  1.0
  N  N193  1  0.39555000  0.22810000  0.40403000  1.0
  N  N194  1  0.39554000  0.72809000  0.09597000  1.0
  N  N195  1  0.60446000  0.77191000  0.59598000  1.0
  N  N196  1  0.06540000  0.40788000  0.82457000  1.0
  N  N197  1  0.93459000  0.09213000  0.32456000  1.0
  N  N198  1  0.93460000  0.59213000  0.17543000  1.0
  N  N199  1  0.06540000  0.90787000  0.67543000  1.0
  O  O200  1  0.60423000  0.62088000  0.87485000  1.0
  O  O201  1  0.39578000  0.87911000  0.37485000  1.0
  O  O202  1  0.39578000  0.37912000  0.12515000  1.0
  O  O203  1  0.60422000  0.12089000  0.62516000  1.0
  O  O204  1  0.47529000  0.61728000  0.94513000  1.0
  O  O205  1  0.52471000  0.88271000  0.44513000  1.0
  O  O206  1  0.52472000  0.38272000  0.05487000  1.0
  O  O207  1  0.47529000  0.11729000  0.55487000  1.0
  O  O208  1  0.71930000  0.57063000  0.99268000  1.0
  O  O209  1  0.28071000  0.92938000  0.49268000  1.0
  O  O210  1  0.28071000  0.42937000  0.00732000  1.0
  O  O211  1  0.71929000  0.07063000  0.50732000  1.0
