# generated using pymatgen
data_Zr3H20C54(N3O14)2
_symmetry_space_group_name_H-M   'P 1'
_cell_length_a   19.00310000
_cell_length_b   19.00307128
_cell_length_c   19.00307128
_cell_angle_alpha   60.00000000
_cell_angle_beta   60.00005000
_cell_angle_gamma   60.00005000
_symmetry_Int_Tables_number   1
_chemical_formula_structural   Zr3H20C54(N3O14)2
_chemical_formula_sum   'Zr6 H40 C108 N12 O56'
_cell_volume   4852.40876746
_cell_formula_units_Z   2
loop_
 _symmetry_equiv_pos_site_id
 _symmetry_equiv_pos_as_xyz
  1  'x, y, z'
loop_
 _atom_site_type_symbol
 _atom_site_label
 _atom_site_symmetry_multiplicity
 _atom_site_fract_x
 _atom_site_fract_y
 _atom_site_fract_z
 _atom_site_occupancy
  Zr  Zr0  1  0.90700000  0.40700000  0.09300000  1.0
  Zr  Zr1  1  0.09300000  0.59300000  0.90700000  1.0
  Zr  Zr2  1  0.09300000  0.40700000  0.90700000  1.0
  Zr  Zr3  1  0.90700000  0.59300000  0.09300000  1.0
  Zr  Zr4  1  0.09300000  0.40700000  0.09300000  1.0
  Zr  Zr5  1  0.90700000  0.59300000  0.90700000  1.0
  H  H6  1  0.07324000  0.28028000  0.07324000  1.0
  H  H7  1  0.07324000  0.57324000  0.07324000  1.0
  H  H8  1  0.07324000  0.57324000  0.78028000  1.0
  H  H9  1  0.78028000  0.57324000  0.07324000  1.0
  H  H10  1  0.88439000  0.82304000  0.67766000  1.0
  H  H11  1  0.81829000  0.93807000  0.56543000  1.0
  H  H12  1  0.10985000  0.81977000  0.68131000  1.0
  H  H13  1  0.11490000  0.17766000  0.32304000  1.0
  H  H14  1  0.17820000  0.06543000  0.43808000  1.0
  H  H15  1  0.88907000  0.18131000  0.31977000  1.0
  H  H16  1  0.32303000  0.38440000  0.11491000  1.0
  H  H17  1  0.43807000  0.31829000  0.17821000  1.0
  H  H18  1  0.31978000  0.60985000  0.88907000  1.0
  H  H19  1  0.67765000  0.61491000  0.88440000  1.0
  H  H20  1  0.56544000  0.67820000  0.81829000  1.0
  H  H21  1  0.68131000  0.38907000  0.10985000  1.0
  H  H22  1  0.11490000  0.38440000  0.67766000  1.0
  H  H23  1  0.17820000  0.31829000  0.56543000  1.0
  H  H24  1  0.88908000  0.60985000  0.68130000  1.0
  H  H25  1  0.88440000  0.61491000  0.32303000  1.0
  H  H26  1  0.81829000  0.67821000  0.43807000  1.0
  H  H27  1  0.10986000  0.38907000  0.31977000  1.0
  H  H28  1  0.32303000  0.17766000  0.88440000  1.0
  H  H29  1  0.43808000  0.06543000  0.81829000  1.0
  H  H30  1  0.31977000  0.18131000  0.10985000  1.0
  H  H31  1  0.67765000  0.82304000  0.11491000  1.0
  H  H32  1  0.56543000  0.93807000  0.17821000  1.0
  H  H33  1  0.68131000  0.81977000  0.88907000  1.0
  H  H34  1  0.11490000  0.82304000  0.88440000  1.0
  H  H35  1  0.17820000  0.93808000  0.81829000  1.0
  H  H36  1  0.88907000  0.81977000  0.10985000  1.0
  H  H37  1  0.88439000  0.17766000  0.11491000  1.0
  H  H38  1  0.81829000  0.06543000  0.17820000  1.0
  H  H39  1  0.10985000  0.18131000  0.88907000  1.0
  H  H40  1  0.32303000  0.61491000  0.67766000  1.0
  H  H41  1  0.43808000  0.67820000  0.56543000  1.0
  H  H42  1  0.31978000  0.38907000  0.68130000  1.0
  H  H43  1  0.67765000  0.38440000  0.32304000  1.0
  H  H44  1  0.56543000  0.31829000  0.43807000  1.0
  H  H45  1  0.68130000  0.60985000  0.31977000  1.0
  C  C46  1  0.99976000  0.26603000  0.23821000  1.0
  C  C47  1  0.23821000  0.49600000  0.99976000  1.0
  C  C48  1  0.99600000  0.73821000  0.76603000  1.0
  C  C49  1  0.76603000  0.49976000  0.99600000  1.0
  C  C50  1  0.99600000  0.26603000  0.99976000  1.0
  C  C51  1  0.76603000  0.49600000  0.23821000  1.0
  C  C52  1  0.99976000  0.73821000  0.99600000  1.0
  C  C53  1  0.23821000  0.49976000  0.76603000  1.0
  C  C54  1  0.23821000  0.26603000  0.99600000  1.0
  C  C55  1  0.99976000  0.49600000  0.76603000  1.0
  C  C56  1  0.76603000  0.73821000  0.99976000  1.0
  C  C57  1  0.99600000  0.49976000  0.23821000  1.0
  C  C58  1  0.93390000  0.85195000  0.64890000  1.0
  C  C59  1  0.93463000  0.92511000  0.57457000  1.0
  C  C60  1  0.86958000  0.96480000  0.53639000  1.0
  C  C61  1  0.06183000  0.85064000  0.65029000  1.0
  C  C62  1  0.06576000  0.92275000  0.57516000  1.0
  C  C63  1  0.12936000  0.96356000  0.53547000  1.0
  C  C64  1  0.06524000  0.14890000  0.35195000  1.0
  C  C65  1  0.06569000  0.07457000  0.42511000  1.0
  C  C66  1  0.12923000  0.03639000  0.46480000  1.0
  C  C67  1  0.93724000  0.15029000  0.35064000  1.0
  C  C68  1  0.93632000  0.07516000  0.42275000  1.0
  C  C69  1  0.87161000  0.03547000  0.46356000  1.0
  C  C70  1  0.99668000  0.81588000  0.68655000  1.0
  C  C71  1  0.00085000  0.96169000  0.53656000  1.0
  C  C72  1  0.00089000  0.18655000  0.31588000  1.0
  C  C73  1  0.00089000  0.03656000  0.46169000  1.0
  C  C74  1  0.35194000  0.43391000  0.06525000  1.0
  C  C75  1  0.42511000  0.43463000  0.06569000  1.0
  C  C76  1  0.46480000  0.36958000  0.12923000  1.0
  C  C77  1  0.35064000  0.56183000  0.93724000  1.0
  C  C78  1  0.42275000  0.56577000  0.93633000  1.0
  C  C79  1  0.46356000  0.62936000  0.87161000  1.0
  C  C80  1  0.64889000  0.56525000  0.93391000  1.0
  C  C81  1  0.57457000  0.56569000  0.93463000  1.0
  C  C82  1  0.53639000  0.62923000  0.86958000  1.0
  C  C83  1  0.65029000  0.43724000  0.06183000  1.0
  C  C84  1  0.57515000  0.43633000  0.06577000  1.0
  C  C85  1  0.53547000  0.37161000  0.12936000  1.0
  C  C86  1  0.31588000  0.49668000  0.00089000  1.0
  C  C87  1  0.46169000  0.50086000  0.00090000  1.0
  C  C88  1  0.68655000  0.50089000  0.99668000  1.0
  C  C89  1  0.53655000  0.50090000  0.00086000  1.0
  C  C90  1  0.06524000  0.43391000  0.64890000  1.0
  C  C91  1  0.06569000  0.43463000  0.57457000  1.0
  C  C92  1  0.12923000  0.36958000  0.53639000  1.0
  C  C93  1  0.93724000  0.56183000  0.65029000  1.0
  C  C94  1  0.93632000  0.56577000  0.57516000  1.0
  C  C95  1  0.87161000  0.62936000  0.53547000  1.0
  C  C96  1  0.93391000  0.56525000  0.35194000  1.0
  C  C97  1  0.93463000  0.56569000  0.42511000  1.0
  C  C98  1  0.86958000  0.62923000  0.46480000  1.0
  C  C99  1  0.06183000  0.43724000  0.35064000  1.0
  C  C100  1  0.06577000  0.43633000  0.42275000  1.0
  C  C101  1  0.12936000  0.37161000  0.46356000  1.0
  C  C102  1  0.00089000  0.49668000  0.68655000  1.0
  C  C103  1  0.00089000  0.50086000  0.53656000  1.0
  C  C104  1  0.99668000  0.50089000  0.31588000  1.0
  C  C105  1  0.00086000  0.50090000  0.46169000  1.0
  C  C106  1  0.35194000  0.14890000  0.93391000  1.0
  C  C107  1  0.42511000  0.07457000  0.93463000  1.0
  C  C108  1  0.46480000  0.03639000  0.86958000  1.0
  C  C109  1  0.35064000  0.15029000  0.06183000  1.0
  C  C110  1  0.42275000  0.07515000  0.06577000  1.0
  C  C111  1  0.46356000  0.03547000  0.12936000  1.0
  C  C112  1  0.64889000  0.85195000  0.06525000  1.0
  C  C113  1  0.57457000  0.92511000  0.06569000  1.0
  C  C114  1  0.53639000  0.96480000  0.12923000  1.0
  C  C115  1  0.65029000  0.85064000  0.93724000  1.0
  C  C116  1  0.57515000  0.92275000  0.93633000  1.0
  C  C117  1  0.53547000  0.96356000  0.87161000  1.0
  C  C118  1  0.31588000  0.18655000  0.99668000  1.0
  C  C119  1  0.46168000  0.03656000  0.00086000  1.0
  C  C120  1  0.68655000  0.81588000  0.00089000  1.0
  C  C121  1  0.53655000  0.96169000  0.00090000  1.0
  C  C122  1  0.06524000  0.85195000  0.93391000  1.0
  C  C123  1  0.06569000  0.92511000  0.93463000  1.0
  C  C124  1  0.12923000  0.96480000  0.86958000  1.0
  C  C125  1  0.93724000  0.85064000  0.06183000  1.0
  C  C126  1  0.93633000  0.92275000  0.06577000  1.0
  C  C127  1  0.87161000  0.96356000  0.12936000  1.0
  C  C128  1  0.93390000  0.14890000  0.06525000  1.0
  C  C129  1  0.93463000  0.07457000  0.06569000  1.0
  C  C130  1  0.86958000  0.03639000  0.12923000  1.0
  C  C131  1  0.06183000  0.15029000  0.93724000  1.0
  C  C132  1  0.06576000  0.07516000  0.93633000  1.0
  C  C133  1  0.12936000  0.03547000  0.87161000  1.0
  C  C134  1  0.00089000  0.81588000  0.99668000  1.0
  C  C135  1  0.00090000  0.96169000  0.00086000  1.0
  C  C136  1  0.99669000  0.18655000  0.00088000  1.0
  C  C137  1  0.00086000  0.03655000  0.00090000  1.0
  C  C138  1  0.35194000  0.56525000  0.64890000  1.0
  C  C139  1  0.42511000  0.56569000  0.57457000  1.0
  C  C140  1  0.46480000  0.62923000  0.53639000  1.0
  C  C141  1  0.35064000  0.43724000  0.65029000  1.0
  C  C142  1  0.42274000  0.43633000  0.57516000  1.0
  C  C143  1  0.46356000  0.37161000  0.53547000  1.0
  C  C144  1  0.64889000  0.43391000  0.35195000  1.0
  C  C145  1  0.57457000  0.43463000  0.42511000  1.0
  C  C146  1  0.53639000  0.36958000  0.46480000  1.0
  C  C147  1  0.65029000  0.56183000  0.35064000  1.0
  C  C148  1  0.57515000  0.56577000  0.42275000  1.0
  C  C149  1  0.53547000  0.62936000  0.46356000  1.0
  C  C150  1  0.31588000  0.50089000  0.68655000  1.0
  C  C151  1  0.46168000  0.50090000  0.53656000  1.0
  C  C152  1  0.68655000  0.49668000  0.31588000  1.0
  C  C153  1  0.53655000  0.50086000  0.46169000  1.0
  N  N154  1  0.80333000  0.07109000  0.42691000  1.0
  N  N155  1  0.19868000  0.92691000  0.57109000  1.0
  N  N156  1  0.57110000  0.30332000  0.19867000  1.0
  N  N157  1  0.42692000  0.69867000  0.80332000  1.0
  N  N158  1  0.19868000  0.30332000  0.42691000  1.0
  N  N159  1  0.80333000  0.69867000  0.57109000  1.0
  N  N160  1  0.57110000  0.92691000  0.80332000  1.0
  N  N161  1  0.42692000  0.07109000  0.19867000  1.0
  N  N162  1  0.19867000  0.07110000  0.80332000  1.0
  N  N163  1  0.80333000  0.92691000  0.19867000  1.0
  N  N164  1  0.57110000  0.69867000  0.42691000  1.0
  N  N165  1  0.42692000  0.30332000  0.57109000  1.0
  O  O166  1  0.93965000  0.29683000  0.20804000  1.0
  O  O167  1  0.20804000  0.55548000  0.93965000  1.0
  O  O168  1  0.05548000  0.70804000  0.79683000  1.0
  O  O169  1  0.79683000  0.43965000  0.05548000  1.0
  O  O170  1  0.05548000  0.29683000  0.93965000  1.0
  O  O171  1  0.79683000  0.55548000  0.20804000  1.0
  O  O172  1  0.93965000  0.70804000  0.05548000  1.0
  O  O173  1  0.20804000  0.43965000  0.79683000  1.0
  O  O174  1  0.20804000  0.29683000  0.05548000  1.0
  O  O175  1  0.93965000  0.55548000  0.79683000  1.0
  O  O176  1  0.79683000  0.70804000  0.93965000  1.0
  O  O177  1  0.05548000  0.43965000  0.20804000  1.0
  O  O178  1  0.06002000  0.43657000  0.79635000  1.0
  O  O179  1  0.79636000  0.70706000  0.06001000  1.0
  O  O180  1  0.93657000  0.56001000  0.20706000  1.0
  O  O181  1  0.20707000  0.29636000  0.93657000  1.0
  O  O182  1  0.93658000  0.29636000  0.06000000  1.0
  O  O183  1  0.20706000  0.56001000  0.79636000  1.0
  O  O184  1  0.06001000  0.70706000  0.93657000  1.0
  O  O185  1  0.79636000  0.43657000  0.20707000  1.0
  O  O186  1  0.79636000  0.56000000  0.93657000  1.0
  O  O187  1  0.06001000  0.29636000  0.20706000  1.0
  O  O188  1  0.20707000  0.43657000  0.06000000  1.0
  O  O189  1  0.93657000  0.70707000  0.79636000  1.0
  O  O190  1  0.84274000  0.55242000  0.05242000  1.0
  O  O191  1  0.05241000  0.55242000  0.84275000  1.0
  O  O192  1  0.05242000  0.55242000  0.05241000  1.0
  O  O193  1  0.05241000  0.34275000  0.05242000  1.0
  O  O194  1  0.11584000  0.46139000  0.96139000  1.0
  O  O195  1  0.96138000  0.46139000  0.11584000  1.0
  O  O196  1  0.96139000  0.61584000  0.96138000  1.0
  O  O197  1  0.96138000  0.46139000  0.96139000  1.0
  O  O198  1  0.82555000  0.09132000  0.34752000  1.0
  O  O199  1  0.72890000  0.07756000  0.47777000  1.0
  O  O200  1  0.23561000  0.84752000  0.59132000  1.0
  O  O201  1  0.21577000  0.97777000  0.57756000  1.0
  O  O202  1  0.59132000  0.32555000  0.23561000  1.0
  O  O203  1  0.57756000  0.22890000  0.21577000  1.0
  O  O204  1  0.34752000  0.73561000  0.82555000  1.0
  O  O205  1  0.47777000  0.71577000  0.72890000  1.0
  O  O206  1  0.23561000  0.32555000  0.34752000  1.0
  O  O207  1  0.21577000  0.22890000  0.47777000  1.0
  O  O208  1  0.82555000  0.73561000  0.59132000  1.0
  O  O209  1  0.72890000  0.71577000  0.57756000  1.0
  O  O210  1  0.59132000  0.84752000  0.82555000  1.0
  O  O211  1  0.57756000  0.97777000  0.72890000  1.0
  O  O212  1  0.34753000  0.09132000  0.23561000  1.0
  O  O213  1  0.47777000  0.07756000  0.21577000  1.0
  O  O214  1  0.23562000  0.09132000  0.82554000  1.0
  O  O215  1  0.21577000  0.07756000  0.72890000  1.0
  O  O216  1  0.82554000  0.84753000  0.23561000  1.0
  O  O217  1  0.72890000  0.97777000  0.21577000  1.0
  O  O218  1  0.59132000  0.73561000  0.34752000  1.0
  O  O219  1  0.57756000  0.71577000  0.47777000  1.0
  O  O220  1  0.34752000  0.32555000  0.59132000  1.0
  O  O221  1  0.47777000  0.22890000  0.57756000  1.0
