# generated using pymatgen
data_PrH13C9N4O9
_symmetry_space_group_name_H-M   'P 1'
_cell_length_a   7.90954000
_cell_length_b   9.77514000
_cell_length_c   10.44900000
_cell_angle_alpha   116.92700000
_cell_angle_beta   107.47800000
_cell_angle_gamma   95.19210000
_symmetry_Int_Tables_number   1
_chemical_formula_structural   PrH13C9N4O9
_chemical_formula_sum   'Pr2 H26 C18 N8 O18'
_cell_volume   662.22464277
_cell_formula_units_Z   2
loop_
 _symmetry_equiv_pos_site_id
 _symmetry_equiv_pos_as_xyz
  1  'x, y, z'
loop_
 _atom_site_type_symbol
 _atom_site_label
 _atom_site_symmetry_multiplicity
 _atom_site_fract_x
 _atom_site_fract_y
 _atom_site_fract_z
 _atom_site_occupancy
  Pr  Pr0  1  0.28356000  0.79537000  0.68854000  1.0
  Pr  Pr1  1  0.71644000  0.20463000  0.31146000  1.0
  H  H2  1  0.65528000  0.90823000  0.93672000  1.0
  H  H3  1  0.34473000  0.09177000  0.06328000  1.0
  H  H4  1  0.70926000  0.96360000  0.82852000  1.0
  H  H5  1  0.29074000  0.03640000  0.17149000  1.0
  H  H6  1  0.35162000  0.87569000  0.44520000  1.0
  H  H7  1  0.64838000  0.12431000  0.55481000  1.0
  H  H8  1  0.53616000  0.84153000  0.53171000  1.0
  H  H9  1  0.46384000  0.15847000  0.46829000  1.0
  H  H10  1  0.04723000  0.02766000  0.64324000  1.0
  H  H11  1  0.95278000  0.97234000  0.35676000  1.0
  H  H12  1  0.91524000  0.85578000  0.55781000  1.0
  H  H13  1  0.08476000  0.14422000  0.44219000  1.0
  H  H14  1  0.03461000  0.65074000  0.33829000  1.0
  H  H15  1  0.96540000  0.34926000  0.66171000  1.0
  H  H16  1  0.04798000  0.49940000  0.36211000  1.0
  H  H17  1  0.95203000  0.50060000  0.63789000  1.0
  H  H18  1  0.88122000  0.72427000  0.67306000  1.0
  H  H19  1  0.11879000  0.27573000  0.32694000  1.0
  H  H20  1  0.00139000  0.75104000  0.84400000  1.0
  H  H21  1  0.99861000  0.24896000  0.15600000  1.0
  H  H22  1  0.67296000  0.63407000  0.79616000  1.0
  H  H23  1  0.32703000  0.36592000  0.20384000  1.0
  H  H24  1  0.32257000  0.20221000  0.69022000  1.0
  H  H25  1  0.67743000  0.79779000  0.30978000  1.0
  H  H26  1  0.80587000  0.45092000  0.10981000  1.0
  H  H27  1  0.19413000  0.54908000  0.89019000  1.0
  C  C28  1  0.36094000  0.40643000  0.58411000  1.0
  C  C29  1  0.63906000  0.59357000  0.41589000  1.0
  C  C30  1  0.76341000  0.55599000  0.96339000  1.0
  C  C31  1  0.23658000  0.44402000  0.03661000  1.0
  C  C32  1  0.92945000  0.68718000  0.06763000  1.0
  C  C33  1  0.07055000  0.31282000  0.93237000  1.0
  C  C34  1  0.48699000  0.41704000  0.72891000  1.0
  C  C35  1  0.51301000  0.58295000  0.27109000  1.0
  C  C36  1  0.64516000  0.54399000  0.82660000  1.0
  C  C37  1  0.35483000  0.45600000  0.17340000  1.0
  C  C38  1  0.44510000  0.30172000  0.76686000  1.0
  C  C39  1  0.55489000  0.69828000  0.23315000  1.0
  C  C40  1  0.71789000  0.44247000  0.00281000  1.0
  C  C41  1  0.28211000  0.55753000  0.99719000  1.0
  C  C42  1  0.55938000  0.31600000  0.90580000  1.0
  C  C43  1  0.44063000  0.68400000  0.09421000  1.0
  C  C44  1  0.51646000  0.19899000  0.95438000  1.0
  C  C45  1  0.48354000  0.80101000  0.04562000  1.0
  N  N46  1  0.16867000  0.85067000  0.27085000  1.0
  N  N47  1  0.83133000  0.14933000  0.72914000  1.0
  N  N48  1  0.02672000  0.72603000  0.21550000  1.0
  N  N49  1  0.97329000  0.27396000  0.78450000  1.0
  N  N50  1  0.00880000  0.78641000  0.03225000  1.0
  N  N51  1  0.99120000  0.21359000  0.96775000  1.0
  N  N52  1  0.15662000  0.88651000  0.16129000  1.0
  N  N53  1  0.84337000  0.11349000  0.83871000  1.0
  O  O54  1  0.28061000  0.26589000  0.46561000  1.0
  O  O55  1  0.71940000  0.73411000  0.53439000  1.0
  O  O56  1  0.62742000  0.87666000  0.82738000  1.0
  O  O57  1  0.37258000  0.12335000  0.17262000  1.0
  O  O58  1  0.42406000  0.87518000  0.54130000  1.0
  O  O59  1  0.57594000  0.12482000  0.45870000  1.0
  O  O60  1  0.04267000  0.91511000  0.58834000  1.0
  O  O61  1  0.95733000  0.08489000  0.41166000  1.0
  O  O62  1  0.34057000  0.53311000  0.58373000  1.0
  O  O63  1  0.65942000  0.46688000  0.41627000  1.0
  O  O64  1  0.05207000  0.61380000  0.41589000  1.0
  O  O65  1  0.94794000  0.38620000  0.58411000  1.0
  O  O66  1  0.99966000  0.71623000  0.73711000  1.0
  O  O67  1  0.00035000  0.28378000  0.26288000  1.0
  O  O68  1  0.63448000  0.21804000  0.07833000  1.0
  O  O69  1  0.36551000  0.78196000  0.92166000  1.0
  O  O70  1  0.36584000  0.08803000  0.87202000  1.0
  O  O71  1  0.63415000  0.91197000  0.12798000  1.0
