# generated using pymatgen
data_NiH15C23(NO2)2
_symmetry_space_group_name_H-M   'P 1'
_cell_length_a   12.94090000
_cell_length_b   12.94090000
_cell_length_c   14.96470000
_cell_angle_alpha   67.14620000
_cell_angle_beta   67.14660000
_cell_angle_gamma   62.70860000
_symmetry_Int_Tables_number   1
_chemical_formula_structural   NiH15C23(NO2)2
_chemical_formula_sum   'Ni4 H60 C92 N8 O16'
_cell_volume   1983.47465766
_cell_formula_units_Z   4
loop_
 _symmetry_equiv_pos_site_id
 _symmetry_equiv_pos_as_xyz
  1  'x, y, z'
loop_
 _atom_site_type_symbol
 _atom_site_label
 _atom_site_symmetry_multiplicity
 _atom_site_fract_x
 _atom_site_fract_y
 _atom_site_fract_z
 _atom_site_occupancy
  Ni  Ni0  1  0.97119000  0.41158000  0.15146000  1.0
  Ni  Ni1  1  0.58842000  0.02881000  0.34854000  1.0
  Ni  Ni2  1  0.02881000  0.58842000  0.84854000  1.0
  Ni  Ni3  1  0.41158000  0.97119000  0.65146000  1.0
  H  H4  1  0.81617000  0.25820000  0.12987000  1.0
  H  H5  1  0.74180000  0.18384000  0.37013000  1.0
  H  H6  1  0.18384000  0.74180000  0.87013000  1.0
  H  H7  1  0.25820000  0.81617000  0.62987000  1.0
  H  H8  1  0.58763000  0.22657000  0.00391000  1.0
  H  H9  1  0.77343000  0.41237000  0.49609000  1.0
  H  H10  1  0.41237000  0.77343000  0.99609000  1.0
  H  H11  1  0.22657000  0.58763000  0.50391000  1.0
  H  H12  1  0.78405000  0.46617000  0.83104000  1.0
  H  H13  1  0.53384000  0.21595000  0.66896000  1.0
  H  H14  1  0.21595000  0.53383000  0.16896000  1.0
  H  H15  1  0.46616000  0.78405000  0.33104000  1.0
  H  H16  1  0.74378000  0.25622000  0.75000000  1.0
  H  H17  1  0.25622000  0.74378000  0.25000000  1.0
  H  H18  1  0.48117000  0.54740000  0.88318000  1.0
  H  H19  1  0.45260000  0.51883000  0.61682000  1.0
  H  H20  1  0.51883000  0.45260000  0.11682000  1.0
  H  H21  1  0.54740000  0.48116000  0.38318000  1.0
  H  H22  1  0.37455000  0.62545000  0.75000000  1.0
  H  H23  1  0.62545000  0.37455000  0.25000000  1.0
  H  H24  1  0.73196000  0.50531000  0.11514000  1.0
  H  H25  1  0.49469000  0.26804000  0.38486000  1.0
  H  H26  1  0.26804000  0.49469000  0.88486000  1.0
  H  H27  1  0.50530000  0.73196000  0.61514000  1.0
  H  H28  1  0.55544000  0.69316000  0.10293000  1.0
  H  H29  1  0.30684000  0.44455000  0.39707000  1.0
  H  H30  1  0.44456000  0.30684000  0.89707000  1.0
  H  H31  1  0.69316000  0.55544000  0.60294000  1.0
  H  H32  1  0.74697000  0.85793000  0.15186000  1.0
  H  H33  1  0.14208000  0.25303000  0.34814000  1.0
  H  H34  1  0.25303000  0.14207000  0.84814000  1.0
  H  H35  1  0.85793000  0.74697000  0.65186000  1.0
  H  H36  1  0.91598000  0.65924000  0.16521000  1.0
  H  H37  1  0.34076000  0.08402000  0.33479000  1.0
  H  H38  1  0.08402000  0.34076000  0.83479000  1.0
  H  H39  1  0.65924000  0.91598000  0.66521000  1.0
  H  H40  1  0.55207000  0.97882000  0.13282000  1.0
  H  H41  1  0.02119000  0.44793000  0.36718000  1.0
  H  H42  1  0.44793000  0.02118000  0.86719000  1.0
  H  H43  1  0.97881000  0.55207000  0.63282000  1.0
  H  H44  1  0.40164000  0.85327000  0.12754000  1.0
  H  H45  1  0.14672000  0.59836000  0.37247000  1.0
  H  H46  1  0.59836000  0.14673000  0.87246000  1.0
  H  H47  1  0.85327000  0.40164000  0.62753000  1.0
  H  H48  1  0.18967000  0.96938000  0.14462000  1.0
  H  H49  1  0.03062000  0.81033000  0.35538000  1.0
  H  H50  1  0.81032000  0.03062000  0.85538000  1.0
  H  H51  1  0.96938000  0.18967000  0.64462000  1.0
  H  H52  1  0.01500000  0.16131000  0.16208000  1.0
  H  H53  1  0.83870000  0.98500000  0.33791000  1.0
  H  H54  1  0.98500000  0.83870000  0.83791000  1.0
  H  H55  1  0.16130000  0.01500000  0.66209000  1.0
  H  H56  1  0.23222000  0.32712000  0.14351000  1.0
  H  H57  1  0.67288000  0.76778000  0.35649000  1.0
  H  H58  1  0.76778000  0.67288000  0.85649000  1.0
  H  H59  1  0.32712000  0.23222000  0.64351000  1.0
  H  H60  1  0.41496000  0.14354000  0.12985000  1.0
  H  H61  1  0.85646000  0.58504000  0.37015000  1.0
  H  H62  1  0.58504000  0.85646000  0.87016000  1.0
  H  H63  1  0.14354000  0.41496000  0.62985000  1.0
  C  C64  1  0.89820000  0.41851000  0.96960000  1.0
  C  C65  1  0.58149000  0.10181000  0.53040000  1.0
  C  C66  1  0.10181000  0.58149000  0.03040000  1.0
  C  C67  1  0.41851000  0.89820000  0.46960000  1.0
  C  C68  1  0.81265000  0.36418000  0.97792000  1.0
  C  C69  1  0.63582000  0.18735000  0.52208000  1.0
  C  C70  1  0.18735000  0.63582000  0.02208000  1.0
  C  C71  1  0.36418000  0.81265000  0.47792000  1.0
  C  C72  1  0.78060000  0.28139000  0.06668000  1.0
  C  C73  1  0.71861000  0.21940000  0.43332000  1.0
  C  C74  1  0.21940000  0.71861000  0.93332000  1.0
  C  C75  1  0.28139000  0.78061000  0.56668000  1.0
  C  C76  1  0.70001000  0.23153000  0.07576000  1.0
  C  C77  1  0.76847000  0.29999000  0.42424000  1.0
  C  C78  1  0.29999000  0.76847000  0.92424000  1.0
  C  C79  1  0.23153000  0.70001000  0.57576000  1.0
  C  C80  1  0.65120000  0.26523000  0.99542000  1.0
  C  C81  1  0.73477000  0.34880000  0.50458000  1.0
  C  C82  1  0.34880000  0.73477000  0.00458000  1.0
  C  C83  1  0.26523000  0.65121000  0.49542000  1.0
  C  C84  1  0.67971000  0.35092000  0.90733000  1.0
  C  C85  1  0.64908000  0.32029000  0.59267000  1.0
  C  C86  1  0.32029000  0.64908000  0.09267000  1.0
  C  C87  1  0.35093000  0.67971000  0.40733000  1.0
  C  C88  1  0.76092000  0.39959000  0.89905000  1.0
  C  C89  1  0.60042000  0.23908000  0.60095000  1.0
  C  C90  1  0.23908000  0.60042000  0.10095000  1.0
  C  C91  1  0.39958000  0.76092000  0.39905000  1.0
  C  C92  1  0.66095000  0.14914000  0.17356000  1.0
  C  C93  1  0.85086000  0.33905000  0.32644000  1.0
  C  C94  1  0.33905000  0.85086000  0.82644000  1.0
  C  C95  1  0.14914000  0.66095000  0.67356000  1.0
  C  C96  1  0.61897000  0.39626000  0.82578000  1.0
  C  C97  1  0.60375000  0.38103000  0.67422000  1.0
  C  C98  1  0.38103000  0.60375000  0.17422000  1.0
  C  C99  1  0.39626000  0.61897000  0.32578000  1.0
  C  C100  1  0.66274000  0.33726000  0.75000000  1.0
  C  C101  1  0.33726000  0.66274000  0.25000000  1.0
  C  C102  1  0.51521000  0.50078000  0.82469000  1.0
  C  C103  1  0.49922000  0.48479000  0.67531000  1.0
  C  C104  1  0.48479000  0.49922000  0.17531000  1.0
  C  C105  1  0.50078000  0.51521000  0.32469000  1.0
  C  C106  1  0.45550000  0.54450000  0.75000000  1.0
  C  C107  1  0.54451000  0.45550000  0.25000000  1.0
  C  C108  1  0.73217000  0.58564000  0.12225000  1.0
  C  C109  1  0.41436000  0.26783000  0.37775000  1.0
  C  C110  1  0.26783000  0.41436000  0.87775000  1.0
  C  C111  1  0.58564000  0.73217000  0.62225000  1.0
  C  C112  1  0.63337000  0.69178000  0.11565000  1.0
  C  C113  1  0.30823000  0.36663000  0.38434000  1.0
  C  C114  1  0.36663000  0.30822000  0.88434000  1.0
  C  C115  1  0.69177000  0.63337000  0.61566000  1.0
  C  C116  1  0.63466000  0.79385000  0.12729000  1.0
  C  C117  1  0.20615000  0.36534000  0.37270000  1.0
  C  C118  1  0.36534000  0.20615000  0.87271000  1.0
  C  C119  1  0.79384000  0.63466000  0.62730000  1.0
  C  C120  1  0.74068000  0.78152000  0.14283000  1.0
  C  C121  1  0.21848000  0.25933000  0.35717000  1.0
  C  C122  1  0.25933000  0.21847000  0.85717000  1.0
  C  C123  1  0.78152000  0.74067000  0.64283000  1.0
  C  C124  1  0.83511000  0.67141000  0.14975000  1.0
  C  C125  1  0.32859000  0.16489000  0.35025000  1.0
  C  C126  1  0.16489000  0.32859000  0.85025000  1.0
  C  C127  1  0.67141000  0.83511000  0.64975000  1.0
  C  C128  1  0.53351000  0.90709000  0.12796000  1.0
  C  C129  1  0.09291000  0.46648000  0.37204000  1.0
  C  C130  1  0.46649000  0.09290000  0.87204000  1.0
  C  C131  1  0.90709000  0.53351000  0.62796000  1.0
  C  C132  1  0.42112000  0.92626000  0.12891000  1.0
  C  C133  1  0.07374000  0.57888000  0.37109000  1.0
  C  C134  1  0.57888000  0.07374000  0.87109000  1.0
  C  C135  1  0.92626000  0.42112000  0.62891000  1.0
  C  C136  1  0.31920000  0.03804000  0.13614000  1.0
  C  C137  1  0.96196000  0.68080000  0.36386000  1.0
  C  C138  1  0.68080000  0.96196000  0.86386000  1.0
  C  C139  1  0.03804000  0.31920000  0.63614000  1.0
  C  C140  1  0.20328000  0.04628000  0.14529000  1.0
  C  C141  1  0.95372000  0.79672000  0.35471000  1.0
  C  C142  1  0.79672000  0.95372000  0.85471000  1.0
  C  C143  1  0.04628000  0.20328000  0.64529000  1.0
  C  C144  1  0.10552000  0.15256000  0.15474000  1.0
  C  C145  1  0.84744000  0.89448000  0.34526000  1.0
  C  C146  1  0.89448000  0.84744000  0.84526000  1.0
  C  C147  1  0.15256000  0.10551000  0.65474000  1.0
  C  C148  1  0.22718000  0.24495000  0.14471000  1.0
  C  C149  1  0.75505000  0.77281000  0.35529000  1.0
  C  C150  1  0.77281000  0.75505000  0.85529000  1.0
  C  C151  1  0.24495000  0.22719000  0.64471000  1.0
  C  C152  1  0.32882000  0.14218000  0.13591000  1.0
  C  C153  1  0.85781000  0.67118000  0.36409000  1.0
  C  C154  1  0.67118000  0.85781000  0.86410000  1.0
  C  C155  1  0.14219000  0.32882000  0.63590000  1.0
  N  N156  1  0.83224000  0.57360000  0.13986000  1.0
  N  N157  1  0.42640000  0.16776000  0.36014000  1.0
  N  N158  1  0.16776000  0.42639000  0.86014000  1.0
  N  N159  1  0.57360000  0.83224000  0.63986000  1.0
  N  N160  1  0.11614000  0.25163000  0.15455000  1.0
  N  N161  1  0.74837000  0.88385000  0.34545000  1.0
  N  N162  1  0.88386000  0.74837000  0.84545000  1.0
  N  N163  1  0.25163000  0.11615000  0.65455000  1.0
  O  O164  1  0.95150000  0.37351000  0.03855000  1.0
  O  O165  1  0.62649000  0.04850000  0.46145000  1.0
  O  O166  1  0.04850000  0.62649000  0.96145000  1.0
  O  O167  1  0.37351000  0.95151000  0.53855000  1.0
  O  O168  1  0.91078000  0.50508000  0.89230000  1.0
  O  O169  1  0.49492000  0.08923000  0.60770000  1.0
  O  O170  1  0.08923000  0.49492000  0.10770000  1.0
  O  O171  1  0.50508000  0.91077000  0.39230000  1.0
  O  O172  1  0.67970000  0.14830000  0.25170000  1.0
  O  O173  1  0.85169000  0.32031000  0.24830000  1.0
  O  O174  1  0.32031000  0.85170000  0.74830000  1.0
  O  O175  1  0.14830000  0.67970000  0.75170000  1.0
  O  O176  1  0.60737000  0.08369000  0.17987000  1.0
  O  O177  1  0.91631000  0.39263000  0.32013000  1.0
  O  O178  1  0.39263000  0.91631000  0.82013000  1.0
  O  O179  1  0.08369000  0.60737000  0.67987000  1.0
