# generated using pymatgen
data_ZnH12C25NO15
_symmetry_space_group_name_H-M   'P 1'
_cell_length_a   14.31980000
_cell_length_b   14.31990000
_cell_length_c   26.16710000
_cell_angle_alpha   82.49590000
_cell_angle_beta   82.49580000
_cell_angle_gamma   83.90930000
_symmetry_Int_Tables_number   1
_chemical_formula_structural   ZnH12C25NO15
_chemical_formula_sum   'Zn8 H96 C200 N8 O120'
_cell_volume   5252.57085709
_cell_formula_units_Z   8
loop_
 _symmetry_equiv_pos_site_id
 _symmetry_equiv_pos_as_xyz
  1  'x, y, z'
loop_
 _atom_site_type_symbol
 _atom_site_label
 _atom_site_symmetry_multiplicity
 _atom_site_fract_x
 _atom_site_fract_y
 _atom_site_fract_z
 _atom_site_occupancy
  Zn  Zn0  1  0.17797000  0.83172000  0.57684000  1.0
  Zn  Zn1  1  0.16824000  0.82203000  0.92316000  1.0
  Zn  Zn2  1  0.82205000  0.16824000  0.42316000  1.0
  Zn  Zn3  1  0.83172000  0.17796000  0.07685000  1.0
  Zn  Zn4  1  0.40545000  0.80282000  0.54978000  1.0
  Zn  Zn5  1  0.19715000  0.59454000  0.95021000  1.0
  Zn  Zn6  1  0.59456000  0.19715000  0.45021000  1.0
  Zn  Zn7  1  0.80282000  0.40545000  0.04978000  1.0
  H  H8  1  0.45158000  0.52551000  0.62525000  1.0
  H  H9  1  0.47446000  0.54841000  0.87472000  1.0
  H  H10  1  0.54842000  0.47446000  0.37472000  1.0
  H  H11  1  0.52552000  0.45158000  0.12526000  1.0
  H  H12  1  0.44321000  0.36846000  0.67766000  1.0
  H  H13  1  0.63152000  0.55680000  0.82231000  1.0
  H  H14  1  0.55680000  0.63152000  0.32232000  1.0
  H  H15  1  0.36847000  0.44319000  0.17767000  1.0
  H  H16  1  0.15096000  0.37117000  0.65256000  1.0
  H  H17  1  0.62882000  0.84901000  0.84747000  1.0
  H  H18  1  0.84903000  0.62881000  0.34746000  1.0
  H  H19  1  0.37117000  0.15096000  0.15255000  1.0
  H  H20  1  0.15734000  0.53358000  0.60592000  1.0
  H  H21  1  0.46641000  0.84262000  0.89410000  1.0
  H  H22  1  0.84265000  0.46639000  0.39408000  1.0
  H  H23  1  0.53358000  0.15735000  0.10592000  1.0
  H  H24  1  0.28688000  0.23868000  0.60597000  1.0
  H  H25  1  0.76129000  0.71314000  0.89404000  1.0
  H  H26  1  0.71315000  0.76130000  0.39404000  1.0
  H  H27  1  0.23866000  0.28690000  0.10596000  1.0
  H  H28  1  0.30554000  0.07812000  0.57425000  1.0
  H  H29  1  0.92186000  0.69445000  0.92575000  1.0
  H  H30  1  0.69445000  0.92186000  0.42575000  1.0
  H  H31  1  0.07810000  0.30555000  0.07426000  1.0
  H  H32  1  0.31192000  0.94407000  0.72956000  1.0
  H  H33  1  0.05590000  0.68812000  0.77045000  1.0
  H  H34  1  0.68811000  0.05590000  0.27044000  1.0
  H  H35  1  0.94406000  0.31190000  0.22957000  1.0
  H  H36  1  0.28690000  0.10221000  0.76273000  1.0
  H  H37  1  0.89776000  0.71318000  0.73727000  1.0
  H  H38  1  0.71316000  0.89776000  0.23727000  1.0
  H  H39  1  0.10221000  0.28688000  0.26274000  1.0
  H  H40  1  0.20269000  0.00393000  0.41614000  1.0
  H  H41  1  0.99605000  0.79734000  0.08387000  1.0
  H  H42  1  0.79733000  0.99606000  0.58388000  1.0
  H  H43  1  0.00396000  0.20266000  0.91615000  1.0
  H  H44  1  0.19828000  0.04376000  0.32187000  1.0
  H  H45  1  0.95626000  0.80169000  0.17815000  1.0
  H  H46  1  0.80168000  0.95627000  0.67816000  1.0
  H  H47  1  0.04380000  0.19826000  0.82188000  1.0
  H  H48  1  0.32226000  0.76331000  0.29757000  1.0
  H  H49  1  0.23672000  0.67771000  0.20240000  1.0
  H  H50  1  0.67774000  0.23675000  0.70240000  1.0
  H  H51  1  0.76335000  0.32228000  0.79759000  1.0
  H  H52  1  0.33885000  0.72856000  0.39194000  1.0
  H  H53  1  0.27145000  0.66116000  0.10803000  1.0
  H  H54  1  0.66118000  0.27147000  0.60803000  1.0
  H  H55  1  0.72862000  0.33887000  0.89195000  1.0
  H  H56  1  0.27623000  0.93958000  0.14327000  1.0
  H  H57  1  0.06055000  0.72368000  0.35671000  1.0
  H  H58  1  0.72367000  0.06055000  0.85672000  1.0
  H  H59  1  0.93956000  0.27623000  0.64328000  1.0
  H  H60  1  0.15664000  0.01789000  0.08616000  1.0
  H  H61  1  0.98219000  0.84316000  0.41386000  1.0
  H  H62  1  0.84315000  0.98217000  0.91386000  1.0
  H  H63  1  0.01787000  0.15668000  0.58616000  1.0
  H  H64  1  0.98261000  0.11135000  0.21951000  1.0
  H  H65  1  0.88868000  0.01729000  0.28055000  1.0
  H  H66  1  0.01729000  0.88868000  0.78055000  1.0
  H  H67  1  0.11136000  0.98262000  0.71950000  1.0
  H  H68  1  0.09886000  0.03229000  0.27649000  1.0
  H  H69  1  0.96779000  0.90112000  0.22354000  1.0
  H  H70  1  0.90111000  0.96780000  0.72354000  1.0
  H  H71  1  0.03230000  0.09884000  0.77649000  1.0
  H  H72  1  0.52063000  0.77938000  0.63661000  1.0
  H  H73  1  0.22054000  0.47935000  0.86339000  1.0
  H  H74  1  0.47938000  0.22053000  0.36338000  1.0
  H  H75  1  0.77941000  0.52063000  0.13661000  1.0
  H  H76  1  0.68997000  0.77670000  0.65063000  1.0
  H  H77  1  0.22324000  0.31001000  0.84937000  1.0
  H  H78  1  0.31003000  0.22322000  0.34936000  1.0
  H  H79  1  0.77671000  0.68997000  0.15063000  1.0
  H  H80  1  0.75207000  0.84806000  0.48464000  1.0
  H  H81  1  0.15199000  0.24792000  0.01537000  1.0
  H  H82  1  0.24794000  0.15199000  0.51537000  1.0
  H  H83  1  0.84805000  0.75206000  0.98464000  1.0
  H  H84  1  0.58045000  0.84791000  0.47802000  1.0
  H  H85  1  0.15212000  0.41954000  0.02198000  1.0
  H  H86  1  0.41956000  0.15212000  0.52198000  1.0
  H  H87  1  0.84791000  0.58045000  0.97802000  1.0
  H  H88  1  0.84550000  0.71189000  0.64301000  1.0
  H  H89  1  0.28809000  0.15450000  0.85700000  1.0
  H  H90  1  0.15451000  0.28809000  0.35700000  1.0
  H  H91  1  0.71190000  0.84549000  0.14301000  1.0
  H  H92  1  0.01948000  0.71309000  0.64150000  1.0
  H  H93  1  0.28690000  0.98051000  0.85851000  1.0
  H  H94  1  0.98052000  0.28690000  0.35852000  1.0
  H  H95  1  0.71310000  0.01947000  0.14151000  1.0
  H  H96  1  0.86889000  0.90536000  0.49994000  1.0
  H  H97  1  0.09458000  0.13112000  0.00007000  1.0
  H  H98  1  0.13114000  0.09460000  0.50007000  1.0
  H  H99  1  0.90535000  0.86889000  0.99993000  1.0
  H  H100  1  0.03916000  0.89564000  0.50468000  1.0
  H  H101  1  0.10432000  0.96083000  0.99533000  1.0
  H  H102  1  0.96086000  0.10433000  0.49534000  1.0
  H  H103  1  0.89563000  0.03916000  0.00467000  1.0
  C  C104  1  0.30677000  0.64122000  0.58995000  1.0
  C  C105  1  0.35876000  0.69320000  0.91004000  1.0
  C  C106  1  0.69322000  0.35875000  0.41004000  1.0
  C  C107  1  0.64122000  0.30677000  0.08995000  1.0
  C  C108  1  0.30454000  0.53982000  0.61253000  1.0
  C  C109  1  0.46016000  0.69543000  0.88747000  1.0
  C  C110  1  0.69545000  0.46014000  0.38746000  1.0
  C  C111  1  0.53982000  0.30455000  0.11253000  1.0
  C  C112  1  0.38598000  0.49134000  0.63131000  1.0
  C  C113  1  0.50864000  0.61400000  0.86868000  1.0
  C  C114  1  0.61402000  0.50863000  0.36867000  1.0
  C  C115  1  0.49134000  0.38598000  0.13131000  1.0
  C  C116  1  0.38120000  0.40332000  0.66067000  1.0
  C  C117  1  0.59667000  0.61880000  0.83932000  1.0
  C  C118  1  0.61880000  0.59666000  0.33932000  1.0
  C  C119  1  0.40332000  0.38119000  0.16068000  1.0
  C  C120  1  0.29577000  0.36061000  0.66964000  1.0
  C  C121  1  0.63937000  0.70422000  0.83037000  1.0
  C  C122  1  0.70424000  0.63937000  0.33037000  1.0
  C  C123  1  0.36061000  0.29576000  0.16963000  1.0
  C  C124  1  0.21660000  0.40537000  0.64731000  1.0
  C  C125  1  0.59462000  0.78338000  0.85271000  1.0
  C  C126  1  0.78339000  0.59460000  0.35270000  1.0
  C  C127  1  0.40538000  0.21660000  0.14730000  1.0
  C  C128  1  0.22045000  0.49576000  0.62027000  1.0
  C  C129  1  0.50421000  0.77952000  0.87974000  1.0
  C  C130  1  0.77954000  0.50420000  0.37973000  1.0
  C  C131  1  0.49577000  0.22045000  0.12027000  1.0
  C  C132  1  0.28849000  0.27169000  0.70693000  1.0
  C  C133  1  0.72829000  0.71152000  0.79308000  1.0
  C  C134  1  0.71153000  0.72829000  0.29308000  1.0
  C  C135  1  0.27169000  0.28849000  0.20693000  1.0
  C  C136  1  0.28703000  0.18008000  0.68661000  1.0
  C  C137  1  0.81989000  0.71300000  0.81340000  1.0
  C  C138  1  0.71300000  0.81990000  0.31340000  1.0
  C  C139  1  0.18007000  0.28703000  0.18661000  1.0
  C  C140  1  0.29077000  0.17425000  0.63316000  1.0
  C  C141  1  0.82573000  0.70925000  0.86685000  1.0
  C  C142  1  0.70925000  0.82573000  0.36685000  1.0
  C  C143  1  0.17423000  0.29078000  0.13316000  1.0
  C  C144  1  0.30198000  0.08599000  0.61519000  1.0
  C  C145  1  0.91399000  0.69803000  0.88482000  1.0
  C  C146  1  0.69803000  0.91399000  0.38482000  1.0
  C  C147  1  0.08597000  0.30198000  0.11519000  1.0
  C  C148  1  0.31255000  0.00328000  0.64964000  1.0
  C  C149  1  0.99669000  0.68746000  0.85037000  1.0
  C  C150  1  0.68746000  0.99669000  0.35036000  1.0
  C  C151  1  0.00326000  0.31254000  0.14965000  1.0
  C  C152  1  0.30529000  0.00887000  0.70310000  1.0
  C  C153  1  0.99110000  0.69475000  0.79691000  1.0
  C  C154  1  0.69475000  0.99110000  0.29690000  1.0
  C  C155  1  0.00886000  0.30528000  0.20311000  1.0
  C  C156  1  0.29122000  0.09647000  0.72139000  1.0
  C  C157  1  0.90349000  0.70883000  0.77861000  1.0
  C  C158  1  0.70882000  0.90350000  0.27861000  1.0
  C  C159  1  0.09647000  0.29121000  0.22140000  1.0
  C  C160  1  0.33924000  0.90981000  0.62943000  1.0
  C  C161  1  0.09016000  0.66074000  0.87057000  1.0
  C  C162  1  0.66076000  0.09017000  0.37057000  1.0
  C  C163  1  0.90979000  0.33922000  0.12943000  1.0
  C  C164  1  0.28452000  0.84405000  0.46673000  1.0
  C  C165  1  0.15593000  0.71548000  0.03326000  1.0
  C  C166  1  0.71549000  0.15594000  0.53326000  1.0
  C  C167  1  0.84408000  0.28452000  0.96674000  1.0
  C  C168  1  0.27105000  0.86368000  0.41019000  1.0
  C  C169  1  0.13630000  0.72894000  0.08980000  1.0
  C  C170  1  0.72895000  0.13632000  0.58980000  1.0
  C  C171  1  0.86373000  0.27105000  0.91020000  1.0
  C  C172  1  0.22891000  0.95119000  0.39005000  1.0
  C  C173  1  0.04881000  0.77109000  0.10995000  1.0
  C  C174  1  0.77109000  0.04882000  0.60996000  1.0
  C  C175  1  0.95123000  0.22890000  0.89006000  1.0
  C  C176  1  0.22404000  0.97244000  0.33680000  1.0
  C  C177  1  0.02758000  0.77594000  0.16320000  1.0
  C  C178  1  0.77594000  0.02760000  0.66320000  1.0
  C  C179  1  0.97247000  0.22403000  0.83681000  1.0
  C  C180  1  0.25735000  0.90470000  0.30285000  1.0
  C  C181  1  0.09533000  0.74262000  0.19714000  1.0
  C  C182  1  0.74261000  0.09535000  0.69715000  1.0
  C  C183  1  0.90473000  0.25734000  0.80286000  1.0
  C  C184  1  0.29529000  0.81542000  0.32391000  1.0
  C  C185  1  0.18461000  0.70469000  0.17607000  1.0
  C  C186  1  0.70470000  0.18464000  0.67607000  1.0
  C  C187  1  0.81546000  0.29529000  0.82392000  1.0
  C  C188  1  0.30391000  0.79574000  0.37657000  1.0
  C  C189  1  0.20426000  0.69608000  0.12341000  1.0
  C  C190  1  0.69609000  0.20429000  0.62341000  1.0
  C  C191  1  0.79579000  0.30392000  0.87658000  1.0
  C  C192  1  0.26699000  0.92146000  0.24449000  1.0
  C  C193  1  0.07859000  0.73295000  0.25549000  1.0
  C  C194  1  0.73295000  0.07861000  0.75549000  1.0
  C  C195  1  0.92147000  0.26698000  0.74451000  1.0
  C  C196  1  0.19670000  0.98048000  0.21369000  1.0
  C  C197  1  0.01959000  0.80322000  0.28632000  1.0
  C  C198  1  0.80322000  0.01960000  0.78632000  1.0
  C  C199  1  0.98049000  0.19670000  0.71370000  1.0
  C  C200  1  0.21204000  0.97833000  0.15944000  1.0
  C  C201  1  0.02177000  0.78785000  0.34057000  1.0
  C  C202  1  0.78784000  0.02176000  0.84057000  1.0
  C  C203  1  0.97833000  0.21205000  0.65944000  1.0
  C  C204  1  0.14561000  0.02156000  0.12784000  1.0
  C  C205  1  0.97850000  0.85424000  0.37218000  1.0
  C  C206  1  0.85422000  0.97849000  0.87218000  1.0
  C  C207  1  0.02156000  0.14563000  0.62785000  1.0
  C  C208  1  0.06158000  0.06864000  0.14956000  1.0
  C  C209  1  0.93139000  0.93827000  0.35049000  1.0
  C  C210  1  0.93827000  0.93138000  0.85048000  1.0
  C  C211  1  0.06865000  0.06160000  0.64955000  1.0
  C  C212  1  0.04776000  0.07465000  0.20295000  1.0
  C  C213  1  0.92539000  0.95213000  0.29709000  1.0
  C  C214  1  0.95213000  0.92539000  0.79709000  1.0
  C  C215  1  0.07467000  0.04777000  0.70295000  1.0
  C  C216  1  0.11434000  0.03072000  0.23482000  1.0
  C  C217  1  0.96934000  0.88559000  0.26520000  1.0
  C  C218  1  0.88559000  0.96934000  0.76520000  1.0
  C  C219  1  0.03073000  0.11434000  0.73482000  1.0
  C  C220  1  0.98682000  0.10838000  0.11563000  1.0
  C  C221  1  0.89165000  0.01299000  0.38446000  1.0
  C  C222  1  0.01298000  0.89163000  0.88446000  1.0
  C  C223  1  0.10838000  0.98685000  0.61560000  1.0
  C  C224  1  0.57544000  0.79195000  0.60415000  1.0
  C  C225  1  0.20801000  0.42455000  0.89585000  1.0
  C  C226  1  0.42457000  0.20801000  0.39584000  1.0
  C  C227  1  0.79197000  0.57544000  0.10415000  1.0
  C  C228  1  0.67011000  0.79146000  0.61132000  1.0
  C  C229  1  0.20851000  0.32988000  0.88868000  1.0
  C  C230  1  0.32990000  0.20849000  0.38867000  1.0
  C  C231  1  0.79147000  0.67010000  0.11132000  1.0
  C  C232  1  0.73725000  0.81088000  0.56811000  1.0
  C  C233  1  0.18911000  0.26273000  0.93190000  1.0
  C  C234  1  0.26276000  0.18909000  0.43189000  1.0
  C  C235  1  0.81089000  0.73725000  0.06810000  1.0
  C  C236  1  0.70330000  0.83275000  0.51952000  1.0
  C  C237  1  0.16728000  0.29668000  0.98049000  1.0
  C  C238  1  0.29671000  0.16728000  0.48048000  1.0
  C  C239  1  0.83275000  0.70330000  0.01952000  1.0
  C  C240  1  0.60784000  0.83210000  0.51543000  1.0
  C  C241  1  0.16792000  0.39215000  0.98458000  1.0
  C  C242  1  0.39217000  0.16792000  0.48457000  1.0
  C  C243  1  0.83210000  0.60784000  0.01543000  1.0
  C  C244  1  0.84001000  0.80844000  0.57133000  1.0
  C  C245  1  0.19153000  0.15998000  0.92869000  1.0
  C  C246  1  0.16000000  0.19153000  0.42868000  1.0
  C  C247  1  0.80844000  0.84001000  0.07132000  1.0
  C  C248  1  0.88485000  0.75463000  0.61163000  1.0
  C  C249  1  0.24535000  0.11514000  0.88838000  1.0
  C  C250  1  0.11515000  0.24535000  0.38838000  1.0
  C  C251  1  0.75464000  0.88484000  0.11163000  1.0
  C  C252  1  0.98246000  0.75421000  0.61086000  1.0
  C  C253  1  0.24578000  0.01753000  0.88915000  1.0
  C  C254  1  0.01755000  0.24578000  0.38916000  1.0
  C  C255  1  0.75421000  0.98245000  0.11086000  1.0
  C  C256  1  0.89694000  0.86011000  0.53229000  1.0
  C  C257  1  0.13986000  0.10304000  0.96772000  1.0
  C  C258  1  0.10306000  0.13987000  0.46772000  1.0
  C  C259  1  0.86010000  0.89695000  0.03228000  1.0
  C  C260  1  0.99360000  0.85585000  0.53442000  1.0
  C  C261  1  0.14411000  0.00639000  0.96559000  1.0
  C  C262  1  0.00641000  0.14412000  0.46560000  1.0
  C  C263  1  0.85584000  0.99359000  0.03441000  1.0
  C  C264  1  0.38660000  0.26035000  0.98789000  1.0
  C  C265  1  0.73969000  0.61357000  0.51209000  1.0
  C  C266  1  0.61358000  0.73973000  0.01207000  1.0
  C  C267  1  0.26034000  0.38658000  0.48788000  1.0
  C  C268  1  0.30392000  0.57053000  0.35932000  1.0
  C  C269  1  0.42951000  0.69590000  0.14067000  1.0
  C  C270  1  0.69582000  0.42953000  0.64067000  1.0
  C  C271  1  0.57059000  0.30409000  0.85934000  1.0
  C  C272  1  0.05556000  0.52364000  0.12513000  1.0
  C  C273  1  0.47638000  0.94446000  0.37486000  1.0
  C  C274  1  0.94446000  0.47638000  0.87489000  1.0
  C  C275  1  0.52367000  0.05556000  0.62512000  1.0
  C  C276  1  0.66372000  0.53142000  0.22298000  1.0
  C  C277  1  0.46859000  0.33631000  0.27703000  1.0
  C  C278  1  0.33636000  0.46859000  0.77704000  1.0
  C  C279  1  0.53145000  0.66375000  0.72296000  1.0
  C  C280  1  0.03166000  0.50372000  0.41739000  1.0
  C  C281  1  0.49641000  0.96832000  0.08251000  1.0
  C  C282  1  0.96835000  0.49640000  0.58250000  1.0
  C  C283  1  0.50369000  0.03162000  0.91740000  1.0
  C  C284  1  0.92532000  0.52990000  0.25702000  1.0
  C  C285  1  0.47027000  0.07466000  0.24292000  1.0
  C  C286  1  0.07466000  0.47028000  0.74293000  1.0
  C  C287  1  0.52974000  0.92531000  0.75708000  1.0
  C  C288  1  0.85662000  0.34984000  0.52325000  1.0
  C  C289  1  0.65018000  0.14349000  0.97673000  1.0
  C  C290  1  0.14351000  0.65016000  0.47672000  1.0
  C  C291  1  0.34978000  0.85674000  0.02321000  1.0
  C  C292  1  0.49306000  0.61587000  0.46480000  1.0
  C  C293  1  0.38401000  0.50697000  0.03521000  1.0
  C  C294  1  0.50701000  0.38399000  0.53521000  1.0
  C  C295  1  0.61586000  0.49304000  0.96481000  1.0
  C  C296  1  0.52146000  0.80379000  0.22634000  1.0
  C  C297  1  0.19624000  0.47858000  0.27369000  1.0
  C  C298  1  0.47863000  0.19631000  0.77365000  1.0
  C  C299  1  0.80379000  0.52149000  0.72628000  1.0
  C  C300  1  0.74888000  0.30764000  0.29824000  1.0
  C  C301  1  0.69227000  0.25111000  0.20181000  1.0
  C  C302  1  0.25113000  0.69230000  0.70181000  1.0
  C  C303  1  0.30766000  0.74886000  0.79824000  1.0
  N  N304  1  0.54438000  0.81077000  0.55695000  1.0
  N  N305  1  0.18921000  0.45561000  0.94304000  1.0
  N  N306  1  0.45564000  0.18921000  0.44304000  1.0
  N  N307  1  0.81079000  0.54437000  0.05695000  1.0
  N  N308  1  0.03638000  0.80371000  0.57285000  1.0
  N  N309  1  0.19626000  0.96361000  0.92716000  1.0
  N  N310  1  0.96362000  0.19627000  0.42717000  1.0
  N  N311  1  0.80370000  0.03638000  0.07284000  1.0
  O  O312  1  0.22930000  0.69424000  0.59400000  1.0
  O  O313  1  0.30573000  0.77067000  0.90601000  1.0
  O  O314  1  0.77069000  0.30572000  0.40599000  1.0
  O  O315  1  0.69424000  0.22931000  0.09402000  1.0
  O  O316  1  0.38751000  0.66821000  0.57056000  1.0
  O  O317  1  0.33175000  0.61246000  0.92941000  1.0
  O  O318  1  0.61248000  0.33176000  0.42941000  1.0
  O  O319  1  0.66820000  0.38751000  0.07055000  1.0
  O  O320  1  0.28908000  0.27646000  0.75384000  1.0
  O  O321  1  0.72351000  0.71093000  0.74617000  1.0
  O  O322  1  0.71095000  0.72352000  0.24617000  1.0
  O  O323  1  0.27646000  0.28909000  0.25384000  1.0
  O  O324  1  0.32592000  0.90644000  0.58083000  1.0
  O  O325  1  0.09352000  0.67406000  0.91918000  1.0
  O  O326  1  0.67406000  0.09352000  0.41917000  1.0
  O  O327  1  0.90642000  0.32589000  0.08083000  1.0
  O  O328  1  0.37603000  0.84253000  0.65722000  1.0
  O  O329  1  0.15743000  0.62395000  0.84279000  1.0
  O  O330  1  0.62400000  0.15745000  0.34278000  1.0
  O  O331  1  0.84251000  0.37601000  0.15722000  1.0
  O  O332  1  0.21091000  0.85397000  0.49896000  1.0
  O  O333  1  0.14597000  0.78908000  0.00103000  1.0
  O  O334  1  0.78909000  0.14597000  0.50103000  1.0
  O  O335  1  0.85398000  0.21091000  0.99897000  1.0
  O  O336  1  0.36903000  0.81903000  0.47723000  1.0
  O  O337  1  0.18099000  0.63097000  0.02275000  1.0
  O  O338  1  0.63098000  0.18099000  0.52276000  1.0
  O  O339  1  0.81905000  0.36904000  0.97724000  1.0
  O  O340  1  0.33607000  0.87919000  0.22090000  1.0
  O  O341  1  0.12086000  0.66384000  0.27908000  1.0
  O  O342  1  0.66385000  0.12091000  0.77908000  1.0
  O  O343  1  0.87920000  0.33608000  0.72091000  1.0
  O  O344  1  0.90496000  0.13738000  0.13828000  1.0
  O  O345  1  0.86260000  0.09485000  0.36181000  1.0
  O  O346  1  0.09485000  0.86257000  0.86180000  1.0
  O  O347  1  0.13742000  0.90500000  0.63825000  1.0
  O  O348  1  0.00396000  0.11140000  0.06702000  1.0
  O  O349  1  0.88871000  0.99583000  0.43305000  1.0
  O  O350  1  0.99583000  0.88868000  0.93305000  1.0
  O  O351  1  0.11135000  0.00401000  0.56699000  1.0
  O  O352  1  0.40712000  0.30730000  0.94853000  1.0
  O  O353  1  0.69276000  0.59299000  0.55144000  1.0
  O  O354  1  0.59293000  0.69283000  0.05142000  1.0
  O  O355  1  0.30728000  0.40709000  0.44852000  1.0
  O  O356  1  0.36519000  0.21328000  0.02711000  1.0
  O  O357  1  0.78678000  0.63508000  0.47287000  1.0
  O  O358  1  0.63513000  0.78678000  0.97286000  1.0
  O  O359  1  0.21327000  0.36517000  0.52710000  1.0
  O  O360  1  0.38389000  0.58068000  0.34539000  1.0
  O  O361  1  0.41937000  0.61594000  0.15462000  1.0
  O  O362  1  0.61585000  0.41938000  0.65460000  1.0
  O  O363  1  0.58076000  0.38404000  0.84536000  1.0
  O  O364  1  0.22360000  0.56139000  0.37326000  1.0
  O  O365  1  0.43865000  0.77622000  0.12672000  1.0
  O  O366  1  0.77615000  0.43865000  0.62673000  1.0
  O  O367  1  0.56144000  0.22379000  0.87333000  1.0
  O  O368  1  0.09488000  0.51374000  0.16241000  1.0
  O  O369  1  0.48629000  0.90513000  0.33759000  1.0
  O  O370  1  0.90512000  0.48629000  0.83762000  1.0
  O  O371  1  0.51376000  0.09490000  0.66239000  1.0
  O  O372  1  0.01579000  0.53334000  0.08792000  1.0
  O  O373  1  0.46666000  0.98425000  0.41207000  1.0
  O  O374  1  0.98426000  0.46665000  0.91209000  1.0
  O  O375  1  0.53337000  0.01576000  0.58792000  1.0
  O  O376  1  0.58758000  0.55433000  0.21102000  1.0
  O  O377  1  0.44573000  0.41243000  0.28903000  1.0
  O  O378  1  0.41249000  0.44572000  0.78902000  1.0
  O  O379  1  0.55439000  0.58763000  0.71097000  1.0
  O  O380  1  0.74045000  0.50794000  0.23386000  1.0
  O  O381  1  0.49201000  0.25960000  0.26610000  1.0
  O  O382  1  0.25964000  0.49199000  0.76612000  1.0
  O  O383  1  0.50793000  0.74044000  0.73388000  1.0
  O  O384  1  0.99563000  0.55273000  0.38465000  1.0
  O  O385  1  0.44745000  0.00448000  0.11523000  1.0
  O  O386  1  0.00448000  0.44745000  0.61524000  1.0
  O  O387  1  0.55272000  0.99565000  0.88464000  1.0
  O  O388  1  0.06685000  0.45421000  0.45058000  1.0
  O  O389  1  0.54583000  0.93299000  0.04935000  1.0
  O  O390  1  0.93305000  0.54579000  0.54933000  1.0
  O  O391  1  0.45419000  0.06673000  0.95060000  1.0
  O  O392  1  0.92105000  0.60413000  0.23175000  1.0
  O  O393  1  0.39606000  0.07896000  0.26820000  1.0
  O  O394  1  0.07893000  0.39608000  0.76822000  1.0
  O  O395  1  0.60396000  0.92101000  0.73180000  1.0
  O  O396  1  0.93005000  0.45589000  0.28226000  1.0
  O  O397  1  0.54427000  0.06990000  0.21767000  1.0
  O  O398  1  0.06992000  0.54426000  0.71766000  1.0
  O  O399  1  0.45573000  0.93008000  0.78233000  1.0
  O  O400  1  0.92836000  0.31377000  0.53680000  1.0
  O  O401  1  0.68622000  0.07171000  0.96322000  1.0
  O  O402  1  0.07171000  0.68622000  0.46323000  1.0
  O  O403  1  0.31369000  0.92848000  0.03676000  1.0
  O  O404  1  0.78518000  0.38684000  0.50978000  1.0
  O  O405  1  0.61319000  0.21496000  0.99015000  1.0
  O  O406  1  0.21500000  0.61318000  0.49011000  1.0
  O  O407  1  0.38680000  0.78530000  0.00976000  1.0
  O  O408  1  0.55408000  0.66426000  0.46582000  1.0
  O  O409  1  0.33574000  0.44586000  0.03417000  1.0
  O  O410  1  0.44591000  0.33570000  0.53418000  1.0
  O  O411  1  0.66425000  0.55406000  0.96581000  1.0
  O  O412  1  0.43241000  0.56752000  0.46327000  1.0
  O  O413  1  0.43224000  0.56772000  0.03677000  1.0
  O  O414  1  0.56772000  0.43225000  0.53676000  1.0
  O  O415  1  0.56751000  0.43239000  0.96329000  1.0
  O  O416  1  0.49186000  0.73896000  0.25350000  1.0
  O  O417  1  0.26109000  0.50813000  0.24653000  1.0
  O  O418  1  0.50816000  0.26118000  0.74649000  1.0
  O  O419  1  0.73897000  0.49187000  0.75343000  1.0
  O  O420  1  0.55292000  0.86741000  0.19881000  1.0
  O  O421  1  0.13261000  0.44712000  0.30121000  1.0
  O  O422  1  0.44720000  0.13268000  0.80118000  1.0
  O  O423  1  0.86742000  0.55297000  0.69876000  1.0
  O  O424  1  0.67203000  0.34566000  0.30340000  1.0
  O  O425  1  0.65428000  0.32798000  0.19665000  1.0
  O  O426  1  0.32800000  0.65431000  0.69664000  1.0
  O  O427  1  0.34565000  0.67199000  0.80341000  1.0
  O  O428  1  0.82572000  0.26980000  0.29223000  1.0
  O  O429  1  0.73012000  0.17429000  0.20784000  1.0
  O  O430  1  0.17429000  0.73011000  0.70783000  1.0
  O  O431  1  0.26983000  0.82570000  0.79221000  1.0
