# generated using pymatgen
data_Zn2H16C29(NO2)4
_symmetry_space_group_name_H-M   'P 1'
_cell_length_a   9.08027000
_cell_length_b   12.28680000
_cell_length_c   13.98200000
_cell_angle_alpha   103.03400000
_cell_angle_beta   99.49570000
_cell_angle_gamma   105.97700000
_symmetry_Int_Tables_number   1
_chemical_formula_structural   Zn2H16C29(NO2)4
_chemical_formula_sum   'Zn4 H32 C58 N8 O16'
_cell_volume   1417.46172527
_cell_formula_units_Z   2
loop_
 _symmetry_equiv_pos_site_id
 _symmetry_equiv_pos_as_xyz
  1  'x, y, z'
loop_
 _atom_site_type_symbol
 _atom_site_label
 _atom_site_symmetry_multiplicity
 _atom_site_fract_x
 _atom_site_fract_y
 _atom_site_fract_z
 _atom_site_occupancy
  Zn  Zn0  1  0.04651000  0.88711000  0.59310000  1.0
  Zn  Zn1  1  0.95350000  0.11290000  0.40690000  1.0
  Zn  Zn2  1  0.86636000  0.79160000  0.82053000  1.0
  Zn  Zn3  1  0.13363000  0.20839000  0.17947000  1.0
  H  H4  1  0.71370000  0.91888000  0.05030000  1.0
  H  H5  1  0.28630000  0.08111000  0.94970000  1.0
  H  H6  1  0.43850000  0.78231000  0.96160000  1.0
  H  H7  1  0.56149000  0.21768000  0.03840000  1.0
  H  H8  1  0.22237000  0.44172000  0.90071000  1.0
  H  H9  1  0.77763000  0.55827000  0.09929000  1.0
  H  H10  1  0.33663000  0.47757000  0.33026000  1.0
  H  H11  1  0.66337000  0.52243000  0.66973000  1.0
  H  H12  1  0.29000000  0.80428000  0.44946000  1.0
  H  H13  1  0.71000000  0.19572000  0.55055000  1.0
  H  H14  1  0.43932000  0.58569000  0.85943000  1.0
  H  H15  1  0.56068000  0.41431000  0.14057000  1.0
  H  H16  1  0.57255000  0.82203000  0.51318000  1.0
  H  H17  1  0.42746000  0.17798000  0.48682000  1.0
  H  H18  1  0.06687000  0.63708000  0.58850000  1.0
  H  H19  1  0.93313000  0.36292000  0.41150000  1.0
  H  H20  1  0.27862000  0.55436000  0.64570000  1.0
  H  H21  1  0.72138000  0.44564000  0.35430000  1.0
  H  H22  1  0.85926000  0.20645000  0.88919000  1.0
  H  H23  1  0.14075000  0.79355000  0.11081000  1.0
  H  H24  1  0.99727000  0.06107000  0.90395000  1.0
  H  H25  1  0.00273000  0.93892000  0.09605000  1.0
  H  H26  1  0.54746000  0.69328000  0.73960000  1.0
  H  H27  1  0.45255000  0.30673000  0.26040000  1.0
  H  H28  1  0.59841000  0.63970000  0.40331000  1.0
  H  H29  1  0.40159000  0.36030000  0.59669000  1.0
  H  H30  1  0.14593000  0.17028000  0.66979000  1.0
  H  H31  1  0.85407000  0.82973000  0.33022000  1.0
  H  H32  1  0.39456000  0.33689000  0.76999000  1.0
  H  H33  1  0.60544000  0.66312000  0.23002000  1.0
  H  H34  1  0.63627000  0.29062000  0.83270000  1.0
  H  H35  1  0.36374000  0.70938000  0.16731000  1.0
  C  C36  1  0.61931000  0.95358000  0.02800000  1.0
  C  C37  1  0.38068000  0.04642000  0.97200000  1.0
  C  C38  1  0.46742000  0.87793000  0.97887000  1.0
  C  C39  1  0.53256000  0.12207000  0.02114000  1.0
  C  C40  1  0.34430000  0.46773000  0.94376000  1.0
  C  C41  1  0.65570000  0.53228000  0.05624000  1.0
  C  C42  1  0.40852000  0.48855000  0.40463000  1.0
  C  C43  1  0.59149000  0.51144000  0.59536000  1.0
  C  C44  1  0.38285000  0.88968000  0.47124000  1.0
  C  C45  1  0.61716000  0.11032000  0.52876000  1.0
  C  C46  1  0.46532000  0.54735000  0.92064000  1.0
  C  C47  1  0.53469000  0.45265000  0.07936000  1.0
  C  C48  1  0.53964000  0.89956000  0.50747000  1.0
  C  C49  1  0.46037000  0.10044000  0.49253000  1.0
  C  C50  1  0.37296000  0.01241000  0.71866000  1.0
  C  C51  1  0.62704000  0.98760000  0.28134000  1.0
  C  C52  1  0.35493000  0.88774000  0.69901000  1.0
  C  C53  1  0.64507000  0.11226000  0.30099000  1.0
  C  C54  1  0.18557000  0.69468000  0.62969000  1.0
  C  C55  1  0.81443000  0.30532000  0.37030000  1.0
  C  C56  1  0.30475000  0.64950000  0.66165000  1.0
  C  C57  1  0.69525000  0.35050000  0.33835000  1.0
  C  C58  1  0.63119000  0.93889000  0.78334000  1.0
  C  C59  1  0.36880000  0.06111000  0.21666000  1.0
  C  C60  1  0.80045000  0.68596000  0.58127000  1.0
  C  C61  1  0.19955000  0.31404000  0.41872000  1.0
  C  C62  1  0.64713000  0.05901000  0.80311000  1.0
  C  C63  1  0.35287000  0.94099000  0.19689000  1.0
  C  C64  1  0.87439000  0.03729000  0.86537000  1.0
  C  C65  1  0.12560000  0.96271000  0.13463000  1.0
  C  C66  1  0.45415000  0.72664000  0.71248000  1.0
  C  C67  1  0.54585000  0.27336000  0.28752000  1.0
  C  C68  1  0.34720000  0.92370000  0.95059000  1.0
  C  C69  1  0.65279000  0.07630000  0.04941000  1.0
  C  C70  1  0.52018000  0.10055000  0.77220000  1.0
  C  C71  1  0.47982000  0.89946000  0.22781000  1.0
  C  C72  1  0.48313000  0.84917000  0.73187000  1.0
  C  C73  1  0.51686000  0.15083000  0.26813000  1.0
  C  C74  1  0.55333000  0.57786000  0.44479000  1.0
  C  C75  1  0.44668000  0.42213000  0.55520000  1.0
  C  C76  1  0.18325000  0.84087000  0.89944000  1.0
  C  C77  1  0.81674000  0.15912000  0.10057000  1.0
  C  C78  1  0.64510000  0.58969000  0.53998000  1.0
  C  C79  1  0.35491000  0.41030000  0.46001000  1.0
  C  C80  1  0.25285000  0.15363000  0.70169000  1.0
  C  C81  1  0.74715000  0.84637000  0.29831000  1.0
  C  C82  1  0.82780000  0.01890000  0.56816000  1.0
  C  C83  1  0.17220000  0.98110000  0.43184000  1.0
  C  C84  1  0.62186000  0.58022000  0.97667000  1.0
  C  C85  1  0.37814000  0.41977000  0.02333000  1.0
  C  C86  1  0.39297000  0.24575000  0.75550000  1.0
  C  C87  1  0.60704000  0.75425000  0.24450000  1.0
  C  C88  1  0.75206000  0.66795000  0.95318000  1.0
  C  C89  1  0.24794000  0.33205000  0.04682000  1.0
  C  C90  1  0.52706000  0.21969000  0.79055000  1.0
  C  C91  1  0.47295000  0.78032000  0.20945000  1.0
  C  C92  1  0.65798000  0.00996000  0.53636000  1.0
  C  C93  1  0.34203000  0.99005000  0.46364000  1.0
  N  N94  1  0.21059000  0.81022000  0.64799000  1.0
  N  N95  1  0.78941000  0.18977000  0.35201000  1.0
  N  N96  1  0.24396000  0.04051000  0.68429000  1.0
  N  N97  1  0.75604000  0.95950000  0.31572000  1.0
  N  N98  1  0.77469000  0.92784000  0.82254000  1.0
  N  N99  1  0.22531000  0.07216000  0.17746000  1.0
  N  N100  1  0.80264000  0.11854000  0.85524000  1.0
  N  N101  1  0.19736000  0.88146000  0.14476000  1.0
  O  O102  1  0.93124000  0.09698000  0.54613000  1.0
  O  O103  1  0.06876000  0.90302000  0.45387000  1.0
  O  O104  1  0.08124000  0.89464000  0.87928000  1.0
  O  O105  1  0.91876000  0.10535000  0.12071000  1.0
  O  O106  1  0.86033000  0.94751000  0.61478000  1.0
  O  O107  1  0.13968000  0.05249000  0.38522000  1.0
  O  O108  1  0.86791000  0.72666000  0.51783000  1.0
  O  O109  1  0.13209000  0.27334000  0.48216000  1.0
  O  O110  1  0.86179000  0.72186000  0.67600000  1.0
  O  O111  1  0.13820000  0.27814000  0.32399000  1.0
  O  O112  1  0.72313000  0.67032000  0.85923000  1.0
  O  O113  1  0.27687000  0.32968000  0.14077000  1.0
  O  O114  1  0.15166000  0.73184000  0.88019000  1.0
  O  O115  1  0.84834000  0.26816000  0.11982000  1.0
  O  O116  1  0.87312000  0.73156000  0.02042000  1.0
  O  O117  1  0.12687000  0.26844000  0.97958000  1.0
