# generated using pymatgen
data_KH7C8O3
_symmetry_space_group_name_H-M   'P 1'
_cell_length_a   3.80066000
_cell_length_b   11.17980000
_cell_length_c   18.07400000
_cell_angle_alpha   94.38020000
_cell_angle_beta   90.00000000
_cell_angle_gamma   89.99980000
_symmetry_Int_Tables_number   1
_chemical_formula_structural   KH7C8O3
_chemical_formula_sum   'K4 H28 C32 O12'
_cell_volume   765.73234288
_cell_formula_units_Z   4
loop_
 _symmetry_equiv_pos_site_id
 _symmetry_equiv_pos_as_xyz
  1  'x, y, z'
loop_
 _atom_site_type_symbol
 _atom_site_label
 _atom_site_symmetry_multiplicity
 _atom_site_fract_x
 _atom_site_fract_y
 _atom_site_fract_z
 _atom_site_occupancy
  K  K0  1  0.64617000  0.38839000  0.09345000  1.0
  K  K1  1  0.14617000  0.11161000  0.90655000  1.0
  K  K2  1  0.35384000  0.61161000  0.90655000  1.0
  K  K3  1  0.85383000  0.88839000  0.09345000  1.0
  H  H4  1  0.05235000  0.38852000  0.93505000  1.0
  H  H5  1  0.55236000  0.11148000  0.06495000  1.0
  H  H6  1  0.94764000  0.61148000  0.06495000  1.0
  H  H7  1  0.44764000  0.88852000  0.93505000  1.0
  H  H8  1  0.41796000  0.32852000  0.94082000  1.0
  H  H9  1  0.91797000  0.17148000  0.05918000  1.0
  H  H10  1  0.58203000  0.67148000  0.05918000  1.0
  H  H11  1  0.08204000  0.82851000  0.94082000  1.0
  H  H12  1  0.73410000  0.61226000  0.51241000  1.0
  H  H13  1  0.23408000  0.88774000  0.48759000  1.0
  H  H14  1  0.26592000  0.38774000  0.48759000  1.0
  H  H15  1  0.76591000  0.11226000  0.51241000  1.0
  H  H16  1  0.15369000  0.44037000  0.24294000  1.0
  H  H17  1  0.65368000  0.05963000  0.75706000  1.0
  H  H18  1  0.84632000  0.55963000  0.75706000  1.0
  H  H19  1  0.34632000  0.94037000  0.24294000  1.0
  H  H20  1  0.26095000  0.39563000  0.37211000  1.0
  H  H21  1  0.76094000  0.10437000  0.62789000  1.0
  H  H22  1  0.73907000  0.60437000  0.62789000  1.0
  H  H23  1  0.23906000  0.89563000  0.37211000  1.0
  H  H24  1  0.64823000  0.78460000  0.28405000  1.0
  H  H25  1  0.14825000  0.71540000  0.71595000  1.0
  H  H26  1  0.35175000  0.21540000  0.71595000  1.0
  H  H27  1  0.85174000  0.28460000  0.28405000  1.0
  H  H28  1  0.75671000  0.74145000  0.41490000  1.0
  H  H29  1  0.25671000  0.75855000  0.58511000  1.0
  H  H30  1  0.24330000  0.25855000  0.58510000  1.0
  H  H31  1  0.74328000  0.24145000  0.41490000  1.0
  C  C32  1  0.30369000  0.64343000  0.17709000  1.0
  C  C33  1  0.80370000  0.85657000  0.82291000  1.0
  C  C34  1  0.69631000  0.35657000  0.82291000  1.0
  C  C35  1  0.19630000  0.14343000  0.17709000  1.0
  C  C36  1  0.56619000  0.54599000  0.48194000  1.0
  C  C37  1  0.06618000  0.95401000  0.51806000  1.0
  C  C38  1  0.43383000  0.45402000  0.51806000  1.0
  C  C39  1  0.93381000  0.04599000  0.48194000  1.0
  C  C40  1  0.28231000  0.50671000  0.28118000  1.0
  C  C41  1  0.78231000  0.99329000  0.71882000  1.0
  C  C42  1  0.71770000  0.49329000  0.71882000  1.0
  C  C43  1  0.21769000  0.00671000  0.28118000  1.0
  C  C44  1  0.38338000  0.61713000  0.25548000  1.0
  C  C45  1  0.88338000  0.88287000  0.74452000  1.0
  C  C46  1  0.61662000  0.38287000  0.74452000  1.0
  C  C47  1  0.11661000  0.11713000  0.25548000  1.0
  C  C48  1  0.34283000  0.48209000  0.35404000  1.0
  C  C49  1  0.84282000  0.01791000  0.64597000  1.0
  C  C50  1  0.65719000  0.51791000  0.64597000  1.0
  C  C51  1  0.15718000  0.98209000  0.35404000  1.0
  C  C52  1  0.50697000  0.56702000  0.40444000  1.0
  C  C53  1  0.00697000  0.93298000  0.59556000  1.0
  C  C54  1  0.49305000  0.43298000  0.59556000  1.0
  C  C55  1  0.99303000  0.06702000  0.40444000  1.0
  C  C56  1  0.55821000  0.70055000  0.30429000  1.0
  C  C57  1  0.05822000  0.79945000  0.69571000  1.0
  C  C58  1  0.44179000  0.29945000  0.69571000  1.0
  C  C59  1  0.94178000  0.20055000  0.30429000  1.0
  C  C60  1  0.61848000  0.67595000  0.37750000  1.0
  C  C61  1  0.11848000  0.82405000  0.62250000  1.0
  C  C62  1  0.38153000  0.32405000  0.62249000  1.0
  C  C63  1  0.88151000  0.17595000  0.37751000  1.0
  O  O64  1  0.22412000  0.36064000  0.97263000  1.0
  O  O65  1  0.72412000  0.13936000  0.02737000  1.0
  O  O66  1  0.77588000  0.63936000  0.02737000  1.0
  O  O67  1  0.27588000  0.86064000  0.97263000  1.0
  O  O68  1  0.15856000  0.55933000  0.13527000  1.0
  O  O69  1  0.65856000  0.94068000  0.86473000  1.0
  O  O70  1  0.84143000  0.44067000  0.86473000  1.0
  O  O71  1  0.34143000  0.05933000  0.13527000  1.0
  O  O72  1  0.38465000  0.74509000  0.15483000  1.0
  O  O73  1  0.88464000  0.75491000  0.84517000  1.0
  O  O74  1  0.61533000  0.25491000  0.84517000  1.0
  O  O75  1  0.11534000  0.24509000  0.15483000  1.0
