# generated using pymatgen
data_Ho2U3H26(C3O4)10
_symmetry_space_group_name_H-M   'P 1'
_cell_length_a   10.50930000
_cell_length_b   11.54020000
_cell_length_c   13.48820000
_cell_angle_alpha   66.73750000
_cell_angle_beta   77.48050000
_cell_angle_gamma   63.12810000
_symmetry_Int_Tables_number   1
_chemical_formula_structural   Ho2U3H26(C3O4)10
_chemical_formula_sum   'Ho2 U3 H26 C30 O40'
_cell_volume   1339.11450518
_cell_formula_units_Z   1
loop_
 _symmetry_equiv_pos_site_id
 _symmetry_equiv_pos_as_xyz
  1  'x, y, z'
loop_
 _atom_site_type_symbol
 _atom_site_label
 _atom_site_symmetry_multiplicity
 _atom_site_fract_x
 _atom_site_fract_y
 _atom_site_fract_z
 _atom_site_occupancy
  Ho  Ho0  1  0.58549000  0.24553000  0.74303000  1.0
  Ho  Ho1  1  0.41450000  0.75448000  0.25698000  1.0
  U  U2  1  0.61739000  0.71313000  0.84294000  1.0
  U  U3  1  0.38262000  0.28688000  0.15705000  1.0
  U  U4  1  0.00000000  0.50000000  0.49999000  1.0
  H  H5  1  0.09243000  0.36724000  0.96847000  1.0
  H  H6  1  0.90756000  0.63275000  0.03154000  1.0
  H  H7  1  0.15207000  0.10606000  0.73254000  1.0
  H  H8  1  0.84792000  0.89395000  0.26746000  1.0
  H  H9  1  0.72981000  0.00473000  0.40779000  1.0
  H  H10  1  0.27020000  0.99526000  0.59221000  1.0
  H  H11  1  0.65212000  0.21528000  0.53159000  1.0
  H  H12  1  0.34789000  0.78473000  0.46842000  1.0
  H  H13  1  0.71540000  0.06533000  0.62217000  1.0
  H  H14  1  0.28463000  0.93468000  0.37783000  1.0
  H  H15  1  0.55338000  0.52465000  0.59215000  1.0
  H  H16  1  0.44662000  0.47535000  0.40786000  1.0
  H  H17  1  0.71795000  0.41678000  0.59725000  1.0
  H  H18  1  0.28204000  0.58322000  0.40275000  1.0
  H  H19  1  0.38018000  0.46461000  0.57479000  1.0
  H  H20  1  0.61982000  0.53540000  0.42522000  1.0
  H  H21  1  0.27349000  0.40804000  0.65368000  1.0
  H  H22  1  0.72651000  0.59195000  0.34632000  1.0
  H  H23  1  0.49460000  0.51799000  0.78103000  1.0
  H  H24  1  0.50540000  0.48201000  0.21898000  1.0
  H  H25  1  0.49619000  0.40176000  0.89417000  1.0
  H  H26  1  0.50381000  0.59823000  0.10584000  1.0
  H  H27  1  0.73594000  0.93494000  0.86745000  1.0
  H  H28  1  0.26406000  0.06505000  0.13257000  1.0
  H  H29  1  0.83291000  0.01443000  0.85634000  1.0
  H  H30  1  0.16709000  0.98557000  0.14366000  1.0
  C  C31  1  0.98998000  0.34041000  0.86263000  1.0
  C  C32  1  0.01001000  0.65959000  0.13737000  1.0
  C  C33  1  0.10674000  0.30989000  0.91622000  1.0
  C  C34  1  0.89325000  0.69011000  0.08379000  1.0
  C  C35  1  0.24236000  0.21346000  0.89859000  1.0
  C  C36  1  0.75763000  0.78655000  0.10140000  1.0
  C  C37  1  0.25888000  0.14265000  0.82887000  1.0
  C  C38  1  0.74112000  0.85736000  0.17113000  1.0
  C  C39  1  0.13876000  0.16394000  0.78391000  1.0
  C  C40  1  0.86124000  0.83606000  0.21609000  1.0
  C  C41  1  0.00470000  0.26458000  0.79770000  1.0
  C  C42  1  0.99530000  0.73542000  0.20230000  1.0
  C  C43  1  0.62815000  0.00381000  0.44784000  1.0
  C  C44  1  0.37186000  0.99618000  0.55216000  1.0
  C  C45  1  0.62111000  0.87612000  0.50625000  1.0
  C  C46  1  0.37890000  0.12388000  0.49375000  1.0
  C  C47  1  0.49115000  0.87252000  0.55921000  1.0
  C  C48  1  0.50885000  0.12748000  0.44079000  1.0
  C  C49  1  0.85566000  0.46095000  0.86762000  1.0
  C  C50  1  0.14434000  0.53905000  0.13238000  1.0
  C  C51  1  0.36165000  0.19052000  0.95745000  1.0
  C  C52  1  0.63835000  0.80947000  0.04255000  1.0
  C  C53  1  0.40092000  0.04566000  0.79716000  1.0
  C  C54  1  0.59907000  0.95435000  0.20283000  1.0
  C  C55  1  0.88453000  0.29144000  0.73629000  1.0
  C  C56  1  0.11547000  0.70856000  0.26372000  1.0
  C  C57  1  0.47411000  0.74011000  0.62469000  1.0
  C  C58  1  0.52590000  0.25989000  0.37531000  1.0
  C  C59  1  0.75229000  0.74754000  0.51042000  1.0
  C  C60  1  0.24772000  0.25246000  0.48956000  1.0
  O  O61  1  0.52588000  0.63414000  0.96219000  1.0
  O  O62  1  0.47413000  0.36586000  0.03780000  1.0
  O  O63  1  0.71151000  0.79390000  0.72867000  1.0
  O  O64  1  0.28849000  0.20611000  0.27133000  1.0
  O  O65  1  0.08585000  0.48715000  0.60984000  1.0
  O  O66  1  0.91416000  0.51284000  0.39015000  1.0
  O  O67  1  0.84561000  0.53672000  0.91983000  1.0
  O  O68  1  0.15438000  0.46327000  0.08018000  1.0
  O  O69  1  0.75070000  0.49413000  0.81376000  1.0
  O  O70  1  0.24931000  0.50589000  0.18623000  1.0
  O  O71  1  0.79913000  0.23478000  0.78359000  1.0
  O  O72  1  0.20086000  0.76523000  0.21641000  1.0
  O  O73  1  0.88141000  0.36316000  0.63558000  1.0
  O  O74  1  0.11860000  0.63683000  0.36442000  1.0
  O  O75  1  0.41269000  0.92325000  0.81716000  1.0
  O  O76  1  0.58731000  0.07676000  0.18283000  1.0
  O  O77  1  0.49620000  0.08912000  0.75040000  1.0
  O  O78  1  0.50380000  0.91090000  0.24959000  1.0
  O  O79  1  0.48321000  0.17757000  0.91373000  1.0
  O  O80  1  0.51678000  0.82243000  0.08627000  1.0
  O  O81  1  0.32933000  0.18695000  0.05661000  1.0
  O  O82  1  0.67066000  0.81305000  0.94339000  1.0
  O  O83  1  0.49461000  0.68979000  0.72625000  1.0
  O  O84  1  0.50539000  0.31021000  0.27375000  1.0
  O  O85  1  0.43199000  0.68721000  0.57961000  1.0
  O  O86  1  0.56801000  0.31280000  0.42038000  1.0
  O  O87  1  0.74775000  0.62936000  0.55840000  1.0
  O  O88  1  0.25225000  0.37063000  0.44159000  1.0
  O  O89  1  0.86963000  0.75416000  0.46382000  1.0
  O  O90  1  0.13037000  0.24583000  0.53616000  1.0
  O  O91  1  0.70164000  0.16107000  0.60207000  1.0
  O  O92  1  0.29837000  0.83894000  0.39793000  1.0
  O  O93  1  0.61866000  0.43043000  0.58995000  1.0
  O  O94  1  0.38133000  0.56957000  0.41005000  1.0
  O  O95  1  0.37444000  0.39394000  0.64443000  1.0
  O  O96  1  0.62556000  0.60606000  0.35557000  1.0
  O  O97  1  0.49630000  0.42403000  0.81540000  1.0
  O  O98  1  0.50370000  0.57597000  0.18461000  1.0
  O  O99  1  0.75761000  0.01668000  0.82366000  1.0
  O  O100  1  0.24239000  0.98331000  0.17635000  1.0
