# generated using pymatgen
data_Zn3H54C64(N5O2)4
_symmetry_space_group_name_H-M   'P 1'
_cell_length_a   9.80653000
_cell_length_b   18.57060000
_cell_length_c   20.22870000
_cell_angle_alpha   91.89130000
_cell_angle_beta   104.02800000
_cell_angle_gamma   105.31100000
_symmetry_Int_Tables_number   1
_chemical_formula_structural   Zn3H54C64(N5O2)4
_chemical_formula_sum   'Zn6 H108 C128 N40 O16'
_cell_volume   3428.61870066
_cell_formula_units_Z   2
loop_
 _symmetry_equiv_pos_site_id
 _symmetry_equiv_pos_as_xyz
  1  'x, y, z'
loop_
 _atom_site_type_symbol
 _atom_site_label
 _atom_site_symmetry_multiplicity
 _atom_site_fract_x
 _atom_site_fract_y
 _atom_site_fract_z
 _atom_site_occupancy
  Zn  Zn0  1  0.26243000  0.60028000  0.17958000  1.0
  Zn  Zn1  1  0.98257000  0.89972000  0.32040000  1.0
  Zn  Zn2  1  0.73758000  0.39972000  0.82042000  1.0
  Zn  Zn3  1  0.01743000  0.10028000  0.67960000  1.0
  Zn  Zn4  1  0.76011000  0.75000000  0.74999000  1.0
  Zn  Zn5  1  0.23989000  0.25000000  0.25001000  1.0
  H  H6  1  0.39684000  0.22836000  0.11640000  1.0
  H  H7  1  0.55204000  0.27164000  0.38360000  1.0
  H  H8  1  0.60316000  0.77164000  0.88360000  1.0
  H  H9  1  0.44796000  0.72836000  0.61640000  1.0
  H  H10  1  0.45430000  0.55295000  0.80526000  1.0
  H  H11  1  0.59606000  0.94705000  0.69472000  1.0
  H  H12  1  0.54570000  0.44705000  0.19474000  1.0
  H  H13  1  0.40394000  0.05295000  0.30528000  1.0
  H  H14  1  0.31727000  0.41798000  0.79832000  1.0
  H  H15  1  0.60096000  0.08203000  0.70167000  1.0
  H  H16  1  0.68273000  0.58202000  0.20168000  1.0
  H  H17  1  0.39904000  0.91797000  0.29833000  1.0
  H  H18  1  0.20222000  0.47456000  0.76434000  1.0
  H  H19  1  0.46330000  0.02544000  0.73566000  1.0
  H  H20  1  0.79778000  0.52544000  0.23566000  1.0
  H  H21  1  0.53670000  0.97456000  0.26434000  1.0
  H  H22  1  0.13829000  0.35626000  0.68738000  1.0
  H  H23  1  0.59463000  0.14372000  0.81263000  1.0
  H  H24  1  0.86171000  0.64374000  0.31262000  1.0
  H  H25  1  0.40537000  0.85628000  0.18737000  1.0
  H  H26  1  0.31904000  0.37651000  0.67902000  1.0
  H  H27  1  0.76351000  0.12349000  0.82098000  1.0
  H  H28  1  0.68096000  0.62349000  0.32098000  1.0
  H  H29  1  0.23649000  0.87651000  0.17902000  1.0
  H  H30  1  0.15751000  0.41406000  0.57868000  1.0
  H  H31  1  0.66478000  0.08592000  0.92131000  1.0
  H  H32  1  0.84249000  0.58594000  0.42132000  1.0
  H  H33  1  0.33522000  0.91408000  0.07869000  1.0
  H  H34  1  0.10581000  0.47131000  0.63403000  1.0
  H  H35  1  0.50049000  0.02867000  0.86597000  1.0
  H  H36  1  0.89419000  0.52869000  0.36597000  1.0
  H  H37  1  0.49951000  0.97133000  0.13403000  1.0
  H  H38  1  0.41657000  0.49473000  0.61569000  1.0
  H  H39  1  0.80616000  0.00525000  0.88430000  1.0
  H  H40  1  0.58343000  0.50527000  0.38430000  1.0
  H  H41  1  0.19384000  0.99475000  0.11570000  1.0
  H  H42  1  0.29909000  0.55135000  0.58732000  1.0
  H  H43  1  0.66041000  0.94863000  0.91266000  1.0
  H  H44  1  0.70091000  0.44865000  0.41268000  1.0
  H  H45  1  0.33959000  0.05136000  0.08734000  1.0
  H  H46  1  0.30394000  0.58739000  0.70633000  1.0
  H  H47  1  0.51021000  0.91260000  0.79367000  1.0
  H  H48  1  0.69606000  0.41261000  0.29367000  1.0
  H  H49  1  0.48979000  0.08740000  0.20633000  1.0
  H  H50  1  0.99873000  0.56814000  0.06017000  1.0
  H  H51  1  0.87040000  0.93185000  0.43984000  1.0
  H  H52  1  0.00127000  0.43186000  0.93983000  1.0
  H  H53  1  0.12960000  0.06815000  0.56016000  1.0
  H  H54  1  0.74519000  0.47617000  0.02487000  1.0
  H  H55  1  0.74414000  0.02383000  0.47513000  1.0
  H  H56  1  0.25481000  0.52383000  0.97513000  1.0
  H  H57  1  0.25586000  0.97617000  0.52487000  1.0
  H  H58  1  0.86343000  0.37339000  0.21024000  1.0
  H  H59  1  0.77982000  0.12659000  0.28976000  1.0
  H  H60  1  0.13657000  0.62661000  0.78976000  1.0
  H  H61  1  0.22018000  0.87341000  0.71024000  1.0
  H  H62  1  0.11338000  0.46733000  0.23637000  1.0
  H  H63  1  0.90968000  0.03265000  0.26365000  1.0
  H  H64  1  0.88662000  0.53267000  0.76363000  1.0
  H  H65  1  0.09032000  0.96735000  0.73635000  1.0
  H  H66  1  0.19947000  0.17691000  0.02931000  1.0
  H  H67  1  0.49321000  0.32308000  0.47069000  1.0
  H  H68  1  0.80053000  0.82309000  0.97069000  1.0
  H  H69  1  0.50679000  0.67692000  0.52931000  1.0
  H  H70  1  0.97208000  0.13769000  0.93417000  1.0
  H  H71  1  0.40014000  0.36228000  0.56582000  1.0
  H  H72  1  0.02792000  0.86231000  0.06583000  1.0
  H  H73  1  0.59986000  0.63772000  0.43418000  1.0
  H  H74  1  0.09927000  0.32766000  0.83767000  1.0
  H  H75  1  0.43398000  0.17235000  0.66234000  1.0
  H  H76  1  0.90073000  0.67234000  0.16233000  1.0
  H  H77  1  0.56602000  0.82765000  0.33766000  1.0
  H  H78  1  0.33585000  0.37512000  0.92804000  1.0
  H  H79  1  0.53268000  0.12488000  0.57196000  1.0
  H  H80  1  0.66415000  0.62488000  0.07196000  1.0
  H  H81  1  0.46731000  0.87512000  0.42804000  1.0
  H  H82  1  0.76775000  0.64774000  0.85398000  1.0
  H  H83  1  0.76602000  0.85227000  0.64599000  1.0
  H  H84  1  0.23225000  0.35226000  0.14602000  1.0
  H  H85  1  0.23397000  0.14773000  0.35401000  1.0
  H  H86  1  0.93726000  0.63297000  0.96402000  1.0
  H  H87  1  0.84030000  0.86704000  0.53596000  1.0
  H  H88  1  0.06274000  0.36703000  0.03598000  1.0
  H  H89  1  0.15970000  0.13296000  0.46404000  1.0
  H  H90  1  0.26659000  0.81939000  0.92406000  1.0
  H  H91  1  0.02312000  0.68061000  0.57595000  1.0
  H  H92  1  0.73341000  0.18061000  0.07594000  1.0
  H  H93  1  0.97688000  0.31939000  0.42405000  1.0
  H  H94  1  0.08179000  0.82830000  0.81648000  1.0
  H  H95  1  0.93696000  0.67172000  0.68350000  1.0
  H  H96  1  0.91821000  0.17170000  0.18352000  1.0
  H  H97  1  0.06304000  0.32828000  0.31650000  1.0
  H  H98  1  0.60705000  0.85670000  0.08614000  1.0
  H  H99  1  0.16423000  0.64330000  0.41384000  1.0
  H  H100  1  0.39295000  0.14330000  0.91386000  1.0
  H  H101  1  0.83577000  0.35670000  0.58616000  1.0
  H  H102  1  0.84911000  0.91728000  0.17197000  1.0
  H  H103  1  0.25988000  0.58273000  0.32802000  1.0
  H  H104  1  0.15089000  0.08272000  0.82803000  1.0
  H  H105  1  0.74012000  0.41727000  0.67198000  1.0
  H  H106  1  0.75905000  0.75592000  0.30466000  1.0
  H  H107  1  0.19847000  0.74408000  0.19534000  1.0
  H  H108  1  0.24095000  0.24408000  0.69534000  1.0
  H  H109  1  0.80153000  0.25592000  0.80466000  1.0
  H  H110  1  0.52602000  0.68767000  0.22509000  1.0
  H  H111  1  0.11329000  0.81232000  0.27491000  1.0
  H  H112  1  0.47398000  0.31233000  0.77491000  1.0
  H  H113  1  0.88671000  0.18768000  0.72509000  1.0
  C  C114  1  0.55718000  0.48646000  0.75957000  1.0
  C  C115  1  0.81112000  0.01355000  0.74042000  1.0
  C  C116  1  0.44282000  0.51354000  0.24043000  1.0
  C  C117  1  0.18888000  0.98645000  0.25958000  1.0
  C  C118  1  0.42501000  0.51662000  0.75693000  1.0
  C  C119  1  0.65143000  0.98338000  0.74305000  1.0
  C  C120  1  0.57499000  0.48338000  0.24307000  1.0
  C  C121  1  0.34857000  0.01662000  0.25695000  1.0
  C  C122  1  0.28945000  0.45115000  0.75573000  1.0
  C  C123  1  0.58256000  0.04885000  0.74427000  1.0
  C  C124  1  0.71055000  0.54885000  0.24427000  1.0
  C  C125  1  0.41744000  0.95115000  0.25573000  1.0
  C  C126  1  0.23453000  0.40257000  0.68698000  1.0
  C  C127  1  0.64498000  0.09742000  0.81302000  1.0
  C  C128  1  0.76547000  0.59743000  0.31302000  1.0
  C  C129  1  0.35502000  0.90258000  0.18698000  1.0
  C  C130  1  0.19709000  0.44946000  0.62797000  1.0
  C  C131  1  0.61967000  0.05052000  0.87202000  1.0
  C  C132  1  0.80291000  0.55054000  0.37204000  1.0
  C  C133  1  0.38033000  0.94948000  0.12798000  1.0
  C  C134  1  0.32874000  0.51545000  0.62731000  1.0
  C  C135  1  0.68599000  0.98454000  0.87268000  1.0
  C  C136  1  0.67126000  0.48455000  0.37269000  1.0
  C  C137  1  0.31401000  0.01546000  0.12732000  1.0
  C  C138  1  0.39033000  0.56307000  0.69700000  1.0
  C  C139  1  0.63025000  0.93692000  0.80298000  1.0
  C  C140  1  0.60967000  0.43693000  0.30300000  1.0
  C  C141  1  0.36975000  0.06308000  0.19702000  1.0
  C  C142  1  0.51545000  0.63184000  0.69692000  1.0
  C  C143  1  0.68665000  0.86815000  0.80307000  1.0
  C  C144  1  0.48455000  0.36816000  0.30308000  1.0
  C  C145  1  0.31335000  0.13185000  0.19693000  1.0
  C  C146  1  0.96214000  0.52364000  0.09115000  1.0
  C  C147  1  0.84733000  0.97635000  0.40885000  1.0
  C  C148  1  0.03786000  0.47636000  0.90885000  1.0
  C  C149  1  0.15267000  0.02365000  0.59115000  1.0
  C  C150  1  0.82348000  0.47348000  0.07254000  1.0
  C  C151  1  0.77745000  0.02651000  0.42746000  1.0
  C  C152  1  0.17652000  0.52652000  0.92746000  1.0
  C  C153  1  0.22255000  0.97349000  0.57254000  1.0
  C  C154  1  0.78438000  0.41837000  0.11556000  1.0
  C  C155  1  0.75044000  0.08163000  0.38444000  1.0
  C  C156  1  0.21562000  0.58163000  0.88444000  1.0
  C  C157  1  0.24956000  0.91837000  0.61556000  1.0
  C  C158  1  0.88940000  0.41605000  0.17600000  1.0
  C  C159  1  0.79736000  0.08393000  0.32400000  1.0
  C  C160  1  0.11060000  0.58395000  0.82400000  1.0
  C  C161  1  0.20265000  0.91607000  0.67600000  1.0
  C  C162  1  0.02650000  0.46769000  0.19092000  1.0
  C  C163  1  0.86789000  0.03229000  0.30909000  1.0
  C  C164  1  0.97350000  0.53231000  0.80908000  1.0
  C  C165  1  0.13211000  0.96771000  0.69091000  1.0
  C  C166  1  0.63976000  0.36490000  0.09618000  1.0
  C  C167  1  0.67866000  0.13511000  0.40381000  1.0
  C  C168  1  0.36024000  0.63510000  0.90382000  1.0
  C  C169  1  0.32134000  0.86489000  0.59619000  1.0
  C  C170  1  0.42499000  0.30651000  0.03913000  1.0
  C  C171  1  0.57932000  0.19348000  0.46085000  1.0
  C  C172  1  0.57501000  0.69349000  0.96087000  1.0
  C  C173  1  0.42068000  0.80652000  0.53915000  1.0
  C  C174  1  0.28705000  0.28009000  0.98637000  1.0
  C  C175  1  0.52054000  0.21989000  0.51362000  1.0
  C  C176  1  0.71295000  0.71991000  0.01363000  1.0
  C  C177  1  0.47946000  0.78011000  0.48638000  1.0
  C  C178  1  0.18254000  0.21227000  0.98776000  1.0
  C  C179  1  0.48245000  0.28771000  0.51223000  1.0
  C  C180  1  0.81746000  0.78773000  0.01224000  1.0
  C  C181  1  0.51755000  0.71229000  0.48777000  1.0
  C  C182  1  0.05476000  0.19049000  0.93455000  1.0
  C  C183  1  0.42965000  0.30948000  0.56544000  1.0
  C  C184  1  0.94524000  0.80951000  0.06545000  1.0
  C  C185  1  0.57035000  0.69052000  0.43456000  1.0
  C  C186  1  0.12519000  0.29556000  0.88106000  1.0
  C  C187  1  0.44860000  0.20444000  0.61895000  1.0
  C  C188  1  0.87481000  0.70444000  0.11894000  1.0
  C  C189  1  0.55140000  0.79556000  0.38105000  1.0
  C  C190  1  0.25673000  0.32254000  0.93131000  1.0
  C  C191  1  0.50288000  0.17745000  0.56870000  1.0
  C  C192  1  0.74327000  0.67745000  0.06869000  1.0
  C  C193  1  0.49712000  0.82255000  0.43130000  1.0
  C  C194  1  0.87913000  0.68441000  0.87196000  1.0
  C  C195  1  0.82276000  0.81560000  0.62802000  1.0
  C  C196  1  0.12087000  0.31559000  0.12804000  1.0
  C  C197  1  0.17724000  0.18440000  0.37198000  1.0
  C  C198  1  0.97359000  0.67656000  0.93241000  1.0
  C  C199  1  0.86464000  0.82345000  0.56757000  1.0
  C  C200  1  0.02641000  0.32344000  0.06759000  1.0
  C  C201  1  0.13536000  0.17655000  0.43243000  1.0
  C  C202  1  0.11616000  0.72538000  0.95273000  1.0
  C  C203  1  0.93800000  0.77461000  0.54724000  1.0
  C  C204  1  0.88384000  0.27462000  0.04727000  1.0
  C  C205  1  0.06200000  0.22539000  0.45276000  1.0
  C  C206  1  0.15673000  0.78085000  0.91015000  1.0
  C  C207  1  0.96566000  0.71914000  0.58983000  1.0
  C  C208  1  0.84327000  0.21915000  0.08985000  1.0
  C  C209  1  0.03434000  0.28086000  0.41017000  1.0
  C  C210  1  0.05520000  0.78542000  0.85054000  1.0
  C  C211  1  0.91919000  0.71457000  0.64943000  1.0
  C  C212  1  0.94480000  0.21458000  0.14946000  1.0
  C  C213  1  0.08081000  0.28543000  0.35057000  1.0
  C  C214  1  0.21730000  0.71808000  0.01598000  1.0
  C  C215  1  0.98319000  0.78190000  0.48399000  1.0
  C  C216  1  0.78270000  0.28192000  0.98402000  1.0
  C  C217  1  0.01681000  0.21810000  0.51601000  1.0
  C  C218  1  0.40137000  0.73488000  0.10050000  1.0
  C  C219  1  0.06598000  0.76512000  0.39949000  1.0
  C  C220  1  0.59863000  0.26512000  0.89950000  1.0
  C  C221  1  0.93402000  0.23488000  0.60051000  1.0
  C  C222  1  0.54398000  0.76759000  0.14838000  1.0
  C  C223  1  0.12804000  0.73241000  0.35162000  1.0
  C  C224  1  0.45602000  0.23241000  0.85162000  1.0
  C  C225  1  0.87196000  0.26759000  0.64838000  1.0
  C  C226  1  0.63921000  0.83287000  0.13396000  1.0
  C  C227  1  0.17242000  0.66713000  0.36603000  1.0
  C  C228  1  0.36079000  0.16713000  0.86604000  1.0
  C  C229  1  0.82758000  0.33287000  0.63397000  1.0
  C  C230  1  0.77164000  0.86679000  0.18100000  1.0
  C  C231  1  0.22388000  0.63322000  0.31900000  1.0
  C  C232  1  0.22836000  0.13321000  0.81900000  1.0
  C  C233  1  0.77611000  0.36678000  0.68100000  1.0
  C  C234  1  0.72432000  0.77618000  0.25518000  1.0
  C  C235  1  0.19300000  0.72383000  0.24482000  1.0
  C  C236  1  0.27567000  0.22382000  0.74482000  1.0
  C  C237  1  0.80700000  0.27617000  0.75518000  1.0
  C  C238  1  0.59103000  0.73865000  0.21036000  1.0
  C  C239  1  0.14206000  0.76135000  0.28964000  1.0
  C  C240  1  0.40897000  0.26135000  0.78964000  1.0
  C  C241  1  0.85794000  0.23865000  0.71036000  1.0
  N  N242  1  0.06270000  0.52116000  0.14940000  1.0
  N  N243  1  0.89213000  0.97882000  0.35061000  1.0
  N  N244  1  0.93730000  0.47884000  0.85060000  1.0
  N  N245  1  0.10787000  0.02118000  0.64939000  1.0
  N  N246  1  0.53669000  0.36548000  0.03744000  1.0
  N  N247  1  0.63375000  0.13452000  0.46255000  1.0
  N  N248  1  0.46331000  0.63452000  0.96256000  1.0
  N  N249  1  0.36625000  0.86548000  0.53745000  1.0
  N  N250  1  0.46171000  0.27320000  0.09738000  1.0
  N  N251  1  0.59109000  0.22679000  0.40261000  1.0
  N  N252  1  0.53829000  0.72680000  0.90262000  1.0
  N  N253  1  0.40891000  0.77321000  0.59739000  1.0
  N  N254  1  0.59735000  0.30928000  0.13434000  1.0
  N  N255  1  0.65370000  0.19072000  0.36565000  1.0
  N  N256  1  0.40265000  0.69072000  0.86566000  1.0
  N  N257  1  0.34630000  0.80928000  0.63435000  1.0
  N  N258  1  0.02459000  0.23065000  0.88168000  1.0
  N  N259  1  0.41225000  0.26934000  0.61833000  1.0
  N  N260  1  0.97541000  0.76935000  0.11832000  1.0
  N  N261  1  0.58774000  0.73066000  0.38167000  1.0
  N  N262  1  0.91877000  0.73817000  0.83136000  1.0
  N  N263  1  0.84919000  0.76183000  0.66861000  1.0
  N  N264  1  0.08123000  0.26183000  0.16864000  1.0
  N  N265  1  0.15081000  0.23817000  0.33139000  1.0
  N  N266  1  0.35460000  0.76376000  0.04184000  1.0
  N  N267  1  0.04893000  0.73622000  0.45813000  1.0
  N  N268  1  0.64540000  0.23624000  0.95816000  1.0
  N  N269  1  0.95107000  0.26378000  0.54187000  1.0
  N  N270  1  0.17862000  0.66326000  0.05569000  1.0
  N  N271  1  0.95967000  0.83674000  0.44429000  1.0
  N  N272  1  0.82138000  0.33674000  0.94431000  1.0
  N  N273  1  0.04033000  0.16326000  0.55571000  1.0
  N  N274  1  0.29581000  0.67389000  0.10979000  1.0
  N  N275  1  0.01216000  0.82611000  0.39020000  1.0
  N  N276  1  0.70419000  0.32611000  0.89021000  1.0
  N  N277  1  0.98784000  0.17389000  0.60980000  1.0
  N  N278  1  0.81336000  0.83959000  0.24157000  1.0
  N  N279  1  0.23221000  0.66042000  0.25841000  1.0
  N  N280  1  0.18664000  0.16041000  0.75843000  1.0
  N  N281  1  0.76779000  0.33958000  0.74159000  1.0
  O  O282  1  0.58153000  0.44698000  0.81116000  1.0
  O  O283  1  0.82335000  0.05303000  0.68881000  1.0
  O  O284  1  0.41847000  0.55303000  0.18884000  1.0
  O  O285  1  0.17665000  0.94697000  0.31119000  1.0
  O  O286  1  0.63210000  0.49838000  0.71710000  1.0
  O  O287  1  0.91660000  0.00165000  0.78288000  1.0
  O  O288  1  0.36790000  0.50162000  0.28290000  1.0
  O  O289  1  0.08340000  0.99835000  0.21712000  1.0
  O  O290  1  0.60917000  0.65818000  0.75489000  1.0
  O  O291  1  0.69607000  0.84180000  0.74511000  1.0
  O  O292  1  0.39083000  0.34182000  0.24511000  1.0
  O  O293  1  0.30393000  0.15820000  0.25489000  1.0
  O  O294  1  0.52050000  0.66252000  0.64244000  1.0
  O  O295  1  0.71547000  0.83748000  0.85755000  1.0
  O  O296  1  0.47949000  0.33748000  0.35756000  1.0
  O  O297  1  0.28453000  0.16252000  0.14245000  1.0
