# generated using pymatgen
data_HgH16C22(BrN2)2
_symmetry_space_group_name_H-M   'P 1'
_cell_length_a   5.07775000
_cell_length_b   13.35480000
_cell_length_c   15.64710000
_cell_angle_alpha   95.93070000
_cell_angle_beta   89.99990000
_cell_angle_gamma   89.99980000
_symmetry_Int_Tables_number   1
_chemical_formula_structural   HgH16C22(BrN2)2
_chemical_formula_sum   'Hg2 H32 C44 Br4 N8'
_cell_volume   1055.38714235
_cell_formula_units_Z   2
loop_
 _symmetry_equiv_pos_site_id
 _symmetry_equiv_pos_as_xyz
  1  'x, y, z'
loop_
 _atom_site_type_symbol
 _atom_site_label
 _atom_site_symmetry_multiplicity
 _atom_site_fract_x
 _atom_site_fract_y
 _atom_site_fract_z
 _atom_site_occupancy
  Hg  Hg0  1  0.53186000  0.00000000  0.25000000  1.0
  Hg  Hg1  1  0.46815000  0.00000000  0.75000000  1.0
  H  H2  1  0.76522000  0.03643000  0.43980000  1.0
  H  H3  1  0.76521000  0.96357000  0.06020000  1.0
  H  H4  1  0.23478000  0.96357000  0.56020000  1.0
  H  H5  1  0.23479000  0.03643000  0.93980000  1.0
  H  H6  1  0.09504000  0.13676000  0.53159000  1.0
  H  H7  1  0.09503000  0.86324000  0.96841000  1.0
  H  H8  1  0.90497000  0.86324000  0.46841000  1.0
  H  H9  1  0.90497000  0.13676000  0.03159000  1.0
  H  H10  1  0.25819000  0.30409000  0.31565000  1.0
  H  H11  1  0.25819000  0.69591000  0.18434000  1.0
  H  H12  1  0.74180000  0.69591000  0.68434000  1.0
  H  H13  1  0.74180000  0.30409000  0.81565000  1.0
  H  H14  1  0.91586000  0.19764000  0.23275000  1.0
  H  H15  1  0.91586000  0.80236000  0.26725000  1.0
  H  H16  1  0.08412000  0.80236000  0.76725000  1.0
  H  H17  1  0.08413000  0.19764000  0.73275000  1.0
  H  H18  1  0.37763000  0.27637000  0.55419000  1.0
  H  H19  1  0.37764000  0.72363000  0.94581000  1.0
  H  H20  1  0.62237000  0.72363000  0.44580000  1.0
  H  H21  1  0.62237000  0.27637000  0.05419000  1.0
  H  H22  1  0.70801000  0.31143000  0.61975000  1.0
  H  H23  1  0.70800000  0.68857000  0.88025000  1.0
  H  H24  1  0.29200000  0.68857000  0.38025000  1.0
  H  H25  1  0.29200000  0.31143000  0.11975000  1.0
  H  H26  1  0.04277000  0.40748000  0.70769000  1.0
  H  H27  1  0.04277000  0.59252000  0.79231000  1.0
  H  H28  1  0.95723000  0.59251000  0.29231000  1.0
  H  H29  1  0.95723000  0.40748000  0.20769000  1.0
  H  H30  1  0.29792000  0.54413000  0.64789000  1.0
  H  H31  1  0.29792000  0.45587000  0.85211000  1.0
  H  H32  1  0.70208000  0.45587000  0.35211000  1.0
  H  H33  1  0.70207000  0.54412000  0.14789000  1.0
  C  C34  1  0.87955000  0.09622000  0.41483000  1.0
  C  C35  1  0.87954000  0.90378000  0.08517000  1.0
  C  C36  1  0.12046000  0.90378000  0.58517000  1.0
  C  C37  1  0.12046000  0.09622000  0.91483000  1.0
  C  C38  1  0.06195000  0.15240000  0.46544000  1.0
  C  C39  1  0.06195000  0.84760000  0.03456000  1.0
  C  C40  1  0.93806000  0.84760000  0.53456000  1.0
  C  C41  1  0.93805000  0.15240000  0.96544000  1.0
  C  C42  1  0.20481000  0.22827000  0.43045000  1.0
  C  C43  1  0.20481000  0.77173000  0.06955000  1.0
  C  C44  1  0.79519000  0.77173000  0.56955000  1.0
  C  C45  1  0.79519000  0.22826000  0.93045000  1.0
  C  C46  1  0.15287000  0.24534000  0.34500000  1.0
  C  C47  1  0.15287000  0.75466000  0.15500000  1.0
  C  C48  1  0.84712000  0.75466000  0.65500000  1.0
  C  C49  1  0.84712000  0.24534000  0.84499000  1.0
  C  C50  1  0.96406000  0.18680000  0.29912000  1.0
  C  C51  1  0.96406000  0.81320000  0.20088000  1.0
  C  C52  1  0.03593000  0.81320000  0.70088000  1.0
  C  C53  1  0.03594000  0.18680000  0.79911000  1.0
  C  C54  1  0.39450000  0.28645000  0.48544000  1.0
  C  C55  1  0.39450000  0.71356000  0.01456000  1.0
  C  C56  1  0.60550000  0.71356000  0.51456000  1.0
  C  C57  1  0.60550000  0.28644000  0.98544000  1.0
  C  C58  1  0.75261000  0.39556000  0.50995000  1.0
  C  C59  1  0.75261000  0.60444000  0.99005000  1.0
  C  C60  1  0.24739000  0.60444000  0.49005000  1.0
  C  C61  1  0.24739000  0.39556000  0.00995000  1.0
  C  C62  1  0.80964000  0.37301000  0.59301000  1.0
  C  C63  1  0.80964000  0.62699000  0.90699000  1.0
  C  C64  1  0.19036000  0.62699000  0.40699000  1.0
  C  C65  1  0.19036000  0.37301000  0.09301000  1.0
  C  C66  1  0.00376000  0.42665000  0.64273000  1.0
  C  C67  1  0.00376000  0.57335000  0.85727000  1.0
  C  C68  1  0.99624000  0.57335000  0.35727000  1.0
  C  C69  1  0.99624000  0.42665000  0.14273000  1.0
  C  C70  1  0.14587000  0.50251000  0.61022000  1.0
  C  C71  1  0.14587000  0.49749000  0.88978000  1.0
  C  C72  1  0.85414000  0.49749000  0.38978000  1.0
  C  C73  1  0.85413000  0.50251000  0.11022000  1.0
  C  C74  1  0.90062000  0.47309000  0.47432000  1.0
  C  C75  1  0.90061000  0.52691000  0.02568000  1.0
  C  C76  1  0.09939000  0.52691000  0.52568000  1.0
  C  C77  1  0.09938000  0.47309000  0.97432000  1.0
  Br  Br78  1  0.39933000  0.10579000  0.13049000  1.0
  Br  Br79  1  0.39926000  0.89425000  0.36955000  1.0
  Br  Br80  1  0.60074000  0.89426000  0.86955000  1.0
  Br  Br81  1  0.60074000  0.10574000  0.63045000  1.0
  N  N82  1  0.83179000  0.11306000  0.33316000  1.0
  N  N83  1  0.83178000  0.88694000  0.16684000  1.0
  N  N84  1  0.16821000  0.88694000  0.66684000  1.0
  N  N85  1  0.16821000  0.11306000  0.83316000  1.0
  N  N86  1  0.56697000  0.34420000  0.45561000  1.0
  N  N87  1  0.56697000  0.65580000  0.04439000  1.0
  N  N88  1  0.43303000  0.65580000  0.54439000  1.0
  N  N89  1  0.43303000  0.34420000  0.95561000  1.0
