# generated using pymatgen
data_CuMo4H30C42N6O13
_symmetry_space_group_name_H-M   'P 1'
_cell_length_a   8.14544000
_cell_length_b   9.30135000
_cell_length_c   13.85240000
_cell_angle_alpha   78.59300000
_cell_angle_beta   83.14400000
_cell_angle_gamma   77.56630000
_symmetry_Int_Tables_number   1
_chemical_formula_structural   CuMo4H30C42N6O13
_chemical_formula_sum   'Cu1 Mo4 H30 C42 N6 O13'
_cell_volume   1001.40970808
_cell_formula_units_Z   1
loop_
 _symmetry_equiv_pos_site_id
 _symmetry_equiv_pos_as_xyz
  1  'x, y, z'
loop_
 _atom_site_type_symbol
 _atom_site_label
 _atom_site_symmetry_multiplicity
 _atom_site_fract_x
 _atom_site_fract_y
 _atom_site_fract_z
 _atom_site_occupancy
  Cu  Cu0  1  0.00000000  0.00000000  0.00000000  1.0
  Mo  Mo1  1  0.19985000  0.38504000  0.94789000  1.0
  Mo  Mo2  1  0.80015000  0.61496000  0.05210000  1.0
  Mo  Mo3  1  0.33591000  0.68276000  0.07345000  1.0
  Mo  Mo4  1  0.66409000  0.31724000  0.92655000  1.0
  H  H5  1  0.37937000  0.07387000  0.05240000  1.0
  H  H6  1  0.62064000  0.92613000  0.94760000  1.0
  H  H7  1  0.43176000  0.90052000  0.20836000  1.0
  H  H8  1  0.56824000  0.09948000  0.79164000  1.0
  H  H9  1  0.17671000  0.26054000  0.36082000  1.0
  H  H10  1  0.82329000  0.73946000  0.63918000  1.0
  H  H11  1  0.13089000  0.41911000  0.19611000  1.0
  H  H12  1  0.86911000  0.58089000  0.80389000  1.0
  H  H13  1  0.54525000  0.81548000  0.33003000  1.0
  H  H14  1  0.45475000  0.18452000  0.66997000  1.0
  H  H15  1  0.45661000  0.70084000  0.64420000  1.0
  H  H16  1  0.54338000  0.29916000  0.35580000  1.0
  H  H17  1  0.15031000  0.09118000  0.48546000  1.0
  H  H18  1  0.84969000  0.90882000  0.51454000  1.0
  H  H19  1  0.86405000  0.30732000  0.63866000  1.0
  H  H20  1  0.13594000  0.69268000  0.36134000  1.0
  H  H21  1  0.64010000  0.52295000  0.64654000  1.0
  H  H22  1  0.35990000  0.47706000  0.35346000  1.0
  H  H23  1  0.71007000  0.63022000  0.32622000  1.0
  H  H24  1  0.28992000  0.36978000  0.67378000  1.0
  H  H25  1  0.93604000  0.41403000  0.33345000  1.0
  H  H26  1  0.06396000  0.58597000  0.66655000  1.0
  H  H27  1  0.00480000  0.20171000  0.79928000  1.0
  H  H28  1  0.99520000  0.79829000  0.20072000  1.0
  H  H29  1  0.12863000  0.16885000  0.63014000  1.0
  H  H30  1  0.87137000  0.83115000  0.36986000  1.0
  H  H31  1  0.24708000  0.69236000  0.74275000  1.0
  H  H32  1  0.75292000  0.30764000  0.25725000  1.0
  H  H33  1  0.11713000  0.74466000  0.90323000  1.0
  H  H34  1  0.88287000  0.25533000  0.09677000  1.0
  C  C35  1  0.33791000  0.11198000  0.12232000  1.0
  C  C36  1  0.66210000  0.88803000  0.87768000  1.0
  C  C37  1  0.36734000  0.01520000  0.21090000  1.0
  C  C38  1  0.63266000  0.98480000  0.78910000  1.0
  C  C39  1  0.31076000  0.06447000  0.30098000  1.0
  C  C40  1  0.68924000  0.93553000  0.69902000  1.0
  C  C41  1  0.22436000  0.21361000  0.29445000  1.0
  C  C42  1  0.77564000  0.78638000  0.70555000  1.0
  C  C43  1  0.19868000  0.30366000  0.20223000  1.0
  C  C44  1  0.80132000  0.69634000  0.79776000  1.0
  C  C45  1  0.34451000  0.96420000  0.39651000  1.0
  C  C46  1  0.65549000  0.03580000  0.60349000  1.0
  C  C47  1  0.47310000  0.83656000  0.39870000  1.0
  C  C48  1  0.52690000  0.16344000  0.60130000  1.0
  C  C49  1  0.51494000  0.73818000  0.48660000  1.0
  C  C50  1  0.48506000  0.26181000  0.51340000  1.0
  C  C51  1  0.42421000  0.77221000  0.57418000  1.0
  C  C52  1  0.57579000  0.22780000  0.42581000  1.0
  C  C53  1  0.29443000  0.89866000  0.57487000  1.0
  C  C54  1  0.70557000  0.10135000  0.42512000  1.0
  C  C55  1  0.25402000  0.99451000  0.48557000  1.0
  C  C56  1  0.74598000  0.00549000  0.51443000  1.0
  C  C57  1  0.83008000  0.38252000  0.56989000  1.0
  C  C58  1  0.16991000  0.61748000  0.43011000  1.0
  C  C59  1  0.70043000  0.50684000  0.57403000  1.0
  C  C60  1  0.29957000  0.49316000  0.42597000  1.0
  C  C61  1  0.65193000  0.60440000  0.48669000  1.0
  C  C62  1  0.34806000  0.39560000  0.51331000  1.0
  C  C63  1  0.73974000  0.56621000  0.39883000  1.0
  C  C64  1  0.26026000  0.43378000  0.60117000  1.0
  C  C65  1  0.86902000  0.44072000  0.40257000  1.0
  C  C66  1  0.13097000  0.55928000  0.59743000  1.0
  C  C67  1  0.06025000  0.09095000  0.78285000  1.0
  C  C68  1  0.93975000  0.90905000  0.21715000  1.0
  C  C69  1  0.13016000  0.07113000  0.68858000  1.0
  C  C70  1  0.86984000  0.92887000  0.31142000  1.0
  C  C71  1  0.20619000  0.92720000  0.67066000  1.0
  C  C72  1  0.79381000  0.07280000  0.32934000  1.0
  C  C73  1  0.19886000  0.80842000  0.75013000  1.0
  C  C74  1  0.80115000  0.19158000  0.24987000  1.0
  C  C75  1  0.12469000  0.83618000  0.84155000  1.0
  C  C76  1  0.87531000  0.16382000  0.15845000  1.0
  N  N77  1  0.25466000  0.25498000  0.11671000  1.0
  N  N78  1  0.74534000  0.74502000  0.88329000  1.0
  N  N79  1  0.91695000  0.34793000  0.48616000  1.0
  N  N80  1  0.08305000  0.65207000  0.51384000  1.0
  N  N81  1  0.05994000  0.97529000  0.85889000  1.0
  N  N82  1  0.94006000  0.02471000  0.14111000  1.0
  O  O83  1  0.12490000  0.22461000  0.94853000  1.0
  O  O84  1  0.87511000  0.77538000  0.05147000  1.0
  O  O85  1  0.00000000  0.50000000  0.00000000  1.0
  O  O86  1  0.19968000  0.47228000  0.82619000  1.0
  O  O87  1  0.80033000  0.52772000  0.17380000  1.0
  O  O88  1  0.30579000  0.55278000  0.00132000  1.0
  O  O89  1  0.69421000  0.44722000  0.99868000  1.0
  O  O90  1  0.44464000  0.29349000  0.93682000  1.0
  O  O91  1  0.55536000  0.70651000  0.06318000  1.0
  O  O92  1  0.27454000  0.62286000  0.19585000  1.0
  O  O93  1  0.72546000  0.37714000  0.80415000  1.0
  O  O94  1  0.21346000  0.86185000  0.03353000  1.0
  O  O95  1  0.78655000  0.13815000  0.96647000  1.0
