# generated using pymatgen
data_CuH7C2N11
_symmetry_space_group_name_H-M   'P 1'
_cell_length_a   5.87649000
_cell_length_b   10.02350000
_cell_length_c   13.92340000
_cell_angle_alpha   89.99930000
_cell_angle_beta   90.50370000
_cell_angle_gamma   90.00000000
_symmetry_Int_Tables_number   1
_chemical_formula_structural   CuH7C2N11
_chemical_formula_sum   'Cu4 H28 C8 N44'
_cell_volume   820.09830362
_cell_formula_units_Z   4
loop_
 _symmetry_equiv_pos_site_id
 _symmetry_equiv_pos_as_xyz
  1  'x, y, z'
loop_
 _atom_site_type_symbol
 _atom_site_label
 _atom_site_symmetry_multiplicity
 _atom_site_fract_x
 _atom_site_fract_y
 _atom_site_fract_z
 _atom_site_occupancy
  Cu  Cu0  1  0.91718000  0.87438000  0.24158000  1.0
  Cu  Cu1  1  0.58283000  0.37437000  0.25843000  1.0
  Cu  Cu2  1  0.08283000  0.12562000  0.75842000  1.0
  Cu  Cu3  1  0.41718000  0.62561000  0.74158000  1.0
  H  H4  1  0.35818000  0.90234000  0.98222000  1.0
  H  H5  1  0.14180000  0.40235000  0.51777000  1.0
  H  H6  1  0.64183000  0.09765000  0.01778000  1.0
  H  H7  1  0.85816000  0.59767000  0.48222000  1.0
  H  H8  1  0.09924000  0.91772000  0.40811000  1.0
  H  H9  1  0.40076000  0.41772000  0.09189000  1.0
  H  H10  1  0.90076000  0.08228000  0.59189000  1.0
  H  H11  1  0.59924000  0.58228000  0.90811000  1.0
  H  H12  1  0.91044000  0.03903000  0.38323000  1.0
  H  H13  1  0.58956000  0.53903000  0.11676000  1.0
  H  H14  1  0.08956000  0.96097000  0.61677000  1.0
  H  H15  1  0.41045000  0.46097000  0.88323000  1.0
  H  H16  1  0.82101000  0.89099000  0.41876000  1.0
  H  H17  1  0.67900000  0.39099000  0.08124000  1.0
  H  H18  1  0.17900000  0.10902000  0.58124000  1.0
  H  H19  1  0.32101000  0.60901000  0.91876000  1.0
  H  H20  1  0.55173000  0.73658000  0.21709000  1.0
  H  H21  1  0.94828000  0.23658000  0.28290000  1.0
  H  H22  1  0.44828000  0.26341000  0.78291000  1.0
  H  H23  1  0.05173000  0.76342000  0.71710000  1.0
  H  H24  1  0.58126000  0.77553000  0.33397000  1.0
  H  H25  1  0.91875000  0.27553000  0.16603000  1.0
  H  H26  1  0.41874000  0.22447000  0.66603000  1.0
  H  H27  1  0.08125000  0.72446000  0.83397000  1.0
  H  H28  1  0.48169000  0.88500000  0.25694000  1.0
  H  H29  1  0.01830000  0.38500000  0.24306000  1.0
  H  H30  1  0.51830000  0.11499000  0.74306000  1.0
  H  H31  1  0.98169000  0.61499000  0.75694000  1.0
  C  C32  1  0.28536000  0.99022000  0.11471000  1.0
  C  C33  1  0.21465000  0.49019000  0.38531000  1.0
  C  C34  1  0.71465000  0.00979000  0.88530000  1.0
  C  C35  1  0.78536000  0.50977000  0.61472000  1.0
  C  C36  1  0.07243000  0.81337000  0.04084000  1.0
  C  C37  1  0.42762000  0.31335000  0.45916000  1.0
  C  C38  1  0.92760000  0.18663000  0.95917000  1.0
  C  C39  1  0.57244000  0.68662000  0.54084000  1.0
  N  N40  1  0.17284000  0.99145000  0.19916000  1.0
  N  N41  1  0.32713000  0.49147000  0.30084000  1.0
  N  N42  1  0.82715000  0.00853000  0.80084000  1.0
  N  N43  1  0.67281000  0.50856000  0.69916000  1.0
  N  N44  1  0.26705000  0.09328000  0.25126000  1.0
  N  N45  1  0.23294000  0.59329000  0.24873000  1.0
  N  N46  1  0.73295000  0.90672000  0.74873000  1.0
  N  N47  1  0.76704000  0.40673000  0.75125000  1.0
  N  N48  1  0.42659000  0.14840000  0.19999000  1.0
  N  N49  1  0.07340000  0.64841000  0.30000000  1.0
  N  N50  1  0.57340000  0.85160000  0.80000000  1.0
  N  N51  1  0.92659000  0.35161000  0.69998000  1.0
  N  N52  1  0.44450000  0.08652000  0.11352000  1.0
  N  N53  1  0.05552000  0.58652000  0.38647000  1.0
  N  N54  1  0.55551000  0.91348000  0.88648000  1.0
  N  N55  1  0.94450000  0.41349000  0.61351000  1.0
  N  N56  1  0.24761000  0.90271000  0.04129000  1.0
  N  N57  1  0.25244000  0.40268000  0.45872000  1.0
  N  N58  1  0.75244000  0.09730000  0.95872000  1.0
  N  N59  1  0.74762000  0.59726000  0.54130000  1.0
  N  N60  1  0.03305000  0.72742000  0.96859000  1.0
  N  N61  1  0.46694000  0.22742000  0.53142000  1.0
  N  N62  1  0.96696000  0.27257000  0.03141000  1.0
  N  N63  1  0.53301000  0.77259000  0.46860000  1.0
  N  N64  1  0.84395000  0.65981000  0.99480000  1.0
  N  N65  1  0.65603000  0.15982000  0.50520000  1.0
  N  N66  1  0.15604000  0.34018000  0.00520000  1.0
  N  N67  1  0.34391000  0.84020000  0.49480000  1.0
  N  N68  1  0.77282000  0.70169000  0.07804000  1.0
  N  N69  1  0.72716000  0.20170000  0.42196000  1.0
  N  N70  1  0.22718000  0.29831000  0.92196000  1.0
  N  N71  1  0.27280000  0.79833000  0.57804000  1.0
  N  N72  1  0.91494000  0.79950000  0.10985000  1.0
  N  N73  1  0.58506000  0.29951000  0.39013000  1.0
  N  N74  1  0.08507000  0.20049000  0.89014000  1.0
  N  N75  1  0.41494000  0.70052000  0.60984000  1.0
  N  N76  1  0.94165000  0.93827000  0.37799000  1.0
  N  N77  1  0.55835000  0.43827000  0.12200000  1.0
  N  N78  1  0.05835000  0.06173000  0.62201000  1.0
  N  N79  1  0.44165000  0.56173000  0.87800000  1.0
  N  N80  1  0.59845000  0.81006000  0.26428000  1.0
  N  N81  1  0.90155000  0.31006000  0.23572000  1.0
  N  N82  1  0.40156000  0.18994000  0.73572000  1.0
  N  N83  1  0.09844000  0.68994000  0.76428000  1.0
