# generated using pymatgen
data_Mn3H12C4N20(ClO)2
_symmetry_space_group_name_H-M   'P 1'
_cell_length_a   9.17896000
_cell_length_b   9.34708000
_cell_length_c   12.95490000
_cell_angle_alpha   89.99980000
_cell_angle_beta   89.99980000
_cell_angle_gamma   90.68430000
_symmetry_Int_Tables_number   1
_chemical_formula_structural   Mn3H12C4N20(ClO)2
_chemical_formula_sum   'Mn6 H24 C8 N40 Cl4 O4'
_cell_volume   1111.40546238
_cell_formula_units_Z   2
loop_
 _symmetry_equiv_pos_site_id
 _symmetry_equiv_pos_as_xyz
  1  'x, y, z'
loop_
 _atom_site_type_symbol
 _atom_site_label
 _atom_site_symmetry_multiplicity
 _atom_site_fract_x
 _atom_site_fract_y
 _atom_site_fract_z
 _atom_site_occupancy
  Mn  Mn0  1  0.00000000  0.50000000  0.00000000  1.0
  Mn  Mn1  1  0.50000000  0.00000000  0.50000000  1.0
  Mn  Mn2  1  0.77802000  0.51154000  0.76205000  1.0
  Mn  Mn3  1  0.72197000  0.98846000  0.26205000  1.0
  Mn  Mn4  1  0.22197000  0.48844000  0.23795000  1.0
  Mn  Mn5  1  0.27802000  0.01154000  0.73795000  1.0
  H  H6  1  0.76566000  0.54800000  0.55119000  1.0
  H  H7  1  0.73434000  0.95200000  0.05118000  1.0
  H  H8  1  0.23434000  0.45200000  0.44881000  1.0
  H  H9  1  0.26566000  0.04800000  0.94882000  1.0
  H  H10  1  0.91167000  0.61702000  0.58677000  1.0
  H  H11  1  0.58833000  0.88297000  0.08677000  1.0
  H  H12  1  0.08833000  0.38297000  0.41323000  1.0
  H  H13  1  0.41167000  0.11703000  0.91323000  1.0
  H  H14  1  0.84735000  0.82110000  0.63032000  1.0
  H  H15  1  0.65265000  0.67890000  0.13031000  1.0
  H  H16  1  0.15265000  0.17890000  0.36968000  1.0
  H  H17  1  0.34735000  0.32110000  0.86969000  1.0
  H  H18  1  0.01946000  0.88407000  0.60232000  1.0
  H  H19  1  0.48054000  0.61592000  0.10232000  1.0
  H  H20  1  0.98054000  0.11593000  0.39768000  1.0
  H  H21  1  0.51946000  0.38408000  0.89768000  1.0
  H  H22  1  0.36906000  0.74888000  0.90112000  1.0
  H  H23  1  0.13093000  0.75112000  0.40112000  1.0
  H  H24  1  0.63094000  0.25112000  0.09888000  1.0
  H  H25  1  0.86907000  0.24888000  0.59888000  1.0
  H  H26  1  0.52520000  0.64318000  0.91380000  1.0
  H  H27  1  0.97480000  0.85682000  0.41380000  1.0
  H  H28  1  0.47480000  0.35682000  0.08620000  1.0
  H  H29  1  0.02520000  0.14318000  0.58620000  1.0
  C  C30  1  0.00510000  0.77987000  0.73770000  1.0
  C  C31  1  0.49490000  0.72013000  0.23770000  1.0
  C  C32  1  0.99490000  0.22013000  0.26230000  1.0
  C  C33  1  0.50510000  0.27986000  0.76230000  1.0
  C  C34  1  0.51067000  0.75010000  0.77829000  1.0
  C  C35  1  0.98933000  0.74990000  0.27829000  1.0
  C  C36  1  0.48933000  0.24990000  0.22171000  1.0
  C  C37  1  0.01067000  0.25009000  0.72172000  1.0
  N  N38  1  0.94654000  0.67803000  0.79849000  1.0
  N  N39  1  0.55346000  0.82197000  0.29849000  1.0
  N  N40  1  0.05346000  0.32197000  0.20151000  1.0
  N  N41  1  0.44654000  0.17803000  0.70151000  1.0
  N  N42  1  0.03106000  0.67682000  0.88403000  1.0
  N  N43  1  0.46894000  0.82318000  0.38403000  1.0
  N  N44  1  0.96894000  0.32318000  0.11597000  1.0
  N  N45  1  0.53106000  0.17682000  0.61597000  1.0
  N  N46  1  0.13619000  0.77182000  0.87601000  1.0
  N  N47  1  0.36381000  0.72818000  0.37600000  1.0
  N  N48  1  0.86381000  0.22818000  0.12399000  1.0
  N  N49  1  0.63619000  0.27182000  0.62400000  1.0
  N  N50  1  0.12221000  0.84013000  0.78445000  1.0
  N  N51  1  0.37779000  0.65987000  0.28445000  1.0
  N  N52  1  0.87779000  0.15986000  0.21555000  1.0
  N  N53  1  0.62221000  0.34013000  0.71555000  1.0
  N  N54  1  0.95758000  0.80851000  0.63943000  1.0
  N  N55  1  0.54243000  0.69148000  0.13943000  1.0
  N  N56  1  0.04242000  0.19149000  0.36057000  1.0
  N  N57  1  0.45758000  0.30852000  0.86057000  1.0
  N  N58  1  0.62289000  0.68735000  0.72765000  1.0
  N  N59  1  0.87711000  0.81265000  0.22765000  1.0
  N  N60  1  0.37711000  0.31265000  0.27235000  1.0
  N  N61  1  0.12289000  0.18735000  0.77235000  1.0
  N  N62  1  0.63175000  0.75314000  0.63471000  1.0
  N  N63  1  0.86825000  0.74686000  0.13471000  1.0
  N  N64  1  0.36825000  0.24686000  0.36529000  1.0
  N  N65  1  0.13176000  0.25315000  0.86529000  1.0
  N  N66  1  0.52981000  0.84863000  0.62896000  1.0
  N  N67  1  0.97019000  0.65136000  0.12896000  1.0
  N  N68  1  0.47019000  0.15136000  0.37104000  1.0
  N  N69  1  0.02982000  0.34864000  0.87104000  1.0
  N  N70  1  0.45070000  0.85093000  0.71715000  1.0
  N  N71  1  0.04930000  0.64908000  0.21714000  1.0
  N  N72  1  0.54930000  0.14907000  0.28286000  1.0
  N  N73  1  0.95070000  0.35093000  0.78286000  1.0
  N  N74  1  0.46885000  0.71894000  0.87509000  1.0
  N  N75  1  0.03115000  0.78106000  0.37508000  1.0
  N  N76  1  0.53115000  0.28107000  0.12492000  1.0
  N  N77  1  0.96885000  0.21894000  0.62492000  1.0
  Cl  Cl78  1  0.72501000  0.50013000  0.95590000  1.0
  Cl  Cl79  1  0.77499000  0.99987000  0.45590000  1.0
  Cl  Cl80  1  0.27499000  0.49987000  0.04410000  1.0
  Cl  Cl81  1  0.22501000  0.00013000  0.54410000  1.0
  O  O82  1  0.85196000  0.52824000  0.59250000  1.0
  O  O83  1  0.64805000  0.97176000  0.09250000  1.0
  O  O84  1  0.14804000  0.47176000  0.40750000  1.0
  O  O85  1  0.35196000  0.02824000  0.90750000  1.0
