# generated using pymatgen
data_DyCu2H8C8(N3O4)3
_symmetry_space_group_name_H-M   'P 1'
_cell_length_a   7.27661000
_cell_length_b   11.17210000
_cell_length_c   11.79020000
_cell_angle_alpha   78.04300000
_cell_angle_beta   89.87740000
_cell_angle_gamma   89.92290000
_symmetry_Int_Tables_number   1
_chemical_formula_structural   DyCu2H8C8(N3O4)3
_chemical_formula_sum   'Dy2 Cu4 H16 C16 N18 O24'
_cell_volume   937.68604384
_cell_formula_units_Z   2
loop_
 _symmetry_equiv_pos_site_id
 _symmetry_equiv_pos_as_xyz
  1  'x, y, z'
loop_
 _atom_site_type_symbol
 _atom_site_label
 _atom_site_symmetry_multiplicity
 _atom_site_fract_x
 _atom_site_fract_y
 _atom_site_fract_z
 _atom_site_occupancy
  Dy  Dy0  1  0.50415000  0.24987000  0.50017000  1.0
  Dy  Dy1  1  0.49574000  0.75016000  0.49981000  1.0
  Cu  Cu2  1  0.86105000  0.88857000  0.92556000  1.0
  Cu  Cu3  1  0.86105000  0.61157000  0.07511000  1.0
  Cu  Cu4  1  0.13804000  0.11146000  0.07463000  1.0
  Cu  Cu5  1  0.14039000  0.38829000  0.92533000  1.0
  H  H6  1  0.23467000  0.05109000  0.57750000  1.0
  H  H7  1  0.23540000  0.44889000  0.42255000  1.0
  H  H8  1  0.76491000  0.94887000  0.42221000  1.0
  H  H9  1  0.76524000  0.55125000  0.57755000  1.0
  H  H10  1  0.31339000  0.03672000  0.45609000  1.0
  H  H11  1  0.31343000  0.46339000  0.54382000  1.0
  H  H12  1  0.68696000  0.96320000  0.54383000  1.0
  H  H13  1  0.68692000  0.53684000  0.45633000  1.0
  H  H14  1  0.32421000  0.28446000  0.72696000  1.0
  H  H15  1  0.32323000  0.21585000  0.27353000  1.0
  H  H16  1  0.67697000  0.71576000  0.27329000  1.0
  H  H17  1  0.67566000  0.78476000  0.72665000  1.0
  H  H18  1  0.27451000  0.14646000  0.72212000  1.0
  H  H19  1  0.27555000  0.35427000  0.27832000  1.0
  H  H20  1  0.72520000  0.85410000  0.27787000  1.0
  H  H21  1  0.72505000  0.64671000  0.72159000  1.0
  C  C22  1  0.71539000  0.04048000  0.72447000  1.0
  C  C23  1  0.71637000  0.45933000  0.27635000  1.0
  C  C24  1  0.28393000  0.95950000  0.27574000  1.0
  C  C25  1  0.28393000  0.54075000  0.72365000  1.0
  C  C26  1  0.81441000  0.12327000  0.78651000  1.0
  C  C27  1  0.81678000  0.37683000  0.21439000  1.0
  C  C28  1  0.18513000  0.87679000  0.21353000  1.0
  C  C29  1  0.18310000  0.62306000  0.78560000  1.0
  C  C30  1  0.86103000  0.24760000  0.77355000  1.0
  C  C31  1  0.86331000  0.25252000  0.22711000  1.0
  C  C32  1  0.13876000  0.75244000  0.22632000  1.0
  C  C33  1  0.13630000  0.74733000  0.77293000  1.0
  C  C34  1  0.79520000  0.35809000  0.68958000  1.0
  C  C35  1  0.79608000  0.14184000  0.31029000  1.0
  C  C36  1  0.20528000  0.64191000  0.30999000  1.0
  C  C37  1  0.20318000  0.85802000  0.68957000  1.0
  N  N38  1  0.97618000  0.25531000  0.86192000  1.0
  N  N39  1  0.97937000  0.24505000  0.13883000  1.0
  N  N40  1  0.02359000  0.74485000  0.13795000  1.0
  N  N41  1  0.02051000  0.75467000  0.86138000  1.0
  N  N42  1  0.99779000  0.14359000  0.92615000  1.0
  N  N43  1  0.00174000  0.35663000  0.07479000  1.0
  N  N44  1  0.00181000  0.85655000  0.07386000  1.0
  N  N45  1  0.99860000  0.64312000  0.92544000  1.0
  N  N46  1  0.90177000  0.06399000  0.88329000  1.0
  N  N47  1  0.90482000  0.43640000  0.11784000  1.0
  N  N48  1  0.09768000  0.93613000  0.11681000  1.0
  N  N49  1  0.09548000  0.56338000  0.88229000  1.0
  N  N50  1  0.69510000  0.75083000  0.00202000  1.0
  N  N51  1  0.30542000  0.24847000  0.99743000  1.0
  N  N52  1  0.52880000  0.74851000  0.99933000  1.0
  N  N53  1  0.47178000  0.25071000  0.00056000  1.0
  N  N54  1  0.36955000  0.74629000  0.99741000  1.0
  N  N55  1  0.63094000  0.25246000  0.00303000  1.0
  O  O56  1  0.69074000  0.33726000  0.60918000  1.0
  O  O57  1  0.69127000  0.16233000  0.39097000  1.0
  O  O58  1  0.30959000  0.66274000  0.39044000  1.0
  O  O59  1  0.30833000  0.83750000  0.60907000  1.0
  O  O60  1  0.64929000  0.07423000  0.62450000  1.0
  O  O61  1  0.64951000  0.42547000  0.37623000  1.0
  O  O62  1  0.35038000  0.92564000  0.37559000  1.0
  O  O63  1  0.35046000  0.57475000  0.62368000  1.0
  O  O64  1  0.28504000  0.09942000  0.50245000  1.0
  O  O65  1  0.28487000  0.40055000  0.49778000  1.0
  O  O66  1  0.71505000  0.90052000  0.49742000  1.0
  O  O67  1  0.71533000  0.59965000  0.50241000  1.0
  O  O68  1  0.70973000  0.92752000  0.77961000  1.0
  O  O69  1  0.71020000  0.57237000  0.22130000  1.0
  O  O70  1  0.28887000  0.07256000  0.22085000  1.0
  O  O71  1  0.29088000  0.42780000  0.77879000  1.0
  O  O72  1  0.36373000  0.21184000  0.69761000  1.0
  O  O73  1  0.36405000  0.28828000  0.30253000  1.0
  O  O74  1  0.63657000  0.78835000  0.30237000  1.0
  O  O75  1  0.63562000  0.71215000  0.69762000  1.0
  O  O76  1  0.84257000  0.46306000  0.70228000  1.0
  O  O77  1  0.84270000  0.03695000  0.29667000  1.0
  O  O78  1  0.15847000  0.53693000  0.29700000  1.0
  O  O79  1  0.15591000  0.96288000  0.70293000  1.0
