# generated using pymatgen
data_CoH16C21(NO2)3
_symmetry_space_group_name_H-M   'P 1'
_cell_length_a   10.63120000
_cell_length_b   11.02150000
_cell_length_c   11.24020000
_cell_angle_alpha   77.43280000
_cell_angle_beta   63.19880000
_cell_angle_gamma   74.26210000
_symmetry_Int_Tables_number   1
_chemical_formula_structural   CoH16C21(NO2)3
_chemical_formula_sum   'Co2 H32 C42 N6 O12'
_cell_volume   1124.50426858
_cell_formula_units_Z   2
loop_
 _symmetry_equiv_pos_site_id
 _symmetry_equiv_pos_as_xyz
  1  'x, y, z'
loop_
 _atom_site_type_symbol
 _atom_site_label
 _atom_site_symmetry_multiplicity
 _atom_site_fract_x
 _atom_site_fract_y
 _atom_site_fract_z
 _atom_site_occupancy
  Co  Co0  1  0.45991000  0.45447000  0.90967000  1.0
  Co  Co1  1  0.54010000  0.54553000  0.09034000  1.0
  H  H2  1  0.66636000  0.84792000  0.58867000  1.0
  H  H3  1  0.33364000  0.15208000  0.41133000  1.0
  H  H4  1  0.77819000  0.01465000  0.57278000  1.0
  H  H5  1  0.22181000  0.98535000  0.42721000  1.0
  H  H6  1  0.74209000  0.16477000  0.48360000  1.0
  H  H7  1  0.25791000  0.83523000  0.51640000  1.0
  H  H8  1  0.10843000  0.73218000  0.81203000  1.0
  H  H9  1  0.89157000  0.26781000  0.18798000  1.0
  H  H10  1  0.44889000  0.14654000  0.00152000  1.0
  H  H11  1  0.55111000  0.85346000  0.99847000  1.0
  H  H12  1  0.95624000  0.94303000  0.78579000  1.0
  H  H13  1  0.04376000  0.05697000  0.21422000  1.0
  H  H14  1  0.37191000  0.90920000  0.89179000  1.0
  H  H15  1  0.62809000  0.09081000  0.10821000  1.0
  H  H16  1  0.61225000  0.34929000  0.61901000  1.0
  H  H17  1  0.38775000  0.65071000  0.38099000  1.0
  H  H18  1  0.99075000  0.13121000  0.41129000  1.0
  H  H19  1  0.00925000  0.86879000  0.58871000  1.0
  H  H20  1  0.80809000  0.11997000  0.85181000  1.0
  H  H21  1  0.19192000  0.88003000  0.14819000  1.0
  H  H22  1  0.82708000  0.28308000  0.79882000  1.0
  H  H23  1  0.17293000  0.71692000  0.20118000  1.0
  H  H24  1  0.20050000  0.46059000  0.45641000  1.0
  H  H25  1  0.79949000  0.53941000  0.54360000  1.0
  H  H26  1  0.22335000  0.12218000  0.86023000  1.0
  H  H27  1  0.77665000  0.87782000  0.13977000  1.0
  H  H28  1  0.49988000  0.23103000  0.46130000  1.0
  H  H29  1  0.50012000  0.76898000  0.53870000  1.0
  H  H30  1  0.04292000  0.34453000  0.66005000  1.0
  H  H31  1  0.95708000  0.65547000  0.33995000  1.0
  H  H32  1  0.14859000  0.25216000  0.20612000  1.0
  H  H33  1  0.85140000  0.74785000  0.79388000  1.0
  C  C34  1  0.59397000  0.91436000  0.54905000  1.0
  C  C35  1  0.40603000  0.08564000  0.45095000  1.0
  C  C36  1  0.28912000  0.42678000  0.19788000  1.0
  C  C37  1  0.71088000  0.57322000  0.80212000  1.0
  C  C38  1  0.69256000  0.09174000  0.56188000  1.0
  C  C39  1  0.30744000  0.90826000  0.43811000  1.0
  C  C40  1  0.24752000  0.80718000  0.85616000  1.0
  C  C41  1  0.75248000  0.19282000  0.14385000  1.0
  C  C42  1  0.13247000  0.81806000  0.82323000  1.0
  C  C43  1  0.86753000  0.18193000  0.17678000  1.0
  C  C44  1  0.50077000  0.16910000  0.89353000  1.0
  C  C45  1  0.49923000  0.83090000  0.10647000  1.0
  C  C46  1  0.07965000  0.04493000  0.82450000  1.0
  C  C47  1  0.92035000  0.95507000  0.17550000  1.0
  C  C48  1  0.04738000  0.93619000  0.80835000  1.0
  C  C49  1  0.95263000  0.06381000  0.19165000  1.0
  C  C50  1  0.00649000  0.23063000  0.54764000  1.0
  C  C51  1  0.99350000  0.76937000  0.45237000  1.0
  C  C52  1  0.28027000  0.91745000  0.86920000  1.0
  C  C53  1  0.71974000  0.08255000  0.13080000  1.0
  C  C54  1  0.58175000  0.27468000  0.70101000  1.0
  C  C55  1  0.41825000  0.72532000  0.29898000  1.0
  C  C56  1  0.18506000  0.36363000  0.31858000  1.0
  C  C57  1  0.81494000  0.63638000  0.68143000  1.0
  C  C58  1  0.59379000  0.04411000  0.52832000  1.0
  C  C59  1  0.40620000  0.95589000  0.47169000  1.0
  C  C60  1  0.03611000  0.20492000  0.41957000  1.0
  C  C61  1  0.96388000  0.79509000  0.58044000  1.0
  C  C62  1  0.88156000  0.18381000  0.78582000  1.0
  C  C63  1  0.11844000  0.81618000  0.21418000  1.0
  C  C64  1  0.33077000  0.68089000  0.88294000  1.0
  C  C65  1  0.66923000  0.31911000  0.11707000  1.0
  C  C66  1  0.15304000  0.38921000  0.44697000  1.0
  C  C67  1  0.84695000  0.61079000  0.55304000  1.0
  C  C68  1  0.19851000  0.03571000  0.85160000  1.0
  C  C69  1  0.80149000  0.96429000  0.14840000  1.0
  C  C70  1  0.49955000  0.12963000  0.47917000  1.0
  C  C71  1  0.50044000  0.87037000  0.52083000  1.0
  C  C72  1  0.06399000  0.32433000  0.56161000  1.0
  C  C73  1  0.93601000  0.67566000  0.43839000  1.0
  C  C74  1  0.12382000  0.27162000  0.30617000  1.0
  C  C75  1  0.87617000  0.72838000  0.69383000  1.0
  N  N76  1  0.61594000  0.15065000  0.68681000  1.0
  N  N77  1  0.38406000  0.84935000  0.31319000  1.0
  N  N78  1  0.50864000  0.28987000  0.83132000  1.0
  N  N79  1  0.49137000  0.71013000  0.16868000  1.0
  N  N80  1  0.56509000  0.08120000  0.80863000  1.0
  N  N81  1  0.43492000  0.91880000  0.19137000  1.0
  O  O82  1  0.35171000  0.50091000  0.21582000  1.0
  O  O83  1  0.64829000  0.49909000  0.78418000  1.0
  O  O84  1  0.31256000  0.40091000  0.08358000  1.0
  O  O85  1  0.68744000  0.59909000  0.91642000  1.0
  O  O86  1  0.92194000  0.15709000  0.65303000  1.0
  O  O87  1  0.07806000  0.84290000  0.34697000  1.0
  O  O88  1  0.00053000  0.16554000  0.81696000  1.0
  O  O89  1  0.99947000  0.83446000  0.18304000  1.0
  O  O90  1  0.33803000  0.58589000  0.82876000  1.0
  O  O91  1  0.66197000  0.41410000  0.17125000  1.0
  O  O92  1  0.39212000  0.66803000  0.96071000  1.0
  O  O93  1  0.60788000  0.33197000  0.03929000  1.0
