# generated using pymatgen
data_Cd3H50C46(N2O9)2
_symmetry_space_group_name_H-M   'P 1'
_cell_length_a   9.68349000
_cell_length_b   12.01720000
_cell_length_c   12.36050000
_cell_angle_alpha   110.29000000
_cell_angle_beta   105.14000000
_cell_angle_gamma   100.49300000
_symmetry_Int_Tables_number   1
_chemical_formula_structural   Cd3H50C46(N2O9)2
_chemical_formula_sum   'Cd3 H50 C46 N4 O18'
_cell_volume   1241.82486355
_cell_formula_units_Z   1
loop_
 _symmetry_equiv_pos_site_id
 _symmetry_equiv_pos_as_xyz
  1  'x, y, z'
loop_
 _atom_site_type_symbol
 _atom_site_label
 _atom_site_symmetry_multiplicity
 _atom_site_fract_x
 _atom_site_fract_y
 _atom_site_fract_z
 _atom_site_occupancy
  Cd  Cd0  1  0.00000000  0.50000000  0.00000000  1.0
  Cd  Cd1  1  0.90622000  0.31688000  0.67192000  1.0
  Cd  Cd2  1  0.09378000  0.68312000  0.32808000  1.0
  H  H3  1  0.40955000  0.37346000  0.74984000  1.0
  H  H4  1  0.59046000  0.62654000  0.25017000  1.0
  H  H5  1  0.40821000  0.73337000  0.98486000  1.0
  H  H6  1  0.59179000  0.26663000  0.01513000  1.0
  H  H7  1  0.81380000  0.68361000  0.91952000  1.0
  H  H8  1  0.18621000  0.31640000  0.08048000  1.0
  H  H9  1  0.83624000  0.07548000  0.15370000  1.0
  H  H10  1  0.16376000  0.92452000  0.84630000  1.0
  H  H11  1  0.92077000  0.22882000  0.07038000  1.0
  H  H12  1  0.07923000  0.77118000  0.92962000  1.0
  H  H13  1  0.71731000  0.94319000  0.70308000  1.0
  H  H14  1  0.28269000  0.05681000  0.29692000  1.0
  H  H15  1  0.63301000  0.78897000  0.78355000  1.0
  H  H16  1  0.36699000  0.21103000  0.21645000  1.0
  H  H17  1  0.95259000  0.71886000  0.72310000  1.0
  H  H18  1  0.04740000  0.28113000  0.27690000  1.0
  H  H19  1  0.06053000  0.68193000  0.62633000  1.0
  H  H20  1  0.93947000  0.31806000  0.37368000  1.0
  H  H21  1  0.05991000  0.61418000  0.73417000  1.0
  H  H22  1  0.94009000  0.38582000  0.26583000  1.0
  H  H23  1  0.51680000  0.47213000  0.39445000  1.0
  H  H24  1  0.48320000  0.52786000  0.60555000  1.0
  H  H25  1  0.59633000  0.37669000  0.46077000  1.0
  H  H26  1  0.40366000  0.62331000  0.53922000  1.0
  H  H27  1  0.64212000  0.39782000  0.33696000  1.0
  H  H28  1  0.35788000  0.60218000  0.66304000  1.0
  H  H29  1  0.62312000  0.66889000  0.46348000  1.0
  H  H30  1  0.37688000  0.33111000  0.53651000  1.0
  H  H31  1  0.81816000  0.71633000  0.48643000  1.0
  H  H32  1  0.18183000  0.28366000  0.51357000  1.0
  H  H33  1  0.75816000  0.74018000  0.61563000  1.0
  H  H34  1  0.24183000  0.25981000  0.38437000  1.0
  H  H35  1  0.51734000  0.01632000  0.36425000  1.0
  H  H36  1  0.48265000  0.98368000  0.63575000  1.0
  H  H37  1  0.61004000  0.17999000  0.43137000  1.0
  H  H38  1  0.38996000  0.82001000  0.56864000  1.0
  H  H39  1  0.61987000  0.09863000  0.52604000  1.0
  H  H40  1  0.38013000  0.90138000  0.47396000  1.0
  H  H41  1  0.88093000  0.88400000  0.23059000  1.0
  H  H42  1  0.11907000  0.11600000  0.76941000  1.0
  H  H43  1  0.95919000  0.91371000  0.38934000  1.0
  H  H44  1  0.04080000  0.08629000  0.61065000  1.0
  H  H45  1  0.98065000  0.03940000  0.34403000  1.0
  H  H46  1  0.01935000  0.96059000  0.65597000  1.0
  H  H47  1  0.65988000  0.78267000  0.21295000  1.0
  H  H48  1  0.34011000  0.21733000  0.78705000  1.0
  H  H49  1  0.54290000  0.87908000  0.20417000  1.0
  H  H50  1  0.45710000  0.12092000  0.79583000  1.0
  H  H51  1  0.57803000  0.83100000  0.32778000  1.0
  H  H52  1  0.42197000  0.16900000  0.67223000  1.0
  C  C53  1  0.69664000  0.43619000  0.76141000  1.0
  C  C54  1  0.30336000  0.56381000  0.23859000  1.0
  C  C55  1  0.61999000  0.51866000  0.82838000  1.0
  C  C56  1  0.38002000  0.48134000  0.17162000  1.0
  C  C57  1  0.46933000  0.47037000  0.81076000  1.0
  C  C58  1  0.53068000  0.52963000  0.18924000  1.0
  C  C59  1  0.39414000  0.54591000  0.86943000  1.0
  C  C60  1  0.60587000  0.45409000  0.13057000  1.0
  C  C61  1  0.23253000  0.49291000  0.85108000  1.0
  C  C62  1  0.76747000  0.50710000  0.14892000  1.0
  C  C63  1  0.46761000  0.67307000  0.94143000  1.0
  C  C64  1  0.53240000  0.32693000  0.05857000  1.0
  C  C65  1  0.61599000  0.72101000  0.95442000  1.0
  C  C66  1  0.38401000  0.27899000  0.04557000  1.0
  C  C67  1  0.69538000  0.64501000  0.90245000  1.0
  C  C68  1  0.30462000  0.35499000  0.09756000  1.0
  C  C69  1  0.73164000  0.92395000  0.97384000  1.0
  C  C70  1  0.26836000  0.07605000  0.02616000  1.0
  C  C71  1  0.81253000  0.04770000  0.05532000  1.0
  C  C72  1  0.18747000  0.95231000  0.94468000  1.0
  C  C73  1  0.85925000  0.13192000  0.00912000  1.0
  C  C74  1  0.14075000  0.86808000  0.99088000  1.0
  C  C75  1  0.82557000  0.09498000  0.88197000  1.0
  C  C76  1  0.17443000  0.90502000  0.11803000  1.0
  C  C77  1  0.74388000  0.97123000  0.80181000  1.0
  C  C78  1  0.25613000  0.02877000  0.19819000  1.0
  C  C79  1  0.69682000  0.88504000  0.84650000  1.0
  C  C80  1  0.30318000  0.11496000  0.15350000  1.0
  C  C81  1  0.87571000  0.18796000  0.83472000  1.0
  C  C82  1  0.12429000  0.81204000  0.16529000  1.0
  C  C83  1  0.86373000  0.53395000  0.57427000  1.0
  C  C84  1  0.13627000  0.46605000  0.42573000  1.0
  C  C85  1  0.99145000  0.64458000  0.67108000  1.0
  C  C86  1  0.00854000  0.35542000  0.32892000  1.0
  C  C87  1  0.61666000  0.44322000  0.42017000  1.0
  C  C88  1  0.38334000  0.55678000  0.57982000  1.0
  C  C89  1  0.73554000  0.67669000  0.51991000  1.0
  C  C90  1  0.26445000  0.32331000  0.48009000  1.0
  C  C91  1  0.76282000  0.07456000  0.42123000  1.0
  C  C92  1  0.23718000  0.92544000  0.57877000  1.0
  C  C93  1  0.61698000  0.09089000  0.43422000  1.0
  C  C94  1  0.38302000  0.90911000  0.56579000  1.0
  C  C95  1  0.90454000  0.95001000  0.32504000  1.0
  C  C96  1  0.09545000  0.04999000  0.67496000  1.0
  C  C97  1  0.62774000  0.85975000  0.26772000  1.0
  C  C98  1  0.37226000  0.14025000  0.73228000  1.0
  N  N99  1  0.74075000  0.55298000  0.51123000  1.0
  N  N100  1  0.25925000  0.44701000  0.48876000  1.0
  N  N101  1  0.76301000  0.96700000  0.33841000  1.0
  N  N102  1  0.23699000  0.03300000  0.66159000  1.0
  O  O103  1  0.84247000  0.46986000  0.80783000  1.0
  O  O104  1  0.15754000  0.53014000  0.19217000  1.0
  O  O105  1  0.62172000  0.34224000  0.66288000  1.0
  O  O106  1  0.37828000  0.65776000  0.33713000  1.0
  O  O107  1  0.15820000  0.39254000  0.75491000  1.0
  O  O108  1  0.84180000  0.60746000  0.24509000  1.0
  O  O109  1  0.18499000  0.55489000  0.93186000  1.0
  O  O110  1  0.81501000  0.44511000  0.06813000  1.0
  O  O111  1  0.68680000  0.84766000  0.02744000  1.0
  O  O112  1  0.31320000  0.15234000  0.97256000  1.0
  O  O113  1  0.97548000  0.29000000  0.91111000  1.0
  O  O114  1  0.02453000  0.71000000  0.08889000  1.0
  O  O115  1  0.81694000  0.15827000  0.71909000  1.0
  O  O116  1  0.18306000  0.84174000  0.28092000  1.0
  O  O117  1  0.86938000  0.42399000  0.54908000  1.0
  O  O118  1  0.13062000  0.57601000  0.45092000  1.0
  O  O119  1  0.88480000  0.16183000  0.48754000  1.0
  O  O120  1  0.11520000  0.83817000  0.51246000  1.0
