# generated using pymatgen
data_KH8C9SNO5
_symmetry_space_group_name_H-M   'P 1'
_cell_length_a   9.91405000
_cell_length_b   9.96748000
_cell_length_c   11.22960000
_cell_angle_alpha   102.85300000
_cell_angle_beta   89.99990000
_cell_angle_gamma   90.00000000
_symmetry_Int_Tables_number   1
_chemical_formula_structural   KH8C9SNO5
_chemical_formula_sum   'K4 H32 C36 S4 N4 O20'
_cell_volume   1081.88334541
_cell_formula_units_Z   4
loop_
 _symmetry_equiv_pos_site_id
 _symmetry_equiv_pos_as_xyz
  1  'x, y, z'
loop_
 _atom_site_type_symbol
 _atom_site_label
 _atom_site_symmetry_multiplicity
 _atom_site_fract_x
 _atom_site_fract_y
 _atom_site_fract_z
 _atom_site_occupancy
  K  K0  1  0.00366000  0.84479000  0.85244000  1.0
  K  K1  1  0.49635000  0.84480000  0.35244000  1.0
  K  K2  1  0.99634000  0.15521000  0.14757000  1.0
  K  K3  1  0.50366000  0.15520000  0.64756000  1.0
  H  H4  1  0.06644000  0.90686000  0.59040000  1.0
  H  H5  1  0.43356000  0.90686000  0.09040000  1.0
  H  H6  1  0.93356000  0.09314000  0.40960000  1.0
  H  H7  1  0.56644000  0.09314000  0.90960000  1.0
  H  H8  1  0.35279000  0.47385000  0.77373000  1.0
  H  H9  1  0.14720000  0.47385000  0.27373000  1.0
  H  H10  1  0.64721000  0.52616000  0.22627000  1.0
  H  H11  1  0.85279000  0.52615000  0.72627000  1.0
  H  H12  1  0.19398000  0.95856000  0.67788000  1.0
  H  H13  1  0.30602000  0.95856000  0.17788000  1.0
  H  H14  1  0.80602000  0.04144000  0.32212000  1.0
  H  H15  1  0.69398000  0.04144000  0.82212000  1.0
  H  H16  1  0.36357000  0.73136000  0.81275000  1.0
  H  H17  1  0.13642000  0.73136000  0.31275000  1.0
  H  H18  1  0.63643000  0.26864000  0.18725000  1.0
  H  H19  1  0.86358000  0.26864000  0.68726000  1.0
  H  H20  1  0.54886000  0.84042000  0.71946000  1.0
  H  H21  1  0.95114000  0.84042000  0.21946000  1.0
  H  H22  1  0.45115000  0.15958000  0.28054000  1.0
  H  H23  1  0.04886000  0.15958000  0.78054000  1.0
  H  H24  1  0.76088000  0.21523000  0.45696000  1.0
  H  H25  1  0.73911000  0.21524000  0.95696000  1.0
  H  H26  1  0.23912000  0.78477000  0.54304000  1.0
  H  H27  1  0.26088000  0.78476000  0.04304000  1.0
  H  H28  1  0.91169000  0.64774000  0.44328000  1.0
  H  H29  1  0.58831000  0.64774000  0.94328000  1.0
  H  H30  1  0.08832000  0.35226000  0.55672000  1.0
  H  H31  1  0.41169000  0.35226000  0.05672000  1.0
  H  H32  1  0.88076000  0.39457000  0.40781000  1.0
  H  H33  1  0.61923000  0.39457000  0.90781000  1.0
  H  H34  1  0.11923000  0.60543000  0.59219000  1.0
  H  H35  1  0.38077000  0.60543000  0.09219000  1.0
  C  C36  1  0.43267000  0.52396000  0.73281000  1.0
  C  C37  1  0.06732000  0.52396000  0.23281000  1.0
  C  C38  1  0.56733000  0.47604000  0.26719000  1.0
  C  C39  1  0.93268000  0.47604000  0.76720000  1.0
  C  C40  1  0.43878000  0.66879000  0.75493000  1.0
  C  C41  1  0.06121000  0.66879000  0.25493000  1.0
  C  C42  1  0.56122000  0.33122000  0.24507000  1.0
  C  C43  1  0.93878000  0.33122000  0.74507000  1.0
  C  C44  1  0.54150000  0.72900000  0.70295000  1.0
  C  C45  1  0.95850000  0.72900000  0.20295000  1.0
  C  C46  1  0.45850000  0.27100000  0.29704000  1.0
  C  C47  1  0.04150000  0.27100000  0.79705000  1.0
  C  C48  1  0.74640000  0.69666000  0.56668000  1.0
  C  C49  1  0.75360000  0.69666000  0.06668000  1.0
  C  C50  1  0.25361000  0.30334000  0.43332000  1.0
  C  C51  1  0.24640000  0.30334000  0.93332000  1.0
  C  C52  1  0.83034000  0.60625000  0.48931000  1.0
  C  C53  1  0.66966000  0.60625000  0.98931000  1.0
  C  C54  1  0.16966000  0.39375000  0.51069000  1.0
  C  C55  1  0.33034000  0.39374000  0.01069000  1.0
  C  C56  1  0.81298000  0.46307000  0.46936000  1.0
  C  C57  1  0.68701000  0.46307000  0.96936000  1.0
  C  C58  1  0.18702000  0.53693000  0.53063000  1.0
  C  C59  1  0.31298000  0.53693000  0.03064000  1.0
  C  C60  1  0.71148000  0.40779000  0.52910000  1.0
  C  C61  1  0.78852000  0.40779000  0.02910000  1.0
  C  C62  1  0.28852000  0.59221000  0.47090000  1.0
  C  C63  1  0.21148000  0.59220000  0.97090000  1.0
  C  C64  1  0.63716000  0.64522000  0.62649000  1.0
  C  C65  1  0.86285000  0.64522000  0.12649000  1.0
  C  C66  1  0.36285000  0.35478000  0.37350000  1.0
  C  C67  1  0.13715000  0.35478000  0.87351000  1.0
  C  C68  1  0.62054000  0.49905000  0.60847000  1.0
  C  C69  1  0.87946000  0.49905000  0.10847000  1.0
  C  C70  1  0.37947000  0.50095000  0.39153000  1.0
  C  C71  1  0.12054000  0.50095000  0.89153000  1.0
  S  S72  1  0.77823000  0.87658000  0.58964000  1.0
  S  S73  1  0.72178000  0.87658000  0.08964000  1.0
  S  S74  1  0.22177000  0.12342000  0.41036000  1.0
  S  S75  1  0.27822000  0.12342000  0.91036000  1.0
  N  N76  1  0.52044000  0.44132000  0.66357000  1.0
  N  N77  1  0.97956000  0.44132000  0.16357000  1.0
  N  N78  1  0.47956000  0.55868000  0.33643000  1.0
  N  N79  1  0.02044000  0.55868000  0.83643000  1.0
  O  O80  1  0.79968000  0.92646000  0.72301000  1.0
  O  O81  1  0.70032000  0.92646000  0.22301000  1.0
  O  O82  1  0.20032000  0.07354000  0.27699000  1.0
  O  O83  1  0.29968000  0.07354000  0.77699000  1.0
  O  O84  1  0.14189000  0.87636000  0.63596000  1.0
  O  O85  1  0.35811000  0.87636000  0.13596000  1.0
  O  O86  1  0.85811000  0.12364000  0.36404000  1.0
  O  O87  1  0.64189000  0.12364000  0.86404000  1.0
  O  O88  1  0.65656000  0.93773000  0.54821000  1.0
  O  O89  1  0.84344000  0.93773000  0.04820000  1.0
  O  O90  1  0.34345000  0.06227000  0.45179000  1.0
  O  O91  1  0.15656000  0.06227000  0.95180000  1.0
  O  O92  1  0.89882000  0.89134000  0.51829000  1.0
  O  O93  1  0.60117000  0.89134000  0.01828000  1.0
  O  O94  1  0.10118000  0.10866000  0.48171000  1.0
  O  O95  1  0.39883000  0.10866000  0.98171000  1.0
  O  O96  1  0.69369000  0.27182000  0.51792000  1.0
  O  O97  1  0.80631000  0.27183000  0.01792000  1.0
  O  O98  1  0.30631000  0.72818000  0.48208000  1.0
  O  O99  1  0.19369000  0.72817000  0.98208000  1.0
