# generated using pymatgen
data_KH24C12(IO2)3
_symmetry_space_group_name_H-M   'P 1'
_cell_length_a   8.38481000
_cell_length_b   8.48908000
_cell_length_c   17.25280000
_cell_angle_alpha   85.77140000
_cell_angle_beta   81.41340000
_cell_angle_gamma   60.40560000
_symmetry_Int_Tables_number   1
_chemical_formula_structural   KH24C12(IO2)3
_chemical_formula_sum   'K2 H48 C24 I6 O12'
_cell_volume   1055.86708762
_cell_formula_units_Z   2
loop_
 _symmetry_equiv_pos_site_id
 _symmetry_equiv_pos_as_xyz
  1  'x, y, z'
loop_
 _atom_site_type_symbol
 _atom_site_label
 _atom_site_symmetry_multiplicity
 _atom_site_fract_x
 _atom_site_fract_y
 _atom_site_fract_z
 _atom_site_occupancy
  K  K0  1  0.01122000  0.17034000  0.31494000  1.0
  K  K1  1  0.18156000  0.82965000  0.81494000  1.0
  H  H2  1  0.51478000  0.21559000  0.49719000  1.0
  H  H3  1  0.73037000  0.78441000  0.99718000  1.0
  H  H4  1  0.65630000  0.31872000  0.50024000  1.0
  H  H5  1  0.97502000  0.68127000  0.00024000  1.0
  H  H6  1  0.79367000  0.00705000  0.55489000  1.0
  H  H7  1  0.80073000  0.99294000  0.05489000  1.0
  H  H8  1  0.80428000  0.91810000  0.46181000  1.0
  H  H9  1  0.72238000  0.08190000  0.96181000  1.0
  H  H10  1  0.15256000  0.75277000  0.46105000  1.0
  H  H11  1  0.90532000  0.24723000  0.96105000  1.0
  H  H12  1  0.11986000  0.86215000  0.55192000  1.0
  H  H13  1  0.98201000  0.13786000  0.05192000  1.0
  H  H14  1  0.27858000  0.02730000  0.48721000  1.0
  H  H15  1  0.30588000  0.97271000  0.98721000  1.0
  H  H16  1  0.42348000  0.78603000  0.48230000  1.0
  H  H17  1  0.20950000  0.21398000  0.98230000  1.0
  H  H18  1  0.61330000  0.80089000  0.36884000  1.0
  H  H19  1  0.41419000  0.19910000  0.86884000  1.0
  H  H20  1  0.48259000  0.04240000  0.37638000  1.0
  H  H21  1  0.52499000  0.95760000  0.87638000  1.0
  H  H22  1  0.64816000  0.92516000  0.24142000  1.0
  H  H23  1  0.57332000  0.07484000  0.74142000  1.0
  H  H24  1  0.50702000  0.82288000  0.23698000  1.0
  H  H25  1  0.32989000  0.17712000  0.73698000  1.0
  H  H26  1  0.37695000  0.01664000  0.12919000  1.0
  H  H27  1  0.39359000  0.98336000  0.62919000  1.0
  H  H28  1  0.50649000  0.13163000  0.13394000  1.0
  H  H29  1  0.63812000  0.86837000  0.63394000  1.0
  H  H30  1  0.20779000  0.41848000  0.17183000  1.0
  H  H31  1  0.62627000  0.58152000  0.67183000  1.0
  H  H32  1  0.23415000  0.33856000  0.07574000  1.0
  H  H33  1  0.57271000  0.66144000  0.57574000  1.0
  H  H34  1  0.89751000  0.48026000  0.07542000  1.0
  H  H35  1  0.37777000  0.51974000  0.57542000  1.0
  H  H36  1  0.87850000  0.57829000  0.16705000  1.0
  H  H37  1  0.45678000  0.42171000  0.66705000  1.0
  H  H38  1  0.59616000  0.56112000  0.14763000  1.0
  H  H39  1  0.15728000  0.43888000  0.64763000  1.0
  H  H40  1  0.73073000  0.32018000  0.14249000  1.0
  H  H41  1  0.05091000  0.67982000  0.64249000  1.0
  H  H42  1  0.52741000  0.31460000  0.25605000  1.0
  H  H43  1  0.84200000  0.68541000  0.75605000  1.0
  H  H44  1  0.40956000  0.55565000  0.26554000  1.0
  H  H45  1  0.96521000  0.44435000  0.76554000  1.0
  H  H46  1  0.53569000  0.51680000  0.39452000  1.0
  H  H47  1  0.05249000  0.48320000  0.89451000  1.0
  H  H48  1  0.37770000  0.43282000  0.39305000  1.0
  H  H49  1  0.81051000  0.56719000  0.89305000  1.0
  C  C50  1  0.64739000  0.21014000  0.47274000  1.0
  C  C51  1  0.85753000  0.78986000  0.97274000  1.0
  C  C52  1  0.80632000  0.02871000  0.49078000  1.0
  C  C53  1  0.83503000  0.97129000  0.99078000  1.0
  C  C54  1  0.13414000  0.87630000  0.48746000  1.0
  C  C55  1  0.01043000  0.12371000  0.98746000  1.0
  C  C56  1  0.29971000  0.90165000  0.46147000  1.0
  C  C57  1  0.20135000  0.09836000  0.96147000  1.0
  C  C58  1  0.49079000  0.92257000  0.35078000  1.0
  C  C59  1  0.41336000  0.07743000  0.85078000  1.0
  C  C60  1  0.51214000  0.93553000  0.26270000  1.0
  C  C61  1  0.44767000  0.06447000  0.76270000  1.0
  C  C62  1  0.37705000  0.12978000  0.15724000  1.0
  C  C63  1  0.50683000  0.87022000  0.65724000  1.0
  C  C64  1  0.21485000  0.30833000  0.13876000  1.0
  C  C65  1  0.52318000  0.69167000  0.63876000  1.0
  C  C66  1  0.88844000  0.45963000  0.13965000  1.0
  C  C67  1  0.34807000  0.54037000  0.63965000  1.0
  C  C68  1  0.71868000  0.44226000  0.16773000  1.0
  C  C69  1  0.16094000  0.55774000  0.66773000  1.0
  C  C70  1  0.52997000  0.42905000  0.28148000  1.0
  C  C71  1  0.95902000  0.57095000  0.78148000  1.0
  C  C72  1  0.51670000  0.41198000  0.36934000  1.0
  C  C73  1  0.92868000  0.58802000  0.86934000  1.0
  I  I74  1  0.96356000  0.48091000  0.47001000  1.0
  I  I75  1  0.44446000  0.51909000  0.97001000  1.0
  I  I76  1  0.01620000  0.65511000  0.32242000  1.0
  I  I77  1  0.67131000  0.34487000  0.82243000  1.0
  I  I78  1  0.08274000  0.82780000  0.17601000  1.0
  I  I79  1  0.91053000  0.17219000  0.67601000  1.0
  O  O80  1  0.65597000  0.23553000  0.38979000  1.0
  O  O81  1  0.89149000  0.76447000  0.88979000  1.0
  O  O82  1  0.97420000  0.03199000  0.46427000  1.0
  O  O83  1  0.00618000  0.96801000  0.96427000  1.0
  O  O84  1  0.32702000  0.91100000  0.37797000  1.0
  O  O85  1  0.23802000  0.08901000  0.87796000  1.0
  O  O86  1  0.36567000  0.10542000  0.24025000  1.0
  O  O87  1  0.47109000  0.89458000  0.74025000  1.0
  O  O88  1  0.04842000  0.29797000  0.15909000  1.0
  O  O89  1  0.34639000  0.70203000  0.65909000  1.0
  O  O90  1  0.69745000  0.43153000  0.25130000  1.0
  O  O91  1  0.12897000  0.56848000  0.75130000  1.0
