# generated using pymatgen
data_ZnH10C21N(O5F)2
_symmetry_space_group_name_H-M   'P 1'
_cell_length_a   9.93085000
_cell_length_b   10.79690000
_cell_length_c   10.91960000
_cell_angle_alpha   98.85940000
_cell_angle_beta   90.65000000
_cell_angle_gamma   94.57880000
_symmetry_Int_Tables_number   1
_chemical_formula_structural   ZnH10C21N(O5F)2
_chemical_formula_sum   'Zn2 H20 C42 N2 O20 F4'
_cell_volume   1152.83250890
_cell_formula_units_Z   2
loop_
 _symmetry_equiv_pos_site_id
 _symmetry_equiv_pos_as_xyz
  1  'x, y, z'
loop_
 _atom_site_type_symbol
 _atom_site_label
 _atom_site_symmetry_multiplicity
 _atom_site_fract_x
 _atom_site_fract_y
 _atom_site_fract_z
 _atom_site_occupancy
  Zn  Zn0  1  0.63859000  0.51445000  0.50345000  1.0
  Zn  Zn1  1  0.34945000  0.52447000  0.50704000  1.0
  H  H2  1  0.85411000  0.43478000  0.22821000  1.0
  H  H3  1  0.12548000  0.76050000  0.38121000  1.0
  H  H4  1  0.12791000  0.81669000  0.54404000  1.0
  H  H5  1  0.94789000  0.63470000  0.15822000  1.0
  H  H6  1  0.68136000  0.61144000  0.14068000  1.0
  H  H7  1  0.04319000  0.57493000  0.80129000  1.0
  H  H8  1  0.96774000  0.09980000  0.79556000  1.0
  H  H9  1  0.94373000  0.98165000  0.32204000  1.0
  H  H10  1  0.88734000  0.11450000  0.56144000  1.0
  H  H11  1  0.30897000  0.11349000  0.21488000  1.0
  H  H12  1  0.29672000  0.26512000  0.92218000  1.0
  H  H13  1  0.05816000  0.80415000  0.79382000  1.0
  H  H14  1  0.76639000  0.28893000  0.93647000  1.0
  H  H15  1  0.42486000  0.93789000  0.69259000  1.0
  H  H16  1  0.38080000  0.15659000  0.67262000  1.0
  H  H17  1  0.67211000  0.13442000  0.25416000  1.0
  H  H18  1  0.12494000  0.33572000  0.54413000  1.0
  H  H19  1  0.00104000  0.25595000  0.22343000  1.0
  H  H20  1  0.86986000  0.73914000  0.37872000  1.0
  H  H21  1  0.87073000  0.79892000  0.54123000  1.0
  C  C22  1  0.52281000  0.76110000  0.52104000  1.0
  C  C23  1  0.95727000  0.62929000  0.82769000  1.0
  C  C24  1  0.96518000  0.75760000  0.82292000  1.0
  C  C25  1  0.48441000  0.52514000  0.26930000  1.0
  C  C26  1  0.85655000  0.82988000  0.85912000  1.0
  C  C27  1  0.73991000  0.76594000  0.89821000  1.0
  C  C28  1  0.72904000  0.63712000  0.90581000  1.0
  C  C29  1  0.56364000  0.95383000  0.41526000  1.0
  C  C30  1  0.52510000  0.89947000  0.51872000  1.0
  C  C31  1  0.45935000  0.97691000  0.61081000  1.0
  C  C32  1  0.43303000  0.10017000  0.59928000  1.0
  C  C33  1  0.95780000  0.44315000  0.19663000  1.0
  C  C34  1  0.47197000  0.15324000  0.49431000  1.0
  C  C35  1  0.53683000  0.07594000  0.40398000  1.0
  C  C36  1  0.58844000  0.06868000  0.27457000  1.0
  C  C37  1  0.45878000  0.28718000  0.48437000  1.0
  C  C38  1  0.62130000  0.92756000  0.28591000  1.0
  C  C39  1  0.06859000  0.61395000  0.49472000  1.0
  C  C40  1  0.06866000  0.41439000  0.52874000  1.0
  C  C41  1  0.92705000  0.40415000  0.53037000  1.0
  C  C42  1  0.92732000  0.60386000  0.49549000  1.0
  C  C43  1  0.91806000  0.73611000  0.46881000  1.0
  C  C44  1  0.37321000  0.48181000  0.92711000  1.0
  C  C45  1  0.07860000  0.74765000  0.46945000  1.0
  C  C46  1  0.50024000  0.53481000  0.73870000  1.0
  C  C47  1  0.03938000  0.34317000  0.19276000  1.0
  C  C48  1  0.17025000  0.35270000  0.14646000  1.0
  C  C49  1  0.22430000  0.46408000  0.10619000  1.0
  C  C50  1  0.13956000  0.56247000  0.11445000  1.0
  C  C51  1  0.00829000  0.55453000  0.15743000  1.0
  C  C52  1  0.86845000  0.96931000  0.86393000  1.0
  C  C53  1  0.76966000  0.90479000  0.26868000  1.0
  C  C54  1  0.85689000  0.28369000  0.55732000  1.0
  C  C55  1  0.49142000  0.53138000  0.87547000  1.0
  C  C56  1  0.25580000  0.24552000  0.13711000  1.0
  C  C57  1  0.26110000  0.41060000  0.84325000  1.0
  C  C58  1  0.84207000  0.42882000  0.86926000  1.0
  C  C59  1  0.60211000  0.58096000  0.95364000  1.0
  C  C60  1  0.59484000  0.57668000  0.07985000  1.0
  C  C61  1  0.47780000  0.53055000  0.13270000  1.0
  C  C62  1  0.36258000  0.48759000  0.05642000  1.0
  C  C63  1  0.84062000  0.56813000  0.86982000  1.0
  N  N64  1  0.14268000  0.52060000  0.50994000  1.0
  N  N65  1  0.85150000  0.50095000  0.51190000  1.0
  O  O66  1  0.62886000  0.71177000  0.54789000  1.0
  O  O67  1  0.95658000  0.00722000  0.77880000  1.0
  O  O68  1  0.81387000  0.82080000  0.19704000  1.0
  O  O69  1  0.84956000  0.99513000  0.34252000  1.0
  O  O70  1  0.73998000  0.26995000  0.58683000  1.0
  O  O71  1  0.94163000  0.18973000  0.54483000  1.0
  O  O72  1  0.33600000  0.22060000  0.05289000  1.0
  O  O73  1  0.23994000  0.17513000  0.22820000  1.0
  O  O74  1  0.19152000  0.45607000  0.77210000  1.0
  O  O75  1  0.24578000  0.28616000  0.84846000  1.0
  O  O76  1  0.91785000  0.36342000  0.80507000  1.0
  O  O77  1  0.40616000  0.70733000  0.49131000  1.0
  O  O78  1  0.75527000  0.37976000  0.94717000  1.0
  O  O79  1  0.59994000  0.55187000  0.32345000  1.0
  O  O80  1  0.37505000  0.49203000  0.31973000  1.0
  O  O81  1  0.55462000  0.33932000  0.42916000  1.0
  O  O82  1  0.35874000  0.34082000  0.53344000  1.0
  O  O83  1  0.60303000  0.49136000  0.68367000  1.0
  O  O84  1  0.40539000  0.58254000  0.68919000  1.0
  O  O85  1  0.81106000  0.04452000  0.93654000  1.0
  F  F86  1  0.63050000  0.83030000  0.92834000  1.0
  F  F87  1  0.48655000  0.06745000  0.18334000  1.0
  F  F88  1  0.54526000  0.83772000  0.20378000  1.0
  F  F89  1  0.18809000  0.67318000  0.07969000  1.0
