# generated using pymatgen
data_Zn4H8C24S4O15
_symmetry_space_group_name_H-M   'P 1'
_cell_length_a   19.66730000
_cell_length_b   19.66790000
_cell_length_c   33.37660000
_cell_angle_alpha   79.19550000
_cell_angle_beta   79.20000000
_cell_angle_gamma   63.95900000
_symmetry_Int_Tables_number   1
_chemical_formula_structural   Zn4H8C24S4O15
_chemical_formula_sum   'Zn16 H32 C96 S16 O60'
_cell_volume   11313.17993946
_cell_formula_units_Z   4
loop_
 _symmetry_equiv_pos_site_id
 _symmetry_equiv_pos_as_xyz
  1  'x, y, z'
loop_
 _atom_site_type_symbol
 _atom_site_label
 _atom_site_symmetry_multiplicity
 _atom_site_fract_x
 _atom_site_fract_y
 _atom_site_fract_z
 _atom_site_occupancy
  Zn  Zn0  1  0.59994000  0.94421000  0.52156000  1.0
  Zn  Zn1  1  0.51756000  0.01663000  0.43931000  1.0
  Zn  Zn2  1  0.44055000  0.94021000  0.51733000  1.0
  Zn  Zn3  1  0.44443000  0.09814000  0.52105000  1.0
  Zn  Zn4  1  0.65024000  0.30633000  0.72815000  1.0
  Zn  Zn5  1  0.81058000  0.31091000  0.73280000  1.0
  Zn  Zn6  1  0.73210000  0.23306000  0.80962000  1.0
  Zn  Zn7  1  0.80612000  0.15209000  0.72867000  1.0
  Zn  Zn8  1  0.23333000  0.73247000  0.31070000  1.0
  Zn  Zn9  1  0.30575000  0.65011000  0.22841000  1.0
  Zn  Zn10  1  0.15185000  0.80570000  0.22890000  1.0
  Zn  Zn11  1  0.30984000  0.80941000  0.23265000  1.0
  Zn  Zn12  1  0.93903000  0.43946000  0.01717000  1.0
  Zn  Zn13  1  0.94386000  0.59958000  0.02183000  1.0
  Zn  Zn14  1  0.09797000  0.44388000  0.02130000  1.0
  Zn  Zn15  1  0.01697000  0.51782000  0.94035000  1.0
  H  H16  1  0.54707000  0.25178000  0.64953000  1.0
  H  H17  1  0.70295000  0.99813000  0.60051000  1.0
  H  H18  1  0.29935000  0.79925000  0.40171000  1.0
  H  H19  1  0.45059000  0.95078000  0.34833000  1.0
  H  H20  1  0.48903000  0.71409000  0.59063000  1.0
  H  H21  1  0.76066000  0.53656000  0.65909000  1.0
  H  H22  1  0.45308000  0.22806000  0.35173000  1.0
  H  H23  1  0.29714000  0.52127000  0.39861000  1.0
  H  H24  1  0.72870000  0.95285000  0.35142000  1.0
  H  H25  1  0.02192000  0.79684000  0.39828000  1.0
  H  H26  1  0.22118000  0.19916000  0.59771000  1.0
  H  H27  1  0.02941000  0.05064000  0.65200000  1.0
  H  H28  1  0.84820000  0.34840000  0.95065000  1.0
  H  H29  1  0.90189000  0.40152000  0.79931000  1.0
  H  H30  1  0.52120000  0.29722000  0.89871000  1.0
  H  H31  1  0.22810000  0.45303000  0.85166000  1.0
  H  H32  1  0.89115000  0.91358000  0.78984000  1.0
  H  H33  1  0.85858000  0.83708000  0.95988000  1.0
  H  H34  1  0.99816000  0.70285000  0.10042000  1.0
  H  H35  1  0.25173000  0.54716000  0.14952000  1.0
  H  H36  1  0.52877000  0.55099000  0.15243000  1.0
  H  H37  1  0.72065000  0.69935000  0.09781000  1.0
  H  H38  1  0.26090000  0.03582000  0.15946000  1.0
  H  H39  1  0.98943000  0.21368000  0.09085000  1.0
  H  H40  1  0.47235000  0.19132000  0.58181000  1.0
  H  H41  1  0.77756000  0.05884000  0.66821000  1.0
  H  H42  1  0.36326000  0.86355000  0.47293000  1.0
  H  H43  1  0.38660000  0.88653000  0.27711000  1.0
  H  H44  1  0.77716000  0.27693000  0.88658000  1.0
  H  H45  1  0.97284000  0.47307000  0.86339000  1.0
  H  H46  1  0.05850000  0.77778000  0.16809000  1.0
  H  H47  1  0.19151000  0.47219000  0.08184000  1.0
  C  C48  1  0.68457000  0.93855000  0.43821000  1.0
  C  C49  1  0.43023000  0.93041000  0.43034000  1.0
  C  C50  1  0.56101000  0.81585000  0.56131000  1.0
  C  C51  1  0.31598000  0.06180000  0.56140000  1.0
  C  C52  1  0.56968000  0.06966000  0.56967000  1.0
  C  C53  1  0.43879000  0.18395000  0.43846000  1.0
  C  C54  1  0.68880000  0.43468000  0.68847000  1.0
  C  C55  1  0.81977000  0.31948000  0.81966000  1.0
  C  C56  1  0.56555000  0.31139000  0.81178000  1.0
  C  C57  1  0.81145000  0.06583000  0.81120000  1.0
  C  C58  1  0.68033000  0.18034000  0.68037000  1.0
  C  C59  1  0.93460000  0.18810000  0.68839000  1.0
  C  C60  1  0.31136000  0.56540000  0.31177000  1.0
  C  C61  1  0.18024000  0.68040000  0.18031000  1.0
  C  C62  1  0.06608000  0.81109000  0.31156000  1.0
  C  C63  1  0.18892000  0.93416000  0.18863000  1.0
  C  C64  1  0.31968000  0.81961000  0.31971000  1.0
  C  C65  1  0.43421000  0.68828000  0.18863000  1.0
  C  C66  1  0.81541000  0.56191000  0.06155000  1.0
  C  C67  1  0.06972000  0.56958000  0.06962000  1.0
  C  C68  1  0.06121000  0.31550000  0.06154000  1.0
  C  C69  1  0.18379000  0.43876000  0.93847000  1.0
  C  C70  1  0.93031000  0.43041000  0.93032000  1.0
  C  C71  1  0.93822000  0.68479000  0.93860000  1.0
  C  C72  1  0.59706000  0.09892000  0.59811000  1.0
  C  C73  1  0.65287000  0.15094000  0.65201000  1.0
  C  C74  1  0.55215000  0.17166000  0.61210000  1.0
  C  C75  1  0.69777000  0.07817000  0.63803000  1.0
  C  C76  1  0.58108000  0.19619000  0.63880000  1.0
  C  C77  1  0.66887000  0.05365000  0.61131000  1.0
  C  C78  1  0.40138000  0.90153000  0.40244000  1.0
  C  C79  1  0.34851000  0.84854000  0.34760000  1.0
  C  C80  1  0.35805000  0.85810000  0.41791000  1.0
  C  C81  1  0.39186000  0.89197000  0.33213000  1.0
  C  C82  1  0.33249000  0.83247000  0.39008000  1.0
  C  C83  1  0.41742000  0.91759000  0.35996000  1.0
  C  C84  1  0.54589000  0.69669000  0.59868000  1.0
  C  C85  1  0.70380000  0.55395000  0.65105000  1.0
  C  C86  1  0.58627000  0.74116000  0.58620000  1.0
  C  C87  1  0.66349000  0.50942000  0.66353000  1.0
  C  C88  1  0.66109000  0.62214000  0.62746000  1.0
  C  C89  1  0.58857000  0.62853000  0.62231000  1.0
  C  C90  1  0.42407000  0.27331000  0.37140000  1.0
  C  C91  1  0.32620000  0.47604000  0.37892000  1.0
  C  C92  1  0.41376000  0.25886000  0.41380000  1.0
  C  C93  1  0.33650000  0.49051000  0.33650000  1.0
  C  C94  1  0.35807000  0.39700000  0.39168000  1.0
  C  C95  1  0.39223000  0.35235000  0.35864000  1.0
  C  C96  1  0.77395000  0.92377000  0.37109000  1.0
  C  C97  1  0.97666000  0.82586000  0.37861000  1.0
  C  C98  1  0.75948000  0.91344000  0.41350000  1.0
  C  C99  1  0.99116000  0.83616000  0.33619000  1.0
  C  C100  1  0.89763000  0.85770000  0.39136000  1.0
  C  C101  1  0.85300000  0.89191000  0.35831000  1.0
  C  C102  1  0.20039000  0.15502000  0.60236000  1.0
  C  C103  1  0.05021000  0.09477000  0.64737000  1.0
  C  C104  1  0.24129000  0.08626000  0.58631000  1.0
  C  C105  1  0.00930000  0.16357000  0.66342000  1.0
  C  C106  1  0.11980000  0.09154000  0.62514000  1.0
  C  C107  1  0.13084000  0.15819000  0.62460000  1.0
  C  C108  1  0.84768000  0.34743000  0.84851000  1.0
  C  C109  1  0.90245000  0.40244000  0.90145000  1.0
  C  C110  1  0.83213000  0.33207000  0.89189000  1.0
  C  C111  1  0.91796000  0.41785000  0.85807000  1.0
  C  C112  1  0.85992000  0.35996000  0.91748000  1.0
  C  C113  1  0.89019000  0.38993000  0.83248000  1.0
  C  C114  1  0.47605000  0.32628000  0.87896000  1.0
  C  C115  1  0.27329000  0.42401000  0.87138000  1.0
  C  C116  1  0.49063000  0.33658000  0.83653000  1.0
  C  C117  1  0.25873000  0.41369000  0.91380000  1.0
  C  C118  1  0.35236000  0.39223000  0.85864000  1.0
  C  C119  1  0.39698000  0.35809000  0.89170000  1.0
  C  C120  1  0.87499000  0.92046000  0.82231000  1.0
  C  C121  1  0.87483000  0.83018000  0.92742000  1.0
  C  C122  1  0.83625000  0.99130000  0.83631000  1.0
  C  C123  1  0.91351000  0.75931000  0.91345000  1.0
  C  C124  1  0.86079000  0.88888000  0.89430000  1.0
  C  C125  1  0.88910000  0.86173000  0.85543000  1.0
  C  C126  1  0.15090000  0.65295000  0.15194000  1.0
  C  C127  1  0.09899000  0.59702000  0.09803000  1.0
  C  C128  1  0.07813000  0.69780000  0.13794000  1.0
  C  C129  1  0.17173000  0.55217000  0.11204000  1.0
  C  C130  1  0.05370000  0.66882000  0.11122000  1.0
  C  C131  1  0.19617000  0.58118000  0.13875000  1.0
  C  C132  1  0.54972000  0.59502000  0.14771000  1.0
  C  C133  1  0.69981000  0.65524000  0.10249000  1.0
  C  C134  1  0.50891000  0.66380000  0.16374000  1.0
  C  C135  1  0.74065000  0.58647000  0.08646000  1.0
  C  C136  1  0.63033000  0.65842000  0.12482000  1.0
  C  C137  1  0.61926000  0.59176000  0.12542000  1.0
  C  C138  1  0.20407000  0.05336000  0.15134000  1.0
  C  C139  1  0.04627000  0.19626000  0.09892000  1.0
  C  C140  1  0.16369000  0.00884000  0.16371000  1.0
  C  C141  1  0.08660000  0.24078000  0.08648000  1.0
  C  C142  1  0.08894000  0.12804000  0.12252000  1.0
  C  C143  1  0.16144000  0.12161000  0.12775000  1.0
  S  S144  1  0.67591000  0.70062000  0.60298000  1.0
  S  S145  1  0.57382000  0.54999000  0.64675000  1.0
  S  S146  1  0.36558000  0.34076000  0.43833000  1.0
  S  S147  1  0.38471000  0.40859000  0.31200000  1.0
  S  S148  1  0.84140000  0.86519000  0.43801000  1.0
  S  S149  1  0.90926000  0.88438000  0.31166000  1.0
  S  S150  1  0.19573000  0.02534000  0.59810000  1.0
  S  S151  1  0.05494000  0.22441000  0.65163000  1.0
  S  S152  1  0.40870000  0.38476000  0.81201000  1.0
  S  S153  1  0.34064000  0.36553000  0.93833000  1.0
  S  S154  1  0.81685000  0.98699000  0.88954000  1.0
  S  S155  1  0.93295000  0.76361000  0.86021000  1.0
  S  S156  1  0.55453000  0.72466000  0.15189000  1.0
  S  S157  1  0.69510000  0.52554000  0.09836000  1.0
  S  S158  1  0.07411000  0.04949000  0.14684000  1.0
  S  S159  1  0.17623000  0.20017000  0.10333000  1.0
  O  O160  1  0.50101000  0.99966000  0.49966000  1.0
  O  O161  1  0.68466000  0.92201000  0.47720000  1.0
  O  O162  1  0.46873000  0.96867000  0.41472000  1.0
  O  O163  1  0.49440000  0.84332000  0.55005000  1.0
  O  O164  1  0.62628000  0.97451000  0.41868000  1.0
  O  O165  1  0.60812000  0.84675000  0.55316000  1.0
  O  O166  1  0.41408000  0.91455000  0.46947000  1.0
  O  O167  1  0.34345000  0.99530000  0.54983000  1.0
  O  O168  1  0.50299000  0.11330000  0.55808000  1.0
  O  O169  1  0.34694000  0.10874000  0.55344000  1.0
  O  O170  1  0.61226000  0.00435000  0.55824000  1.0
  O  O171  1  0.47448000  0.12566000  0.41896000  1.0
  O  O172  1  0.42237000  0.18404000  0.47747000  1.0
  O  O173  1  0.74963000  0.25099000  0.74966000  1.0
  O  O174  1  0.64140000  0.40409000  0.69681000  1.0
  O  O175  1  0.83543000  0.33501000  0.78129000  1.0
  O  O176  1  0.62392000  0.27562000  0.83130000  1.0
  O  O177  1  0.75553000  0.40702000  0.69956000  1.0
  O  O178  1  0.56560000  0.32755000  0.77278000  1.0
  O  O179  1  0.78056000  0.28039000  0.83568000  1.0
  O  O180  1  0.77572000  0.12438000  0.83068000  1.0
  O  O181  1  0.74709000  0.13677000  0.69190000  1.0
  O  O182  1  0.82762000  0.06578000  0.77227000  1.0
  O  O183  1  0.63776000  0.24567000  0.69177000  1.0
  O  O184  1  0.90701000  0.25467000  0.69984000  1.0
  O  O185  1  0.90388000  0.14093000  0.69651000  1.0
  O  O186  1  0.25036000  0.74898000  0.25034000  1.0
  O  O187  1  0.27533000  0.62366000  0.33128000  1.0
  O  O188  1  0.24559000  0.63779000  0.19171000  1.0
  O  O189  1  0.06605000  0.82747000  0.27254000  1.0
  O  O190  1  0.32798000  0.56529000  0.27278000  1.0
  O  O191  1  0.12435000  0.77538000  0.33108000  1.0
  O  O192  1  0.13669000  0.74711000  0.19186000  1.0
  O  O193  1  0.14196000  0.90303000  0.19658000  1.0
  O  O194  1  0.33563000  0.83563000  0.28058000  1.0
  O  O195  1  0.25527000  0.90677000  0.20020000  1.0
  O  O196  1  0.28139000  0.78114000  0.33536000  1.0
  O  O197  1  0.40342000  0.64126000  0.19673000  1.0
  O  O198  1  0.40668000  0.75500000  0.19998000  1.0
  O  O199  1  0.99901000  0.50035000  0.00030000  1.0
  O  O200  1  0.84322000  0.49500000  0.05051000  1.0
  O  O201  1  0.00438000  0.61224000  0.05819000  1.0
  O  O202  1  0.10844000  0.34636000  0.05336000  1.0
  O  O203  1  0.84581000  0.60931000  0.05317000  1.0
  O  O204  1  0.99470000  0.34304000  0.05024000  1.0
  O  O205  1  0.11327000  0.50287000  0.05808000  1.0
  O  O206  1  0.18371000  0.42268000  0.97749000  1.0
  O  O207  1  0.96930000  0.46972000  0.91430000  1.0
  O  O208  1  0.12541000  0.47430000  0.91897000  1.0
  O  O209  1  0.91483000  0.41469000  0.96869000  1.0
  O  O210  1  0.92188000  0.68485000  0.97749000  1.0
  O  O211  1  0.97412000  0.62625000  0.91908000  1.0
  O  O212  1  0.48235000  0.21870000  0.60067000  1.0
  O  O213  1  0.76763000  0.03123000  0.64944000  1.0
  O  O214  1  0.34028000  0.84025000  0.45852000  1.0
  O  O215  1  0.40965000  0.90976000  0.29152000  1.0
  O  O216  1  0.79147000  0.29147000  0.90970000  1.0
  O  O217  1  0.95857000  0.45850000  0.84027000  1.0
  O  O218  1  0.03110000  0.76762000  0.14931000  1.0
  O  O219  1  0.21882000  0.48238000  0.10065000  1.0
