# generated using pymatgen
data_H12PbC14(IN)2
_symmetry_space_group_name_H-M   'P 1'
_cell_length_a   7.89182000
_cell_length_b   10.93060000
_cell_length_c   10.93210000
_cell_angle_alpha   67.65320000
_cell_angle_beta   72.17110000
_cell_angle_gamma   72.17830000
_symmetry_Int_Tables_number   1
_chemical_formula_structural   H12PbC14(IN)2
_chemical_formula_sum   'H24 Pb2 C28 I4 N4'
_cell_volume   810.83017626
_cell_formula_units_Z   2
loop_
 _symmetry_equiv_pos_site_id
 _symmetry_equiv_pos_as_xyz
  1  'x, y, z'
loop_
 _atom_site_type_symbol
 _atom_site_label
 _atom_site_symmetry_multiplicity
 _atom_site_fract_x
 _atom_site_fract_y
 _atom_site_fract_z
 _atom_site_occupancy
  H  H0  1  0.27063000  0.36012000  0.11486000  1.0
  H  H1  1  0.22942000  0.88460000  0.63999000  1.0
  H  H2  1  0.72929000  0.64007000  0.88493000  1.0
  H  H3  1  0.77044000  0.11520000  0.36017000  1.0
  H  H4  1  0.39845000  0.11738000  0.23179000  1.0
  H  H5  1  0.10146000  0.76786000  0.88284000  1.0
  H  H6  1  0.60137000  0.88286000  0.76811000  1.0
  H  H7  1  0.89836000  0.23206000  0.11741000  1.0
  H  H8  1  0.61960000  0.90499000  0.22316000  1.0
  H  H9  1  0.88038000  0.77679000  0.09514000  1.0
  H  H10  1  0.38019000  0.09517000  0.77687000  1.0
  H  H11  1  0.11948000  0.22330000  0.90502000  1.0
  H  H12  1  0.45051000  0.54526000  0.75098000  1.0
  H  H13  1  0.04958000  0.24846000  0.45467000  1.0
  H  H14  1  0.54936000  0.45472000  0.24873000  1.0
  H  H15  1  0.95077000  0.75138000  0.54543000  1.0
  H  H16  1  0.39541000  0.56956000  0.91137000  1.0
  H  H17  1  0.10584000  0.08784000  0.43057000  1.0
  H  H18  1  0.60501000  0.43062000  0.08819000  1.0
  H  H19  1  0.89399000  0.91202000  0.56956000  1.0
  H  H20  1  0.23825000  0.52078000  0.86194000  1.0
  H  H21  1  0.26208000  0.13811000  0.47942000  1.0
  H  H22  1  0.76175000  0.47936000  0.13808000  1.0
  H  H23  1  0.73810000  0.86142000  0.52069000  1.0
  Pb  Pb24  1  0.75028000  0.39937000  0.60058000  1.0
  Pb  Pb25  1  0.24999000  0.60060000  0.39930000  1.0
  C  C26  1  0.38435000  0.29974000  0.06138000  1.0
  C  C27  1  0.11580000  0.93818000  0.70036000  1.0
  C  C28  1  0.61558000  0.70043000  0.93845000  1.0
  C  C29  1  0.88415000  0.06166000  0.29979000  1.0
  C  C30  1  0.45472000  0.16673000  0.12569000  1.0
  C  C31  1  0.04537000  0.87400000  0.83337000  1.0
  C  C32  1  0.54518000  0.83342000  0.87423000  1.0
  C  C33  1  0.95456000  0.12591000  0.16679000  1.0
  C  C34  1  0.46149000  0.36095000  0.92369000  1.0
  C  C35  1  0.03889000  0.07592000  0.63908000  1.0
  C  C36  1  0.53855000  0.63914000  0.07617000  1.0
  C  C37  1  0.96115000  0.92391000  0.36104000  1.0
  C  C38  1  0.67398000  0.15941000  0.91543000  1.0
  C  C39  1  0.82637000  0.08441000  0.84055000  1.0
  C  C40  1  0.32600000  0.84066000  0.08455000  1.0
  C  C41  1  0.17365000  0.91558000  0.15951000  1.0
  C  C42  1  0.67846000  0.95347000  0.11722000  1.0
  C  C43  1  0.82166000  0.88271000  0.04658000  1.0
  C  C44  1  0.32137000  0.04666000  0.88284000  1.0
  C  C45  1  0.17828000  0.11732000  0.95354000  1.0
  C  C46  1  0.60265000  0.09194000  0.05375000  1.0
  C  C47  1  0.89754000  0.94606000  0.90812000  1.0
  C  C48  1  0.39727000  0.90818000  0.94622000  1.0
  C  C49  1  0.10242000  0.05393000  0.09201000  1.0
  C  C50  1  0.38396000  0.50650000  0.85757000  1.0
  C  C51  1  0.11657000  0.14200000  0.49357000  1.0
  C  C52  1  0.61610000  0.49361000  0.14221000  1.0
  C  C53  1  0.88355000  0.85777000  0.50654000  1.0
  I  I54  1  0.50195000  0.27555000  0.51798000  1.0
  I  I55  1  0.99785000  0.48230000  0.72478000  1.0
  I  I56  1  0.49821000  0.72445000  0.48197000  1.0
  I  I57  1  0.00224000  0.51759000  0.27525000  1.0
  N  N58  1  0.60185000  0.29200000  0.85366000  1.0
  N  N59  1  0.89862000  0.14609000  0.70796000  1.0
  N  N60  1  0.39821000  0.70805000  0.14625000  1.0
  N  N61  1  0.10145000  0.85386000  0.29209000  1.0
