# generated using pymatgen
data_K3H25PtC44S3N4O9
_symmetry_space_group_name_H-M   'P 1'
_cell_length_a   7.79955000
_cell_length_b   22.87960000
_cell_length_c   33.18180000
_cell_angle_alpha   90.00070000
_cell_angle_beta   90.00060000
_cell_angle_gamma   96.03310000
_symmetry_Int_Tables_number   1
_chemical_formula_structural   K3H25PtC44S3N4O9
_chemical_formula_sum   'K12 H100 Pt4 C176 S12 N16 O36'
_cell_volume   5888.51547882
_cell_formula_units_Z   4
loop_
 _symmetry_equiv_pos_site_id
 _symmetry_equiv_pos_as_xyz
  1  'x, y, z'
loop_
 _atom_site_type_symbol
 _atom_site_label
 _atom_site_symmetry_multiplicity
 _atom_site_fract_x
 _atom_site_fract_y
 _atom_site_fract_z
 _atom_site_occupancy
  K  K0  1  0.80746000  0.79385000  0.75549000  1.0
  K  K1  1  0.69262000  0.20616000  0.25552000  1.0
  K  K2  1  0.19259000  0.20616000  0.24450000  1.0
  K  K3  1  0.30745000  0.79383000  0.74449000  1.0
  K  K4  1  0.55101000  0.78386000  0.62296000  1.0
  K  K5  1  0.94882000  0.21613000  0.12298000  1.0
  K  K6  1  0.44891000  0.21613000  0.37703000  1.0
  K  K7  1  0.05106000  0.78387000  0.87701000  1.0
  K  K8  1  0.53718000  0.68247000  0.83181000  1.0
  K  K9  1  0.96287000  0.31753000  0.33181000  1.0
  K  K10  1  0.46281000  0.31752000  0.16819000  1.0
  K  K11  1  0.03716000  0.68247000  0.66820000  1.0
  H  H12  1  0.80478000  0.09959000  0.78316000  1.0
  H  H13  1  0.69523000  0.90041000  0.28317000  1.0
  H  H14  1  0.19524000  0.90041000  0.21684000  1.0
  H  H15  1  0.30476000  0.09960000  0.71683000  1.0
  H  H16  1  0.89501000  0.17969000  0.84077000  1.0
  H  H17  1  0.60497000  0.82032000  0.34078000  1.0
  H  H18  1  0.10498000  0.82031000  0.15923000  1.0
  H  H19  1  0.39504000  0.17968000  0.65922000  1.0
  H  H20  1  0.31098000  0.38206000  0.84152000  1.0
  H  H21  1  0.18901000  0.61794000  0.34152000  1.0
  H  H22  1  0.68902000  0.61794000  0.15848000  1.0
  H  H23  1  0.81098000  0.38206000  0.65848000  1.0
  H  H24  1  0.40469000  0.46244000  0.78463000  1.0
  H  H25  1  0.09533000  0.53756000  0.28463000  1.0
  H  H26  1  0.59532000  0.53756000  0.21537000  1.0
  H  H27  1  0.90468000  0.46245000  0.71537000  1.0
  H  H28  1  0.26250000  0.47927000  0.62717000  1.0
  H  H29  1  0.23752000  0.52073000  0.12717000  1.0
  H  H30  1  0.73751000  0.52073000  0.37283000  1.0
  H  H31  1  0.76250000  0.47927000  0.87283000  1.0
  H  H32  1  0.16884000  0.39978000  0.56974000  1.0
  H  H33  1  0.33114000  0.60022000  0.06974000  1.0
  H  H34  1  0.83115000  0.60022000  0.43026000  1.0
  H  H35  1  0.66887000  0.39979000  0.93026000  1.0
  H  H36  1  0.03422000  0.16518000  0.56920000  1.0
  H  H37  1  0.46580000  0.83482000  0.06921000  1.0
  H  H38  1  0.96578000  0.83482000  0.43080000  1.0
  H  H39  1  0.53422000  0.16519000  0.93080000  1.0
  H  H40  1  0.94269000  0.08547000  0.62663000  1.0
  H  H41  1  0.55732000  0.91453000  0.12664000  1.0
  H  H42  1  0.05731000  0.91453000  0.37337000  1.0
  H  H43  1  0.44269000  0.08547000  0.87337000  1.0
  H  H44  1  0.19779000  0.19602000  0.86023000  1.0
  H  H45  1  0.30220000  0.80398000  0.36024000  1.0
  H  H46  1  0.80222000  0.80398000  0.13977000  1.0
  H  H47  1  0.69779000  0.19602000  0.63977000  1.0
  H  H48  1  0.19207000  0.19454000  0.93460000  1.0
  H  H49  1  0.30792000  0.80547000  0.43461000  1.0
  H  H50  1  0.80794000  0.80546000  0.06540000  1.0
  H  H51  1  0.69209000  0.19454000  0.56539000  1.0
  H  H52  1  0.09676000  0.27940000  0.97269000  1.0
  H  H53  1  0.40325000  0.72061000  0.47270000  1.0
  H  H54  1  0.90325000  0.72060000  0.02731000  1.0
  H  H55  1  0.59678000  0.27940000  0.52730000  1.0
  H  H56  1  0.00640000  0.36539000  0.93499000  1.0
  H  H57  1  0.49359000  0.63461000  0.43500000  1.0
  H  H58  1  0.99359000  0.63460000  0.06500000  1.0
  H  H59  1  0.50643000  0.36540000  0.56500000  1.0
  H  H60  1  0.00789000  0.36574000  0.86055000  1.0
  H  H61  1  0.49209000  0.63425000  0.36056000  1.0
  H  H62  1  0.99211000  0.63425000  0.13944000  1.0
  H  H63  1  0.50791000  0.36575000  0.63944000  1.0
  H  H64  1  0.16160000  0.51286000  0.75030000  1.0
  H  H65  1  0.33843000  0.48714000  0.25030000  1.0
  H  H66  1  0.83840000  0.48714000  0.24970000  1.0
  H  H67  1  0.66157000  0.51287000  0.74970000  1.0
  H  H68  1  0.27062000  0.61876000  0.75139000  1.0
  H  H69  1  0.22939000  0.38125000  0.25140000  1.0
  H  H70  1  0.72938000  0.38125000  0.24861000  1.0
  H  H71  1  0.77060000  0.61876000  0.74861000  1.0
  H  H72  1  0.64936000  0.58837000  0.66143000  1.0
  H  H73  1  0.85063000  0.41162000  0.16144000  1.0
  H  H74  1  0.35065000  0.41162000  0.33857000  1.0
  H  H75  1  0.14936000  0.58838000  0.83857000  1.0
  H  H76  1  0.54932000  0.48106000  0.66295000  1.0
  H  H77  1  0.95068000  0.51893000  0.16295000  1.0
  H  H78  1  0.45067000  0.51893000  0.33705000  1.0
  H  H79  1  0.04934000  0.48106000  0.83705000  1.0
  H  H80  1  0.90716000  0.34428000  0.55203000  1.0
  H  H81  1  0.59285000  0.65572000  0.05204000  1.0
  H  H82  1  0.09285000  0.65571000  0.44797000  1.0
  H  H83  1  0.40716000  0.34429000  0.94797000  1.0
  H  H84  1  0.88543000  0.33907000  0.47738000  1.0
  H  H85  1  0.61455000  0.66093000  0.97738000  1.0
  H  H86  1  0.11456000  0.66093000  0.52262000  1.0
  H  H87  1  0.38545000  0.33907000  0.02262000  1.0
  H  H88  1  0.25876000  0.21359000  0.47560000  1.0
  H  H89  1  0.24124000  0.78641000  0.97561000  1.0
  H  H90  1  0.74126000  0.78642000  0.52440000  1.0
  H  H91  1  0.75874000  0.21358000  0.02439000  1.0
  H  H92  1  0.28648000  0.22106000  0.55018000  1.0
  H  H93  1  0.21355000  0.77896000  0.05018000  1.0
  H  H94  1  0.71355000  0.77895000  0.44982000  1.0
  H  H95  1  0.78647000  0.22105000  0.94982000  1.0
  H  H96  1  0.04595000  0.04249000  0.74127000  1.0
  H  H97  1  0.45405000  0.95750000  0.24128000  1.0
  H  H98  1  0.95406000  0.95751000  0.25872000  1.0
  H  H99  1  0.54595000  0.04250000  0.75872000  1.0
  H  H100  1  0.92689000  0.93819000  0.73538000  1.0
  H  H101  1  0.57312000  0.06180000  0.23540000  1.0
  H  H102  1  0.07312000  0.06181000  0.26461000  1.0
  H  H103  1  0.42687000  0.93820000  0.76459000  1.0
  H  H104  1  0.51193000  0.98863000  0.66154000  1.0
  H  H105  1  0.98803000  0.01137000  0.16154000  1.0
  H  H106  1  0.48803000  0.01137000  0.33846000  1.0
  H  H107  1  0.01198000  0.98863000  0.83845000  1.0
  H  H108  1  0.63612000  0.09374000  0.66641000  1.0
  H  H109  1  0.86385000  0.90626000  0.16641000  1.0
  H  H110  1  0.36384000  0.90626000  0.33359000  1.0
  H  H111  1  0.13618000  0.09374000  0.83359000  1.0
  Pt  Pt112  1  0.10404000  0.28189000  0.70564000  1.0
  Pt  Pt113  1  0.39596000  0.71811000  0.20564000  1.0
  Pt  Pt114  1  0.89595000  0.71811000  0.29436000  1.0
  Pt  Pt115  1  0.60406000  0.28190000  0.79436000  1.0
  C  C116  1  0.94382000  0.16654000  0.74206000  1.0
  C  C117  1  0.55616000  0.83346000  0.24207000  1.0
  C  C118  1  0.05616000  0.83346000  0.25794000  1.0
  C  C119  1  0.44385000  0.16655000  0.75794000  1.0
  C  C120  1  0.87907000  0.14205000  0.77974000  1.0
  C  C121  1  0.62092000  0.85796000  0.27976000  1.0
  C  C122  1  0.12093000  0.85795000  0.22025000  1.0
  C  C123  1  0.37908000  0.14205000  0.72025000  1.0
  C  C124  1  0.92606000  0.18235000  0.80897000  1.0
  C  C125  1  0.57391000  0.81765000  0.30898000  1.0
  C  C126  1  0.07393000  0.81765000  0.19103000  1.0
  C  C127  1  0.42608000  0.18235000  0.69102000  1.0
  C  C128  1  0.02260000  0.23199000  0.78976000  1.0
  C  C129  1  0.47738000  0.76802000  0.28976000  1.0
  C  C130  1  0.97739000  0.76801000  0.21024000  1.0
  C  C131  1  0.52263000  0.23199000  0.71024000  1.0
  C  C132  1  0.10318000  0.28114000  0.81007000  1.0
  C  C133  1  0.39681000  0.71886000  0.31007000  1.0
  C  C134  1  0.89683000  0.71885000  0.18993000  1.0
  C  C135  1  0.60318000  0.28115000  0.68993000  1.0
  C  C136  1  0.18388000  0.33059000  0.79013000  1.0
  C  C137  1  0.31611000  0.66941000  0.29013000  1.0
  C  C138  1  0.81612000  0.66941000  0.20987000  1.0
  C  C139  1  0.68389000  0.33060000  0.70987000  1.0
  C  C140  1  0.27977000  0.37997000  0.80972000  1.0
  C  C141  1  0.22023000  0.62003000  0.30972000  1.0
  C  C142  1  0.72023000  0.62003000  0.19028000  1.0
  C  C143  1  0.77977000  0.37997000  0.69028000  1.0
  C  C144  1  0.32747000  0.42063000  0.78077000  1.0
  C  C145  1  0.17254000  0.57936000  0.28077000  1.0
  C  C146  1  0.67253000  0.57936000  0.21923000  1.0
  C  C147  1  0.82747000  0.42064000  0.71923000  1.0
  C  C148  1  0.26274000  0.39678000  0.74283000  1.0
  C  C149  1  0.23728000  0.60322000  0.24282000  1.0
  C  C150  1  0.73725000  0.60322000  0.25718000  1.0
  C  C151  1  0.76273000  0.39678000  0.75718000  1.0
  C  C152  1  0.27693000  0.42649000  0.70591000  1.0
  C  C153  1  0.22308000  0.57350000  0.20591000  1.0
  C  C154  1  0.72306000  0.57351000  0.29409000  1.0
  C  C155  1  0.77694000  0.42650000  0.79409000  1.0
  C  C156  1  0.22269000  0.40151000  0.66892000  1.0
  C  C157  1  0.27732000  0.59849000  0.16892000  1.0
  C  C158  1  0.77731000  0.59849000  0.33108000  1.0
  C  C159  1  0.72269000  0.40151000  0.83108000  1.0
  C  C160  1  0.22541000  0.43264000  0.63110000  1.0
  C  C161  1  0.27460000  0.56736000  0.13110000  1.0
  C  C162  1  0.77459000  0.56736000  0.36890000  1.0
  C  C163  1  0.72541000  0.43264000  0.86890000  1.0
  C  C164  1  0.17608000  0.39240000  0.60190000  1.0
  C  C165  1  0.32392000  0.60760000  0.10190000  1.0
  C  C166  1  0.82393000  0.60761000  0.39810000  1.0
  C  C167  1  0.67608000  0.39240000  0.89810000  1.0
  C  C168  1  0.13925000  0.33624000  0.62138000  1.0
  C  C169  1  0.36075000  0.66376000  0.12138000  1.0
  C  C170  1  0.86075000  0.66376000  0.37862000  1.0
  C  C171  1  0.63926000  0.33624000  0.87862000  1.0
  C  C172  1  0.10218000  0.28267000  0.60122000  1.0
  C  C173  1  0.39782000  0.71733000  0.10122000  1.0
  C  C174  1  0.89783000  0.71734000  0.39878000  1.0
  C  C175  1  0.60218000  0.28267000  0.89878000  1.0
  C  C176  1  0.06700000  0.22862000  0.62104000  1.0
  C  C177  1  0.43301000  0.77138000  0.12104000  1.0
  C  C178  1  0.93300000  0.77139000  0.37896000  1.0
  C  C179  1  0.56700000  0.22862000  0.87896000  1.0
  C  C180  1  0.02863000  0.17255000  0.60137000  1.0
  C  C181  1  0.47139000  0.82745000  0.10137000  1.0
  C  C182  1  0.97137000  0.82745000  0.39863000  1.0
  C  C183  1  0.52863000  0.17255000  0.89863000  1.0
  C  C184  1  0.98051000  0.13208000  0.63046000  1.0
  C  C185  1  0.51950000  0.86791000  0.13047000  1.0
  C  C186  1  0.01948000  0.86792000  0.36954000  1.0
  C  C187  1  0.48051000  0.13209000  0.86954000  1.0
  C  C188  1  0.98532000  0.16287000  0.66839000  1.0
  C  C189  1  0.51469000  0.83713000  0.16840000  1.0
  C  C190  1  0.01467000  0.83714000  0.33161000  1.0
  C  C191  1  0.48532000  0.16287000  0.83161000  1.0
  C  C192  1  0.92878000  0.13745000  0.70504000  1.0
  C  C193  1  0.57121000  0.86255000  0.20504000  1.0
  C  C194  1  0.07120000  0.86255000  0.29496000  1.0
  C  C195  1  0.42881000  0.13746000  0.79496000  1.0
  C  C196  1  0.10236000  0.28084000  0.85483000  1.0
  C  C197  1  0.39762000  0.71917000  0.35483000  1.0
  C  C198  1  0.89766000  0.71916000  0.14517000  1.0
  C  C199  1  0.60237000  0.28084000  0.64517000  1.0
  C  C200  1  0.15242000  0.23269000  0.87655000  1.0
  C  C201  1  0.34756000  0.76731000  0.37655000  1.0
  C  C202  1  0.84760000  0.76731000  0.12345000  1.0
  C  C203  1  0.65242000  0.23270000  0.62345000  1.0
  C  C204  1  0.14965000  0.23201000  0.91853000  1.0
  C  C205  1  0.35034000  0.76799000  0.41854000  1.0
  C  C206  1  0.85037000  0.76799000  0.08147000  1.0
  C  C207  1  0.64967000  0.23201000  0.58146000  1.0
  C  C208  1  0.09803000  0.27975000  0.93983000  1.0
  C  C209  1  0.40197000  0.72025000  0.43984000  1.0
  C  C210  1  0.90199000  0.72025000  0.06017000  1.0
  C  C211  1  0.59805000  0.27975000  0.56016000  1.0
  C  C212  1  0.04935000  0.32815000  0.91875000  1.0
  C  C213  1  0.45066000  0.67185000  0.41876000  1.0
  C  C214  1  0.95067000  0.67184000  0.08125000  1.0
  C  C215  1  0.54936000  0.32816000  0.58124000  1.0
  C  C216  1  0.05099000  0.32859000  0.87677000  1.0
  C  C217  1  0.44901000  0.67141000  0.37677000  1.0
  C  C218  1  0.94903000  0.67141000  0.12323000  1.0
  C  C219  1  0.55099000  0.32859000  0.62323000  1.0
  C  C220  1  0.34586000  0.48951000  0.70606000  1.0
  C  C221  1  0.15416000  0.51049000  0.20606000  1.0
  C  C222  1  0.65414000  0.51049000  0.29394000  1.0
  C  C223  1  0.84586000  0.48951000  0.79394000  1.0
  C  C224  1  0.26907000  0.52913000  0.73100000  1.0
  C  C225  1  0.23095000  0.47087000  0.23100000  1.0
  C  C226  1  0.73092000  0.47088000  0.26900000  1.0
  C  C227  1  0.76907000  0.52913000  0.76900000  1.0
  C  C228  1  0.32901000  0.58850000  0.73156000  1.0
  C  C229  1  0.17101000  0.41150000  0.23156000  1.0
  C  C230  1  0.67099000  0.41150000  0.26844000  1.0
  C  C231  1  0.82900000  0.58850000  0.76844000  1.0
  C  C232  1  0.46520000  0.60952000  0.70630000  1.0
  C  C233  1  0.03482000  0.39047000  0.20630000  1.0
  C  C234  1  0.53482000  0.39048000  0.29370000  1.0
  C  C235  1  0.96520000  0.60953000  0.79370000  1.0
  C  C236  1  0.54342000  0.57132000  0.68102000  1.0
  C  C237  1  0.95659000  0.42867000  0.18102000  1.0
  C  C238  1  0.45659000  0.42867000  0.31899000  1.0
  C  C239  1  0.04343000  0.57133000  0.81899000  1.0
  C  C240  1  0.48489000  0.51148000  0.68146000  1.0
  C  C241  1  0.01511000  0.48851000  0.18146000  1.0
  C  C242  1  0.51511000  0.48851000  0.31855000  1.0
  C  C243  1  0.98490000  0.51149000  0.81855000  1.0
  C  C244  1  0.09717000  0.28261000  0.55647000  1.0
  C  C245  1  0.40283000  0.71739000  0.05648000  1.0
  C  C246  1  0.90284000  0.71739000  0.44353000  1.0
  C  C247  1  0.59717000  0.28262000  0.94352000  1.0
  C  C248  1  0.98739000  0.31666000  0.53525000  1.0
  C  C249  1  0.51261000  0.68334000  0.03525000  1.0
  C  C250  1  0.01262000  0.68334000  0.46475000  1.0
  C  C251  1  0.48739000  0.31666000  0.96475000  1.0
  C  C252  1  0.97396000  0.31346000  0.49343000  1.0
  C  C253  1  0.52603000  0.68654000  0.99344000  1.0
  C  C254  1  0.02604000  0.68654000  0.50657000  1.0
  C  C255  1  0.47396000  0.31346000  0.00657000  1.0
  C  C256  1  0.07079000  0.27581000  0.47205000  1.0
  C  C257  1  0.42920000  0.72419000  0.97205000  1.0
  C  C258  1  0.92922000  0.72419000  0.52795000  1.0
  C  C259  1  0.57078000  0.27580000  0.02795000  1.0
  C  C260  1  0.18389000  0.24279000  0.49255000  1.0
  C  C261  1  0.31611000  0.75722000  0.99255000  1.0
  C  C262  1  0.81614000  0.75722000  0.50745000  1.0
  C  C263  1  0.68387000  0.24278000  0.00745000  1.0
  C  C264  1  0.19733000  0.24650000  0.53431000  1.0
  C  C265  1  0.30269000  0.75351000  0.03431000  1.0
  C  C266  1  0.80271000  0.75350000  0.46569000  1.0
  C  C267  1  0.69731000  0.24650000  0.96569000  1.0
  C  C268  1  0.85052000  0.07527000  0.70372000  1.0
  C  C269  1  0.64948000  0.92473000  0.20372000  1.0
  C  C270  1  0.14946000  0.92473000  0.29628000  1.0
  C  C271  1  0.35054000  0.07527000  0.79628000  1.0
  C  C272  1  0.92956000  0.03095000  0.72357000  1.0
  C  C273  1  0.57044000  0.96905000  0.22358000  1.0
  C  C274  1  0.07044000  0.96905000  0.27643000  1.0
  C  C275  1  0.42956000  0.03096000  0.77642000  1.0
  C  C276  1  0.86215000  0.97233000  0.72058000  1.0
  C  C277  1  0.63783000  0.02767000  0.22059000  1.0
  C  C278  1  0.13784000  0.02767000  0.27941000  1.0
  C  C279  1  0.36215000  0.97234000  0.77939000  1.0
  C  C280  1  0.71234000  0.95771000  0.69794000  1.0
  C  C281  1  0.78763000  0.04228000  0.19796000  1.0
  C  C282  1  0.28764000  0.04229000  0.30206000  1.0
  C  C283  1  0.21235000  0.95772000  0.80203000  1.0
  C  C284  1  0.63004000  0.00099000  0.67841000  1.0
  C  C285  1  0.86992000  0.99901000  0.17842000  1.0
  C  C286  1  0.36992000  0.99901000  0.32159000  1.0
  C  C287  1  0.13008000  0.00099000  0.82157000  1.0
  C  C288  1  0.70017000  0.05953000  0.68124000  1.0
  C  C289  1  0.79982000  0.94047000  0.18124000  1.0
  C  C290  1  0.29981000  0.94047000  0.31877000  1.0
  C  C291  1  0.20020000  0.05953000  0.81876000  1.0
  S  S292  1  0.53137000  0.68617000  0.70670000  1.0
  S  S293  1  0.96865000  0.31382000  0.20670000  1.0
  S  S294  1  0.46866000  0.31382000  0.29330000  1.0
  S  S295  1  0.03136000  0.68618000  0.79330000  1.0
  S  S296  1  0.05499000  0.27008000  0.41848000  1.0
  S  S297  1  0.44497000  0.72991000  0.91848000  1.0
  S  S298  1  0.94498000  0.72990000  0.58152000  1.0
  S  S299  1  0.55500000  0.27007000  0.08152000  1.0
  S  S300  1  0.62344000  0.88285000  0.69690000  1.0
  S  S301  1  0.87651000  0.11715000  0.19691000  1.0
  S  S302  1  0.37654000  0.11715000  0.30310000  1.0
  S  S303  1  0.12348000  0.88286000  0.80307000  1.0
  N  N304  1  0.02665000  0.22234000  0.74861000  1.0
  N  N305  1  0.47334000  0.77766000  0.24862000  1.0
  N  N306  1  0.97333000  0.77766000  0.25139000  1.0
  N  N307  1  0.52668000  0.22235000  0.75138000  1.0
  N  N308  1  0.18064000  0.34086000  0.74903000  1.0
  N  N309  1  0.31937000  0.65915000  0.24903000  1.0
  N  N310  1  0.81935000  0.65914000  0.25098000  1.0
  N  N311  1  0.68065000  0.34086000  0.75097000  1.0
  N  N312  1  0.16428000  0.34309000  0.66254000  1.0
  N  N313  1  0.33572000  0.65691000  0.16254000  1.0
  N  N314  1  0.83572000  0.65691000  0.33747000  1.0
  N  N315  1  0.66428000  0.34309000  0.83746000  1.0
  N  N316  1  0.04433000  0.22130000  0.66223000  1.0
  N  N317  1  0.45566000  0.77870000  0.16223000  1.0
  N  N318  1  0.95566000  0.77870000  0.33777000  1.0
  N  N319  1  0.54434000  0.22130000  0.83777000  1.0
  O  O320  1  0.53469000  0.70420000  0.74958000  1.0
  O  O321  1  0.96531000  0.29581000  0.24959000  1.0
  O  O322  1  0.46534000  0.29580000  0.25042000  1.0
  O  O323  1  0.03469000  0.70419000  0.75041000  1.0
  O  O324  1  0.39652000  0.71369000  0.68424000  1.0
  O  O325  1  0.10350000  0.28630000  0.18425000  1.0
  O  O326  1  0.60349000  0.28630000  0.31576000  1.0
  O  O327  1  0.89649000  0.71370000  0.81575000  1.0
  O  O328  1  0.70088000  0.69526000  0.68753000  1.0
  O  O329  1  0.79915000  0.30473000  0.18753000  1.0
  O  O330  1  0.29914000  0.30474000  0.31246000  1.0
  O  O331  1  0.20085000  0.69527000  0.81247000  1.0
  O  O332  1  0.86994000  0.26451000  0.40789000  1.0
  O  O333  1  0.63001000  0.73554000  0.90788000  1.0
  O  O334  1  0.13002000  0.73553000  0.59212000  1.0
  O  O335  1  0.36995000  0.26451000  0.09212000  1.0
  O  O336  1  0.14587000  0.32505000  0.40225000  1.0
  O  O337  1  0.35425000  0.67490000  0.90226000  1.0
  O  O338  1  0.85424000  0.67490000  0.59774000  1.0
  O  O339  1  0.64592000  0.32503000  0.09775000  1.0
  O  O340  1  0.14082000  0.21788000  0.40820000  1.0
  O  O341  1  0.35897000  0.78206000  0.90820000  1.0
  O  O342  1  0.85901000  0.78206000  0.59181000  1.0
  O  O343  1  0.64079000  0.21786000  0.09179000  1.0
  O  O344  1  0.46957000  0.87808000  0.67105000  1.0
  O  O345  1  0.03035000  0.12192000  0.17105000  1.0
  O  O346  1  0.53039000  0.12192000  0.32895000  1.0
  O  O347  1  0.96961000  0.87808000  0.82892000  1.0
  O  O348  1  0.58145000  0.86910000  0.73974000  1.0
  O  O349  1  0.91856000  0.13090000  0.23975000  1.0
  O  O350  1  0.41857000  0.13090000  0.26026000  1.0
  O  O351  1  0.08150000  0.86910000  0.76023000  1.0
  O  O352  1  0.75795000  0.84752000  0.68212000  1.0
  O  O353  1  0.74198000  0.15247000  0.18214000  1.0
  O  O354  1  0.24202000  0.15248000  0.31787000  1.0
  O  O355  1  0.25800000  0.84754000  0.81785000  1.0
