# generated using pymatgen
data_MgH13C17N2O5
_symmetry_space_group_name_H-M   'P 1'
_cell_length_a   12.54770000
_cell_length_b   12.54770000
_cell_length_c   13.49950000
_cell_angle_alpha   62.67560000
_cell_angle_beta   62.67560000
_cell_angle_gamma   87.18520000
_symmetry_Int_Tables_number   1
_chemical_formula_structural   MgH13C17N2O5
_chemical_formula_sum   'Mg4 H52 C68 N8 O20'
_cell_volume   1642.04758131
_cell_formula_units_Z   4
loop_
 _symmetry_equiv_pos_site_id
 _symmetry_equiv_pos_as_xyz
  1  'x, y, z'
loop_
 _atom_site_type_symbol
 _atom_site_label
 _atom_site_symmetry_multiplicity
 _atom_site_fract_x
 _atom_site_fract_y
 _atom_site_fract_z
 _atom_site_occupancy
  Mg  Mg0  1  0.19318000  0.80682000  0.25000000  1.0
  Mg  Mg1  1  0.80682000  0.19318000  0.75000000  1.0
  Mg  Mg2  1  0.50000000  0.00000000  0.00000000  1.0
  Mg  Mg3  1  0.00000000  0.50000000  0.50000000  1.0
  H  H4  1  0.60867000  0.54366000  0.08798000  1.0
  H  H5  1  0.45634000  0.39133000  0.41202000  1.0
  H  H6  1  0.39133000  0.45634000  0.91202000  1.0
  H  H7  1  0.54366000  0.60867000  0.58798000  1.0
  H  H8  1  0.34351000  0.58923000  0.95483000  1.0
  H  H9  1  0.41077000  0.65649000  0.54517000  1.0
  H  H10  1  0.65649000  0.41077000  0.04517000  1.0
  H  H11  1  0.58923000  0.34351000  0.45483000  1.0
  H  H12  1  0.01866000  0.03185000  0.11041000  1.0
  H  H13  1  0.96815000  0.98134000  0.38959000  1.0
  H  H14  1  0.98134000  0.96815000  0.88960000  1.0
  H  H15  1  0.03185000  0.01866000  0.61041000  1.0
  H  H16  1  0.54157000  0.71382000  0.13705000  1.0
  H  H17  1  0.28618000  0.45843000  0.36295000  1.0
  H  H18  1  0.45843000  0.28618000  0.86295000  1.0
  H  H19  1  0.71382000  0.54157000  0.63705000  1.0
  H  H20  1  0.28891000  0.75233000  0.01420000  1.0
  H  H21  1  0.24767000  0.71109000  0.48580000  1.0
  H  H22  1  0.71109000  0.24767000  0.98580000  1.0
  H  H23  1  0.75233000  0.28891000  0.51420000  1.0
  H  H24  1  0.89699000  0.14460000  0.00419000  1.0
  H  H25  1  0.85540000  0.10301000  0.49581000  1.0
  H  H26  1  0.10301000  0.85540000  0.99581000  1.0
  H  H27  1  0.14460000  0.89699000  0.50419000  1.0
  H  H28  1  0.35201000  0.26014000  0.76685000  1.0
  H  H29  1  0.73986000  0.64799000  0.73315000  1.0
  H  H30  1  0.64799000  0.73986000  0.23315000  1.0
  H  H31  1  0.26014000  0.35201000  0.26685000  1.0
  H  H32  1  0.22981000  0.37583000  0.66328000  1.0
  H  H33  1  0.62417000  0.77019000  0.83672000  1.0
  H  H34  1  0.77019000  0.62417000  0.33672000  1.0
  H  H35  1  0.37583000  0.22981000  0.16328000  1.0
  H  H36  1  0.36262000  0.04735000  0.76970000  1.0
  H  H37  1  0.95265000  0.63738000  0.73030000  1.0
  H  H38  1  0.63738000  0.95265000  0.23030000  1.0
  H  H39  1  0.04735000  0.36262000  0.26970000  1.0
  H  H40  1  0.48344000  0.89806000  0.76604000  1.0
  H  H41  1  0.10194000  0.51656000  0.73396000  1.0
  H  H42  1  0.51656000  0.10194000  0.23396000  1.0
  H  H43  1  0.89806000  0.48344000  0.26604000  1.0
  H  H44  1  0.22153000  0.09771000  0.68743000  1.0
  H  H45  1  0.90229000  0.77847000  0.81257000  1.0
  H  H46  1  0.77847000  0.90229000  0.31257000  1.0
  H  H47  1  0.09771000  0.22153000  0.18743000  1.0
  H  H48  1  0.32603000  0.07099000  0.56170000  1.0
  H  H49  1  0.92901000  0.67397000  0.93830000  1.0
  H  H50  1  0.67397000  0.92901000  0.43830000  1.0
  H  H51  1  0.07099000  0.32603000  0.06170000  1.0
  H  H52  1  0.20805000  0.94970000  0.70248000  1.0
  H  H53  1  0.05030000  0.79195000  0.79752000  1.0
  H  H54  1  0.79195000  0.05030000  0.29752000  1.0
  H  H55  1  0.94970000  0.20804000  0.20248000  1.0
  C  C56  1  0.98536000  0.32662000  0.75926000  1.0
  C  C57  1  0.67338000  0.01464000  0.74074000  1.0
  C  C58  1  0.01464000  0.67338000  0.24074000  1.0
  C  C59  1  0.32662000  0.98536000  0.25926000  1.0
  C  C60  1  0.48158000  0.54840000  0.01700000  1.0
  C  C61  1  0.45160000  0.51842000  0.48299000  1.0
  C  C62  1  0.51842000  0.45160000  0.98300000  1.0
  C  C63  1  0.54840000  0.48158000  0.51700000  1.0
  C  C64  1  0.26210000  0.06221000  0.00742000  1.0
  C  C65  1  0.93779000  0.73790000  0.49258000  1.0
  C  C66  1  0.73790000  0.93779000  0.99258000  1.0
  C  C67  1  0.06221000  0.26210000  0.50742000  1.0
  C  C68  1  0.53669000  0.58526000  0.06984000  1.0
  C  C69  1  0.41474000  0.46331000  0.43016000  1.0
  C  C70  1  0.46331000  0.41474000  0.93016000  1.0
  C  C71  1  0.58526000  0.53669000  0.56984000  1.0
  C  C72  1  0.50159000  0.67741000  0.09962000  1.0
  C  C73  1  0.32259000  0.49841000  0.40038000  1.0
  C  C74  1  0.49841000  0.32259000  0.90038000  1.0
  C  C75  1  0.67741000  0.50159000  0.59962000  1.0
  C  C76  1  0.19191000  0.13943000  0.94541000  1.0
  C  C77  1  0.86057000  0.80809000  0.55459000  1.0
  C  C78  1  0.80809000  0.86057000  0.05459000  1.0
  C  C79  1  0.13943000  0.19191000  0.44541000  1.0
  C  C80  1  0.18461000  0.30144000  0.76168000  1.0
  C  C81  1  0.69856000  0.81539000  0.73832000  1.0
  C  C82  1  0.81539000  0.69856000  0.23832000  1.0
  C  C83  1  0.30144000  0.18461000  0.26168000  1.0
  C  C84  1  0.05652000  0.26784000  0.82754000  1.0
  C  C85  1  0.73216000  0.94348000  0.67246000  1.0
  C  C86  1  0.94348000  0.73215000  0.17246000  1.0
  C  C87  1  0.26784000  0.05652000  0.32754000  1.0
  C  C88  1  0.99644000  0.17154000  0.95426000  1.0
  C  C89  1  0.82846000  0.00356000  0.54574000  1.0
  C  C90  1  0.00356000  0.82846000  0.04574000  1.0
  C  C91  1  0.17154000  0.99644000  0.45426000  1.0
  C  C92  1  0.06351000  0.10858000  0.01288000  1.0
  C  C93  1  0.89142000  0.93649000  0.48712000  1.0
  C  C94  1  0.93649000  0.89142000  0.98712000  1.0
  C  C95  1  0.10858000  0.06351000  0.51288000  1.0
  C  C96  1  0.25210000  0.23741000  0.81953000  1.0
  C  C97  1  0.76259000  0.74790000  0.68047000  1.0
  C  C98  1  0.74791000  0.76259000  0.18047000  1.0
  C  C99  1  0.23741000  0.25209000  0.31953000  1.0
  C  C100  1  0.35876000  0.70218000  0.02653000  1.0
  C  C101  1  0.29782000  0.64124000  0.47347000  1.0
  C  C102  1  0.64124000  0.29782000  0.97347000  1.0
  C  C103  1  0.70218000  0.35876000  0.52653000  1.0
  C  C104  1  0.39111000  0.61021000  0.99596000  1.0
  C  C105  1  0.38979000  0.60889000  0.50404000  1.0
  C  C106  1  0.60889000  0.38979000  0.00404000  1.0
  C  C107  1  0.61021000  0.39111000  0.49596000  1.0
  C  C108  1  0.43481000  0.84156000  0.66311000  1.0
  C  C109  1  0.15844000  0.56519000  0.83689000  1.0
  C  C110  1  0.56518000  0.15844000  0.33689000  1.0
  C  C111  1  0.84156000  0.43481000  0.16311000  1.0
  C  C112  1  0.35613000  0.99827000  0.72282000  1.0
  C  C113  1  0.00173000  0.64386000  0.77718000  1.0
  C  C114  1  0.64386000  0.00173000  0.27718000  1.0
  C  C115  1  0.99827000  0.35613000  0.22282000  1.0
  C  C116  1  0.42627000  0.91338000  0.72141000  1.0
  C  C117  1  0.08662000  0.57373000  0.77859000  1.0
  C  C118  1  0.57373000  0.08662000  0.27859000  1.0
  C  C119  1  0.91338000  0.42627000  0.22141000  1.0
  C  C120  1  0.27343000  0.03098000  0.66639000  1.0
  C  C121  1  0.96902000  0.72657000  0.83361000  1.0
  C  C122  1  0.72657000  0.96902000  0.33361000  1.0
  C  C123  1  0.03098000  0.27343000  0.16639000  1.0
  N  N124  1  0.41252000  0.73349000  0.07927000  1.0
  N  N125  1  0.26651000  0.58748000  0.42073000  1.0
  N  N126  1  0.58748000  0.26651000  0.92073000  1.0
  N  N127  1  0.73349000  0.41252000  0.57927000  1.0
  N  N128  1  0.44746000  0.78065000  0.61541000  1.0
  N  N129  1  0.21935000  0.55253000  0.88459000  1.0
  N  N130  1  0.55253000  0.21935000  0.38459000  1.0
  N  N131  1  0.78065000  0.44746000  0.11541000  1.0
  O  O132  1  0.37861000  0.82006000  0.11104000  1.0
  O  O133  1  0.17994000  0.62139000  0.38896000  1.0
  O  O134  1  0.62139000  0.17994000  0.88896000  1.0
  O  O135  1  0.82006000  0.37861000  0.61104000  1.0
  O  O136  1  0.19950000  0.97847000  0.12268000  1.0
  O  O137  1  0.02153000  0.80050000  0.37732000  1.0
  O  O138  1  0.80050000  0.02153000  0.87732000  1.0
  O  O139  1  0.97847000  0.19949000  0.62268000  1.0
  O  O140  1  0.87389000  0.27411000  0.81591000  1.0
  O  O141  1  0.72589000  0.12611000  0.68409000  1.0
  O  O142  1  0.12611000  0.72588000  0.18409000  1.0
  O  O143  1  0.27411000  0.87389000  0.31591000  1.0
  O  O144  1  0.04061000  0.42130000  0.64909000  1.0
  O  O145  1  0.57870000  0.95939000  0.85091000  1.0
  O  O146  1  0.95939000  0.57870000  0.35091000  1.0
  O  O147  1  0.42130000  0.04061000  0.14909000  1.0
  O  O148  1  0.37867000  0.08499000  0.93943000  1.0
  O  O149  1  0.91501000  0.62133000  0.56057000  1.0
  O  O150  1  0.62133000  0.91501000  0.06057000  1.0
  O  O151  1  0.08499000  0.37867000  0.43943000  1.0
