# generated using pymatgen
data_Zn4H34C32N4O13
_symmetry_space_group_name_H-M   'P 1'
_cell_length_a   17.77800000
_cell_length_b   18.59750000
_cell_length_c   19.79755131
_cell_angle_alpha   117.65994659
_cell_angle_beta   115.35152530
_cell_angle_gamma   90.03000000
_symmetry_Int_Tables_number   1
_chemical_formula_structural   Zn4H34C32N4O13
_chemical_formula_sum   'Zn8 H68 C64 N8 O26'
_cell_volume   5074.24185466
_cell_formula_units_Z   2
loop_
 _symmetry_equiv_pos_site_id
 _symmetry_equiv_pos_as_xyz
  1  'x, y, z'
loop_
 _atom_site_type_symbol
 _atom_site_label
 _atom_site_symmetry_multiplicity
 _atom_site_fract_x
 _atom_site_fract_y
 _atom_site_fract_z
 _atom_site_occupancy
  Zn  Zn0  1  0.12654000  0.53410000  0.07458000  1.0
  Zn  Zn1  1  0.96041000  0.38124000  0.93024000  1.0
  Zn  Zn2  1  0.96916000  0.55361000  0.93643000  1.0
  Zn  Zn3  1  0.95237000  0.54363000  0.08829000  1.0
  Zn  Zn4  1  0.37806000  0.96678000  0.93807000  1.0
  Zn  Zn5  1  0.54025000  0.95515000  0.08108000  1.0
  Zn  Zn6  1  0.53489000  0.12564000  0.08506000  1.0
  Zn  Zn7  1  0.55509000  0.96605000  0.93027000  1.0
  H  H8  1  0.22097000  0.85666000  0.69237000  1.0
  H  H9  1  0.29134000  0.67332000  0.32214000  1.0
  H  H10  1  0.66849000  0.04042000  0.32928000  1.0
  H  H11  1  0.85532000  0.46699000  0.68492000  1.0
  H  H12  1  0.21198000  0.79872000  0.11501000  1.0
  H  H13  1  0.12919000  0.78351000  0.01550000  1.0
  H  H14  1  0.22081000  0.87955000  0.02161000  1.0
  H  H15  1  0.30381000  0.89227000  0.11978000  1.0
  H  H16  1  0.20242000  0.76627000  0.87727000  1.0
  H  H17  1  0.27410000  0.70069000  0.87237000  1.0
  H  H18  1  0.11326000  0.66890000  0.87247000  1.0
  H  H19  1  0.18714000  0.60550000  0.87066000  1.0
  H  H20  1  0.31735000  0.70649000  0.11311000  1.0
  H  H21  1  0.30657000  0.62633000  0.01384000  1.0
  H  H22  1  0.39521000  0.71952000  0.01397000  1.0
  H  H23  1  0.40809000  0.79887000  0.11453000  1.0
  H  H24  1  0.90306000  0.30602000  0.12094000  1.0
  H  H25  1  0.88696000  0.22769000  0.01748000  1.0
  H  H26  1  0.79732000  0.13415000  0.01591000  1.0
  H  H27  1  0.81319000  0.21337000  0.11901000  1.0
  H  H28  1  0.67683000  0.11806000  0.87904000  1.0
  H  H29  1  0.60550000  0.18393000  0.88360000  1.0
  H  H30  1  0.76529000  0.21292000  0.88069000  1.0
  H  H31  1  0.69453000  0.27932000  0.88748000  1.0
  H  H32  1  0.80342000  0.40311000  0.13156000  1.0
  H  H33  1  0.71883000  0.39358000  0.03685000  1.0
  H  H34  1  0.62776000  0.29903000  0.03272000  1.0
  H  H35  1  0.71199000  0.30963000  0.12811000  1.0
  H  H36  1  0.17064000  0.27731000  0.07997000  1.0
  H  H37  1  0.26014000  0.36123000  0.13206000  1.0
  H  H38  1  0.35040000  0.27037000  0.13775000  1.0
  H  H39  1  0.26021000  0.18655000  0.08428000  1.0
  H  H40  1  0.39906000  0.30313000  0.05076000  1.0
  H  H41  1  0.34511000  0.24198000  0.93602000  1.0
  H  H42  1  0.30730000  0.39301000  0.04316000  1.0
  H  H43  1  0.25269000  0.33001000  0.92850000  1.0
  H  H44  1  0.09027000  0.18768000  0.91402000  1.0
  H  H45  1  0.12377000  0.20996000  0.85266000  1.0
  H  H46  1  0.21535000  0.12013000  0.85805000  1.0
  H  H47  1  0.18151000  0.09750000  0.91899000  1.0
  H  H48  1  0.91207000  0.81349000  0.09478000  1.0
  H  H49  1  0.87273000  0.78975000  0.15239000  1.0
  H  H50  1  0.78640000  0.88401000  0.14717000  1.0
  H  H51  1  0.82368000  0.90462000  0.08659000  1.0
  H  H52  1  0.65712000  0.76444000  0.06975000  1.0
  H  H53  1  0.60118000  0.70325000  0.95508000  1.0
  H  H54  1  0.74463000  0.67033000  0.07266000  1.0
  H  H55  1  0.68925000  0.61088000  0.95792000  1.0
  H  H56  1  0.83309000  0.72857000  0.92870000  1.0
  H  H57  1  0.74357000  0.64447000  0.87242000  1.0
  H  H58  1  0.65223000  0.73448000  0.86762000  1.0
  H  H59  1  0.74166000  0.81792000  0.92073000  1.0
  H  H60  1  0.44769000  0.81487000  0.51670000  1.0
  H  H61  1  0.42446000  0.72635000  0.42560000  1.0
  H  H62  1  0.48678000  0.83579000  0.70840000  1.0
  H  H63  1  0.46761000  0.77366000  0.59924000  1.0
  H  H64  1  0.06563000  0.80557000  0.49634000  1.0
  H  H65  1  0.08831000  0.80995000  0.58862000  1.0
  H  H66  1  0.02684000  0.63186000  0.30789000  1.0
  H  H67  1  0.04642000  0.68137000  0.41772000  1.0
  H  H68  1  0.80399000  0.41774000  0.48395000  1.0
  H  H69  1  0.80678000  0.48852000  0.57574000  1.0
  H  H70  1  0.62455000  0.27347000  0.30210000  1.0
  H  H71  1  0.67651000  0.36269000  0.41007000  1.0
  H  H72  1  0.82255000  0.08732000  0.52531000  1.0
  H  H73  1  0.73363000  0.01865000  0.43741000  1.0
  H  H74  1  0.83289000  0.23658000  0.71522000  1.0
  H  H75  1  0.77468000  0.14734000  0.60769000  1.0
  C  C76  1  0.13773000  0.35891000  0.99252000  1.0
  C  C77  1  0.87858000  0.38975000  0.77001000  1.0
  C  C78  1  0.14552000  0.63358000  0.99887000  1.0
  C  C79  1  0.86482000  0.64594000  0.01712000  1.0
  C  C80  1  0.12562000  0.62010000  0.24449000  1.0
  C  C81  1  0.86102000  0.36816000  0.01309000  1.0
  C  C82  1  0.36341000  0.86048000  0.00526000  1.0
  C  C83  1  0.60857000  0.11906000  0.24622000  1.0
  C  C84  1  0.35770000  0.14061000  0.00400000  1.0
  C  C85  1  0.64255000  0.14236000  0.00890000  1.0
  C  C86  1  0.38606000  0.88116000  0.77067000  1.0
  C  C87  1  0.64887000  0.86879000  0.00860000  1.0
  C  C88  1  0.36291000  0.80379000  0.61478000  1.0
  C  C89  1  0.24233000  0.82773000  0.64390000  1.0
  C  C90  1  0.18285000  0.78553000  0.55693000  1.0
  C  C91  1  0.21099000  0.74802000  0.49282000  1.0
  C  C92  1  0.15021000  0.69572000  0.40053000  1.0
  C  C93  1  0.27020000  0.69230000  0.37078000  1.0
  C  C94  1  0.32999000  0.73616000  0.45774000  1.0
  C  C95  1  0.30215000  0.76299000  0.52224000  1.0
  C  C96  1  0.33152000  0.83630000  0.67515000  1.0
  C  C97  1  0.18106000  0.66930000  0.33976000  1.0
  C  C98  1  0.69042000  0.24854000  0.39822000  1.0
  C  C99  1  0.68786000  0.10764000  0.37561000  1.0
  C  C100  1  0.73593000  0.13729000  0.46318000  1.0
  C  C101  1  0.76183000  0.22613000  0.52425000  1.0
  C  C102  1  0.80233000  0.26007000  0.61752000  1.0
  C  C103  1  0.82607000  0.40014000  0.63910000  1.0
  C  C104  1  0.78327000  0.37042000  0.55122000  1.0
  C  C105  1  0.74529000  0.28201000  0.49077000  1.0
  C  C106  1  0.66189000  0.16043000  0.34126000  1.0
  C  C107  1  0.83435000  0.34802000  0.67442000  1.0
  C  C108  1  0.19663000  0.78245000  0.04878000  1.0
  C  C109  1  0.25716000  0.84531000  0.05195000  1.0
  C  C110  1  0.30634000  0.79795000  0.00348000  1.0
  C  C111  1  0.23985000  0.73298000  0.90826000  1.0
  C  C112  1  0.18114000  0.66952000  0.90616000  1.0
  C  C113  1  0.20602000  0.69244000  0.99987000  1.0
  C  C114  1  0.30008000  0.69064000  0.04669000  1.0
  C  C115  1  0.35941000  0.75230000  0.04764000  1.0
  C  C116  1  0.85341000  0.26092000  0.05369000  1.0
  C  C117  1  0.79365000  0.19889000  0.05240000  1.0
  C  C118  1  0.69945000  0.20447000  0.00954000  1.0
  C  C119  1  0.67309000  0.18256000  0.91590000  1.0
  C  C120  1  0.73220000  0.24539000  0.91765000  1.0
  C  C121  1  0.80037000  0.30955000  0.01249000  1.0
  C  C122  1  0.75493000  0.35718000  0.06429000  1.0
  C  C123  1  0.69472000  0.29492000  0.06203000  1.0
  C  C124  1  0.22675000  0.29704000  0.07668000  1.0
  C  C125  1  0.28664000  0.23692000  0.08008000  1.0
  C  C126  1  0.29698000  0.19766000  0.99734000  1.0
  C  C127  1  0.33528000  0.26923000  0.99335000  1.0
  C  C128  1  0.27442000  0.32840000  0.98874000  1.0
  C  C129  1  0.19517000  0.29813000  0.99117000  1.0
  C  C130  1  0.14746000  0.20883000  0.91328000  1.0
  C  C131  1  0.20795000  0.14927000  0.91678000  1.0
  C  C132  1  0.85308000  0.79269000  0.09316000  1.0
  C  C133  1  0.79477000  0.85417000  0.08910000  1.0
  C  C134  1  0.70521000  0.80697000  0.00735000  1.0
  C  C135  1  0.66573000  0.73624000  0.01187000  1.0
  C  C136  1  0.72417000  0.67456000  0.01412000  1.0
  C  C137  1  0.80426000  0.70371000  0.01258000  1.0
  C  C138  1  0.77580000  0.70805000  0.92958000  1.0
  C  C139  1  0.71586000  0.76792000  0.92565000  1.0
  N  N140  1  0.41880000  0.75227000  0.48071000  1.0
  N  N141  1  0.44864000  0.81033000  0.64311000  1.0
  N  N142  1  0.09402000  0.77967000  0.53361000  1.0
  N  N143  1  0.06501000  0.67214000  0.37294000  1.0
  N  N144  1  0.77682000  0.42947000  0.52303000  1.0
  N  N145  1  0.66593000  0.30094000  0.36701000  1.0
  N  N146  1  0.75767000  0.07777000  0.49053000  1.0
  N  N147  1  0.80851000  0.20828000  0.64960000  1.0
  O  O148  1  0.00080000  0.50280000  0.00867000  1.0
  O  O149  1  0.17476000  0.43605000  0.05024000  1.0
  O  O150  1  0.88876000  0.34525000  0.80639000  1.0
  O  O151  1  0.06522000  0.62192000  0.95150000  1.0
  O  O152  1  0.05773000  0.32875000  0.93799000  1.0
  O  O153  1  0.17892000  0.60178000  0.04629000  1.0
  O  O154  1  0.90543000  0.46973000  0.81280000  1.0
  O  O155  1  0.89860000  0.62925000  0.96810000  1.0
  O  O156  1  0.04307000  0.59753000  0.21177000  1.0
  O  O157  1  0.87872000  0.62010000  0.07007000  1.0
  O  O158  1  0.16347000  0.60276000  0.19841000  1.0
  O  O159  1  0.89239000  0.33273000  0.96199000  1.0
  O  O160  1  0.87661000  0.44681000  0.06421000  1.0
  O  O161  1  0.50352000  0.00415000  0.00716000  1.0
  O  O162  1  0.32572000  0.89830000  0.96530000  1.0
  O  O163  1  0.58478000  0.03879000  0.20348000  1.0
  O  O164  1  0.43687000  0.17638000  0.06027000  1.0
  O  O165  1  0.44434000  0.87087000  0.04665000  1.0
  O  O166  1  0.32515000  0.06184000  0.95409000  1.0
  O  O167  1  0.58855000  0.16400000  0.20998000  1.0
  O  O168  1  0.61672000  0.17298000  0.06508000  1.0
  O  O169  1  0.46898000  0.89805000  0.80470000  1.0
  O  O170  1  0.62653000  0.06466000  0.95325000  1.0
  O  O171  1  0.34659000  0.90177000  0.81537000  1.0
  O  O172  1  0.62915000  0.89650000  0.06954000  1.0
  O  O173  1  0.62647000  0.88896000  0.95060000  1.0
