# generated using pymatgen
data_ErP4H27C20(NO8)2
_symmetry_space_group_name_H-M   'P 1'
_cell_length_a   7.87780000
_cell_length_b   12.49180000
_cell_length_c   15.30080000
_cell_angle_alpha   110.57100000
_cell_angle_beta   90.29750000
_cell_angle_gamma   90.58520000
_symmetry_Int_Tables_number   1
_chemical_formula_structural   ErP4H27C20(NO8)2
_chemical_formula_sum   'Er2 P8 H54 C40 N4 O32'
_cell_volume   1409.57564054
_cell_formula_units_Z   2
loop_
 _symmetry_equiv_pos_site_id
 _symmetry_equiv_pos_as_xyz
  1  'x, y, z'
loop_
 _atom_site_type_symbol
 _atom_site_label
 _atom_site_symmetry_multiplicity
 _atom_site_fract_x
 _atom_site_fract_y
 _atom_site_fract_z
 _atom_site_occupancy
  Er  Er0  1  0.75656000  0.88569000  0.52739000  1.0
  Er  Er1  1  0.24344000  0.11431000  0.47261000  1.0
  P  P2  1  0.86508000  0.01197000  0.36228000  1.0
  P  P3  1  0.13492000  0.98802000  0.63772000  1.0
  P  P4  1  0.46806000  0.32638000  0.41564000  1.0
  P  P5  1  0.53195000  0.67362000  0.58436000  1.0
  P  P6  1  0.98430000  0.62702000  0.43497000  1.0
  P  P7  1  0.01570000  0.37298000  0.56502000  1.0
  P  P8  1  0.43845000  0.85242000  0.35265000  1.0
  P  P9  1  0.56155000  0.14758000  0.64735000  1.0
  H  H10  1  0.82893000  0.26548000  0.39465000  1.0
  H  H11  1  0.17107000  0.73452000  0.60535000  1.0
  H  H12  1  0.34442000  0.65945000  0.40240000  1.0
  H  H13  1  0.65558000  0.34055000  0.59760000  1.0
  H  H14  1  0.64314000  0.05786000  0.26799000  1.0
  H  H15  1  0.35686000  0.94214000  0.73202000  1.0
  H  H16  1  0.61120000  0.12370000  0.38892000  1.0
  H  H17  1  0.38880000  0.87630000  0.61108000  1.0
  H  H18  1  0.55187000  0.23867000  0.25451000  1.0
  H  H19  1  0.44813000  0.76133000  0.74549000  1.0
  H  H20  1  0.67387000  0.36619000  0.31449000  1.0
  H  H21  1  0.32613000  0.63381000  0.68551000  1.0
  H  H22  1  0.94370000  0.29728000  0.27118000  1.0
  H  H23  1  0.05630000  0.70272000  0.72882000  1.0
  H  H24  1  0.00773000  0.16238000  0.27426000  1.0
  H  H25  1  0.99228000  0.83762000  0.72574000  1.0
  H  H26  1  0.85314000  0.97941000  0.15716000  1.0
  H  H27  1  0.14686000  0.02060000  0.84284000  1.0
  H  H28  1  0.75673000  0.89192000  0.99227000  1.0
  H  H29  1  0.24326000  0.10808000  0.00773000  1.0
  H  H30  1  0.74950000  0.22284000  0.96621000  1.0
  H  H31  1  0.25050000  0.77717000  0.03379000  1.0
  H  H32  1  0.82796000  0.31374000  0.13410000  1.0
  H  H33  1  0.17204000  0.68626000  0.86590000  1.0
  H  H34  1  0.15471000  0.80148000  0.37841000  1.0
  H  H35  1  0.84530000  0.19853000  0.62159000  1.0
  H  H36  1  0.20059000  0.74382000  0.25726000  1.0
  H  H37  1  0.79941000  0.25619000  0.74274000  1.0
  H  H38  1  0.16021000  0.49112000  0.32560000  1.0
  H  H39  1  0.83979000  0.50888000  0.67440000  1.0
  H  H40  1  0.04868000  0.57682000  0.27182000  1.0
  H  H41  1  0.95133000  0.42318000  0.72818000  1.0
  H  H42  1  0.52194000  0.62981000  0.26847000  1.0
  H  H43  1  0.47807000  0.37019000  0.73153000  1.0
  H  H44  1  0.45202000  0.50728000  0.29325000  1.0
  H  H45  1  0.54798000  0.49272000  0.70675000  1.0
  H  H46  1  0.28293000  0.35978000  0.18726000  1.0
  H  H47  1  0.71706000  0.64022000  0.81273000  1.0
  H  H48  1  0.15721000  0.27004000  0.02908000  1.0
  H  H49  1  0.84278000  0.72996000  0.97092000  1.0
  H  H50  1  0.27254000  0.57148000  0.96636000  1.0
  H  H51  1  0.72746000  0.42852000  0.03364000  1.0
  H  H52  1  0.39426000  0.66559000  0.12718000  1.0
  H  H53  1  0.60573000  0.33441000  0.87282000  1.0
  H  H54  1  0.68372000  0.02752000  0.75335000  1.0
  H  H55  1  0.31628000  0.97248000  0.24665000  1.0
  H  H56  1  0.08211000  0.20356000  0.80763000  1.0
  H  H57  1  0.91790000  0.79644000  0.19236000  1.0
  H  H58  1  0.39704000  0.50606000  0.44100000  1.0
  H  H59  1  0.60296000  0.49394000  0.55900000  1.0
  H  H60  1  0.87589000  0.46834000  0.44009000  1.0
  H  H61  1  0.12410000  0.53166000  0.55990000  1.0
  H  H62  1  0.67725000  0.84131000  0.27339000  1.0
  H  H63  1  0.32275000  0.15868000  0.72661000  1.0
  C  C64  1  0.70732000  0.10467000  0.33437000  1.0
  C  C65  1  0.29269000  0.89533000  0.66563000  1.0
  C  C66  1  0.62082000  0.28684000  0.31929000  1.0
  C  C67  1  0.37918000  0.71316000  0.68071000  1.0
  C  C68  1  0.90255000  0.20862000  0.25726000  1.0
  C  C69  1  0.09745000  0.79138000  0.74274000  1.0
  C  C70  1  0.84313000  0.15344000  0.15795000  1.0
  C  C71  1  0.15688000  0.84656000  0.84205000  1.0
  C  C72  1  0.82471000  0.03408000  0.11704000  1.0
  C  C73  1  0.17529000  0.96592000  0.88296000  1.0
  C  C74  1  0.77337000  0.98417000  0.02425000  1.0
  C  C75  1  0.22662000  0.01583000  0.97576000  1.0
  C  C76  1  0.74681000  0.05165000  0.96933000  1.0
  C  C77  1  0.25318000  0.94835000  0.03068000  1.0
  C  C78  1  0.76732000  0.17067000  0.00934000  1.0
  C  C79  1  0.23267000  0.82934000  0.99067000  1.0
  C  C80  1  0.81243000  0.22094000  0.10323000  1.0
  C  C81  1  0.18757000  0.77906000  0.89677000  1.0
  C  C82  1  0.70183000  0.99402000  0.86863000  1.0
  C  C83  1  0.29816000  0.00598000  0.13137000  1.0
  C  C84  1  0.25187000  0.75824000  0.32732000  1.0
  C  C85  1  0.74813000  0.24176000  0.67267000  1.0
  C  C86  1  0.12335000  0.57825000  0.33315000  1.0
  C  C87  1  0.87665000  0.42175000  0.66685000  1.0
  C  C88  1  0.41340000  0.57333000  0.26590000  1.0
  C  C89  1  0.58660000  0.42666000  0.73410000  1.0
  C  C90  1  0.34147000  0.52040000  0.16907000  1.0
  C  C91  1  0.65852000  0.47960000  0.83093000  1.0
  C  C92  1  0.27721000  0.40803000  0.14009000  1.0
  C  C93  1  0.72278000  0.59197000  0.85991000  1.0
  C  C94  1  0.20844000  0.35666000  0.05109000  1.0
  C  C95  1  0.79155000  0.64335000  0.94891000  1.0
  C  C96  1  0.20534000  0.41601000  0.98853000  1.0
  C  C97  1  0.79466000  0.58399000  0.01147000  1.0
  C  C98  1  0.27188000  0.52754000  0.01657000  1.0
  C  C99  1  0.72811000  0.47246000  0.98343000  1.0
  C  C100  1  0.33927000  0.57960000  0.10615000  1.0
  C  C101  1  0.66072000  0.42040000  0.89385000  1.0
  C  C102  1  0.14219000  0.35904000  0.89070000  1.0
  C  C103  1  0.85781000  0.64096000  0.10929000  1.0
  N  N104  1  0.76762000  0.21685000  0.33038000  1.0
  N  N105  1  0.23238000  0.78315000  0.66962000  1.0
  N  N106  1  0.28487000  0.64512000  0.33698000  1.0
  N  N107  1  0.71513000  0.35488000  0.66302000  1.0
  O  O108  1  0.65972000  0.89258000  0.83377000  1.0
  O  O109  1  0.34026000  0.10742000  0.16624000  1.0
  O  O110  1  0.71431000  0.06550000  0.82069000  1.0
  O  O111  1  0.28569000  0.93450000  0.17931000  1.0
  O  O112  1  0.08063000  0.25346000  0.87592000  1.0
  O  O113  1  0.91937000  0.74655000  0.12408000  1.0
  O  O114  1  0.14943000  0.40360000  0.83061000  1.0
  O  O115  1  0.85059000  0.59640000  0.16938000  1.0
  O  O116  1  0.84457000  0.89391000  0.28505000  1.0
  O  O117  1  0.15543000  0.10609000  0.71495000  1.0
  O  O118  1  0.81545000  0.00885000  0.45812000  1.0
  O  O119  1  0.18456000  0.99114000  0.54187000  1.0
  O  O120  1  0.04044000  0.06605000  0.36472000  1.0
  O  O121  1  0.95957000  0.93395000  0.63528000  1.0
  O  O122  1  0.36419000  0.42321000  0.39672000  1.0
  O  O123  1  0.63582000  0.57678000  0.60328000  1.0
  O  O124  1  0.56266000  0.37361000  0.50861000  1.0
  O  O125  1  0.43735000  0.62639000  0.49139000  1.0
  O  O126  1  0.35272000  0.22461000  0.40234000  1.0
  O  O127  1  0.64729000  0.77539000  0.59766000  1.0
  O  O128  1  0.84879000  0.52551000  0.40773000  1.0
  O  O129  1  0.15121000  0.47449000  0.59226000  1.0
  O  O130  1  0.07868000  0.63128000  0.52319000  1.0
  O  O131  1  0.92131000  0.36872000  0.47681000  1.0
  O  O132  1  0.90380000  0.73759000  0.43743000  1.0
  O  O133  1  0.09620000  0.26240000  0.56256000  1.0
  O  O134  1  0.55320000  0.80492000  0.26404000  1.0
  O  O135  1  0.44681000  0.19508000  0.73596000  1.0
  O  O136  1  0.52169000  0.84316000  0.43924000  1.0
  O  O137  1  0.47831000  0.15684000  0.56076000  1.0
  O  O138  1  0.37460000  0.97081000  0.36134000  1.0
  O  O139  1  0.62541000  0.02919000  0.63866000  1.0
