# generated using pymatgen
data_ZnH16C24(NO2)2
_symmetry_space_group_name_H-M   'P 1'
_cell_length_a   10.30790000
_cell_length_b   11.80560000
_cell_length_c   19.62220000
_cell_angle_alpha   90.00000000
_cell_angle_beta   90.00020000
_cell_angle_gamma   91.36150000
_symmetry_Int_Tables_number   1
_chemical_formula_structural   ZnH16C24(NO2)2
_chemical_formula_sum   'Zn4 H64 C96 N8 O16'
_cell_volume   2387.16991310
_cell_formula_units_Z   4
loop_
 _symmetry_equiv_pos_site_id
 _symmetry_equiv_pos_as_xyz
  1  'x, y, z'
loop_
 _atom_site_type_symbol
 _atom_site_label
 _atom_site_symmetry_multiplicity
 _atom_site_fract_x
 _atom_site_fract_y
 _atom_site_fract_z
 _atom_site_occupancy
  Zn  Zn0  1  0.95982000  0.53981000  0.14915000  1.0
  Zn  Zn1  1  0.54019000  0.46019000  0.64914000  1.0
  Zn  Zn2  1  0.04018000  0.46019000  0.85086000  1.0
  Zn  Zn3  1  0.45981000  0.53981000  0.35085000  1.0
  H  H4  1  0.94672000  0.73755000  0.65504000  1.0
  H  H5  1  0.55329000  0.26245000  0.15504000  1.0
  H  H6  1  0.05328000  0.26245000  0.34496000  1.0
  H  H7  1  0.44671000  0.73755000  0.84496000  1.0
  H  H8  1  0.11028000  0.83249000  0.57766000  1.0
  H  H9  1  0.38972000  0.16751000  0.07766000  1.0
  H  H10  1  0.88971000  0.16751000  0.42234000  1.0
  H  H11  1  0.61028000  0.83249000  0.92234000  1.0
  H  H12  1  0.11685000  0.77999000  0.45575000  1.0
  H  H13  1  0.38316000  0.22000000  0.95575000  1.0
  H  H14  1  0.88315000  0.22000000  0.54425000  1.0
  H  H15  1  0.61685000  0.77999000  0.04425000  1.0
  H  H16  1  0.81441000  0.52788000  0.49074000  1.0
  H  H17  1  0.68560000  0.47212000  0.99074000  1.0
  H  H18  1  0.18559000  0.47212000  0.50926000  1.0
  H  H19  1  0.31440000  0.52788000  0.00926000  1.0
  H  H20  1  0.77883000  0.53633000  0.38975000  1.0
  H  H21  1  0.72118000  0.46367000  0.88975000  1.0
  H  H22  1  0.22117000  0.46367000  0.61025000  1.0
  H  H23  1  0.27882000  0.53633000  0.11025000  1.0
  H  H24  1  0.79062000  0.48223000  0.26731000  1.0
  H  H25  1  0.70938000  0.51778000  0.76731000  1.0
  H  H26  1  0.20938000  0.51777000  0.73269000  1.0
  H  H27  1  0.29062000  0.48223000  0.23269000  1.0
  H  H28  1  0.15891000  0.69699000  0.36573000  1.0
  H  H29  1  0.34109000  0.30301000  0.86573000  1.0
  H  H30  1  0.84109000  0.30301000  0.63427000  1.0
  H  H31  1  0.65891000  0.69699000  0.13427000  1.0
  H  H32  1  0.14348000  0.65236000  0.24360000  1.0
  H  H33  1  0.35653000  0.34764000  0.74360000  1.0
  H  H34  1  0.85652000  0.34764000  0.75640000  1.0
  H  H35  1  0.64347000  0.65235000  0.25640000  1.0
  H  H36  1  0.00312000  0.97205000  0.13704000  1.0
  H  H37  1  0.49688000  0.02795000  0.63704000  1.0
  H  H38  1  0.99688000  0.02795000  0.86296000  1.0
  H  H39  1  0.50312000  0.97205000  0.36296000  1.0
  H  H40  1  0.24820000  0.10094000  0.97451000  1.0
  H  H41  1  0.25180000  0.89906000  0.47451000  1.0
  H  H42  1  0.75180000  0.89906000  0.02549000  1.0
  H  H43  1  0.74820000  0.10094000  0.52549000  1.0
  H  H44  1  0.29119000  0.90505000  0.93889000  1.0
  H  H45  1  0.20881000  0.09496000  0.43889000  1.0
  H  H46  1  0.70881000  0.09496000  0.06111000  1.0
  H  H47  1  0.79118000  0.90504000  0.56111000  1.0
  H  H48  1  0.19244000  0.74228000  0.00341000  1.0
  H  H49  1  0.30757000  0.25772000  0.50341000  1.0
  H  H50  1  0.80757000  0.25772000  0.99659000  1.0
  H  H51  1  0.69243000  0.74228000  0.49659000  1.0
  H  H52  1  0.06691000  0.12559000  0.18989000  1.0
  H  H53  1  0.43310000  0.87441000  0.68988000  1.0
  H  H54  1  0.93310000  0.87441000  0.81012000  1.0
  H  H55  1  0.56690000  0.12559000  0.31011000  1.0
  H  H56  1  0.01928000  0.32296000  0.22370000  1.0
  H  H57  1  0.48072000  0.67704000  0.72370000  1.0
  H  H58  1  0.98072000  0.67704000  0.77630000  1.0
  H  H59  1  0.51927000  0.32296000  0.27630000  1.0
  H  H60  1  0.09711000  0.44323000  0.02890000  1.0
  H  H61  1  0.40289000  0.55677000  0.52890000  1.0
  H  H62  1  0.90289000  0.55677000  0.97110000  1.0
  H  H63  1  0.59711000  0.44322000  0.47110000  1.0
  H  H64  1  0.14643000  0.25274000  0.98682000  1.0
  H  H65  1  0.35357000  0.74727000  0.48682000  1.0
  H  H66  1  0.85357000  0.74726000  0.01318000  1.0
  H  H67  1  0.64643000  0.25273000  0.51318000  1.0
  C  C68  1  0.76837000  0.57695000  0.62196000  1.0
  C  C69  1  0.73163000  0.42306000  0.12196000  1.0
  C  C70  1  0.23162000  0.42305000  0.37804000  1.0
  C  C71  1  0.26837000  0.57694000  0.87804000  1.0
  C  C72  1  0.87110000  0.62817000  0.57638000  1.0
  C  C73  1  0.62891000  0.37184000  0.07638000  1.0
  C  C74  1  0.12890000  0.37183000  0.42362000  1.0
  C  C75  1  0.37109000  0.62817000  0.92362000  1.0
  C  C76  1  0.95504000  0.71332000  0.60167000  1.0
  C  C77  1  0.54496000  0.28668000  0.10167000  1.0
  C  C78  1  0.04495000  0.28668000  0.39833000  1.0
  C  C79  1  0.45504000  0.71332000  0.89833000  1.0
  C  C80  1  0.04496000  0.76597000  0.55840000  1.0
  C  C81  1  0.45504000  0.23403000  0.05840000  1.0
  C  C82  1  0.95503000  0.23403000  0.44160000  1.0
  C  C83  1  0.54496000  0.76597000  0.94160000  1.0
  C  C84  1  0.04950000  0.73565000  0.48979000  1.0
  C  C85  1  0.45051000  0.26435000  0.98978000  1.0
  C  C86  1  0.95050000  0.26435000  0.51022000  1.0
  C  C87  1  0.54950000  0.73565000  0.01022000  1.0
  C  C88  1  0.96661000  0.65044000  0.46333000  1.0
  C  C89  1  0.53339000  0.34956000  0.96333000  1.0
  C  C90  1  0.03339000  0.34956000  0.53667000  1.0
  C  C91  1  0.46661000  0.65044000  0.03667000  1.0
  C  C92  1  0.87906000  0.59605000  0.50811000  1.0
  C  C93  1  0.62094000  0.40395000  0.00811000  1.0
  C  C94  1  0.12094000  0.40395000  0.49189000  1.0
  C  C95  1  0.37906000  0.59605000  0.99189000  1.0
  C  C96  1  0.96838000  0.62129000  0.39025000  1.0
  C  C97  1  0.53163000  0.37871000  0.89025000  1.0
  C  C98  1  0.03163000  0.37871000  0.60975000  1.0
  C  C99  1  0.46837000  0.62129000  0.10975000  1.0
  C  C100  1  0.86440000  0.56038000  0.36037000  1.0
  C  C101  1  0.63560000  0.43963000  0.86037000  1.0
  C  C102  1  0.13559000  0.43963000  0.63963000  1.0
  C  C103  1  0.36440000  0.56037000  0.13963000  1.0
  C  C104  1  0.86733000  0.53267000  0.29187000  1.0
  C  C105  1  0.63267000  0.46733000  0.79187000  1.0
  C  C106  1  0.13267000  0.46733000  0.70813000  1.0
  C  C107  1  0.36733000  0.53267000  0.20813000  1.0
  C  C108  1  0.07179000  0.65330000  0.34698000  1.0
  C  C109  1  0.42821000  0.34670000  0.84698000  1.0
  C  C110  1  0.92821000  0.34670000  0.65302000  1.0
  C  C111  1  0.57179000  0.65330000  0.15302000  1.0
  C  C112  1  0.06586000  0.62613000  0.27831000  1.0
  C  C113  1  0.43414000  0.37387000  0.77831000  1.0
  C  C114  1  0.93414000  0.37387000  0.72169000  1.0
  C  C115  1  0.56586000  0.62613000  0.22169000  1.0
  C  C116  1  0.02227000  0.75194000  0.10872000  1.0
  C  C117  1  0.47774000  0.24806000  0.60872000  1.0
  C  C118  1  0.97773000  0.24806000  0.89128000  1.0
  C  C119  1  0.52226000  0.75194000  0.39128000  1.0
  C  C120  1  0.09303000  0.84878000  0.07428000  1.0
  C  C121  1  0.40697000  0.15122000  0.57427000  1.0
  C  C122  1  0.90697000  0.15122000  0.92572000  1.0
  C  C123  1  0.59303000  0.84878000  0.42572000  1.0
  C  C124  1  0.07059000  0.95981000  0.09506000  1.0
  C  C125  1  0.42941000  0.04019000  0.59506000  1.0
  C  C126  1  0.92941000  0.04019000  0.90494000  1.0
  C  C127  1  0.57059000  0.95981000  0.40494000  1.0
  C  C128  1  0.12897000  0.05248000  0.06106000  1.0
  C  C129  1  0.37103000  0.94752000  0.56106000  1.0
  C  C130  1  0.87103000  0.94752000  0.93894000  1.0
  C  C131  1  0.62897000  0.05248000  0.43894000  1.0
  C  C132  1  0.20625000  0.03072000  0.00362000  1.0
  C  C133  1  0.29375000  0.96929000  0.50362000  1.0
  C  C134  1  0.79375000  0.96928000  0.99638000  1.0
  C  C135  1  0.70625000  0.03071000  0.49638000  1.0
  C  C136  1  0.22995000  0.92024000  0.98307000  1.0
  C  C137  1  0.27005000  0.07977000  0.48307000  1.0
  C  C138  1  0.77005000  0.07977000  0.01693000  1.0
  C  C139  1  0.72995000  0.92023000  0.51693000  1.0
  C  C140  1  0.17510000  0.82906000  0.01885000  1.0
  C  C141  1  0.32491000  0.17094000  0.51885000  1.0
  C  C142  1  0.82490000  0.17094000  0.98115000  1.0
  C  C143  1  0.67509000  0.82906000  0.48115000  1.0
  C  C144  1  0.10749000  0.16947000  0.08424000  1.0
  C  C145  1  0.39252000  0.83053000  0.58424000  1.0
  C  C146  1  0.89252000  0.83053000  0.91576000  1.0
  C  C147  1  0.60748000  0.16946000  0.41576000  1.0
  C  C148  1  0.07342000  0.19299000  0.15208000  1.0
  C  C149  1  0.42658000  0.80701000  0.65208000  1.0
  C  C150  1  0.92658000  0.80701000  0.84792000  1.0
  C  C151  1  0.57342000  0.19298000  0.34792000  1.0
  C  C152  1  0.04755000  0.30303000  0.17166000  1.0
  C  C153  1  0.45245000  0.69697000  0.67165000  1.0
  C  C154  1  0.95245000  0.69697000  0.82835000  1.0
  C  C155  1  0.54754000  0.30303000  0.32834000  1.0
  C  C156  1  0.09185000  0.37052000  0.06323000  1.0
  C  C157  1  0.40815000  0.62948000  0.56323000  1.0
  C  C158  1  0.90815000  0.62948000  0.93677000  1.0
  C  C159  1  0.59185000  0.37051000  0.43677000  1.0
  C  C160  1  0.11969000  0.26298000  0.04005000  1.0
  C  C161  1  0.38031000  0.73703000  0.54005000  1.0
  C  C162  1  0.88032000  0.73702000  0.95995000  1.0
  C  C163  1  0.61969000  0.26297000  0.45995000  1.0
  N  N164  1  0.05437000  0.39090000  0.12790000  1.0
  N  N165  1  0.44563000  0.60910000  0.62790000  1.0
  N  N166  1  0.94564000  0.60910000  0.87210000  1.0
  N  N167  1  0.55436000  0.39090000  0.37210000  1.0
  N  N168  1  0.96604000  0.56603000  0.25074000  1.0
  N  N169  1  0.53396000  0.43398000  0.75074000  1.0
  N  N170  1  0.03396000  0.43397000  0.74926000  1.0
  N  N171  1  0.46604000  0.56603000  0.24926000  1.0
  O  O172  1  0.69826000  0.49505000  0.59544000  1.0
  O  O173  1  0.80174000  0.50496000  0.09543000  1.0
  O  O174  1  0.30173000  0.50495000  0.40456000  1.0
  O  O175  1  0.19827000  0.49504000  0.90457000  1.0
  O  O176  1  0.75307000  0.61615000  0.68060000  1.0
  O  O177  1  0.74694000  0.38386000  0.18060000  1.0
  O  O178  1  0.24692000  0.38386000  0.31939000  1.0
  O  O179  1  0.25306000  0.61614000  0.81940000  1.0
  O  O180  1  0.07262000  0.65251000  0.10093000  1.0
  O  O181  1  0.42738000  0.34749000  0.60093000  1.0
  O  O182  1  0.92738000  0.34749000  0.89907000  1.0
  O  O183  1  0.57262000  0.65251000  0.39907000  1.0
  O  O184  1  0.91940000  0.76849000  0.14085000  1.0
  O  O185  1  0.58061000  0.23152000  0.64085000  1.0
  O  O186  1  0.08060000  0.23152000  0.85915000  1.0
  O  O187  1  0.41939000  0.76848000  0.35915000  1.0
