# generated using pymatgen
data_Zn4H24C48O13
_symmetry_space_group_name_H-M   'P 1'
_cell_length_a   27.77870000
_cell_length_b   28.03460000
_cell_length_c   28.03740977
_cell_angle_alpha   60.90776626
_cell_angle_beta   60.72621667
_cell_angle_gamma   60.71800000
_symmetry_Int_Tables_number   1
_chemical_formula_structural   Zn4H24C48O13
_chemical_formula_sum   'Zn8 H48 C96 O26'
_cell_volume   15712.29319229
_cell_formula_units_Z   2
loop_
 _symmetry_equiv_pos_site_id
 _symmetry_equiv_pos_as_xyz
  1  'x, y, z'
loop_
 _atom_site_type_symbol
 _atom_site_label
 _atom_site_symmetry_multiplicity
 _atom_site_fract_x
 _atom_site_fract_y
 _atom_site_fract_z
 _atom_site_occupancy
  Zn  Zn0  1  0.97115000  0.09427000  0.96913000  1.0
  Zn  Zn1  1  0.97114000  0.98158000  0.96484000  1.0
  Zn  Zn2  1  0.96956000  0.98153000  0.07998000  1.0
  Zn  Zn3  1  0.08505000  0.98171000  0.96745000  1.0
  Zn  Zn4  1  0.52741000  0.42446000  0.52385000  1.0
  Zn  Zn5  1  0.52976000  0.53833000  0.52289000  1.0
  Zn  Zn6  1  0.41371000  0.53845000  0.52396000  1.0
  Zn  Zn7  1  0.52707000  0.53596000  0.41091000  1.0
  H  H8  1  0.85024000  0.07058000  0.87800000  1.0
  H  H9  1  0.78619000  0.13408000  0.81620000  1.0
  H  H10  1  0.67959000  0.39113000  0.70655000  1.0
  H  H11  1  0.61748000  0.45308000  0.64280000  1.0
  H  H12  1  0.65077000  0.30485000  0.60765000  1.0
  H  H13  1  0.71367000  0.24237000  0.67059000  1.0
  H  H14  1  0.82917000  0.27961000  0.77964000  1.0
  H  H15  1  0.89215000  0.21570000  0.84249000  1.0
  H  H16  1  0.87475000  0.06485000  0.20405000  1.0
  H  H17  1  0.81147000  0.12656000  0.26773000  1.0
  H  H18  1  0.71487000  0.38460000  0.23045000  1.0
  H  H19  1  0.65169000  0.44766000  0.29278000  1.0
  H  H20  1  0.60645000  0.30338000  0.43790000  1.0
  H  H21  1  0.66836000  0.23991000  0.37596000  1.0
  H  H22  1  0.79171000  0.27784000  0.11754000  1.0
  H  H23  1  0.85465000  0.21534000  0.05468000  1.0
  H  H24  1  0.20466000  0.07031000  0.84424000  1.0
  H  H25  1  0.26617000  0.13477000  0.77978000  1.0
  H  H26  1  0.22494000  0.39355000  0.69149000  1.0
  H  H27  1  0.28916000  0.45541000  0.62857000  1.0
  H  H28  1  0.44154000  0.30358000  0.63406000  1.0
  H  H29  1  0.37795000  0.24108000  0.69659000  1.0
  H  H30  1  0.11875000  0.27816000  0.82875000  1.0
  H  H31  1  0.05762000  0.21331000  0.89231000  1.0
  H  H32  1  0.84877000  0.89668000  0.19658000  1.0
  H  H33  1  0.78490000  0.83449000  0.25886000  1.0
  H  H34  1  0.68187000  0.71133000  0.22184000  1.0
  H  H35  1  0.62066000  0.64672000  0.28762000  1.0
  H  H36  1  0.63725000  0.64109000  0.43487000  1.0
  H  H37  1  0.69826000  0.70599000  0.36969000  1.0
  H  H38  1  0.81067000  0.80695000  0.10839000  1.0
  H  H39  1  0.87426000  0.86946000  0.04668000  1.0
  H  H40  1  0.20886000  0.87288000  0.87016000  1.0
  H  H41  1  0.27331000  0.81047000  0.80727000  1.0
  H  H42  1  0.23077000  0.70822000  0.68631000  1.0
  H  H43  1  0.29304000  0.64577000  0.62337000  1.0
  H  H44  1  0.44761000  0.64084000  0.62822000  1.0
  H  H45  1  0.38614000  0.70300000  0.69146000  1.0
  H  H46  1  0.12105000  0.82047000  0.79207000  1.0
  H  H47  1  0.05737000  0.88289000  0.85498000  1.0
  H  H48  1  0.20509000  0.89368000  0.05537000  1.0
  H  H49  1  0.26778000  0.83105000  0.11851000  1.0
  H  H50  1  0.22578000  0.70894000  0.37795000  1.0
  H  H51  1  0.28931000  0.64480000  0.44024000  1.0
  H  H52  1  0.44156000  0.63167000  0.28922000  1.0
  H  H53  1  0.37880000  0.69606000  0.22621000  1.0
  H  H54  1  0.11646000  0.79827000  0.26514000  1.0
  H  H55  1  0.05431000  0.86170000  0.20150000  1.0
  C  C56  1  0.91206000  0.10145000  0.90165000  1.0
  C  C57  1  0.87487000  0.13944000  0.86384000  1.0
  C  C58  1  0.84521000  0.11640000  0.85619000  1.0
  C  C59  1  0.80976000  0.15166000  0.82180000  1.0
  C  C60  1  0.80349000  0.21105000  0.79381000  1.0
  C  C61  1  0.76749000  0.24692000  0.75863000  1.0
  C  C62  1  0.73640000  0.27747000  0.72824000  1.0
  C  C63  1  0.70079000  0.31270000  0.69266000  1.0
  C  C64  1  0.67335000  0.37253000  0.68456000  1.0
  C  C65  1  0.63882000  0.40693000  0.64925000  1.0
  C  C66  1  0.63055000  0.38263000  0.62144000  1.0
  C  C67  1  0.65749000  0.32315000  0.62952000  1.0
  C  C68  1  0.69230000  0.28850000  0.66454000  1.0
  C  C69  1  0.59323000  0.41975000  0.58370000  1.0
  C  C70  1  0.83371000  0.23388000  0.80148000  1.0
  C  C71  1  0.86880000  0.19841000  0.83625000  1.0
  C  C72  1  0.90634000  0.09937000  0.08776000  1.0
  C  C73  1  0.86844000  0.13641000  0.12562000  1.0
  C  C74  1  0.85614000  0.11150000  0.18573000  1.0
  C  C75  1  0.82097000  0.14588000  0.22107000  1.0
  C  C76  1  0.79732000  0.20643000  0.19692000  1.0
  C  C77  1  0.76173000  0.24170000  0.23275000  1.0
  C  C78  1  0.73117000  0.27225000  0.26358000  1.0
  C  C79  1  0.69582000  0.30797000  0.29897000  1.0
  C  C80  1  0.69082000  0.36700000  0.27579000  1.0
  C  C81  1  0.65584000  0.40209000  0.31043000  1.0
  C  C82  1  0.62541000  0.37923000  0.36898000  1.0
  C  C83  1  0.63037000  0.32059000  0.39241000  1.0
  C  C84  1  0.66491000  0.28531000  0.35794000  1.0
  C  C85  1  0.58814000  0.41709000  0.40598000  1.0
  C  C86  1  0.80994000  0.23120000  0.13638000  1.0
  C  C87  1  0.84494000  0.19650000  0.10136000  1.0
  C  C88  1  0.09081000  0.09994000  0.90952000  1.0
  C  C89  1  0.12761000  0.13812000  0.87194000  1.0
  C  C90  1  0.18647000  0.11586000  0.84040000  1.0
  C  C91  1  0.22054000  0.15157000  0.80475000  1.0
  C  C92  1  0.19638000  0.21059000  0.80016000  1.0
  C  C93  1  0.23117000  0.24693000  0.76421000  1.0
  C  C94  1  0.26153000  0.27802000  0.73343000  1.0
  C  C95  1  0.29737000  0.31333000  0.69802000  1.0
  C  C96  1  0.27238000  0.37417000  0.67876000  1.0
  C  C97  1  0.30793000  0.40847000  0.64391000  1.0
  C  C98  1  0.36900000  0.38308000  0.62770000  1.0
  C  C99  1  0.39410000  0.32265000  0.64690000  1.0
  C  C100  1  0.35887000  0.28804000  0.68153000  1.0
  C  C101  1  0.40706000  0.42006000  0.58982000  1.0
  C  C102  1  0.13716000  0.23268000  0.83218000  1.0
  C  C103  1  0.10332000  0.19675000  0.86748000  1.0
  C  C104  1  0.90443000  0.92248000  0.08165000  1.0
  C  C105  1  0.86544000  0.88641000  0.11812000  1.0
  C  C106  1  0.84008000  0.87671000  0.17793000  1.0
  C  C107  1  0.80473000  0.84225000  0.21240000  1.0
  C  C108  1  0.79397000  0.81646000  0.18764000  1.0
  C  C109  1  0.75877000  0.78054000  0.22311000  1.0
  C  C110  1  0.72868000  0.74922000  0.25468000  1.0
  C  C111  1  0.69403000  0.71281000  0.29155000  1.0
  C  C112  1  0.67191000  0.69581000  0.26850000  1.0
  C  C113  1  0.63802000  0.65998000  0.30493000  1.0
  C  C114  1  0.62545000  0.64015000  0.36501000  1.0
  C  C115  1  0.64727000  0.65687000  0.38820000  1.0
  C  C116  1  0.68109000  0.69283000  0.35206000  1.0
  C  C117  1  0.58919000  0.60141000  0.40363000  1.0
  C  C118  1  0.81914000  0.82683000  0.12736000  1.0
  C  C119  1  0.85440000  0.86143000  0.09316000  1.0
  C  C120  1  0.09116000  0.91894000  0.90393000  1.0
  C  C121  1  0.12930000  0.88163000  0.86632000  1.0
  C  C122  1  0.19023000  0.86110000  0.85274000  1.0
  C  C123  1  0.22602000  0.82637000  0.81778000  1.0
  C  C124  1  0.20156000  0.81119000  0.79537000  1.0
  C  C125  1  0.23781000  0.77576000  0.75974000  1.0
  C  C126  1  0.26891000  0.74520000  0.72892000  1.0
  C  C127  1  0.30423000  0.70986000  0.69318000  1.0
  C  C128  1  0.27825000  0.69337000  0.67357000  1.0
  C  C129  1  0.31279000  0.65869000  0.63855000  1.0
  C  C130  1  0.37396000  0.63963000  0.62207000  1.0
  C  C131  1  0.40011000  0.65588000  0.64129000  1.0
  C  C132  1  0.36585000  0.69047000  0.67645000  1.0
  C  C133  1  0.41076000  0.60222000  0.58456000  1.0
  C  C134  1  0.14017000  0.83202000  0.80922000  1.0
  C  C135  1  0.10468000  0.86675000  0.84422000  1.0
  C  C136  1  0.08882000  0.91893000  0.08691000  1.0
  C  C137  1  0.12605000  0.88136000  0.12473000  1.0
  C  C138  1  0.18628000  0.87258000  0.10135000  1.0
  C  C139  1  0.22106000  0.83772000  0.13643000  1.0
  C  C140  1  0.19628000  0.81043000  0.19602000  1.0
  C  C141  1  0.23173000  0.77451000  0.23176000  1.0
  C  C142  1  0.26246000  0.74324000  0.26248000  1.0
  C  C143  1  0.29813000  0.70682000  0.29795000  1.0
  C  C144  1  0.27305000  0.69190000  0.35876000  1.0
  C  C145  1  0.30826000  0.65627000  0.39337000  1.0
  C  C146  1  0.36913000  0.63450000  0.36837000  1.0
  C  C147  1  0.39430000  0.64895000  0.30802000  1.0
  C  C148  1  0.35943000  0.68472000  0.27309000  1.0
  C  C149  1  0.40692000  0.59666000  0.40563000  1.0
  C  C150  1  0.13562000  0.81944000  0.21924000  1.0
  C  C151  1  0.10110000  0.85457000  0.18393000  1.0
  O  O152  1  0.99930000  0.00946000  0.99524000  1.0
  O  O153  1  0.92038000  0.04730000  0.92059000  1.0
  O  O154  1  0.93239000  0.12617000  0.91224000  1.0
  O  O155  1  0.57492000  0.47427000  0.57351000  1.0
  O  O156  1  0.58258000  0.39403000  0.56456000  1.0
  O  O157  1  0.92651000  0.04505000  0.11260000  1.0
  O  O158  1  0.91570000  0.12494000  0.03343000  1.0
  O  O159  1  0.58006000  0.47124000  0.38043000  1.0
  O  O160  1  0.56729000  0.39245000  0.46022000  1.0
  O  O161  1  0.11652000  0.04601000  0.91577000  1.0
  O  O162  1  0.03631000  0.12423000  0.93244000  1.0
  O  O163  1  0.38144000  0.47466000  0.57279000  1.0
  O  O164  1  0.46225000  0.39412000  0.57731000  1.0
  O  O165  1  0.91475000  0.94124000  0.10795000  1.0
  O  O166  1  0.92458000  0.93155000  0.02721000  1.0
  O  O167  1  0.57064000  0.58865000  0.37910000  1.0
  O  O168  1  0.57957000  0.58410000  0.45793000  1.0
  O  O169  1  0.11671000  0.93029000  0.92275000  1.0
  O  O170  1  0.03608000  0.93656000  0.91429000  1.0
  O  O171  1  0.38379000  0.58782000  0.57023000  1.0
  O  O172  1  0.46616000  0.58760000  0.56984000  1.0
  O  O173  1  0.11495000  0.93880000  0.03283000  1.0
  O  O174  1  0.03380000  0.92823000  0.11167000  1.0
  O  O175  1  0.38127000  0.58551000  0.46021000  1.0
  O  O176  1  0.46199000  0.57854000  0.37997000  1.0
  O  O177  1  0.49944000  0.50934000  0.49565000  1.0
