# generated using pymatgen
data_KH3C2SN4
_symmetry_space_group_name_H-M   'P 1'
_cell_length_a   6.51096000
_cell_length_b   6.65314000
_cell_length_c   13.89370000
_cell_angle_alpha   89.99620000
_cell_angle_beta   90.00000000
_cell_angle_gamma   89.99890000
_symmetry_Int_Tables_number   1
_chemical_formula_structural   KH3C2SN4
_chemical_formula_sum   'K4 H12 C8 S4 N16'
_cell_volume   601.85185806
_cell_formula_units_Z   4
loop_
 _symmetry_equiv_pos_site_id
 _symmetry_equiv_pos_as_xyz
  1  'x, y, z'
loop_
 _atom_site_type_symbol
 _atom_site_label
 _atom_site_symmetry_multiplicity
 _atom_site_fract_x
 _atom_site_fract_y
 _atom_site_fract_z
 _atom_site_occupancy
  K  K0  1  0.25003000  0.39341000  0.76313000  1.0
  K  K1  1  0.75003000  0.89341000  0.73686000  1.0
  K  K2  1  0.24998000  0.10658000  0.26313000  1.0
  K  K3  1  0.74997000  0.60662000  0.23686000  1.0
  H  H4  1  0.61230000  0.09646000  0.94919000  1.0
  H  H5  1  0.38770000  0.59649000  0.55083000  1.0
  H  H6  1  0.88770000  0.40355000  0.44920000  1.0
  H  H7  1  0.11227000  0.90350000  0.05081000  1.0
  H  H8  1  0.38772000  0.90349000  0.05081000  1.0
  H  H9  1  0.61227000  0.40355000  0.44919000  1.0
  H  H10  1  0.11227000  0.59650000  0.55083000  1.0
  H  H11  1  0.88777000  0.09646000  0.94919000  1.0
  H  H12  1  0.75003000  0.13222000  0.05923000  1.0
  H  H13  1  0.24999000  0.63221000  0.44079000  1.0
  H  H14  1  0.74999000  0.36780000  0.55923000  1.0
  H  H15  1  0.24999000  0.86775000  0.94075000  1.0
  C  C16  1  0.75000000  0.48266000  0.88313000  1.0
  C  C17  1  0.25001000  0.98268000  0.61686000  1.0
  C  C18  1  0.75000000  0.01737000  0.38313000  1.0
  C  C19  1  0.24998000  0.51730000  0.11685000  1.0
  C  C20  1  0.75001000  0.16213000  0.98181000  1.0
  C  C21  1  0.25000000  0.66215000  0.51820000  1.0
  C  C22  1  0.75000000  0.33787000  0.48182000  1.0
  C  C23  1  0.25000000  0.83784000  0.01818000  1.0
  S  S24  1  0.75002000  0.38416000  0.76949000  1.0
  S  S25  1  0.25002000  0.88421000  0.73048000  1.0
  S  S26  1  0.74999000  0.11585000  0.26952000  1.0
  S  S27  1  0.24997000  0.61581000  0.23050000  1.0
  N  N28  1  0.75001000  0.37724000  0.96741000  1.0
  N  N29  1  0.25000000  0.87726000  0.53261000  1.0
  N  N30  1  0.75000000  0.12279000  0.46740000  1.0
  N  N31  1  0.24999000  0.62272000  0.03258000  1.0
  N  N32  1  0.75000000  0.50750000  0.04198000  1.0
  N  N33  1  0.24999000  0.00750000  0.45804000  1.0
  N  N34  1  0.75000000  0.99252000  0.54196000  1.0
  N  N35  1  0.25001000  0.49247000  0.95801000  1.0
  N  N36  1  0.75000000  0.68746000  0.00495000  1.0
  N  N37  1  0.24999000  0.18749000  0.49505000  1.0
  N  N38  1  0.75000000  0.81255000  0.50495000  1.0
  N  N39  1  0.25000000  0.31248000  0.99504000  1.0
  N  N40  1  0.75000000  0.67948000  0.90793000  1.0
  N  N41  1  0.25000000  0.17950000  0.59207000  1.0
  N  N42  1  0.75000000  0.82055000  0.40793000  1.0
  N  N43  1  0.24999000  0.32050000  0.09206000  1.0
