# generated using pymatgen
data_NiH9C13NO5
_symmetry_space_group_name_H-M   'P 1'
_cell_length_a   7.13236000
_cell_length_b   9.89285000
_cell_length_c   10.09040000
_cell_angle_alpha   112.85200000
_cell_angle_beta   107.18700000
_cell_angle_gamma   96.73600000
_symmetry_Int_Tables_number   1
_chemical_formula_structural   NiH9C13NO5
_chemical_formula_sum   'Ni2 H18 C26 N2 O10'
_cell_volume   604.62721015
_cell_formula_units_Z   2
loop_
 _symmetry_equiv_pos_site_id
 _symmetry_equiv_pos_as_xyz
  1  'x, y, z'
loop_
 _atom_site_type_symbol
 _atom_site_label
 _atom_site_symmetry_multiplicity
 _atom_site_fract_x
 _atom_site_fract_y
 _atom_site_fract_z
 _atom_site_occupancy
  Ni  Ni0  1  0.91540000  0.12304000  0.12018000  1.0
  Ni  Ni1  1  0.08459000  0.87696000  0.87982000  1.0
  H  H2  1  0.56013000  0.17226000  0.00603000  1.0
  H  H3  1  0.43987000  0.82775000  0.99397000  1.0
  H  H4  1  0.75154000  0.26726000  0.00321000  1.0
  H  H5  1  0.24846000  0.73274000  0.99679000  1.0
  H  H6  1  0.88025000  0.16751000  0.57733000  1.0
  H  H7  1  0.11976000  0.83249000  0.42267000  1.0
  H  H8  1  0.54564000  0.73390000  0.18862000  1.0
  H  H9  1  0.45435000  0.26610000  0.81137000  1.0
  H  H10  1  0.60842000  0.80543000  0.65089000  1.0
  H  H11  1  0.39157000  0.19457000  0.34911000  1.0
  H  H12  1  0.50773000  0.49012000  0.15102000  1.0
  H  H13  1  0.49227000  0.50989000  0.84899000  1.0
  H  H14  1  0.24603000  0.24673000  0.03943000  1.0
  H  H15  1  0.75398000  0.75328000  0.96058000  1.0
  H  H16  1  0.04249000  0.40454000  0.40134000  1.0
  H  H17  1  0.95751000  0.59545000  0.59865000  1.0
  H  H18  1  0.28564000  0.66021000  0.52454000  1.0
  H  H19  1  0.71435000  0.33979000  0.47546000  1.0
  C  C20  1  0.83361000  0.09499000  0.80173000  1.0
  C  C21  1  0.16638000  0.90501000  0.19827000  1.0
  C  C22  1  0.75545000  0.99494000  0.63128000  1.0
  C  C23  1  0.24455000  0.00506000  0.36872000  1.0
  C  C24  1  0.79203000  0.05084000  0.53156000  1.0
  C  C25  1  0.20797000  0.94915000  0.46844000  1.0
  C  C26  1  0.71826000  0.95547000  0.37188000  1.0
  C  C27  1  0.28175000  0.04452000  0.62813000  1.0
  C  C28  1  0.60518000  0.80575000  0.31305000  1.0
  C  C29  1  0.39482000  0.19425000  0.68694000  1.0
  C  C30  1  0.55857000  0.75067000  0.41161000  1.0
  C  C31  1  0.44144000  0.24933000  0.58839000  1.0
  C  C32  1  0.63783000  0.84604000  0.57109000  1.0
  C  C33  1  0.36216000  0.15396000  0.42891000  1.0
  C  C34  1  0.41837000  0.59946000  0.34706000  1.0
  C  C35  1  0.58163000  0.40054000  0.65294000  1.0
  C  C36  1  0.40490000  0.47895000  0.20952000  1.0
  C  C37  1  0.59510000  0.52106000  0.79048000  1.0
  C  C38  1  0.26096000  0.34148000  0.14695000  1.0
  C  C39  1  0.73905000  0.65852000  0.85305000  1.0
  C  C40  1  0.14745000  0.43066000  0.34983000  1.0
  C  C41  1  0.85255000  0.56934000  0.65016000  1.0
  C  C42  1  0.28607000  0.57163000  0.41836000  1.0
  C  C43  1  0.71392000  0.42837000  0.58164000  1.0
  C  C44  1  0.76181000  0.01600000  0.26728000  1.0
  C  C45  1  0.23820000  0.98400000  0.73272000  1.0
  N  N46  1  0.13306000  0.31732000  0.21530000  1.0
  N  N47  1  0.86695000  0.68268000  0.78470000  1.0
  O  O48  1  0.88610000  0.14685000  0.32700000  1.0
  O  O49  1  0.11390000  0.85314000  0.67300000  1.0
  O  O50  1  0.68441000  0.93745000  0.11923000  1.0
  O  O51  1  0.31560000  0.06255000  0.88077000  1.0
  O  O52  1  0.69821000  0.24262000  0.07460000  1.0
  O  O53  1  0.30180000  0.75738000  0.92541000  1.0
  O  O54  1  0.83768000  0.23289000  0.85225000  1.0
  O  O55  1  0.16232000  0.76711000  0.14775000  1.0
  O  O56  1  0.88644000  0.02755000  0.89058000  1.0
  O  O57  1  0.11355000  0.97245000  0.10941000  1.0
