# generated using pymatgen
data_CuH12C13S2N3O7
_symmetry_space_group_name_H-M   'P 1'
_cell_length_a   6.82972000
_cell_length_b   11.12310000
_cell_length_c   11.49400000
_cell_angle_alpha   109.28800000
_cell_angle_beta   98.87400000
_cell_angle_gamma   99.62600000
_symmetry_Int_Tables_number   1
_chemical_formula_structural   CuH12C13S2N3O7
_chemical_formula_sum   'Cu2 H24 C26 S4 N6 O14'
_cell_volume   791.69895925
_cell_formula_units_Z   2
loop_
 _symmetry_equiv_pos_site_id
 _symmetry_equiv_pos_as_xyz
  1  'x, y, z'
loop_
 _atom_site_type_symbol
 _atom_site_label
 _atom_site_symmetry_multiplicity
 _atom_site_fract_x
 _atom_site_fract_y
 _atom_site_fract_z
 _atom_site_occupancy
  Cu  Cu0  1  0.26392000  0.80077000  0.15582000  1.0
  Cu  Cu1  1  0.73665000  0.19930000  0.84422000  1.0
  H  H2  1  0.19109000  0.69834000  0.61766000  1.0
  H  H3  1  0.80886000  0.30168000  0.38229000  1.0
  H  H4  1  0.82148000  0.83276000  0.43096000  1.0
  H  H5  1  0.17879000  0.16716000  0.56904000  1.0
  H  H6  1  0.94067000  0.94830000  0.37116000  1.0
  H  H7  1  0.05949000  0.05171000  0.62892000  1.0
  H  H8  1  0.26485000  0.36093000  0.13465000  1.0
  H  H9  1  0.73520000  0.63928000  0.86557000  1.0
  H  H10  1  0.18141000  0.50852000  0.69452000  1.0
  H  H11  1  0.81853000  0.49154000  0.30547000  1.0
  H  H12  1  0.22602000  0.92367000  0.77821000  1.0
  H  H13  1  0.77427000  0.07636000  0.22164000  1.0
  H  H14  1  0.32035000  0.47048000  0.37088000  1.0
  H  H15  1  0.67958000  0.52937000  0.62929000  1.0
  H  H16  1  0.21124000  0.55110000  0.92339000  1.0
  H  H17  1  0.78896000  0.44910000  0.07666000  1.0
  H  H18  1  0.36717000  0.34538000  0.51130000  1.0
  H  H19  1  0.63279000  0.65443000  0.48882000  1.0
  H  H20  1  0.35604000  0.10571000  0.42450000  1.0
  H  H21  1  0.64334000  0.89397000  0.57541000  1.0
  H  H22  1  0.40606000  0.61878000  0.17656000  1.0
  H  H23  1  0.59380000  0.38102000  0.82334000  1.0
  H  H24  1  0.19381000  0.61781000  0.22149000  1.0
  H  H25  1  0.80613000  0.38219000  0.77840000  1.0
  C  C26  1  0.20030000  0.71269000  0.71697000  1.0
  C  C27  1  0.79973000  0.28737000  0.28299000  1.0
  C  C28  1  0.91099000  0.84552000  0.36282000  1.0
  C  C29  1  0.08924000  0.15447000  0.63717000  1.0
  C  C30  1  0.28198000  0.30722000  0.19817000  1.0
  C  C31  1  0.71886000  0.69288000  0.80191000  1.0
  C  C32  1  0.27022000  0.17212000  0.14819000  1.0
  C  C33  1  0.73130000  0.82816000  0.85180000  1.0
  C  C34  1  0.24599000  0.97459000  0.03132000  1.0
  C  C35  1  0.75295000  0.02549000  0.96844000  1.0
  C  C36  1  0.19663000  0.60816000  0.75851000  1.0
  C  C37  1  0.80373000  0.39195000  0.24152000  1.0
  C  C38  1  0.21805000  0.83756000  0.80420000  1.0
  C  C39  1  0.78169000  0.16248000  0.19568000  1.0
  C  C40  1  0.31384000  0.36612000  0.32847000  1.0
  C  C41  1  0.68656000  0.63379000  0.67166000  1.0
  C  C42  1  0.29085000  0.09779000  0.23047000  1.0
  C  C43  1  0.70945000  0.90219000  0.76944000  1.0
  C  C44  1  0.23006000  0.85292000  0.93093000  1.0
  C  C45  1  0.76917000  0.14710000  0.06893000  1.0
  C  C46  1  0.21254000  0.63024000  0.88733000  1.0
  C  C47  1  0.78784000  0.36991000  0.11267000  1.0
  C  C48  1  0.33817000  0.29341000  0.40921000  1.0
  C  C49  1  0.66204000  0.70641000  0.59092000  1.0
  C  C50  1  0.32858000  0.16006000  0.36282000  1.0
  C  C51  1  0.67122000  0.83983000  0.63724000  1.0
  S  S52  1  0.75629000  0.74872000  0.20626000  1.0
  S  S53  1  0.24373000  0.25136000  0.79378000  1.0
  S  S54  1  0.15067000  0.80868000  0.40637000  1.0
  S  S55  1  0.84960000  0.19128000  0.59368000  1.0
  N  N56  1  0.24262000  0.09148000  0.02471000  1.0
  N  N57  1  0.75796000  0.90870000  0.97516000  1.0
  N  N58  1  0.22964000  0.75017000  0.97040000  1.0
  N  N59  1  0.76991000  0.24989000  0.02952000  1.0
  N  N60  1  0.27231000  0.97191000  0.15216000  1.0
  N  N61  1  0.72461000  0.02789000  0.84775000  1.0
  O  O62  1  0.62417000  0.83303000  0.18343000  1.0
  O  O63  1  0.37588000  0.16718000  0.81672000  1.0
  O  O64  1  0.12067000  0.66564000  0.36447000  1.0
  O  O65  1  0.87936000  0.33428000  0.63545000  1.0
  O  O66  1  0.64075000  0.62894000  0.21760000  1.0
  O  O67  1  0.35922000  0.37119000  0.78246000  1.0
  O  O68  1  0.29221000  0.86585000  0.33914000  1.0
  O  O69  1  0.70837000  0.13408000  0.66116000  1.0
  O  O70  1  0.89521000  0.71944000  0.12161000  1.0
  O  O71  1  0.10455000  0.28057000  0.87829000  1.0
  O  O72  1  0.25738000  0.62115000  0.14960000  1.0
  O  O73  1  0.74258000  0.37865000  0.85027000  1.0
  O  O74  1  0.21958000  0.87981000  0.54147000  1.0
  O  O75  1  0.78024000  0.11999000  0.45862000  1.0
