# generated using pymatgen
data_CuH4C3BrN
_symmetry_space_group_name_H-M   'P 1'
_cell_length_a   3.99337000
_cell_length_b   12.57190000
_cell_length_c   17.64130000
_cell_angle_alpha   89.99970000
_cell_angle_beta   89.99950000
_cell_angle_gamma   92.03360000
_symmetry_Int_Tables_number   1
_chemical_formula_structural   CuH4C3BrN
_chemical_formula_sum   'Cu8 H32 C24 Br8 N8'
_cell_volume   885.11040200
_cell_formula_units_Z   8
loop_
 _symmetry_equiv_pos_site_id
 _symmetry_equiv_pos_as_xyz
  1  'x, y, z'
loop_
 _atom_site_type_symbol
 _atom_site_label
 _atom_site_symmetry_multiplicity
 _atom_site_fract_x
 _atom_site_fract_y
 _atom_site_fract_z
 _atom_site_occupancy
  Cu  Cu0  1  0.83882000  0.29709000  0.55529000  1.0
  Cu  Cu1  1  0.66117000  0.20291000  0.05528000  1.0
  Cu  Cu2  1  0.16118000  0.70291000  0.44472000  1.0
  Cu  Cu3  1  0.33882000  0.79709000  0.94472000  1.0
  Cu  Cu4  1  0.49979000  0.23308000  0.67530000  1.0
  Cu  Cu5  1  0.00018000  0.26692000  0.17530000  1.0
  Cu  Cu6  1  0.50020000  0.76693000  0.32469000  1.0
  Cu  Cu7  1  0.99980000  0.73308000  0.82470000  1.0
  H  H8  1  0.26755000  0.40494000  0.29752000  1.0
  H  H9  1  0.23246000  0.09505000  0.79752000  1.0
  H  H10  1  0.73246000  0.59505000  0.70248000  1.0
  H  H11  1  0.76756000  0.90495000  0.20248000  1.0
  H  H12  1  0.18882000  0.41913000  0.43760000  1.0
  H  H13  1  0.31118000  0.08087000  0.93761000  1.0
  H  H14  1  0.81119000  0.58087000  0.56240000  1.0
  H  H15  1  0.68884000  0.91913000  0.06239000  1.0
  H  H16  1  0.72782000  0.05018000  0.46461000  1.0
  H  H17  1  0.77217000  0.44982000  0.96460000  1.0
  H  H18  1  0.27219000  0.94982000  0.53539000  1.0
  H  H19  1  0.22782000  0.55018000  0.03539000  1.0
  H  H20  1  0.35373000  0.07516000  0.41627000  1.0
  H  H21  1  0.14626000  0.42484000  0.91626000  1.0
  H  H22  1  0.64628000  0.92484000  0.58374000  1.0
  H  H23  1  0.85374000  0.57516000  0.08374000  1.0
  H  H24  1  0.45758000  0.14648000  0.50155000  1.0
  H  H25  1  0.04239000  0.35352000  0.00154000  1.0
  H  H26  1  0.54242000  0.85352000  0.49845000  1.0
  H  H27  1  0.95760000  0.64648000  0.99845000  1.0
  H  H28  1  0.62018000  0.12165000  0.22112000  1.0
  H  H29  1  0.87978000  0.37835000  0.72111000  1.0
  H  H30  1  0.37980000  0.87835000  0.77889000  1.0
  H  H31  1  0.12021000  0.62165000  0.27889000  1.0
  H  H32  1  0.37314000  0.08002000  0.30055000  1.0
  H  H33  1  0.12684000  0.41998000  0.80054000  1.0
  H  H34  1  0.62685000  0.91998000  0.69946000  1.0
  H  H35  1  0.87317000  0.58003000  0.19946000  1.0
  H  H36  1  0.77374000  0.02929000  0.28850000  1.0
  H  H37  1  0.72623000  0.47070000  0.78850000  1.0
  H  H38  1  0.22624000  0.97070000  0.71150000  1.0
  H  H39  1  0.27377000  0.52930000  0.21150000  1.0
  C  C40  1  0.74519000  0.19753000  0.40517000  1.0
  C  C41  1  0.75479000  0.30246000  0.90517000  1.0
  C  C42  1  0.25482000  0.80247000  0.59483000  1.0
  C  C43  1  0.24521000  0.69754000  0.09483000  1.0
  C  C44  1  0.78320000  0.19091000  0.32587000  1.0
  C  C45  1  0.71678000  0.30909000  0.82586000  1.0
  C  C46  1  0.21680000  0.80909000  0.67413000  1.0
  C  C47  1  0.28322000  0.69092000  0.17413000  1.0
  C  C48  1  0.11415000  0.34596000  0.32818000  1.0
  C  C49  1  0.38585000  0.15404000  0.82817000  1.0
  C  C50  1  0.88585000  0.65404000  0.67183000  1.0
  C  C51  1  0.61418000  0.84596000  0.17182000  1.0
  C  C52  1  0.07199000  0.35356000  0.40567000  1.0
  C  C53  1  0.42801000  0.14643000  0.90567000  1.0
  C  C54  1  0.92802000  0.64644000  0.59432000  1.0
  C  C55  1  0.57201000  0.85356000  0.09432000  1.0
  C  C56  1  0.55758000  0.11355000  0.44890000  1.0
  C  C57  1  0.94240000  0.38645000  0.94889000  1.0
  C  C58  1  0.44242000  0.88645000  0.55110000  1.0
  C  C59  1  0.05760000  0.61356000  0.05110000  1.0
  C  C60  1  0.62768000  0.10133000  0.28150000  1.0
  C  C61  1  0.87229000  0.39866000  0.78149000  1.0
  C  C62  1  0.37231000  0.89866000  0.71851000  1.0
  C  C63  1  0.12771000  0.60134000  0.21851000  1.0
  Br  Br64  1  0.97868000  0.12979000  0.63039000  1.0
  Br  Br65  1  0.52131000  0.37021000  0.13039000  1.0
  Br  Br66  1  0.02132000  0.87021000  0.36961000  1.0
  Br  Br67  1  0.47867000  0.62979000  0.86961000  1.0
  Br  Br68  1  0.37526000  0.40021000  0.60081000  1.0
  Br  Br69  1  0.12471000  0.09979000  0.10081000  1.0
  Br  Br70  1  0.62471000  0.59979000  0.39919000  1.0
  Br  Br71  1  0.87529000  0.90022000  0.89918000  1.0
  N  N72  1  0.88855000  0.27973000  0.44479000  1.0
  N  N73  1  0.61143000  0.22027000  0.94479000  1.0
  N  N74  1  0.11144000  0.72028000  0.55521000  1.0
  N  N75  1  0.38858000  0.77972000  0.05521000  1.0
  N  N76  1  0.96989000  0.26550000  0.28750000  1.0
  N  N77  1  0.53010000  0.23449000  0.78750000  1.0
  N  N78  1  0.03011000  0.73448000  0.71250000  1.0
  N  N79  1  0.46992000  0.76552000  0.21250000  1.0
