# generated using pymatgen
data_Al6H51C100N7O36
_symmetry_space_group_name_H-M   'P 1'
_cell_length_a   12.68270000
_cell_length_b   12.83810000
_cell_length_c   27.69990000
_cell_angle_alpha   89.63630000
_cell_angle_beta   89.14840000
_cell_angle_gamma   119.28420000
_symmetry_Int_Tables_number   1
_chemical_formula_structural   Al6H51C100N7O36
_chemical_formula_sum   'Al6 H51 C100 N7 O36'
_cell_volume   3932.85487658
_cell_formula_units_Z   1
loop_
 _symmetry_equiv_pos_site_id
 _symmetry_equiv_pos_as_xyz
  1  'x, y, z'
loop_
 _atom_site_type_symbol
 _atom_site_label
 _atom_site_symmetry_multiplicity
 _atom_site_fract_x
 _atom_site_fract_y
 _atom_site_fract_z
 _atom_site_occupancy
  Al  Al0  1  0.83232000  0.40841000  0.49917000  1.0
  Al  Al1  1  0.09724000  0.43706000  0.50175000  1.0
  Al  Al2  1  0.07649000  0.66023000  0.49784000  1.0
  Al  Al3  1  0.83211000  0.90996000  0.98563000  1.0
  Al  Al4  1  0.57277000  0.67346000  0.98371000  1.0
  Al  Al5  1  0.58026000  0.90965000  0.98647000  1.0
  H  H6  1  0.25353000  0.45592000  0.21072000  1.0
  H  H7  1  0.47499000  0.61098000  0.85602000  1.0
  H  H8  1  0.44603000  0.58792000  0.27462000  1.0
  H  H9  1  0.32799000  0.52533000  0.61892000  1.0
  H  H10  1  0.41400000  0.47967000  0.69028000  1.0
  H  H11  1  0.22592000  0.89012000  0.70452000  1.0
  H  H12  1  0.20300000  0.78181000  0.62782000  1.0
  H  H13  1  0.89434000  0.87498000  0.85588000  1.0
  H  H14  1  0.98760000  0.97071000  0.77713000  1.0
  H  H15  1  0.10506000  0.52481000  0.26524000  1.0
  H  H16  1  0.02756000  0.95497000  0.69232000  1.0
  H  H17  1  0.86995000  0.50858000  0.19559000  1.0
  H  H18  1  0.66137000  0.49425000  0.86706000  1.0
  H  H19  1  0.64254000  0.36525000  0.79572000  1.0
  H  H20  1  0.66650000  0.34968000  0.70950000  1.0
  H  H21  1  0.71335000  0.19883000  0.61879000  1.0
  H  H22  1  0.53690000  0.08481000  0.77668000  1.0
  H  H23  1  0.57044000  0.11878000  0.68957000  1.0
  H  H24  1  0.18611000  0.72990000  0.20386000  1.0
  H  H25  1  0.17315000  0.33825000  0.71970000  1.0
  H  H26  1  0.09258000  0.32529000  0.63706000  1.0
  H  H27  1  0.95983000  0.85162000  0.20648000  1.0
  H  H28  1  0.69307000  0.44717000  0.27132000  1.0
  H  H29  1  0.78248000  0.79068000  0.28161000  1.0
  H  H30  1  0.03712000  0.70192000  0.25192000  1.0
  H  H31  1  0.03440000  0.47138000  0.12806000  1.0
  H  H32  1  0.50665000  0.51103000  0.81364000  1.0
  H  H33  1  0.50238000  0.44812000  0.76083000  1.0
  H  H34  1  0.09715000  0.79853000  0.88698000  1.0
  H  H35  1  0.24761000  0.07641000  0.78842000  1.0
  H  H36  1  0.04828000  0.83459000  0.58117000  1.0
  H  H37  1  0.07137000  0.92441000  0.63191000  1.0
  H  H38  1  0.71111000  0.42015000  0.58632000  1.0
  H  H39  1  0.61574000  0.59813000  0.22656000  1.0
  H  H40  1  0.64410000  0.36306000  0.64308000  1.0
  H  H41  1  0.52306000  0.07625000  0.84403000  1.0
  H  H42  1  0.58095000  0.06833000  0.89931000  1.0
  H  H43  1  0.07924000  0.16768000  0.86027000  1.0
  H  H44  1  0.97756000  0.09858000  0.90924000  1.0
  H  H45  1  0.24501000  0.35036000  0.79470000  1.0
  H  H46  1  0.16188000  0.33767000  0.84388000  1.0
  H  H47  1  0.39934000  0.94738000  0.24861000  1.0
  H  H48  1  0.43145000  0.90715000  0.30198000  1.0
  H  H49  1  0.65002000  0.93218000  0.16109000  1.0
  H  H50  1  0.65295000  0.14821000  0.22949000  1.0
  H  H51  1  0.71994000  0.02537000  0.29814000  1.0
  H  H52  1  0.85068000  0.36784000  0.25779000  1.0
  H  H53  1  0.06619000  0.22141000  0.25427000  1.0
  H  H54  1  0.86590000  0.99944000  0.22721000  1.0
  H  H55  1  0.62782000  0.33353000  0.47959000  1.0
  H  H56  1  0.03714000  0.00740000  0.00961000  1.0
  C  C57  1  0.93691000  0.30060000  0.43125000  1.0
  C  C58  1  0.29228000  0.65261000  0.33975000  1.0
  C  C59  1  0.55840000  0.81525000  0.21115000  1.0
  C  C60  1  0.80243000  0.72854000  0.26219000  1.0
  C  C61  1  0.23014000  0.62374000  0.43233000  1.0
  C  C62  1  0.90083000  0.76207000  0.22144000  1.0
  C  C63  1  0.76550000  0.66513000  0.09859000  1.0
  C  C64  1  0.88111000  0.63589000  0.37995000  1.0
  C  C65  1  0.70922000  0.62023000  0.23269000  1.0
  C  C66  1  0.80683000  0.65370000  0.19063000  1.0
  C  C67  1  0.75193000  0.53682000  0.25641000  1.0
  C  C68  1  0.84555000  0.64502000  0.28724000  1.0
  C  C69  1  0.27647000  0.64677000  0.38349000  1.0
  C  C70  1  0.85042000  0.57037000  0.21563000  1.0
  C  C71  1  0.94353000  0.67881000  0.24533000  1.0
  C  C72  1  0.78491000  0.65756000  0.14107000  1.0
  C  C73  1  0.90321000  0.61052000  0.42799000  1.0
  C  C74  1  0.86546000  0.64161000  0.33696000  1.0
  C  C75  1  0.78099000  0.09556000  0.27297000  1.0
  C  C76  1  0.74441000  0.16387000  0.23587000  1.0
  C  C77  1  0.77220000  0.08344000  0.10560000  1.0
  C  C78  1  0.92815000  0.26418000  0.38174000  1.0
  C  C79  1  0.86425000  0.08196000  0.23450000  1.0
  C  C80  1  0.43280000  0.72922000  0.22460000  1.0
  C  C81  1  0.82512000  0.14780000  0.19604000  1.0
  C  C82  1  0.97362000  0.20357000  0.24918000  1.0
  C  C83  1  0.89156000  0.21815000  0.28918000  1.0
  C  C84  1  0.93777000  0.27227000  0.21223000  1.0
  C  C85  1  0.92654000  0.30246000  0.57191000  1.0
  C  C86  1  0.85379000  0.28573000  0.25074000  1.0
  C  C87  1  0.79624000  0.11438000  0.14742000  1.0
  C  C88  1  0.91662000  0.24700000  0.33842000  1.0
  C  C89  1  0.31373000  0.58863000  0.64026000  1.0
  C  C90  1  0.34395000  0.60352000  0.68936000  1.0
  C  C91  1  0.32340000  0.65818000  0.18947000  1.0
  C  C92  1  0.39491000  0.62960000  0.78957000  1.0
  C  C93  1  0.41966000  0.55002000  0.76068000  1.0
  C  C94  1  0.39501000  0.53947000  0.71205000  1.0
  C  C95  1  0.42354000  0.64772000  0.83866000  1.0
  C  C96  1  0.38615000  0.71224000  0.86764000  1.0
  C  C97  1  0.22214000  0.62704000  0.56760000  1.0
  C  C98  1  0.24255000  0.73285000  0.64511000  1.0
  C  C99  1  0.26814000  0.74713000  0.69455000  1.0
  C  C100  1  0.31863000  0.68231000  0.71732000  1.0
  C  C101  1  0.25178000  0.83083000  0.72275000  1.0
  C  C102  1  0.34766000  0.76995000  0.25507000  1.0
  C  C103  1  0.27490000  0.84424000  0.77138000  1.0
  C  C104  1  0.31059000  0.76743000  0.79684000  1.0
  C  C105  1  0.34249000  0.69422000  0.76770000  1.0
  C  C106  1  0.31659000  0.76097000  0.84797000  1.0
  C  C107  1  0.26369000  0.65240000  0.61829000  1.0
  C  C108  1  0.94349000  0.74734000  0.64055000  1.0
  C  C109  1  0.90152000  0.61927000  0.56686000  1.0
  C  C110  1  0.91745000  0.75988000  0.68977000  1.0
  C  C111  1  0.87523000  0.77968000  0.78949000  1.0
  C  C112  1  0.94879000  0.88325000  0.76048000  1.0
  C  C113  1  0.30613000  0.65635000  0.28891000  1.0
  C  C114  1  0.97014000  0.87284000  0.71274000  1.0
  C  C115  1  0.85361000  0.78805000  0.83871000  1.0
  C  C116  1  0.77495000  0.68610000  0.86568000  1.0
  C  C117  1  0.78313000  0.53437000  0.64369000  1.0
  C  C118  1  0.77497000  0.54180000  0.69508000  1.0
  C  C119  1  0.83791000  0.65530000  0.71712000  1.0
  C  C120  1  0.70562000  0.43874000  0.72480000  1.0
  C  C121  1  0.38761000  0.61823000  0.25835000  1.0
  C  C122  1  0.69216000  0.44628000  0.77364000  1.0
  C  C123  1  0.74414000  0.56015000  0.79629000  1.0
  C  C124  1  0.24255000  0.69689000  0.21993000  1.0
  C  C125  1  0.81961000  0.66477000  0.76759000  1.0
  C  C126  1  0.72084000  0.57283000  0.84508000  1.0
  C  C127  1  0.87565000  0.63534000  0.61687000  1.0
  C  C128  1  0.78719000  0.21485000  0.64265000  1.0
  C  C129  1  0.76505000  0.18863000  0.69224000  1.0
  C  C130  1  0.72466000  0.14303000  0.79349000  1.0
  C  C131  1  0.62845000  0.12110000  0.76200000  1.0
  C  C132  1  0.64644000  0.14049000  0.71318000  1.0
  C  C133  1  0.28042000  0.54513000  0.22397000  1.0
  C  C134  1  0.70329000  0.11907000  0.84429000  1.0
  C  C135  1  0.19831000  0.58341000  0.25295000  1.0
  C  C136  1  0.79430000  0.11397000  0.87276000  1.0
  C  C137  1  0.00165000  0.28540000  0.65285000  1.0
  C  C138  1  0.98337000  0.26156000  0.70287000  1.0
  C  C139  1  0.86371000  0.21252000  0.72318000  1.0
  C  C140  1  0.08092000  0.29027000  0.73443000  1.0
  C  C141  1  0.06297000  0.26556000  0.78331000  1.0
  C  C142  1  0.94197000  0.20516000  0.80411000  1.0
  C  C143  1  0.84390000  0.18736000  0.77396000  1.0
  C  C144  1  0.91356000  0.15455000  0.85213000  1.0
  C  C145  1  0.36219000  0.68076000  0.09536000  1.0
  C  C146  1  0.33895000  0.66573000  0.13859000  1.0
  C  C147  1  0.90461000  0.26333000  0.62327000  1.0
  C  C148  1  0.74581000  0.70010000  0.05178000  1.0
  C  C149  1  0.42303000  0.71113000  0.04903000  1.0
  C  C150  1  0.74664000  0.03258000  0.05781000  1.0
  C  C151  1  0.74515000  0.70574000  0.91550000  1.0
  C  C152  1  0.43678000  0.73660000  0.91763000  1.0
  C  C153  1  0.76222000  0.05422000  0.91998000  1.0
  C  C154  1  0.01826000  0.35248000  0.17324000  1.0
  C  C155  1  0.23347000  0.77574000  0.88257000  1.0
  C  C156  1  0.28886000  0.95483000  0.79402000  1.0
  N  N157  1  0.45895000  0.47870000  0.78298000  1.0
  N  N158  1  0.03366000  0.84314000  0.61674000  1.0
  N  N159  1  0.70354000  0.43256000  0.62228000  1.0
  N  N160  1  0.59659000  0.09686000  0.86430000  1.0
  N  N161  1  0.99944000  0.14527000  0.87733000  1.0
  N  N162  1  0.16464000  0.29833000  0.81239000  1.0
  N  N163  1  0.37392000  0.88067000  0.27371000  1.0
  O  O164  1  0.82983000  0.50871000  0.44556000  1.0
  O  O165  1  0.44940000  0.81213000  0.02990000  1.0
  O  O166  1  0.64456000  0.00978000  0.03988000  1.0
  O  O167  1  0.85060000  0.31351000  0.44758000  1.0
  O  O168  1  0.82798000  0.01381000  0.93699000  1.0
  O  O169  1  0.82143000  0.79892000  0.93629000  1.0
  O  O170  1  0.63984000  0.62925000  0.93346000  1.0
  O  O171  1  0.45350000  0.65607000  0.93780000  1.0
  O  O172  1  0.47569000  0.84163000  0.93406000  1.0
  O  O173  1  0.66566000  0.03863000  0.94412000  1.0
  O  O174  1  0.65977000  0.82986000  0.98680000  1.0
  O  O175  1  0.21251000  0.53241000  0.54833000  1.0
  O  O176  1  0.03299000  0.32110000  0.45406000  1.0
  O  O177  1  0.21514000  0.52754000  0.45263000  1.0
  O  O178  1  0.20120000  0.69773000  0.45077000  1.0
  O  O179  1  0.99868000  0.69186000  0.44832000  1.0
  O  O180  1  0.83314000  0.52178000  0.54607000  1.0
  O  O181  1  0.84529000  0.31480000  0.55086000  1.0
  O  O182  1  0.02932000  0.32692000  0.55184000  1.0
  O  O183  1  0.10342000  0.34524000  0.15585000  1.0
  O  O184  1  0.98256000  0.43017000  0.15634000  1.0
  O  O185  1  0.22955000  0.75618000  0.92604000  1.0
  O  O186  1  0.19187000  0.69775000  0.54696000  1.0
  O  O187  1  0.15017000  0.79750000  0.86104000  1.0
  O  O188  1  0.35689000  0.00735000  0.82730000  1.0
  O  O189  1  0.22699000  0.00192000  0.77168000  1.0
  O  O190  1  0.64494000  0.83919000  0.23702000  1.0
  O  O191  1  0.56568000  0.87075000  0.16861000  1.0
  O  O192  1  0.99710000  0.70343000  0.54399000  1.0
  O  O193  1  0.00455000  0.50339000  0.49870000  1.0
  O  O194  1  0.82542000  0.01163000  0.03918000  1.0
  O  O195  1  0.82471000  0.80327000  0.03712000  1.0
  O  O196  1  0.64915000  0.62727000  0.02972000  1.0
  O  O197  1  0.45281000  0.63638000  0.03194000  1.0
  O  O198  1  0.67342000  0.32270000  0.50490000  1.0
  O  O199  1  0.99139000  0.99045000  0.98036000  1.0
