# generated using pymatgen
data_CoAgH6C14(NO4)2
_symmetry_space_group_name_H-M   'P 1'
_cell_length_a   6.83269000
_cell_length_b   6.83334000
_cell_length_c   15.00840000
_cell_angle_alpha   76.87900000
_cell_angle_beta   76.86000000
_cell_angle_gamma   89.97420000
_symmetry_Int_Tables_number   1
_chemical_formula_structural   CoAgH6C14(NO4)2
_chemical_formula_sum   'Co2 Ag2 H12 C28 N4 O16'
_cell_volume   663.61345658
_cell_formula_units_Z   2
loop_
 _symmetry_equiv_pos_site_id
 _symmetry_equiv_pos_as_xyz
  1  'x, y, z'
loop_
 _atom_site_type_symbol
 _atom_site_label
 _atom_site_symmetry_multiplicity
 _atom_site_fract_x
 _atom_site_fract_y
 _atom_site_fract_z
 _atom_site_occupancy
  Co  Co0  1  0.12505000  0.37488000  0.25006000  1.0
  Co  Co1  1  0.87494000  0.62511000  0.74994000  1.0
  Ag  Ag2  1  0.62498000  0.87515000  0.24996000  1.0
  Ag  Ag3  1  0.37502000  0.12486000  0.75004000  1.0
  H  H4  1  0.40953000  0.81890000  0.94315000  1.0
  H  H5  1  0.31932000  0.64703000  0.44300000  1.0
  H  H6  1  0.73775000  0.91021000  0.44291000  1.0
  H  H7  1  0.14719000  0.23739000  0.94297000  1.0
  H  H8  1  0.59047000  0.18109000  0.05685000  1.0
  H  H9  1  0.68069000  0.35298000  0.55700000  1.0
  H  H10  1  0.26224000  0.08979000  0.55709000  1.0
  H  H11  1  0.85282000  0.76260000  0.05703000  1.0
  H  H12  1  0.32265000  0.57246000  0.85434000  1.0
  H  H13  1  0.07296000  0.82303000  0.35425000  1.0
  H  H14  1  0.67736000  0.42754000  0.14566000  1.0
  H  H15  1  0.92705000  0.17697000  0.64575000  1.0
  C  C16  1  0.33773000  0.72198000  0.14768000  1.0
  C  C17  1  0.22217000  0.51446000  0.64754000  1.0
  C  C18  1  0.63004000  0.83797000  0.64748000  1.0
  C  C19  1  0.01454000  0.13005000  0.14752000  1.0
  C  C20  1  0.66227000  0.27801000  0.85233000  1.0
  C  C21  1  0.77782000  0.48555000  0.35246000  1.0
  C  C22  1  0.36997000  0.16202000  0.35252000  1.0
  C  C23  1  0.98545000  0.86994000  0.85248000  1.0
  C  C24  1  0.28514000  0.61777000  0.07750000  1.0
  C  C25  1  0.11797000  0.63716000  0.57738000  1.0
  C  C26  1  0.80439000  0.78538000  0.57734000  1.0
  C  C27  1  0.13720000  0.30431000  0.07741000  1.0
  C  C28  1  0.71485000  0.38223000  0.92249000  1.0
  C  C29  1  0.88203000  0.36284000  0.42263000  1.0
  C  C30  1  0.19560000  0.21462000  0.42266000  1.0
  C  C31  1  0.86280000  0.69570000  0.92258000  1.0
  C  C32  1  0.33327000  0.67303000  0.97956000  1.0
  C  C33  1  0.17336000  0.68693000  0.47943000  1.0
  C  C34  1  0.84718000  0.83370000  0.47938000  1.0
  C  C35  1  0.18691000  0.34689000  0.97946000  1.0
  C  C36  1  0.66666667  0.32698000  0.02044000  1.0
  C  C37  1  0.82664000  0.31308000  0.52057000  1.0
  C  C38  1  0.15284000  0.16629000  0.52062000  1.0
  C  C39  1  0.81309000  0.65311000  0.02054000  1.0
  C  C40  1  0.28427000  0.53416000  0.93109000  1.0
  C  C41  1  0.03449000  0.78455000  0.43099000  1.0
  C  C42  1  0.71573000  0.46583000  0.06891000  1.0
  C  C43  1  0.96552000  0.21546000  0.56900000  1.0
  N  N44  1  0.18917000  0.43901000  0.12154000  1.0
  N  N45  1  0.93913000  0.68922000  0.62143000  1.0
  N  N46  1  0.81082000  0.56099000  0.87847000  1.0
  N  N47  1  0.06087000  0.31078000  0.37857000  1.0
  O  O48  1  0.27016000  0.62514000  0.23539000  1.0
  O  O49  1  0.12525000  0.49452000  0.73524000  1.0
  O  O50  1  0.63919000  0.77027000  0.73520000  1.0
  O  O51  1  0.99458000  0.13932000  0.23525000  1.0
  O  O52  1  0.72984000  0.37486000  0.76461000  1.0
  O  O53  1  0.87475000  0.50548000  0.26476000  1.0
  O  O54  1  0.36081000  0.22972000  0.26480000  1.0
  O  O55  1  0.00542000  0.86068000  0.76474000  1.0
  O  O56  1  0.44715000  0.87966000  0.12429000  1.0
  O  O57  1  0.37991000  0.42824000  0.62417000  1.0
  O  O58  1  0.49572000  0.94765000  0.62408000  1.0
  O  O59  1  0.92840000  0.99581000  0.12410000  1.0
  O  O60  1  0.55285000  0.12033000  0.87570000  1.0
  O  O61  1  0.62009000  0.57176000  0.37583000  1.0
  O  O62  1  0.50427000  0.05236000  0.37592000  1.0
  O  O63  1  0.07160000  0.00419000  0.87590000  1.0
