# generated using pymatgen
data_CuH17C19N7F6
_symmetry_space_group_name_H-M   'P 1'
_cell_length_a   11.10730000
_cell_length_b   11.10930000
_cell_length_c   21.25500000
_cell_angle_alpha   89.99980000
_cell_angle_beta   89.99870000
_cell_angle_gamma   62.80700000
_symmetry_Int_Tables_number   1
_chemical_formula_structural   CuH17C19N7F6
_chemical_formula_sum   'Cu4 H68 C76 N28 F24'
_cell_volume   2332.86007542
_cell_formula_units_Z   4
loop_
 _symmetry_equiv_pos_site_id
 _symmetry_equiv_pos_as_xyz
  1  'x, y, z'
loop_
 _atom_site_type_symbol
 _atom_site_label
 _atom_site_symmetry_multiplicity
 _atom_site_fract_x
 _atom_site_fract_y
 _atom_site_fract_z
 _atom_site_occupancy
  Cu  Cu0  1  0.97528000  0.95906000  0.84778000  1.0
  Cu  Cu1  1  0.52476000  0.54090000  0.34780000  1.0
  Cu  Cu2  1  0.02477000  0.04090000  0.15221000  1.0
  Cu  Cu3  1  0.47529000  0.45906000  0.65221000  1.0
  H  H4  1  0.29672000  0.08620000  0.96978000  1.0
  H  H5  1  0.20312000  0.41392000  0.46973000  1.0
  H  H6  1  0.70315000  0.91391000  0.03027000  1.0
  H  H7  1  0.79668000  0.58622000  0.53020000  1.0
  H  H8  1  0.31832000  0.84616000  0.02282000  1.0
  H  H9  1  0.18165000  0.65385000  0.52283000  1.0
  H  H10  1  0.68169000  0.15382000  0.97718000  1.0
  H  H11  1  0.81832000  0.34622000  0.47718000  1.0
  H  H12  1  0.28472000  0.65110000  0.06331000  1.0
  H  H13  1  0.21528000  0.84890000  0.56332000  1.0
  H  H14  1  0.71533000  0.34885000  0.93668000  1.0
  H  H15  1  0.78480000  0.15110000  0.43669000  1.0
  H  H16  1  0.10054000  0.60740000  0.02001000  1.0
  H  H17  1  0.39949000  0.89255000  0.52002000  1.0
  H  H18  1  0.89954000  0.39252000  0.97997000  1.0
  H  H19  1  0.60062000  0.10738000  0.47998000  1.0
  H  H20  1  0.89979000  0.58559000  0.95144000  1.0
  H  H21  1  0.60004000  0.91456000  0.45141000  1.0
  H  H22  1  0.10012000  0.41452000  0.04859000  1.0
  H  H23  1  0.39979000  0.08556000  0.54856000  1.0
  H  H24  1  0.07012000  0.64916000  0.80157000  1.0
  H  H25  1  0.42984000  0.85085000  0.30158000  1.0
  H  H26  1  0.92984000  0.35085000  0.19842000  1.0
  H  H27  1  0.57012000  0.14916000  0.69843000  1.0
  H  H28  1  0.20567000  0.63224000  0.85088000  1.0
  H  H29  1  0.29429000  0.86775000  0.35089000  1.0
  H  H30  1  0.79428000  0.36776000  0.14912000  1.0
  H  H31  1  0.70567000  0.13223000  0.64911000  1.0
  H  H32  1  0.34453000  0.45257000  0.78510000  1.0
  H  H33  1  0.15544000  0.04743000  0.28509000  1.0
  H  H34  1  0.65544000  0.54744000  0.21492000  1.0
  H  H35  1  0.84453000  0.95257000  0.71490000  1.0
  H  H36  1  0.21878000  0.49494000  0.72713000  1.0
  H  H37  1  0.28121000  0.00506000  0.22714000  1.0
  H  H38  1  0.78120000  0.50507000  0.27287000  1.0
  H  H39  1  0.71878000  0.99494000  0.77287000  1.0
  H  H40  1  0.30003000  0.79102000  0.84133000  1.0
  H  H41  1  0.19995000  0.70893000  0.34130000  1.0
  H  H42  1  0.69994000  0.20894000  0.15870000  1.0
  H  H43  1  0.80005000  0.29101000  0.65867000  1.0
  H  H44  1  0.27110000  0.88266000  0.77007000  1.0
  H  H45  1  0.22890000  0.61734000  0.27003000  1.0
  H  H46  1  0.72889000  0.11735000  0.22998000  1.0
  H  H47  1  0.77111000  0.38266000  0.72993000  1.0
  H  H48  1  0.46463000  0.69082000  0.73244000  1.0
  H  H49  1  0.03536000  0.80919000  0.23243000  1.0
  H  H50  1  0.53536000  0.30919000  0.26759000  1.0
  H  H51  1  0.96463000  0.19082000  0.76756000  1.0
  H  H52  1  0.45831000  0.58919000  0.79597000  1.0
  H  H53  1  0.04167000  0.91081000  0.29597000  1.0
  H  H54  1  0.54165000  0.41081000  0.20404000  1.0
  H  H55  1  0.95832000  0.08918000  0.70403000  1.0
  H  H56  1  0.09119000  0.90233000  0.70022000  1.0
  H  H57  1  0.40884000  0.59770000  0.20021000  1.0
  H  H58  1  0.90883000  0.09770000  0.29979000  1.0
  H  H59  1  0.59118000  0.40235000  0.79977000  1.0
  H  H60  1  0.02981000  0.78006000  0.70787000  1.0
  H  H61  1  0.47016000  0.72000000  0.20786000  1.0
  H  H62  1  0.97017000  0.21999000  0.29214000  1.0
  H  H63  1  0.52981000  0.28007000  0.79213000  1.0
  H  H64  1  0.20889000  0.64600000  0.64038000  1.0
  H  H65  1  0.29111000  0.85404000  0.14039000  1.0
  H  H66  1  0.79111000  0.35403000  0.35962000  1.0
  H  H67  1  0.70888000  0.14601000  0.85961000  1.0
  H  H68  1  0.29290000  0.74812000  0.65242000  1.0
  H  H69  1  0.20711000  0.75191000  0.15241000  1.0
  H  H70  1  0.70710000  0.25191000  0.34760000  1.0
  H  H71  1  0.79289000  0.24812000  0.84757000  1.0
  C  C72  1  0.16828000  0.19670000  0.88686000  1.0
  C  C73  1  0.33171000  0.30330000  0.38688000  1.0
  C  C74  1  0.83174000  0.80326000  0.11312000  1.0
  C  C75  1  0.66826000  0.69673000  0.61312000  1.0
  C  C76  1  0.22390000  0.09666000  0.93350000  1.0
  C  C77  1  0.27601000  0.40337000  0.43349000  1.0
  C  C78  1  0.77604000  0.90338000  0.06652000  1.0
  C  C79  1  0.72388000  0.59668000  0.56648000  1.0
  C  C80  1  0.15977000  0.01581000  0.92287000  1.0
  C  C81  1  0.34018000  0.48418000  0.42287000  1.0
  C  C82  1  0.84020000  0.98419000  0.07715000  1.0
  C  C83  1  0.65976000  0.51584000  0.57712000  1.0
  C  C84  1  0.16005000  0.89921000  0.95329000  1.0
  C  C85  1  0.33990000  0.60081000  0.45327000  1.0
  C  C86  1  0.83992000  0.10082000  0.04674000  1.0
  C  C87  1  0.66005000  0.39924000  0.54670000  1.0
  C  C88  1  0.24128000  0.82236000  0.00308000  1.0
  C  C89  1  0.25868000  0.67765000  0.50307000  1.0
  C  C90  1  0.75872000  0.17764000  0.99694000  1.0
  C  C91  1  0.74129000  0.32241000  0.49692000  1.0
  C  C92  1  0.22095000  0.71501000  0.02574000  1.0
  C  C93  1  0.27903000  0.78499000  0.52574000  1.0
  C  C94  1  0.77907000  0.28496000  0.97427000  1.0
  C  C95  1  0.72101000  0.21502000  0.47426000  1.0
  C  C96  1  0.11952000  0.68801000  0.00107000  1.0
  C  C97  1  0.38047000  0.81197000  0.50107000  1.0
  C  C98  1  0.88051000  0.31195000  0.99893000  1.0
  C  C99  1  0.61958000  0.18800000  0.49893000  1.0
  C  C100  1  0.04291000  0.76709000  0.95066000  1.0
  C  C101  1  0.45704000  0.73294000  0.45064000  1.0
  C  C102  1  0.95706000  0.23292000  0.04936000  1.0
  C  C103  1  0.54295000  0.26707000  0.54934000  1.0
  C  C104  1  0.93759000  0.75448000  0.91586000  1.0
  C  C105  1  0.56238000  0.74554000  0.41587000  1.0
  C  C106  1  0.06242000  0.24552000  0.08413000  1.0
  C  C107  1  0.43761000  0.25446000  0.58413000  1.0
  C  C108  1  0.87991000  0.66623000  0.91818000  1.0
  C  C109  1  0.62002000  0.83382000  0.41818000  1.0
  C  C110  1  0.12007000  0.33379000  0.08182000  1.0
  C  C111  1  0.37994000  0.16621000  0.58182000  1.0
  C  C112  1  0.79140000  0.70674000  0.86674000  1.0
  C  C113  1  0.70865000  0.79326000  0.36677000  1.0
  C  C114  1  0.20867000  0.29323000  0.13324000  1.0
  C  C115  1  0.29142000  0.20672000  0.63326000  1.0
  C  C116  1  0.70159000  0.64945000  0.84496000  1.0
  C  C117  1  0.79848000  0.85053000  0.34498000  1.0
  C  C118  1  0.29848000  0.35052000  0.15502000  1.0
  C  C119  1  0.20164000  0.14941000  0.65504000  1.0
  C  C120  1  0.19916000  0.31092000  0.87416000  1.0
  C  C121  1  0.30083000  0.18909000  0.37419000  1.0
  C  C122  1  0.80085000  0.68905000  0.12581000  1.0
  C  C123  1  0.69913000  0.81096000  0.62583000  1.0
  C  C124  1  0.16881000  0.64897000  0.80215000  1.0
  C  C125  1  0.33116000  0.85103000  0.30216000  1.0
  C  C126  1  0.83115000  0.35103000  0.19785000  1.0
  C  C127  1  0.66881000  0.14898000  0.69784000  1.0
  C  C128  1  0.26917000  0.53705000  0.75791000  1.0
  C  C129  1  0.23079000  0.96296000  0.25791000  1.0
  C  C130  1  0.73079000  0.46297000  0.24209000  1.0
  C  C131  1  0.76918000  0.03705000  0.74209000  1.0
  C  C132  1  0.28091000  0.78812000  0.79086000  1.0
  C  C133  1  0.21908000  0.71187000  0.29084000  1.0
  C  C134  1  0.71907000  0.21187000  0.20916000  1.0
  C  C135  1  0.78091000  0.28812000  0.70914000  1.0
  C  C136  1  0.39796000  0.66259000  0.76001000  1.0
  C  C137  1  0.10203000  0.83740000  0.26000000  1.0
  C  C138  1  0.60203000  0.33741000  0.24001000  1.0
  C  C139  1  0.89796000  0.16259000  0.73999000  1.0
  C  C140  1  0.11791000  0.79847000  0.71477000  1.0
  C  C141  1  0.38209000  0.70155000  0.21477000  1.0
  C  C142  1  0.88209000  0.20154000  0.28524000  1.0
  C  C143  1  0.61791000  0.29848000  0.78522000  1.0
  C  C144  1  0.24043000  0.69766000  0.67585000  1.0
  C  C145  1  0.25958000  0.80235000  0.17584000  1.0
  C  C146  1  0.75957000  0.30235000  0.32416000  1.0
  C  C147  1  0.74042000  0.19767000  0.82415000  1.0
  N  N148  1  0.07772000  0.17772000  0.85069000  1.0
  N  N149  1  0.42235000  0.32219000  0.35073000  1.0
  N  N150  1  0.92240000  0.82215000  0.14927000  1.0
  N  N151  1  0.57771000  0.67775000  0.64931000  1.0
  N  N152  1  0.07312000  0.06770000  0.87262000  1.0
  N  N153  1  0.42693000  0.43222000  0.37264000  1.0
  N  N154  1  0.92695000  0.93220000  0.12737000  1.0
  N  N155  1  0.57312000  0.56772000  0.62738000  1.0
  N  N156  1  0.06769000  0.86665000  0.92787000  1.0
  N  N157  1  0.43225000  0.63340000  0.42785000  1.0
  N  N158  1  0.93226000  0.13340000  0.07217000  1.0
  N  N159  1  0.56772000  0.36664000  0.57212000  1.0
  N  N160  1  0.88270000  0.84134000  0.86583000  1.0
  N  N161  1  0.61737000  0.65862000  0.36586000  1.0
  N  N162  1  0.11738000  0.15861000  0.13415000  1.0
  N  N163  1  0.38271000  0.34134000  0.63416000  1.0
  N  N164  1  0.79403000  0.81224000  0.83556000  1.0
  N  N165  1  0.70611000  0.68768000  0.33562000  1.0
  N  N166  1  0.20610000  0.18768000  0.16440000  1.0
  N  N167  1  0.29405000  0.31224000  0.66443000  1.0
  N  N168  1  0.15059000  0.78405000  0.78253000  1.0
  N  N169  1  0.34939000  0.71597000  0.28253000  1.0
  N  N170  1  0.84938000  0.21597000  0.21747000  1.0
  N  N171  1  0.65061000  0.28404000  0.71746000  1.0
  N  N172  1  0.34125000  0.59347000  0.71792000  1.0
  N  N173  1  0.15874000  0.90654000  0.21792000  1.0
  N  N174  1  0.65874000  0.40655000  0.28209000  1.0
  N  N175  1  0.84125000  0.09347000  0.78207000  1.0
  F  F176  1  0.72973000  0.53004000  0.87566000  1.0
  F  F177  1  0.77033000  0.96997000  0.37566000  1.0
  F  F178  1  0.27027000  0.47000000  0.12435000  1.0
  F  F179  1  0.22977000  0.03000000  0.62434000  1.0
  F  F180  1  0.56642000  0.73392000  0.85605000  1.0
  F  F181  1  0.93360000  0.76609000  0.35605000  1.0
  F  F182  1  0.43362000  0.26611000  0.14392000  1.0
  F  F183  1  0.06644000  0.23388000  0.64396000  1.0
  F  F184  1  0.71268000  0.62149000  0.78214000  1.0
  F  F185  1  0.78733000  0.87851000  0.28215000  1.0
  F  F186  1  0.28739000  0.37844000  0.21786000  1.0
  F  F187  1  0.21272000  0.12143000  0.71786000  1.0
  F  F188  1  0.33326000  0.26778000  0.85785000  1.0
  F  F189  1  0.16672000  0.23218000  0.35789000  1.0
  F  F190  1  0.66675000  0.73215000  0.14211000  1.0
  F  F191  1  0.83324000  0.76782000  0.64214000  1.0
  F  F192  1  0.17959000  0.39205000  0.92647000  1.0
  F  F193  1  0.32043000  0.10791000  0.42648000  1.0
  F  F194  1  0.82046000  0.60789000  0.07351000  1.0
  F  F195  1  0.67955000  0.89212000  0.57353000  1.0
  F  F196  1  0.12267000  0.39256000  0.82717000  1.0
  F  F197  1  0.37730000  0.10744000  0.32719000  1.0
  F  F198  1  0.87731000  0.60743000  0.17281000  1.0
  F  F199  1  0.62263000  0.89258000  0.67282000  1.0
