# generated using pymatgen
data_CoH12(C8O3)2
_symmetry_space_group_name_H-M   'P 1'
_cell_length_a   7.33805000
_cell_length_b   8.50556000
_cell_length_c   12.45453196
_cell_angle_alpha   109.97280119
_cell_angle_beta   98.79327128
_cell_angle_gamma   89.99040000
_symmetry_Int_Tables_number   1
_chemical_formula_structural   CoH12(C8O3)2
_chemical_formula_sum   'Co2 H24 C32 O12'
_cell_volume   720.86514401
_cell_formula_units_Z   2
loop_
 _symmetry_equiv_pos_site_id
 _symmetry_equiv_pos_as_xyz
  1  'x, y, z'
loop_
 _atom_site_type_symbol
 _atom_site_label
 _atom_site_symmetry_multiplicity
 _atom_site_fract_x
 _atom_site_fract_y
 _atom_site_fract_z
 _atom_site_occupancy
  Co  Co0  1  0.25005000  0.09167000  0.00003000  1.0
  Co  Co1  1  0.74995000  0.90833000  0.99997000  1.0
  H  H2  1  0.84950000  0.28744000  0.33063000  1.0
  H  H3  1  0.65046000  0.95686000  0.66941000  1.0
  H  H4  1  0.15050000  0.71256000  0.66937000  1.0
  H  H5  1  0.34954000  0.04314000  0.33059000  1.0
  H  H6  1  0.44034000  0.59671000  0.37070000  1.0
  H  H7  1  0.05959000  0.22607000  0.62933000  1.0
  H  H8  1  0.55966000  0.40329000  0.62930000  1.0
  H  H9  1  0.94042000  0.77393000  0.37067000  1.0
  H  H10  1  0.28503000  0.65807000  0.53686000  1.0
  H  H11  1  0.21499000  0.12133000  0.46322000  1.0
  H  H12  1  0.71497000  0.34193000  0.46314000  1.0
  H  H13  1  0.78501000  0.87867000  0.53678000  1.0
  H  H14  1  0.46891000  0.60210000  0.19621000  1.0
  H  H15  1  0.03102000  0.40599000  0.80382000  1.0
  H  H16  1  0.53109000  0.39790000  0.80379000  1.0
  H  H17  1  0.96898000  0.59402000  0.19619000  1.0
  H  H18  1  0.52347000  0.42070000  0.08145000  1.0
  H  H19  1  0.97641000  0.33935000  0.91858000  1.0
  H  H20  1  0.47653000  0.57931000  0.91856000  1.0
  H  H21  1  0.02359000  0.66065000  0.08142000  1.0
  H  H22  1  0.59209000  0.43685000  0.22919000  1.0
  H  H23  1  0.90786000  0.20777000  0.77083000  1.0
  H  H24  1  0.40791000  0.56315000  0.77081000  1.0
  H  H25  1  0.09214000  0.79223000  0.22917000  1.0
  C  C26  1  0.04930000  0.48109000  0.44976000  1.0
  C  C27  1  0.45071000  0.03141000  0.55026000  1.0
  C  C28  1  0.95070000  0.51891000  0.55024000  1.0
  C  C29  1  0.54929000  0.96859000  0.44974000  1.0
  C  C30  1  0.97764000  0.36029000  0.34257000  1.0
  C  C31  1  0.52233000  0.01780000  0.65745000  1.0
  C  C32  1  0.02236000  0.63971000  0.65743000  1.0
  C  C33  1  0.47767000  0.98220000  0.34255000  1.0
  C  C34  1  0.06231000  0.32503000  0.24418000  1.0
  C  C35  1  0.43765000  0.08094000  0.75585000  1.0
  C  C36  1  0.93769000  0.67497000  0.75582000  1.0
  C  C37  1  0.56235000  0.91907000  0.24415000  1.0
  C  C38  1  0.23203000  0.41178000  0.25317000  1.0
  C  C39  1  0.26790000  0.15872000  0.74692000  1.0
  C  C40  1  0.76797000  0.58822000  0.74683000  1.0
  C  C41  1  0.73210000  0.84128000  0.25308000  1.0
  C  C42  1  0.30950000  0.52911000  0.36081000  1.0
  C  C43  1  0.19052000  0.16848000  0.63929000  1.0
  C  C44  1  0.69049000  0.47089000  0.63919000  1.0
  C  C45  1  0.80948000  0.83152000  0.36071000  1.0
  C  C46  1  0.21925000  0.56354000  0.45620000  1.0
  C  C47  1  0.28081000  0.10755000  0.54389000  1.0
  C  C48  1  0.78075000  0.43645000  0.54380000  1.0
  C  C49  1  0.71919000  0.89245000  0.45611000  1.0
  C  C50  1  0.96633000  0.19836000  0.13494000  1.0
  C  C51  1  0.53377000  0.06348000  0.86503000  1.0
  C  C52  1  0.03367000  0.80164000  0.86506000  1.0
  C  C53  1  0.46623000  0.93653000  0.13497000  1.0
  C  C54  1  0.48556000  0.46666000  0.16785000  1.0
  C  C55  1  0.01433000  0.29895000  0.83220000  1.0
  C  C56  1  0.51444000  0.53334000  0.83215000  1.0
  C  C57  1  0.98567000  0.70105000  0.16780000  1.0
  O  O58  1  0.83398000  0.10746000  0.14232000  1.0
  O  O59  1  0.66623000  0.96530000  0.85766000  1.0
  O  O60  1  0.16602000  0.89254000  0.85768000  1.0
  O  O61  1  0.33377000  0.03470000  0.14234000  1.0
  O  O62  1  0.01278000  0.18254000  0.03664000  1.0
  O  O63  1  0.48725000  0.14595000  0.96333000  1.0
  O  O64  1  0.98722000  0.81746000  0.96336000  1.0
  O  O65  1  0.51275000  0.85405000  0.03667000  1.0
  O  O66  1  0.31250000  0.37880000  0.15676000  1.0
  O  O67  1  0.18738000  0.22210000  0.84330000  1.0
  O  O68  1  0.68750000  0.62120000  0.84324000  1.0
  O  O69  1  0.81262000  0.77790000  0.15670000  1.0
