# generated using pymatgen
data_MnH34C38(N2Cl)2
_symmetry_space_group_name_H-M   'P 1'
_cell_length_a   12.95330000
_cell_length_b   12.95330000
_cell_length_c   25.94600000
_cell_angle_alpha   81.29410000
_cell_angle_beta   81.29400000
_cell_angle_gamma   72.13470000
_symmetry_Int_Tables_number   1
_chemical_formula_structural   MnH34C38(N2Cl)2
_chemical_formula_sum   'Mn4 H136 C152 N16 Cl8'
_cell_volume   4070.21278002
_cell_formula_units_Z   4
loop_
 _symmetry_equiv_pos_site_id
 _symmetry_equiv_pos_as_xyz
  1  'x, y, z'
loop_
 _atom_site_type_symbol
 _atom_site_label
 _atom_site_symmetry_multiplicity
 _atom_site_fract_x
 _atom_site_fract_y
 _atom_site_fract_z
 _atom_site_occupancy
  Mn  Mn0  1  0.79359000  0.28349000  0.06385000  1.0
  Mn  Mn1  1  0.71651000  0.20641000  0.43614000  1.0
  Mn  Mn2  1  0.20642000  0.71651000  0.93615000  1.0
  Mn  Mn3  1  0.28349000  0.79358000  0.56384000  1.0
  H  H4  1  0.60919000  0.44391000  0.00072000  1.0
  H  H5  1  0.55608000  0.39082000  0.49928000  1.0
  H  H6  1  0.39081000  0.55608000  0.99928000  1.0
  H  H7  1  0.44391000  0.60919000  0.50072000  1.0
  H  H8  1  0.56922000  0.62349000  0.94482000  1.0
  H  H9  1  0.37651000  0.43078000  0.55518000  1.0
  H  H10  1  0.43078000  0.37650000  0.05518000  1.0
  H  H11  1  0.62349000  0.56922000  0.44482000  1.0
  H  H12  1  0.88084000  0.64617000  0.97526000  1.0
  H  H13  1  0.35383000  0.11915000  0.52474000  1.0
  H  H14  1  0.11916000  0.35383000  0.02474000  1.0
  H  H15  1  0.64617000  0.88085000  0.47526000  1.0
  H  H16  1  0.91227000  0.45906000  0.02416000  1.0
  H  H17  1  0.54095000  0.08773000  0.47584000  1.0
  H  H18  1  0.08773000  0.54095000  0.97584000  1.0
  H  H19  1  0.45905000  0.91227000  0.52416000  1.0
  H  H20  1  0.43561000  0.67546000  0.64946000  1.0
  H  H21  1  0.32455000  0.56439000  0.85054000  1.0
  H  H22  1  0.56438000  0.32455000  0.35054000  1.0
  H  H23  1  0.67545000  0.43562000  0.14946000  1.0
  H  H24  1  0.57658000  0.70478000  0.69780000  1.0
  H  H25  1  0.29523000  0.42341000  0.80220000  1.0
  H  H26  1  0.42341000  0.29523000  0.30220000  1.0
  H  H27  1  0.70477000  0.57659000  0.19780000  1.0
  H  H28  1  0.43829000  0.05098000  0.65823000  1.0
  H  H29  1  0.94902000  0.56171000  0.84177000  1.0
  H  H30  1  0.56171000  0.94903000  0.34177000  1.0
  H  H31  1  0.05098000  0.43829000  0.15823000  1.0
  H  H32  1  0.30565000  0.00690000  0.61074000  1.0
  H  H33  1  0.99310000  0.69436000  0.88927000  1.0
  H  H34  1  0.69436000  0.99311000  0.38926000  1.0
  H  H35  1  0.00690000  0.30564000  0.11073000  1.0
  H  H36  1  0.11084000  0.98962000  0.61865000  1.0
  H  H37  1  0.01039000  0.88916000  0.88135000  1.0
  H  H38  1  0.88916000  0.01038000  0.38134000  1.0
  H  H39  1  0.98962000  0.11084000  0.11866000  1.0
  H  H40  1  0.92536000  0.03301000  0.66997000  1.0
  H  H41  1  0.96699000  0.07464000  0.83003000  1.0
  H  H42  1  0.07464000  0.96698000  0.33003000  1.0
  H  H43  1  0.03302000  0.92536000  0.16997000  1.0
  H  H44  1  0.92438000  0.70523000  0.65730000  1.0
  H  H45  1  0.29477000  0.07562000  0.84270000  1.0
  H  H46  1  0.07562000  0.29477000  0.34270000  1.0
  H  H47  1  0.70523000  0.92438000  0.15730000  1.0
  H  H48  1  0.11189000  0.67462000  0.60842000  1.0
  H  H49  1  0.32538000  0.88811000  0.89158000  1.0
  H  H50  1  0.88811000  0.32538000  0.39158000  1.0
  H  H51  1  0.67462000  0.11189000  0.10842000  1.0
  H  H52  1  0.91329000  0.10760000  0.99059000  1.0
  H  H53  1  0.89240000  0.08671000  0.50941000  1.0
  H  H54  1  0.08671000  0.89240000  0.00941000  1.0
  H  H55  1  0.10760000  0.91329000  0.49059000  1.0
  H  H56  1  0.88054000  0.96193000  0.94728000  1.0
  H  H57  1  0.03806000  0.11946000  0.55272000  1.0
  H  H58  1  0.11946000  0.03807000  0.05272000  1.0
  H  H59  1  0.96194000  0.88054000  0.44728000  1.0
  H  H60  1  0.53756000  0.13927000  0.96248000  1.0
  H  H61  1  0.86073000  0.46244000  0.53752000  1.0
  H  H62  1  0.46244000  0.86073000  0.03752000  1.0
  H  H63  1  0.13927000  0.53756000  0.46248000  1.0
  H  H64  1  0.58380000  0.26985000  0.01021000  1.0
  H  H65  1  0.73015000  0.41620000  0.48979000  1.0
  H  H66  1  0.41620000  0.73015000  0.98979000  1.0
  H  H67  1  0.26985000  0.58380000  0.51021000  1.0
  H  H68  1  0.75154000  0.60021000  0.86520000  1.0
  H  H69  1  0.39979000  0.24846000  0.63480000  1.0
  H  H70  1  0.24846000  0.39979000  0.13480000  1.0
  H  H71  1  0.60021000  0.75154000  0.36521000  1.0
  H  H72  1  0.76141000  0.68362000  0.80443000  1.0
  H  H73  1  0.31638000  0.23860000  0.69557000  1.0
  H  H74  1  0.23859000  0.31638000  0.19557000  1.0
  H  H75  1  0.68362000  0.76141000  0.30443000  1.0
  H  H76  1  0.63286000  0.67231000  0.83499000  1.0
  H  H77  1  0.32769000  0.36714000  0.66501000  1.0
  H  H78  1  0.36714000  0.32768000  0.16501000  1.0
  H  H79  1  0.67232000  0.63286000  0.33499000  1.0
  H  H80  1  0.66895000  0.07911000  0.79765000  1.0
  H  H81  1  0.92089000  0.33105000  0.70235000  1.0
  H  H82  1  0.33105000  0.92089000  0.20235000  1.0
  H  H83  1  0.07911000  0.66895000  0.29765000  1.0
  H  H84  1  0.75231000  0.10176000  0.84082000  1.0
  H  H85  1  0.89824000  0.24769000  0.65918000  1.0
  H  H86  1  0.24769000  0.89824000  0.15918000  1.0
  H  H87  1  0.10176000  0.75231000  0.34082000  1.0
  H  H88  1  0.60936000  0.14252000  0.85568000  1.0
  H  H89  1  0.85748000  0.39064000  0.64432000  1.0
  H  H90  1  0.39064000  0.85748000  0.14432000  1.0
  H  H91  1  0.14252000  0.60936000  0.35568000  1.0
  H  H92  1  0.66860000  0.77098000  0.03115000  1.0
  H  H93  1  0.22901000  0.33140000  0.46885000  1.0
  H  H94  1  0.33139000  0.22901000  0.96885000  1.0
  H  H95  1  0.77099000  0.66861000  0.53115000  1.0
  H  H96  1  0.65502000  0.91295000  0.02825000  1.0
  H  H97  1  0.08705000  0.34498000  0.47175000  1.0
  H  H98  1  0.34498000  0.08705000  0.97175000  1.0
  H  H99  1  0.91295000  0.65502000  0.52825000  1.0
  H  H100  1  0.78595000  0.81762000  0.02000000  1.0
  H  H101  1  0.18238000  0.21405000  0.48000000  1.0
  H  H102  1  0.21404000  0.18238000  0.98000000  1.0
  H  H103  1  0.81762000  0.78596000  0.52000000  1.0
  H  H104  1  0.63984000  0.92177000  0.60116000  1.0
  H  H105  1  0.07822000  0.36016000  0.89884000  1.0
  H  H106  1  0.36016000  0.07823000  0.39884000  1.0
  H  H107  1  0.92177000  0.63984000  0.10116000  1.0
  H  H108  1  0.76400000  0.95466000  0.59627000  1.0
  H  H109  1  0.04534000  0.23600000  0.90373000  1.0
  H  H110  1  0.23600000  0.04534000  0.40373000  1.0
  H  H111  1  0.95466000  0.76400000  0.09627000  1.0
  H  H112  1  0.76500000  0.81733000  0.60300000  1.0
  H  H113  1  0.18267000  0.23500000  0.89700000  1.0
  H  H114  1  0.23500000  0.18267000  0.39700000  1.0
  H  H115  1  0.81733000  0.76500000  0.10300000  1.0
  H  H116  1  0.42592000  0.92782000  0.77066000  1.0
  H  H117  1  0.07218000  0.57407000  0.72934000  1.0
  H  H118  1  0.57408000  0.07218000  0.22934000  1.0
  H  H119  1  0.92782000  0.42593000  0.27066000  1.0
  H  H120  1  0.49216000  0.82446000  0.81764000  1.0
  H  H121  1  0.17554000  0.50785000  0.68236000  1.0
  H  H122  1  0.50785000  0.17554000  0.18236000  1.0
  H  H123  1  0.82446000  0.49215000  0.31764000  1.0
  H  H124  1  0.47990000  0.96187000  0.82283000  1.0
  H  H125  1  0.03813000  0.52010000  0.67717000  1.0
  H  H126  1  0.52010000  0.03814000  0.17717000  1.0
  H  H127  1  0.96186000  0.47990000  0.32283000  1.0
  H  H128  1  0.88255000  0.85338000  0.82267000  1.0
  H  H129  1  0.14662000  0.11745000  0.67732000  1.0
  H  H130  1  0.11745000  0.14662000  0.17733000  1.0
  H  H131  1  0.85338000  0.88255000  0.32267000  1.0
  H  H132  1  0.96440000  0.80030000  0.76587000  1.0
  H  H133  1  0.19970000  0.03560000  0.73413000  1.0
  H  H134  1  0.03560000  0.19971000  0.23413000  1.0
  H  H135  1  0.80030000  0.96440000  0.26587000  1.0
  H  H136  1  0.92634000  0.94150000  0.77066000  1.0
  H  H137  1  0.05850000  0.07366000  0.72934000  1.0
  H  H138  1  0.07366000  0.05850000  0.22934000  1.0
  H  H139  1  0.94150000  0.92634000  0.27066000  1.0
  C  C140  1  0.66815000  0.49056000  0.99293000  1.0
  C  C141  1  0.50944000  0.33185000  0.50706000  1.0
  C  C142  1  0.33185000  0.50944000  0.00707000  1.0
  C  C143  1  0.49056000  0.66815000  0.49293000  1.0
  C  C144  1  0.64537000  0.59180000  0.96292000  1.0
  C  C145  1  0.40820000  0.35463000  0.53708000  1.0
  C  C146  1  0.35463000  0.40820000  0.03708000  1.0
  C  C147  1  0.59180000  0.64537000  0.46292000  1.0
  C  C148  1  0.72139000  0.65114000  0.95625000  1.0
  C  C149  1  0.34885000  0.27861000  0.54375000  1.0
  C  C150  1  0.27861000  0.34886000  0.04375000  1.0
  C  C151  1  0.65114000  0.72139000  0.45625000  1.0
  C  C152  1  0.81899000  0.60320000  0.97910000  1.0
  C  C153  1  0.39680000  0.18101000  0.52090000  1.0
  C  C154  1  0.18101000  0.39681000  0.02090000  1.0
  C  C155  1  0.60320000  0.81899000  0.47910000  1.0
  C  C156  1  0.83622000  0.50036000  0.00713000  1.0
  C  C157  1  0.49963000  0.16378000  0.49287000  1.0
  C  C158  1  0.16377000  0.49964000  0.99288000  1.0
  C  C159  1  0.50036000  0.83622000  0.50713000  1.0
  C  C160  1  0.43947000  0.75727000  0.65272000  1.0
  C  C161  1  0.24273000  0.56053000  0.84728000  1.0
  C  C162  1  0.56053000  0.24274000  0.34728000  1.0
  C  C163  1  0.75726000  0.43947000  0.15272000  1.0
  C  C164  1  0.51694000  0.77434000  0.67948000  1.0
  C  C165  1  0.22566000  0.48306000  0.82052000  1.0
  C  C166  1  0.48306000  0.22567000  0.32052000  1.0
  C  C167  1  0.77433000  0.51694000  0.17948000  1.0
  C  C168  1  0.52027000  0.88075000  0.68161000  1.0
  C  C169  1  0.11925000  0.47973000  0.81839000  1.0
  C  C170  1  0.47973000  0.11925000  0.31839000  1.0
  C  C171  1  0.88075000  0.52027000  0.18161000  1.0
  C  C172  1  0.44070000  0.96630000  0.65771000  1.0
  C  C173  1  0.03370000  0.55929000  0.84229000  1.0
  C  C174  1  0.55930000  0.03370000  0.34229000  1.0
  C  C175  1  0.96630000  0.44070000  0.15771000  1.0
  C  C176  1  0.36601000  0.94236000  0.63152000  1.0
  C  C177  1  0.05764000  0.63399000  0.86849000  1.0
  C  C178  1  0.63399000  0.05765000  0.36848000  1.0
  C  C179  1  0.94236000  0.36601000  0.13152000  1.0
  C  C180  1  0.06664000  0.92870000  0.62886000  1.0
  C  C181  1  0.07130000  0.93335000  0.87114000  1.0
  C  C182  1  0.93336000  0.07130000  0.37114000  1.0
  C  C183  1  0.92870000  0.06664000  0.12886000  1.0
  C  C184  1  0.96343000  0.95232000  0.65701000  1.0
  C  C185  1  0.04768000  0.03657000  0.84299000  1.0
  C  C186  1  0.03657000  0.04768000  0.34299000  1.0
  C  C187  1  0.95233000  0.96343000  0.15701000  1.0
  C  C188  1  0.90925000  0.87184000  0.66805000  1.0
  C  C189  1  0.12816000  0.09075000  0.83195000  1.0
  C  C190  1  0.09075000  0.12816000  0.33195000  1.0
  C  C191  1  0.87184000  0.90925000  0.16805000  1.0
  C  C192  1  0.96289000  0.77073000  0.64949000  1.0
  C  C193  1  0.22927000  0.03711000  0.85051000  1.0
  C  C194  1  0.03711000  0.22927000  0.35052000  1.0
  C  C195  1  0.77073000  0.96289000  0.14949000  1.0
  C  C196  1  0.06624000  0.75333000  0.62205000  1.0
  C  C197  1  0.24667000  0.93376000  0.87795000  1.0
  C  C198  1  0.93376000  0.24667000  0.37795000  1.0
  C  C199  1  0.75333000  0.06624000  0.12205000  1.0
  C  C200  1  0.83129000  0.11075000  0.98359000  1.0
  C  C201  1  0.88925000  0.16871000  0.51641000  1.0
  C  C202  1  0.16871000  0.88925000  0.01641000  1.0
  C  C203  1  0.11075000  0.83129000  0.48359000  1.0
  C  C204  1  0.81281000  0.03196000  0.95836000  1.0
  C  C205  1  0.96804000  0.18720000  0.54164000  1.0
  C  C206  1  0.18719000  0.96804000  0.04164000  1.0
  C  C207  1  0.03196000  0.81281000  0.45836000  1.0
  C  C208  1  0.70616000  0.03999000  0.94982000  1.0
  C  C209  1  0.96001000  0.29384000  0.55018000  1.0
  C  C210  1  0.29384000  0.96001000  0.05018000  1.0
  C  C211  1  0.03999000  0.70616000  0.44982000  1.0
  C  C212  1  0.62236000  0.12894000  0.96748000  1.0
  C  C213  1  0.87106000  0.37764000  0.53252000  1.0
  C  C214  1  0.37764000  0.87106000  0.03252000  1.0
  C  C215  1  0.12894000  0.62236000  0.46748000  1.0
  C  C216  1  0.64773000  0.20292000  0.99359000  1.0
  C  C217  1  0.79708000  0.35227000  0.50641000  1.0
  C  C218  1  0.35227000  0.79708000  0.00641000  1.0
  C  C219  1  0.20292000  0.64773000  0.49358000  1.0
  C  C220  1  0.70242000  0.76120000  0.92620000  1.0
  C  C221  1  0.23879000  0.29758000  0.57380000  1.0
  C  C222  1  0.29758000  0.23879000  0.07380000  1.0
  C  C223  1  0.76121000  0.70242000  0.42620000  1.0
  C  C224  1  0.69931000  0.77403000  0.87153000  1.0
  C  C225  1  0.22597000  0.30069000  0.62847000  1.0
  C  C226  1  0.30069000  0.22597000  0.12847000  1.0
  C  C227  1  0.77403000  0.69931000  0.37153000  1.0
  C  C228  1  0.71247000  0.67736000  0.84259000  1.0
  C  C229  1  0.32263000  0.28754000  0.65741000  1.0
  C  C230  1  0.28753000  0.32263000  0.15741000  1.0
  C  C231  1  0.67737000  0.71247000  0.34259000  1.0
  C  C232  1  0.68899000  0.87826000  0.84341000  1.0
  C  C233  1  0.12173000  0.31101000  0.65659000  1.0
  C  C234  1  0.31101000  0.12174000  0.15659000  1.0
  C  C235  1  0.87827000  0.68899000  0.34341000  1.0
  C  C236  1  0.69444000  0.88887000  0.78501000  1.0
  C  C237  1  0.11113000  0.30555000  0.71499000  1.0
  C  C238  1  0.30556000  0.11113000  0.21499000  1.0
  C  C239  1  0.88887000  0.69444000  0.28501000  1.0
  C  C240  1  0.68398000  0.96805000  0.86915000  1.0
  C  C241  1  0.03195000  0.31602000  0.63085000  1.0
  C  C242  1  0.31602000  0.03195000  0.13085000  1.0
  C  C243  1  0.96805000  0.68398000  0.36915000  1.0
  C  C244  1  0.67812000  0.07840000  0.83900000  1.0
  C  C245  1  0.92160000  0.32188000  0.66100000  1.0
  C  C246  1  0.32188000  0.92160000  0.16100000  1.0
  C  C247  1  0.07840000  0.67811000  0.33900000  1.0
  C  C248  1  0.69010000  0.95248000  0.92359000  1.0
  C  C249  1  0.04752000  0.30990000  0.57641000  1.0
  C  C250  1  0.30990000  0.04752000  0.07641000  1.0
  C  C251  1  0.95248000  0.69010000  0.42359000  1.0
  C  C252  1  0.69679000  0.85042000  0.95272000  1.0
  C  C253  1  0.14958000  0.30321000  0.54728000  1.0
  C  C254  1  0.30321000  0.14958000  0.04728000  1.0
  C  C255  1  0.85042000  0.69679000  0.45272000  1.0
  C  C256  1  0.70109000  0.83728000  0.01119000  1.0
  C  C257  1  0.16272000  0.29892000  0.48882000  1.0
  C  C258  1  0.29891000  0.16272000  0.98882000  1.0
  C  C259  1  0.83728000  0.70109000  0.51118000  1.0
  C  C260  1  0.61070000  0.89492000  0.70648000  1.0
  C  C261  1  0.10508000  0.38930000  0.79352000  1.0
  C  C262  1  0.38930000  0.10508000  0.29352000  1.0
  C  C263  1  0.89492000  0.61070000  0.20648000  1.0
  C  C264  1  0.70960000  0.89377000  0.67498000  1.0
  C  C265  1  0.10623000  0.29040000  0.82502000  1.0
  C  C266  1  0.29041000  0.10623000  0.32502000  1.0
  C  C267  1  0.89377000  0.70960000  0.17498000  1.0
  C  C268  1  0.71946000  0.89736000  0.61612000  1.0
  C  C269  1  0.10264000  0.28054000  0.88388000  1.0
  C  C270  1  0.28054000  0.10264000  0.38388000  1.0
  C  C271  1  0.89736000  0.71946000  0.11612000  1.0
  C  C272  1  0.60152000  0.89552000  0.76119000  1.0
  C  C273  1  0.10448000  0.39848000  0.73881000  1.0
  C  C274  1  0.39848000  0.10449000  0.23881000  1.0
  C  C275  1  0.89552000  0.60152000  0.26119000  1.0
  C  C276  1  0.49435000  0.90256000  0.79448000  1.0
  C  C277  1  0.09744000  0.50565000  0.70552000  1.0
  C  C278  1  0.50566000  0.09744000  0.20551000  1.0
  C  C279  1  0.90256000  0.49435000  0.29449000  1.0
  C  C280  1  0.80120000  0.88716000  0.69972000  1.0
  C  C281  1  0.11283000  0.19880000  0.80028000  1.0
  C  C282  1  0.19880000  0.11283000  0.30028000  1.0
  C  C283  1  0.88717000  0.80120000  0.19972000  1.0
  C  C284  1  0.79531000  0.88334000  0.75457000  1.0
  C  C285  1  0.11666000  0.20468000  0.74543000  1.0
  C  C286  1  0.20469000  0.11667000  0.24543000  1.0
  C  C287  1  0.88334000  0.79531000  0.25457000  1.0
  C  C288  1  0.89703000  0.86884000  0.77992000  1.0
  C  C289  1  0.13116000  0.10297000  0.72008000  1.0
  C  C290  1  0.10297000  0.13116000  0.22008000  1.0
  C  C291  1  0.86884000  0.89703000  0.27992000  1.0
  N  N292  1  0.76182000  0.44472000  0.01477000  1.0
  N  N293  1  0.55528000  0.23818000  0.48523000  1.0
  N  N294  1  0.23818000  0.55528000  0.98523000  1.0
  N  N295  1  0.44472000  0.76182000  0.51477000  1.0
  N  N296  1  0.36570000  0.83972000  0.62803000  1.0
  N  N297  1  0.16028000  0.63430000  0.87197000  1.0
  N  N298  1  0.63430000  0.16028000  0.37197000  1.0
  N  N299  1  0.83972000  0.36570000  0.12803000  1.0
  N  N300  1  0.11788000  0.83102000  0.61166000  1.0
  N  N301  1  0.16898000  0.88212000  0.88834000  1.0
  N  N302  1  0.88212000  0.16898000  0.38834000  1.0
  N  N303  1  0.83102000  0.11788000  0.11166000  1.0
  N  N304  1  0.75023000  0.19480000  0.00183000  1.0
  N  N305  1  0.80520000  0.24977000  0.49817000  1.0
  N  N306  1  0.24977000  0.80520000  0.99817000  1.0
  N  N307  1  0.19480000  0.75023000  0.50183000  1.0
  Cl  Cl308  1  0.59913000  0.32640000  0.10305000  1.0
  Cl  Cl309  1  0.67359000  0.40087000  0.39695000  1.0
  Cl  Cl310  1  0.40087000  0.67359000  0.89695000  1.0
  Cl  Cl311  1  0.32641000  0.59913000  0.60305000  1.0
  Cl  Cl312  1  0.99023000  0.23653000  0.02478000  1.0
  Cl  Cl313  1  0.76347000  0.00976000  0.47522000  1.0
  Cl  Cl314  1  0.00977000  0.76347000  0.97522000  1.0
  Cl  Cl315  1  0.23653000  0.99023000  0.52478000  1.0
