# generated using pymatgen
data_CdH26C34I2(N5O2)2
_symmetry_space_group_name_H-M   'P 1'
_cell_length_a   8.26786000
_cell_length_b   9.34120000
_cell_length_c   11.94660000
_cell_angle_alpha   78.51460000
_cell_angle_beta   76.37720000
_cell_angle_gamma   87.48930000
_symmetry_Int_Tables_number   1
_chemical_formula_structural   CdH26C34I2(N5O2)2
_chemical_formula_sum   'Cd1 H26 C34 I2 N10 O4'
_cell_volume   878.73923775
_cell_formula_units_Z   1
loop_
 _symmetry_equiv_pos_site_id
 _symmetry_equiv_pos_as_xyz
  1  'x, y, z'
loop_
 _atom_site_type_symbol
 _atom_site_label
 _atom_site_symmetry_multiplicity
 _atom_site_fract_x
 _atom_site_fract_y
 _atom_site_fract_z
 _atom_site_occupancy
  Cd  Cd0  1  0.50000000  0.50000000  0.00000000  1.0
  H  H1  1  0.19062000  0.79001000  0.63156000  1.0
  H  H2  1  0.80938000  0.20999000  0.36844000  1.0
  H  H3  1  0.94221000  0.69182000  0.57927000  1.0
  H  H4  1  0.05779000  0.30819000  0.42073000  1.0
  H  H5  1  0.32918000  0.64117000  0.77767000  1.0
  H  H6  1  0.67080000  0.35883000  0.22233000  1.0
  H  H7  1  0.25148000  0.10627000  0.75571000  1.0
  H  H8  1  0.74853000  0.89373000  0.24429000  1.0
  H  H9  1  0.32341000  0.07754000  0.95024000  1.0
  H  H10  1  0.67660000  0.92246000  0.04976000  1.0
  H  H11  1  0.41341000  0.82955000  0.04436000  1.0
  H  H12  1  0.58658000  0.17045000  0.95564000  1.0
  H  H13  1  0.35246000  0.12962000  0.31741000  1.0
  H  H14  1  0.64753000  0.87038000  0.68259000  1.0
  H  H15  1  0.25205000  0.06111000  0.15248000  1.0
  H  H16  1  0.74795000  0.93888000  0.84752000  1.0
  H  H17  1  0.06069000  0.84092000  0.19815000  1.0
  H  H18  1  0.93932000  0.15907000  0.80185000  1.0
  H  H19  1  0.78316000  0.59929000  0.76316000  1.0
  H  H20  1  0.21683000  0.40072000  0.23684000  1.0
  H  H21  1  0.40513000  0.30209000  0.81163000  1.0
  H  H22  1  0.59487000  0.69791000  0.18837000  1.0
  H  H23  1  0.47543000  0.28745000  0.59806000  1.0
  H  H24  1  0.52457000  0.71255000  0.40195000  1.0
  H  H25  1  0.70227000  0.45196000  0.45964000  1.0
  H  H26  1  0.29774000  0.54803000  0.54036000  1.0
  C  C27  1  0.33064000  0.74098000  0.81209000  1.0
  C  C28  1  0.66935000  0.25903000  0.18792000  1.0
  C  C29  1  0.28751000  0.87593000  0.75060000  1.0
  C  C30  1  0.71249000  0.12407000  0.24940000  1.0
  C  C31  1  0.28643000  0.00005000  0.79996000  1.0
  C  C32  1  0.71358000  0.99995000  0.20004000  1.0
  C  C33  1  0.32879000  0.98341000  0.90793000  1.0
  C  C34  1  0.67121000  0.01659000  0.09206000  1.0
  C  C35  1  0.37513000  0.84634000  0.96137000  1.0
  C  C36  1  0.62487000  0.15366000  0.03863000  1.0
  C  C37  1  0.27904000  0.98896000  0.54581000  1.0
  C  C38  1  0.72096000  0.01104000  0.45419000  1.0
  C  C39  1  0.21737000  0.95398000  0.44538000  1.0
  C  C40  1  0.78262000  0.04602000  0.55462000  1.0
  C  C41  1  0.26960000  0.03693000  0.33229000  1.0
  C  C42  1  0.73040000  0.96307000  0.66771000  1.0
  C  C43  1  0.21445000  0.99667000  0.24119000  1.0
  C  C44  1  0.78555000  0.00333000  0.75881000  1.0
  C  C45  1  0.10684000  0.87765000  0.26599000  1.0
  C  C46  1  0.89317000  0.12235000  0.73401000  1.0
  C  C47  1  0.05569000  0.80500000  0.38261000  1.0
  C  C48  1  0.94431000  0.19500000  0.61739000  1.0
  C  C49  1  0.92989000  0.68275000  0.41579000  1.0
  C  C50  1  0.07012000  0.31725000  0.58421000  1.0
  C  C51  1  0.75821000  0.53920000  0.60045000  1.0
  C  C52  1  0.24179000  0.46080000  0.39955000  1.0
  C  C53  1  0.71605000  0.53341000  0.72223000  1.0
  C  C54  1  0.28395000  0.46660000  0.27777000  1.0
  C  C55  1  0.50847000  0.36411000  0.74957000  1.0
  C  C56  1  0.49153000  0.63589000  0.25044000  1.0
  C  C57  1  0.54593000  0.35960000  0.63040000  1.0
  C  C58  1  0.45407000  0.64040000  0.36960000  1.0
  C  C59  1  0.67153000  0.44907000  0.55364000  1.0
  C  C60  1  0.32847000  0.55093000  0.44636000  1.0
  I  I61  1  0.80915000  0.65409000  0.97614000  1.0
  I  I62  1  0.19084000  0.34591000  0.02386000  1.0
  N  N63  1  0.37616000  0.72738000  0.91383000  1.0
  N  N64  1  0.62383000  0.27262000  0.08617000  1.0
  N  N65  1  0.24508000  0.88005000  0.64330000  1.0
  N  N66  1  0.75492000  0.11995000  0.35670000  1.0
  N  N67  1  0.11136000  0.84152000  0.47006000  1.0
  N  N68  1  0.88864000  0.15848000  0.52994000  1.0
  N  N69  1  0.88432000  0.63549000  0.53463000  1.0
  N  N70  1  0.11569000  0.36451000  0.46537000  1.0
  N  N71  1  0.59298000  0.44970000  0.79472000  1.0
  N  N72  1  0.40701000  0.55031000  0.20528000  1.0
  O  O73  1  0.35252000  0.10435000  0.53789000  1.0
  O  O74  1  0.64748000  0.89566000  0.46211000  1.0
  O  O75  1  0.87634000  0.63530000  0.34191000  1.0
  O  O76  1  0.12368000  0.36468000  0.65809000  1.0
