# generated using pymatgen
data_Zn4H10C36Br2O13
_symmetry_space_group_name_H-M   'P 1'
_cell_length_a   20.96470000
_cell_length_b   20.96320000
_cell_length_c   21.01440000
_cell_angle_alpha   112.64100000
_cell_angle_beta   112.63200000
_cell_angle_gamma   103.17600000
_symmetry_Int_Tables_number   1
_chemical_formula_structural   Zn4H10C36Br2O13
_chemical_formula_sum   'Zn8 H20 C72 Br4 O26'
_cell_volume   7059.24752178
_cell_formula_units_Z   2
loop_
 _symmetry_equiv_pos_site_id
 _symmetry_equiv_pos_as_xyz
  1  'x, y, z'
loop_
 _atom_site_type_symbol
 _atom_site_label
 _atom_site_symmetry_multiplicity
 _atom_site_fract_x
 _atom_site_fract_y
 _atom_site_fract_z
 _atom_site_occupancy
  Zn  Zn0  1  0.27526000  0.70725000  0.57011000  1.0
  Zn  Zn1  1  0.86296000  0.29481000  0.56897000  1.0
  Zn  Zn2  1  0.29485000  0.86298000  0.56901000  1.0
  Zn  Zn3  1  0.70516000  0.13702000  0.43099000  1.0
  Zn  Zn4  1  0.13705000  0.70519000  0.43103000  1.0
  Zn  Zn5  1  0.72475000  0.29276000  0.42989000  1.0
  Zn  Zn6  1  0.29270000  0.72472000  0.42988000  1.0
  Zn  Zn7  1  0.70731000  0.27529000  0.57013000  1.0
  H  H8  1  0.53341000  0.73114000  0.51752000  1.0
  H  H9  1  0.46441000  0.13957000  0.43683000  1.0
  H  H10  1  0.13857000  0.46489000  0.43500000  1.0
  H  H11  1  0.86145000  0.53509000  0.56501000  1.0
  H  H12  1  0.53566000  0.86041000  0.56316000  1.0
  H  H13  1  0.45708000  0.81827000  0.32247000  1.0
  H  H14  1  0.54289000  0.18176000  0.67753000  1.0
  H  H15  1  0.18144000  0.53968000  0.67544000  1.0
  H  H16  1  0.46652000  0.26879000  0.48240000  1.0
  H  H17  1  0.81857000  0.46036000  0.32458000  1.0
  H  H18  1  0.45391000  0.68856000  0.27646000  1.0
  H  H19  1  0.54591000  0.31140000  0.72346000  1.0
  H  H20  1  0.31013000  0.54062000  0.71953000  1.0
  H  H21  1  0.68990000  0.45946000  0.28052000  1.0
  H  H22  1  0.26682000  0.46489000  0.47867000  1.0
  H  H23  1  0.58164000  0.96473000  0.44727000  1.0
  H  H24  1  0.41837000  0.03528000  0.55273000  1.0
  H  H25  1  0.03489000  0.41743000  0.55146000  1.0
  H  H26  1  0.96513000  0.58257000  0.44854000  1.0
  H  H27  1  0.73321000  0.53511000  0.52136000  1.0
  C  C28  1  0.14072000  0.85932000  0.49999000  1.0
  C  C29  1  0.48337000  0.24948000  0.52487000  1.0
  C  C30  1  0.61020000  0.11027000  0.49825000  1.0
  C  C31  1  0.11028000  0.61013000  0.49822000  1.0
  C  C32  1  0.88974000  0.38987000  0.50179000  1.0
  C  C33  1  0.38982000  0.88974000  0.50176000  1.0
  C  C34  1  0.13989000  0.64003000  0.28021000  1.0
  C  C35  1  0.86012000  0.35998000  0.71979000  1.0
  C  C36  1  0.35996000  0.86008000  0.71979000  1.0
  C  C37  1  0.64004000  0.13992000  0.28021000  1.0
  C  C38  1  0.24791000  0.48146000  0.52153000  1.0
  C  C39  1  0.40364000  0.90393000  0.80702000  1.0
  C  C40  1  0.59637000  0.09607000  0.19298000  1.0
  C  C41  1  0.09603000  0.59635000  0.19298000  1.0
  C  C42  1  0.90397000  0.40365000  0.80702000  1.0
  C  C43  1  0.75212000  0.51855000  0.47850000  1.0
  C  C44  1  0.44076000  0.94086000  0.88136000  1.0
  C  C45  1  0.55925000  0.05914000  0.11864000  1.0
  C  C46  1  0.05912000  0.55924000  0.11864000  1.0
  C  C47  1  0.94088000  0.44076000  0.88137000  1.0
  C  C48  1  0.48133000  0.98134000  0.96261000  1.0
  C  C49  1  0.51655000  0.75045000  0.47506000  1.0
  C  C50  1  0.51868000  0.01866000  0.03739000  1.0
  C  C51  1  0.01865000  0.51867000  0.03739000  1.0
  C  C52  1  0.98135000  0.48133000  0.96261000  1.0
  C  C53  1  0.40306000  0.59699000  0.50001000  1.0
  C  C54  1  0.59695000  0.40301000  0.49999000  1.0
  C  C55  1  0.44041000  0.55965000  0.50000000  1.0
  C  C56  1  0.55959000  0.44035000  0.50000000  1.0
  C  C57  1  0.51758000  0.82284000  0.50016000  1.0
  C  C58  1  0.48242000  0.17713000  0.49981000  1.0
  C  C59  1  0.17610000  0.48169000  0.49754000  1.0
  C  C60  1  0.85929000  0.14068000  0.50001000  1.0
  C  C61  1  0.82392000  0.51831000  0.50248000  1.0
  C  C62  1  0.49560000  0.84791000  0.44566000  1.0
  C  C63  1  0.50440000  0.15209000  0.55434000  1.0
  C  C64  1  0.15146000  0.50310000  0.55251000  1.0
  C  C65  1  0.84855000  0.49691000  0.44751000  1.0
  C  C66  1  0.47437000  0.79958000  0.36556000  1.0
  C  C67  1  0.52558000  0.20042000  0.63442000  1.0
  C  C68  1  0.19977000  0.52278000  0.63199000  1.0
  C  C69  1  0.80025000  0.47725000  0.36804000  1.0
  C  C70  1  0.47219000  0.72660000  0.33926000  1.0
  C  C71  1  0.52767000  0.27337000  0.66067000  1.0
  C  C72  1  0.27219000  0.52369000  0.65720000  1.0
  C  C73  1  0.72783000  0.47636000  0.34284000  1.0
  C  C74  1  0.49280000  0.70251000  0.39429000  1.0
  C  C75  1  0.48122000  0.51880000  0.50000000  1.0
  C  C76  1  0.50703000  0.29742000  0.60561000  1.0
  C  C77  1  0.29575000  0.50336000  0.60166000  1.0
  C  C78  1  0.70429000  0.49669000  0.39838000  1.0
  C  C79  1  0.54470000  0.97941000  0.46941000  1.0
  C  C80  1  0.45531000  0.02059000  0.53060000  1.0
  C  C81  1  0.02038000  0.45478000  0.52989000  1.0
  C  C82  1  0.51877000  0.48120000  0.50000000  1.0
  C  C83  1  0.97963000  0.54522000  0.47011000  1.0
  C  C84  1  0.55052000  0.05410000  0.49722000  1.0
  C  C85  1  0.44950000  0.94591000  0.50279000  1.0
  C  C86  1  0.94596000  0.44955000  0.50288000  1.0
  C  C87  1  0.05405000  0.55046000  0.49713000  1.0
  C  C88  1  0.50461000  0.07562000  0.52792000  1.0
  C  C89  1  0.49541000  0.92439000  0.47210000  1.0
  C  C90  1  0.92466000  0.49599000  0.47292000  1.0
  C  C91  1  0.07535000  0.50401000  0.52708000  1.0
  C  C92  1  0.35922000  0.64079000  0.50001000  1.0
  C  C93  1  0.64079000  0.35922000  0.49999000  1.0
  C  C94  1  0.09693000  0.90311000  0.49999000  1.0
  C  C95  1  0.90308000  0.09689000  0.50001000  1.0
  C  C96  1  0.05958000  0.94043000  0.49999000  1.0
  C  C97  1  0.94043000  0.05956000  0.50002000  1.0
  C  C98  1  0.01878000  0.98122000  0.49999000  1.0
  C  C99  1  0.98123000  0.01878000  0.50001000  1.0
  Br  Br100  1  0.48792000  0.60230000  0.35836000  1.0
  Br  Br101  1  0.51161000  0.39752000  0.64137000  1.0
  Br  Br102  1  0.39462000  0.50510000  0.63557000  1.0
  Br  Br103  1  0.60545000  0.49503000  0.36451000  1.0
  O  O104  1  0.24992000  0.75009000  0.50002000  1.0
  O  O105  1  0.78639000  0.10183000  0.45266000  1.0
  O  O106  1  0.10186000  0.78641000  0.45262000  1.0
  O  O107  1  0.89816000  0.21359000  0.54739000  1.0
  O  O108  1  0.33691000  0.65260000  0.55029000  1.0
  O  O109  1  0.66309000  0.34741000  0.44971000  1.0
  O  O110  1  0.34737000  0.66310000  0.44972000  1.0
  O  O111  1  0.65264000  0.33691000  0.55028000  1.0
  O  O112  1  0.75010000  0.24991000  0.49998000  1.0
  O  O113  1  0.08233000  0.62727000  0.44475000  1.0
  O  O114  1  0.91768000  0.37274000  0.55526000  1.0
  O  O115  1  0.37283000  0.91772000  0.55535000  1.0
  O  O116  1  0.62719000  0.08229000  0.44466000  1.0
  O  O117  1  0.35921000  0.81908000  0.44650000  1.0
  O  O118  1  0.64080000  0.18093000  0.55351000  1.0
  O  O119  1  0.18093000  0.64060000  0.55340000  1.0
  O  O120  1  0.81908000  0.35940000  0.44660000  1.0
  O  O121  1  0.10179000  0.65278000  0.31466000  1.0
  O  O122  1  0.89821000  0.34722000  0.68534000  1.0
  O  O123  1  0.34721000  0.89820000  0.68536000  1.0
  O  O124  1  0.65279000  0.10180000  0.31464000  1.0
  O  O125  1  0.21232000  0.66131000  0.31371000  1.0
  O  O126  1  0.78769000  0.33869000  0.68629000  1.0
  O  O127  1  0.33868000  0.78764000  0.68627000  1.0
  O  O128  1  0.66133000  0.21236000  0.31374000  1.0
  O  O129  1  0.21363000  0.89817000  0.54734000  1.0
