# generated using pymatgen
data_Ag2H9C13S2N3O7F6
_symmetry_space_group_name_H-M   'P 1'
_cell_length_a   10.27980000
_cell_length_b   10.28220000
_cell_length_c   11.11230000
_cell_angle_alpha   103.23600000
_cell_angle_beta   96.20710000
_cell_angle_gamma   116.66600000
_symmetry_Int_Tables_number   1
_chemical_formula_structural   Ag2H9C13S2N3O7F6
_chemical_formula_sum   'Ag4 H18 C26 S4 N6 O14 F12'
_cell_volume   991.27025434
_cell_formula_units_Z   2
loop_
 _symmetry_equiv_pos_site_id
 _symmetry_equiv_pos_as_xyz
  1  'x, y, z'
loop_
 _atom_site_type_symbol
 _atom_site_label
 _atom_site_symmetry_multiplicity
 _atom_site_fract_x
 _atom_site_fract_y
 _atom_site_fract_z
 _atom_site_occupancy
  Ag  Ag0  1  0.81496000  0.72723000  0.56091000  1.0
  Ag  Ag1  1  0.18504000  0.27277000  0.43908000  1.0
  Ag  Ag2  1  0.19446000  0.80131000  0.47046000  1.0
  Ag  Ag3  1  0.80554000  0.19869000  0.52954000  1.0
  H  H4  1  0.41802000  0.42276000  0.79379000  1.0
  H  H5  1  0.58197000  0.57724000  0.20621000  1.0
  H  H6  1  0.41351000  0.64385000  0.93965000  1.0
  H  H7  1  0.58649000  0.35615000  0.06035000  1.0
  H  H8  1  0.58757000  0.91020000  0.93665000  1.0
  H  H9  1  0.41243000  0.08980000  0.06335000  1.0
  H  H10  1  0.75043000  0.93968000  0.78084000  1.0
  H  H11  1  0.24957000  0.06032000  0.21917000  1.0
  H  H12  1  0.36406000  0.14483000  0.48844000  1.0
  H  H13  1  0.63594000  0.85517000  0.51156000  1.0
  H  H14  1  0.71253000  0.39706000  0.83728000  1.0
  H  H15  1  0.28747000  0.60294000  0.16272000  1.0
  H  H16  1  0.63561000  0.14794000  0.88221000  1.0
  H  H17  1  0.36439000  0.85206000  0.11778000  1.0
  H  H18  1  0.42513000  0.90756000  0.72438000  1.0
  H  H19  1  0.57487000  0.09244000  0.27562000  1.0
  H  H20  1  0.70474000  0.37666000  0.38811000  1.0
  H  H21  1  0.29527000  0.62334000  0.61190000  1.0
  C  C22  1  0.58889000  0.56550000  0.71405000  1.0
  C  C23  1  0.41111000  0.43450000  0.28595000  1.0
  C  C24  1  0.49247000  0.53928000  0.79623000  1.0
  C  C25  1  0.50753000  0.46072000  0.20377000  1.0
  C  C26  1  0.48925000  0.66288000  0.87631000  1.0
  C  C27  1  0.51075000  0.33712000  0.12369000  1.0
  C  C28  1  0.58315000  0.80974000  0.87292000  1.0
  C  C29  1  0.41685000  0.19026000  0.12709000  1.0
  C  C30  1  0.67517000  0.82718000  0.78763000  1.0
  C  C31  1  0.32483000  0.17282000  0.21237000  1.0
  C  C32  1  0.59221000  0.43502000  0.62733000  1.0
  C  C33  1  0.40779000  0.56498000  0.37267000  1.0
  C  C34  1  0.42751000  0.15029000  0.57649000  1.0
  C  C35  1  0.57249000  0.84971000  0.42351000  1.0
  C  C36  1  0.54406000  0.29033000  0.65899000  1.0
  C  C37  1  0.45594000  0.70967000  0.34101000  1.0
  C  C38  1  0.61974000  0.29047000  0.77178000  1.0
  C  C39  1  0.38026000  0.70953000  0.22822000  1.0
  C  C40  1  0.57736000  0.15207000  0.79647000  1.0
  C  C41  1  0.42264000  0.84793000  0.20353000  1.0
  C  C42  1  0.46065000  0.01808000  0.70894000  1.0
  C  C43  1  0.53936000  0.98192000  0.29105000  1.0
  C  C44  1  0.84942000  0.81885000  0.14654000  1.0
  C  C45  1  0.15058000  0.18115000  0.85346000  1.0
  C  C46  1  0.07990000  0.70398000  0.85822000  1.0
  C  C47  1  0.92010000  0.29602000  0.14178000  1.0
  S  S48  1  0.94102000  0.88738000  0.31932000  1.0
  S  S49  1  0.05898000  0.11262000  0.68068000  1.0
  S  S50  1  0.05139000  0.57403000  0.69806000  1.0
  S  S51  1  0.94861000  0.42597000  0.30194000  1.0
  N  N52  1  0.67850000  0.70841000  0.70998000  1.0
  N  N53  1  0.32150000  0.29159000  0.29002000  1.0
  N  N54  1  0.64372000  0.45743000  0.52801000  1.0
  N  N55  1  0.35628000  0.54257000  0.47199000  1.0
  N  N56  1  0.38643000  0.01708000  0.60083000  1.0
  N  N57  1  0.61357000  0.98292000  0.39917000  1.0
  O  O58  1  0.84034000  0.76156000  0.36136000  1.0
  O  O59  1  0.15966000  0.23844000  0.63864000  1.0
  O  O60  1  0.09073000  0.90479000  0.32174000  1.0
  O  O61  1  0.90927000  0.09521000  0.67825000  1.0
  O  O62  1  0.93815000  0.03072000  0.36648000  1.0
  O  O63  1  0.06185000  0.96928000  0.63352000  1.0
  O  O64  1  0.02607000  0.64911000  0.60845000  1.0
  O  O65  1  0.97393000  0.35089000  0.39155000  1.0
  O  O66  1  0.19284000  0.57036000  0.70800000  1.0
  O  O67  1  0.80716000  0.42964000  0.29200000  1.0
  O  O68  1  0.92144000  0.43118000  0.69381000  1.0
  O  O69  1  0.07856000  0.56882000  0.30619000  1.0
  O  O70  1  0.64597000  0.33428000  0.45005000  1.0
  O  O71  1  0.35403000  0.66572000  0.54995000  1.0
  F  F72  1  0.71044000  0.80598000  0.13256000  1.0
  F  F73  1  0.28955000  0.19402000  0.86744000  1.0
  F  F74  1  0.92960000  0.91815000  0.08707000  1.0
  F  F75  1  0.07040000  0.08185000  0.91293000  1.0
  F  F76  1  0.83284000  0.67923000  0.08796000  1.0
  F  F77  1  0.16716000  0.32077000  0.91204000  1.0
  F  F78  1  0.20358000  0.84334000  0.88201000  1.0
  F  F79  1  0.79642000  0.15666000  0.11799000  1.0
  F  F80  1  0.95996000  0.72485000  0.86464000  1.0
  F  F81  1  0.04004000  0.27515000  0.13536000  1.0
  F  F82  1  0.10112000  0.64521000  0.95160000  1.0
  F  F83  1  0.89889000  0.35478000  0.04840000  1.0
