# generated using pymatgen
data_CdH11C19NO4
_symmetry_space_group_name_H-M   'P 1'
_cell_length_a   8.29872000
_cell_length_b   10.63610000
_cell_length_c   10.63560000
_cell_angle_alpha   94.01620000
_cell_angle_beta   102.41730000
_cell_angle_gamma   102.42200000
_symmetry_Int_Tables_number   1
_chemical_formula_structural   CdH11C19NO4
_chemical_formula_sum   'Cd2 H22 C38 N2 O8'
_cell_volume   888.65857561
_cell_formula_units_Z   2
loop_
 _symmetry_equiv_pos_site_id
 _symmetry_equiv_pos_as_xyz
  1  'x, y, z'
loop_
 _atom_site_type_symbol
 _atom_site_label
 _atom_site_symmetry_multiplicity
 _atom_site_fract_x
 _atom_site_fract_y
 _atom_site_fract_z
 _atom_site_occupancy
  Cd  Cd0  1  0.74989000  0.48377000  0.51619000  1.0
  Cd  Cd1  1  0.25006000  0.51623000  0.48377000  1.0
  H  H2  1  0.97649000  0.74832000  0.47480000  1.0
  H  H3  1  0.52343000  0.52519000  0.25167000  1.0
  H  H4  1  0.02351000  0.25165000  0.52522000  1.0
  H  H5  1  0.47657000  0.47478000  0.74835000  1.0
  H  H6  1  0.75001000  0.88073000  0.11927000  1.0
  H  H7  1  0.25000000  0.11925000  0.88074000  1.0
  H  H8  1  0.20002000  0.86223000  0.46033000  1.0
  H  H9  1  0.29995000  0.53968000  0.13776000  1.0
  H  H10  1  0.79996000  0.13773000  0.53970000  1.0
  H  H11  1  0.70006000  0.46034000  0.86226000  1.0
  H  H12  1  0.42843000  0.06224000  0.51947000  1.0
  H  H13  1  0.07157000  0.48053000  0.93773000  1.0
  H  H14  1  0.57157000  0.93773000  0.48053000  1.0
  H  H15  1  0.92846000  0.51948000  0.06228000  1.0
  H  H16  1  0.13471000  0.25887000  0.25344000  1.0
  H  H17  1  0.36525000  0.74653000  0.74108000  1.0
  H  H18  1  0.86528000  0.74109000  0.74655000  1.0
  H  H19  1  0.63475000  0.25345000  0.25889000  1.0
  H  H20  1  0.89369000  0.06586000  0.20464000  1.0
  H  H21  1  0.60627000  0.79539000  0.93411000  1.0
  H  H22  1  0.10626000  0.93411000  0.79538000  1.0
  H  H23  1  0.39371000  0.20462000  0.06589000  1.0
  C  C24  1  0.87816000  0.73868000  0.38622000  1.0
  C  C25  1  0.62174000  0.61374000  0.26128000  1.0
  C  C26  1  0.12180000  0.26129000  0.61378000  1.0
  C  C27  1  0.37822000  0.38623000  0.73871000  1.0
  C  C28  1  0.88481000  0.83203000  0.29943000  1.0
  C  C29  1  0.61514000  0.70051000  0.16796000  1.0
  C  C30  1  0.11517000  0.16796000  0.70055000  1.0
  C  C31  1  0.38486000  0.29945000  0.83203000  1.0
  C  C32  1  0.74996000  0.81067000  0.18932000  1.0
  C  C33  1  0.25002000  0.18929000  0.81065000  1.0
  C  C34  1  0.02750000  0.94820000  0.32784000  1.0
  C  C35  1  0.47249000  0.67212000  0.05177000  1.0
  C  C36  1  0.97248000  0.05177000  0.67215000  1.0
  C  C37  1  0.52751000  0.32786000  0.94823000  1.0
  C  C38  1  0.18103000  0.94896000  0.41620000  1.0
  C  C39  1  0.31896000  0.58376000  0.05101000  1.0
  C  C40  1  0.81897000  0.05101000  0.58380000  1.0
  C  C41  1  0.68103000  0.41622000  0.94899000  1.0
  C  C42  1  0.31244000  0.06002000  0.44748000  1.0
  C  C43  1  0.18755000  0.55252000  0.93996000  1.0
  C  C44  1  0.68758000  0.93995000  0.55252000  1.0
  C  C45  1  0.81245000  0.44748000  0.06003000  1.0
  C  C46  1  0.29760000  0.17197000  0.38842000  1.0
  C  C47  1  0.20242000  0.61161000  0.82802000  1.0
  C  C48  1  0.70241000  0.82802000  0.61158000  1.0
  C  C49  1  0.79762000  0.38842000  0.17197000  1.0
  C  C50  1  0.14649000  0.17144000  0.29863000  1.0
  C  C51  1  0.35352000  0.70140000  0.82854000  1.0
  C  C52  1  0.85351000  0.82853000  0.70137000  1.0
  C  C53  1  0.64653000  0.29864000  0.17146000  1.0
  C  C54  1  0.01251000  0.06176000  0.27043000  1.0
  C  C55  1  0.48749000  0.72958000  0.93820000  1.0
  C  C56  1  0.98748000  0.93821000  0.72957000  1.0
  C  C57  1  0.51253000  0.27041000  0.06181000  1.0
  C  C58  1  0.43925000  0.29100000  0.42394000  1.0
  C  C59  1  0.06074000  0.57612000  0.70901000  1.0
  C  C60  1  0.56074000  0.70904000  0.57607000  1.0
  C  C61  1  0.93933000  0.42398000  0.29099000  1.0
  N  N62  1  0.74996000  0.63289000  0.36710000  1.0
  N  N63  1  0.25002000  0.36710000  0.63292000  1.0
  O  O64  1  0.58056000  0.28200000  0.49535000  1.0
  O  O65  1  0.91944000  0.50471000  0.71805000  1.0
  O  O66  1  0.41948000  0.71808000  0.50465000  1.0
  O  O67  1  0.08064000  0.49539000  0.28196000  1.0
  O  O68  1  0.41585000  0.39693000  0.38188000  1.0
  O  O69  1  0.08410000  0.61822000  0.60308000  1.0
  O  O70  1  0.58404000  0.60310000  0.61814000  1.0
  O  O71  1  0.91595000  0.38192000  0.39692000  1.0
