# generated using pymatgen
data_AlH18(C9O2)3
_symmetry_space_group_name_H-M   'P 1'
_cell_length_a   4.02059000
_cell_length_b   24.49980000
_cell_length_c   24.49980000
_cell_angle_alpha   60.00000000
_cell_angle_beta   89.99960000
_cell_angle_gamma   89.99980000
_symmetry_Int_Tables_number   1
_chemical_formula_structural   AlH18(C9O2)3
_chemical_formula_sum   'Al2 H36 C54 O12'
_cell_volume   2089.99620733
_cell_formula_units_Z   2
loop_
 _symmetry_equiv_pos_site_id
 _symmetry_equiv_pos_as_xyz
  1  'x, y, z'
loop_
 _atom_site_type_symbol
 _atom_site_label
 _atom_site_symmetry_multiplicity
 _atom_site_fract_x
 _atom_site_fract_y
 _atom_site_fract_z
 _atom_site_occupancy
  Al  Al0  1  0.00000000  0.00000000  0.50000000  1.0
  Al  Al1  1  0.99999000  0.66666000  0.16667000  1.0
  H  H2  1  0.41704000  0.17337000  0.32671000  1.0
  H  H3  1  0.58297000  0.17337000  0.49991000  1.0
  H  H4  1  0.41706000  0.49330000  0.33995000  1.0
  H  H5  1  0.58293000  0.49330000  0.16675000  1.0
  H  H6  1  0.15602000  0.30308000  0.23735000  1.0
  H  H7  1  0.53005000  0.27211000  0.22783000  1.0
  H  H8  1  0.84400000  0.30308000  0.45957000  1.0
  H  H9  1  0.46997000  0.27212000  0.50005000  1.0
  H  H10  1  0.15607000  0.36359000  0.42932000  1.0
  H  H11  1  0.53013000  0.39454000  0.43884000  1.0
  H  H12  1  0.84395000  0.36359000  0.20709000  1.0
  H  H13  1  0.46990000  0.39455000  0.16661000  1.0
  H  H14  1  0.41703000  0.82671000  0.49992000  1.0
  H  H15  1  0.58293000  0.99992000  0.32671000  1.0
  H  H16  1  0.41707000  0.83996000  0.16675000  1.0
  H  H17  1  0.58293000  0.66675000  0.33996000  1.0
  H  H18  1  0.15602000  0.73735000  0.45957000  1.0
  H  H19  1  0.53004000  0.72783000  0.50006000  1.0
  H  H20  1  0.84399000  0.95957000  0.23735000  1.0
  H  H21  1  0.46996000  0.00006000  0.22782000  1.0
  H  H22  1  0.15607000  0.92932000  0.20709000  1.0
  H  H23  1  0.53012000  0.93884000  0.16661000  1.0
  H  H24  1  0.84397000  0.70709000  0.42933000  1.0
  H  H25  1  0.46993000  0.66662000  0.43884000  1.0
  H  H26  1  0.41706000  0.99992000  0.67337000  1.0
  H  H27  1  0.58296000  0.82671000  0.67337000  1.0
  H  H28  1  0.41709000  0.66675000  0.99329000  1.0
  H  H29  1  0.58292000  0.83995000  0.99330000  1.0
  H  H30  1  0.15601000  0.95958000  0.80308000  1.0
  H  H31  1  0.53005000  0.00006000  0.77212000  1.0
  H  H32  1  0.84401000  0.73736000  0.80308000  1.0
  H  H33  1  0.46998000  0.72783000  0.77212000  1.0
  H  H34  1  0.15607000  0.70710000  0.86358000  1.0
  H  H35  1  0.53013000  0.66661000  0.89455000  1.0
  H  H36  1  0.84395000  0.92933000  0.86358000  1.0
  H  H37  1  0.46991000  0.93884000  0.89455000  1.0
  C  C38  1  0.49999000  0.95177000  0.59647000  1.0
  C  C39  1  0.50000000  0.09648000  0.45176000  1.0
  C  C40  1  0.49999000  0.95176000  0.45177000  1.0
  C  C41  1  0.50000000  0.57020000  0.21490000  1.0
  C  C42  1  0.49998000  0.71491000  0.21490000  1.0
  C  C43  1  0.49999000  0.71491000  0.07019000  1.0
  C  C44  1  0.42459000  0.30020000  0.24734000  1.0
  C  C45  1  0.57543000  0.30021000  0.45245000  1.0
  C  C46  1  0.42463000  0.36646000  0.41933000  1.0
  C  C47  1  0.57538000  0.36646000  0.21421000  1.0
  C  C48  1  0.45513000  0.19958000  0.35143000  1.0
  C  C49  1  0.46688000  0.26518000  0.31792000  1.0
  C  C50  1  0.54490000  0.19958000  0.44898000  1.0
  C  C51  1  0.53315000  0.26518000  0.41689000  1.0
  C  C52  1  0.45512000  0.46709000  0.31523000  1.0
  C  C53  1  0.46689000  0.40149000  0.34874000  1.0
  C  C54  1  0.54487000  0.46709000  0.21768000  1.0
  C  C55  1  0.53313000  0.40149000  0.24977000  1.0
  C  C56  1  0.50002000  0.16651000  0.41674000  1.0
  C  C57  1  0.50002000  0.29871000  0.35064000  1.0
  C  C58  1  0.50000000  0.50016000  0.24992000  1.0
  C  C59  1  0.50002000  0.36796000  0.31602000  1.0
  C  C60  1  0.42459000  0.74734000  0.45246000  1.0
  C  C61  1  0.57543000  0.95245000  0.24734000  1.0
  C  C62  1  0.42463000  0.91933000  0.21421000  1.0
  C  C63  1  0.57541000  0.71421000  0.41933000  1.0
  C  C64  1  0.45509000  0.85144000  0.44898000  1.0
  C  C65  1  0.46687000  0.81793000  0.41690000  1.0
  C  C66  1  0.54486000  0.94899000  0.35143000  1.0
  C  C67  1  0.53314000  0.91690000  0.31793000  1.0
  C  C68  1  0.45514000  0.81523000  0.21768000  1.0
  C  C69  1  0.46690000  0.84873000  0.24978000  1.0
  C  C70  1  0.54488000  0.71768000  0.31523000  1.0
  C  C71  1  0.53315000  0.74978000  0.34874000  1.0
  C  C72  1  0.49997000  0.91674000  0.41674000  1.0
  C  C73  1  0.50002000  0.85065000  0.35064000  1.0
  C  C74  1  0.50000000  0.74992000  0.24993000  1.0
  C  C75  1  0.50004000  0.81602000  0.31602000  1.0
  C  C76  1  0.42458000  0.95246000  0.80021000  1.0
  C  C77  1  0.57543000  0.74734000  0.80021000  1.0
  C  C78  1  0.42463000  0.71421000  0.86646000  1.0
  C  C79  1  0.57539000  0.91933000  0.86646000  1.0
  C  C80  1  0.45512000  0.94899000  0.69958000  1.0
  C  C81  1  0.46686000  0.91690000  0.76517000  1.0
  C  C82  1  0.54488000  0.85144000  0.69958000  1.0
  C  C83  1  0.53314000  0.81793000  0.76517000  1.0
  C  C84  1  0.45515000  0.71768000  0.96709000  1.0
  C  C85  1  0.46689000  0.74977000  0.90149000  1.0
  C  C86  1  0.54487000  0.81523000  0.96709000  1.0
  C  C87  1  0.53312000  0.84874000  0.90149000  1.0
  C  C88  1  0.50000000  0.91674000  0.66652000  1.0
  C  C89  1  0.50000000  0.85065000  0.79871000  1.0
  C  C90  1  0.50000000  0.74992000  0.00015000  1.0
  C  C91  1  0.49999000  0.81602000  0.86796000  1.0
  O  O92  1  0.73401000  0.99148000  0.43965000  1.0
  O  O93  1  0.73401000  0.93965000  0.56887000  1.0
  O  O94  1  0.73401000  0.06887000  0.49148000  1.0
  O  O95  1  0.26600000  0.93965000  0.49148000  1.0
  O  O96  1  0.26599000  0.06887000  0.43965000  1.0
  O  O97  1  0.26598000  0.99148000  0.56887000  1.0
  O  O98  1  0.73399000  0.72702000  0.09779000  1.0
  O  O99  1  0.73401000  0.59780000  0.17519000  1.0
  O  O100  1  0.73399000  0.67519000  0.22701000  1.0
  O  O101  1  0.26597000  0.67518000  0.09780000  1.0
  O  O102  1  0.26596000  0.72702000  0.17519000  1.0
  O  O103  1  0.26598000  0.59780000  0.22702000  1.0
