# generated using pymatgen
data_HoH8C12(NO3)3
_symmetry_space_group_name_H-M   'P 1'
_cell_length_a   7.88072000
_cell_length_b   8.07026000
_cell_length_c   12.27220000
_cell_angle_alpha   80.91700000
_cell_angle_beta   78.32500000
_cell_angle_gamma   101.27970000
_symmetry_Int_Tables_number   1
_chemical_formula_structural   HoH8C12(NO3)3
_chemical_formula_sum   'Ho2 H16 C24 N6 O18'
_cell_volume   733.58078748
_cell_formula_units_Z   2
loop_
 _symmetry_equiv_pos_site_id
 _symmetry_equiv_pos_as_xyz
  1  'x, y, z'
loop_
 _atom_site_type_symbol
 _atom_site_label
 _atom_site_symmetry_multiplicity
 _atom_site_fract_x
 _atom_site_fract_y
 _atom_site_fract_z
 _atom_site_occupancy
  Ho  Ho0  1  0.70368000  0.71341000  0.47534000  1.0
  Ho  Ho1  1  0.29630000  0.28660000  0.52465000  1.0
  H  H2  1  0.41303000  0.20353000  0.91284000  1.0
  H  H3  1  0.58701000  0.79648000  0.08714000  1.0
  H  H4  1  0.54403000  0.02167000  0.79006000  1.0
  H  H5  1  0.45604000  0.97834000  0.20994000  1.0
  H  H6  1  0.01207000  0.10350000  0.89869000  1.0
  H  H7  1  0.98794000  0.89646000  0.10138000  1.0
  H  H8  1  0.90006000  0.29146000  0.02856000  1.0
  H  H9  1  0.09992000  0.70851000  0.97148000  1.0
  H  H10  1  0.29685000  0.19039000  0.12242000  1.0
  H  H11  1  0.70317000  0.80959000  0.87758000  1.0
  H  H12  1  0.11585000  0.41338000  0.12934000  1.0
  H  H13  1  0.88415000  0.58663000  0.87064000  1.0
  H  H14  1  0.94374000  0.46531000  0.41172000  1.0
  H  H15  1  0.05626000  0.53469000  0.58826000  1.0
  H  H16  1  0.74012000  0.37480000  0.42442000  1.0
  H  H17  1  0.25987000  0.62521000  0.57555000  1.0
  C  C18  1  0.58594000  0.58780000  0.29131000  1.0
  C  C19  1  0.41402000  0.41222000  0.70868000  1.0
  C  C20  1  0.53662000  0.47902000  0.21013000  1.0
  C  C21  1  0.46335000  0.52099000  0.78986000  1.0
  C  C22  1  0.36572000  0.38980000  0.20946000  1.0
  C  C23  1  0.63426000  0.61019000  0.79054000  1.0
  C  C24  1  0.18782000  0.39255000  0.27066000  1.0
  C  C25  1  0.81215000  0.60744000  0.72933000  1.0
  C  C26  1  0.56733000  0.34097000  0.07289000  1.0
  C  C27  1  0.43268000  0.65904000  0.92710000  1.0
  C  C28  1  0.64455000  0.25632000  0.98536000  1.0
  C  C29  1  0.35547000  0.74369000  0.01465000  1.0
  C  C30  1  0.54617000  0.18524000  0.91343000  1.0
  C  C31  1  0.45386000  0.81476000  0.08657000  1.0
  C  C32  1  0.61872000  0.08246000  0.84510000  1.0
  C  C33  1  0.38133000  0.91754000  0.15490000  1.0
  C  C34  1  0.87878000  0.12681000  0.90627000  1.0
  C  C35  1  0.12124000  0.87317000  0.09377000  1.0
  C  C36  1  0.81875000  0.23412000  0.97609000  1.0
  C  C37  1  0.18126000  0.76586000  0.02394000  1.0
  C  C38  1  0.43313000  0.94241000  0.55399000  1.0
  C  C39  1  0.56686000  0.05761000  0.44601000  1.0
  C  C40  1  0.93804000  0.02099000  0.55134000  1.0
  C  C41  1  0.06196000  0.97901000  0.44866000  1.0
  N  N42  1  0.65928000  0.45093000  0.12305000  1.0
  N  N43  1  0.34071000  0.54910000  0.87695000  1.0
  N  N44  1  0.38777000  0.30583000  0.12008000  1.0
  N  N45  1  0.61223000  0.69417000  0.87991000  1.0
  N  N46  1  0.77714000  0.04420000  0.84661000  1.0
  N  N47  1  0.22291000  0.95578000  0.15342000  1.0
  O  O48  1  0.71976000  0.71251000  0.26351000  1.0
  O  O49  1  0.28020000  0.28752000  0.73649000  1.0
  O  O50  1  0.48707000  0.54362000  0.39414000  1.0
  O  O51  1  0.51290000  0.45639000  0.60585000  1.0
  O  O52  1  0.14605000  0.39890000  0.37221000  1.0
  O  O53  1  0.85393000  0.60107000  0.62779000  1.0
  O  O54  1  0.06148000  0.38858000  0.21111000  1.0
  O  O55  1  0.93851000  0.61142000  0.78887000  1.0
  O  O56  1  0.43842000  0.78342000  0.57214000  1.0
  O  O57  1  0.56156000  0.21660000  0.42785000  1.0
  O  O58  1  0.33113000  0.01289000  0.61397000  1.0
  O  O59  1  0.66887000  0.98714000  0.38603000  1.0
  O  O60  1  0.78338000  0.92320000  0.58735000  1.0
  O  O61  1  0.21661000  0.07680000  0.41265000  1.0
  O  O62  1  0.00170000  0.14979000  0.59004000  1.0
  O  O63  1  0.99829000  0.85019000  0.40996000  1.0
  O  O64  1  0.82144000  0.48152000  0.43104000  1.0
  O  O65  1  0.17856000  0.51850000  0.56892000  1.0
