# generated using pymatgen
data_Al2H9C20N2ClO14
_symmetry_space_group_name_H-M   'P 1'
_cell_length_a   6.66579000
_cell_length_b   11.06100000
_cell_length_c   11.09499040
_cell_angle_alpha   91.16743150
_cell_angle_beta   105.89761494
_cell_angle_gamma   106.50630000
_symmetry_Int_Tables_number   1
_chemical_formula_structural   Al2H9C20N2ClO14
_chemical_formula_sum   'Al2 H9 C20 N2 Cl1 O14'
_cell_volume   750.03657416
_cell_formula_units_Z   1
loop_
 _symmetry_equiv_pos_site_id
 _symmetry_equiv_pos_as_xyz
  1  'x, y, z'
loop_
 _atom_site_type_symbol
 _atom_site_label
 _atom_site_symmetry_multiplicity
 _atom_site_fract_x
 _atom_site_fract_y
 _atom_site_fract_z
 _atom_site_occupancy
  Al  Al0  1  0.98929000  0.49975000  0.49997000  1.0
  Al  Al1  1  0.49346000  0.50615000  0.50277000  1.0
  H  H2  1  0.62457000  0.35451000  0.41773000  1.0
  H  H3  1  0.35257000  0.64802000  0.59802000  1.0
  H  H4  1  0.68051000  0.90577000  0.57837000  1.0
  H  H5  1  0.19115000  0.86398000  0.42864000  1.0
  H  H6  1  0.81287000  0.14033000  0.57129000  1.0
  H  H7  1  0.50578000  0.67196000  0.23806000  1.0
  H  H8  1  0.24552000  0.65066000  0.77125000  1.0
  H  H9  1  0.61562000  0.41557000  0.88651000  1.0
  H  H10  1  0.74674000  0.42368000  0.12166000  1.0
  C  C11  1  0.14062000  0.51626000  0.27555000  1.0
  C  C12  1  0.13726000  0.27480000  0.49455000  1.0
  C  C13  1  0.85072000  0.50415000  0.72944000  1.0
  C  C14  1  0.85435000  0.73147000  0.50731000  1.0
  C  C15  1  0.07126000  0.13418000  0.49380000  1.0
  C  C16  1  0.92948000  0.87140000  0.50484000  1.0
  C  C17  1  0.17633000  0.05480000  0.45189000  1.0
  C  C18  1  0.81912000  0.94824000  0.54336000  1.0
  C  C19  1  0.10925000  0.92477000  0.46070000  1.0
  C  C20  1  0.89299000  0.07821000  0.53942000  1.0
  C  C21  1  0.07728000  0.52618000  0.13652000  1.0
  C  C22  1  0.22796000  0.59108000  0.07203000  1.0
  C  C23  1  0.86010000  0.46783000  0.06942000  1.0
  C  C24  1  0.44654000  0.66547000  0.13583000  1.0
  C  C25  1  0.58131000  0.73179000  0.06999000  1.0
  C  C26  1  0.93001000  0.51805000  0.87068000  1.0
  C  C27  1  0.78620000  0.46375000  0.93761000  1.0
  C  C28  1  0.15184000  0.58664000  0.93707000  1.0
  C  C29  1  0.29715000  0.65508000  0.87307000  1.0
  C  C30  1  0.50709000  0.72565000  0.93703000  1.0
  N  N31  1  0.79708000  0.81793000  0.14274000  1.0
  N  N32  1  0.65145000  0.78541000  0.86245000  1.0
  Cl  Cl33  1  0.38082000  0.10848000  0.38006000  1.0
  O  O34  1  0.99256000  0.51138000  0.32867000  1.0
  O  O35  1  0.33606000  0.33295000  0.50479000  1.0
  O  O36  1  0.66003000  0.51241000  0.67898000  1.0
  O  O37  1  0.99630000  0.67324000  0.51562000  1.0
  O  O38  1  0.98267000  0.48551000  0.67239000  1.0
  O  O39  1  0.65410000  0.67969000  0.50050000  1.0
  O  O40  1  0.33151000  0.50862000  0.32792000  1.0
  O  O41  1  0.98765000  0.32737000  0.48715000  1.0
  O  O42  1  0.68532000  0.44513000  0.44391000  1.0
  O  O43  1  0.29425000  0.56057000  0.55976000  1.0
  O  O44  1  0.93264000  0.76876000  0.20323000  1.0
  O  O45  1  0.82091000  0.93276000  0.14082000  1.0
  O  O46  1  0.56520000  0.80134000  0.75181000  1.0
  O  O47  1  0.85140000  0.81427000  0.91334000  1.0
