# generated using pymatgen
data_Al4H23C25NO20
_symmetry_space_group_name_H-M   'P 1'
_cell_length_a   6.66699000
_cell_length_b   13.44310000
_cell_length_c   16.89640000
_cell_angle_alpha   90.20490000
_cell_angle_beta   91.42510000
_cell_angle_gamma   91.29160000
_symmetry_Int_Tables_number   1
_chemical_formula_structural   Al4H23C25NO20
_chemical_formula_sum   'Al4 H23 C25 N1 O20'
_cell_volume   1513.47407263
_cell_formula_units_Z   1
loop_
 _symmetry_equiv_pos_site_id
 _symmetry_equiv_pos_as_xyz
  1  'x, y, z'
loop_
 _atom_site_type_symbol
 _atom_site_label
 _atom_site_symmetry_multiplicity
 _atom_site_fract_x
 _atom_site_fract_y
 _atom_site_fract_z
 _atom_site_occupancy
  Al  Al0  1  0.89087000  0.49707000  0.50643000  1.0
  Al  Al1  1  0.38767000  0.49668000  0.50500000  1.0
  Al  Al2  1  0.37379000  0.99517000  0.00030000  1.0
  Al  Al3  1  0.87345000  0.99642000  0.00134000  1.0
  H  H4  1  0.41660000  0.82316000  0.81709000  1.0
  H  H5  1  0.95956000  0.80426000  0.79095000  1.0
  H  H6  1  0.00865000  0.69748000  0.70103000  1.0
  H  H7  1  0.82919000  0.69072000  0.30961000  1.0
  H  H8  1  0.29017000  0.69296000  0.30031000  1.0
  H  H9  1  0.82688000  0.79258000  0.18880000  1.0
  H  H10  1  0.28688000  0.80812000  0.20929000  1.0
  H  H11  1  0.92655000  0.19928000  0.82241000  1.0
  H  H12  1  0.46992000  0.18062000  0.79072000  1.0
  H  H13  1  0.94086000  0.30116000  0.70089000  1.0
  H  H14  1  0.47925000  0.30538000  0.70631000  1.0
  H  H15  1  0.93624000  0.18666000  0.20433000  1.0
  H  H16  1  0.47954000  0.21332000  0.18775000  1.0
  H  H17  1  0.93091000  0.30342000  0.31663000  1.0
  H  H18  1  0.46961000  0.28453000  0.30689000  1.0
  H  H19  1  0.58687000  0.80834000  0.71778000  1.0
  H  H20  1  0.62240000  0.68900000  0.58483000  1.0
  H  H21  1  0.67728000  0.81965000  0.59101000  1.0
  H  H22  1  0.43356000  0.77530000  0.55865000  1.0
  H  H23  1  0.64263000  0.60800000  0.45796000  1.0
  H  H24  1  0.13003000  0.37377000  0.47297000  1.0
  H  H25  1  0.62185000  0.87314000  0.03432000  1.0
  H  H26  1  0.13335000  0.12137000  0.02727000  1.0
  C  C27  1  0.64277000  0.38553000  0.61657000  1.0
  C  C28  1  0.62706000  0.37314000  0.39809000  1.0
  C  C29  1  0.13444000  0.61130000  0.39186000  1.0
  C  C30  1  0.15417000  0.62252000  0.60837000  1.0
  C  C31  1  0.27983000  0.79852000  0.78457000  1.0
  C  C32  1  0.10617000  0.82189000  0.81802000  1.0
  C  C33  1  0.30913000  0.74838000  0.70836000  1.0
  C  C34  1  0.15360000  0.69339000  0.67310000  1.0
  C  C35  1  0.97429000  0.71248000  0.28542000  1.0
  C  C36  1  0.14004000  0.67629000  0.32155000  1.0
  C  C37  1  0.97264000  0.77662000  0.21641000  1.0
  C  C38  1  0.13680000  0.81861000  0.18395000  1.0
  C  C39  1  0.78502000  0.21518000  0.79132000  1.0
  C  C40  1  0.61689000  0.17111000  0.81912000  1.0
  C  C41  1  0.79308000  0.28097000  0.72335000  1.0
  C  C42  1  0.63146000  0.32023000  0.68647000  1.0
  C  C43  1  0.79050000  0.21450000  0.22133000  1.0
  C  C44  1  0.62949000  0.18720000  0.17564000  1.0
  C  C45  1  0.78650000  0.27791000  0.29101000  1.0
  C  C46  1  0.62000000  0.30716000  0.32775000  1.0
  C  C47  1  0.63892000  0.11918000  0.10712000  1.0
  C  C48  1  0.61736000  0.10712000  0.88984000  1.0
  C  C49  1  0.10599000  0.87986000  0.89251000  1.0
  C  C50  1  0.13090000  0.88189000  0.11276000  1.0
  C  C51  1  0.56121000  0.76161000  0.59932000  1.0
  N  N52  1  0.49653000  0.76716000  0.68067000  1.0
  O  O53  1  0.45674000  0.40122000  0.42212000  1.0
  O  O54  1  0.81394000  0.41363000  0.59213000  1.0
  O  O55  1  0.98067000  0.59450000  0.58003000  1.0
  O  O56  1  0.79850000  0.39653000  0.42879000  1.0
  O  O57  1  0.96416000  0.58372000  0.41778000  1.0
  O  O58  1  0.47343000  0.40801000  0.58545000  1.0
  O  O59  1  0.64146000  0.55676000  0.49827000  1.0
  O  O60  1  0.30627000  0.58835000  0.42103000  1.0
  O  O61  1  0.32024000  0.58833000  0.58427000  1.0
  O  O62  1  0.13620000  0.43526000  0.50312000  1.0
  O  O63  1  0.78400000  0.09159000  0.92584000  1.0
  O  O64  1  0.46973000  0.09903000  0.07249000  1.0
  O  O65  1  0.30252000  0.91368000  0.09024000  1.0
  O  O66  1  0.44628000  0.07245000  0.91022000  1.0
  O  O67  1  0.27327000  0.89528000  0.92926000  1.0
  O  O68  1  0.80858000  0.08586000  0.08769000  1.0
  O  O69  1  0.62178000  0.93458000  0.00452000  1.0
  O  O70  1  0.93658000  0.91111000  0.91430000  1.0
  O  O71  1  0.96148000  0.89942000  0.07935000  1.0
  O  O72  1  0.12668000  0.05676000  0.00163000  1.0
