# generated using pymatgen
data_CoH16C29SN4(O2F3)2
_symmetry_space_group_name_H-M   'P 1'
_cell_length_a   8.24242000
_cell_length_b   13.55930000
_cell_length_c   14.83890000
_cell_angle_alpha   86.16400000
_cell_angle_beta   79.26730000
_cell_angle_gamma   83.89590000
_symmetry_Int_Tables_number   1
_chemical_formula_structural   CoH16C29SN4(O2F3)2
_chemical_formula_sum   'Co2 H32 C58 S2 N8 O8 F12'
_cell_volume   1618.28359173
_cell_formula_units_Z   2
loop_
 _symmetry_equiv_pos_site_id
 _symmetry_equiv_pos_as_xyz
  1  'x, y, z'
loop_
 _atom_site_type_symbol
 _atom_site_label
 _atom_site_symmetry_multiplicity
 _atom_site_fract_x
 _atom_site_fract_y
 _atom_site_fract_z
 _atom_site_occupancy
  Co  Co0  1  0.91359000  0.41725000  0.91184000  1.0
  Co  Co1  1  0.08640000  0.58276000  0.08816000  1.0
  H  H2  1  0.73314000  0.24787000  0.15276000  1.0
  H  H3  1  0.26686000  0.75213000  0.84724000  1.0
  H  H4  1  0.60467000  0.17356000  0.30084000  1.0
  H  H5  1  0.39533000  0.82644000  0.69915000  1.0
  H  H6  1  0.74887000  0.52142000  0.27860000  1.0
  H  H7  1  0.25113000  0.47858000  0.72139000  1.0
  H  H8  1  0.61087000  0.45071000  0.42742000  1.0
  H  H9  1  0.38913000  0.54929000  0.57258000  1.0
  H  H10  1  0.92287000  0.58997000  0.77997000  1.0
  H  H11  1  0.07713000  0.41003000  0.22003000  1.0
  H  H12  1  0.95319000  0.22487000  0.04013000  1.0
  H  H13  1  0.04681000  0.77513000  0.95987000  1.0
  H  H14  1  0.46672000  0.70580000  0.02397000  1.0
  H  H15  1  0.53328000  0.29419000  0.97603000  1.0
  H  H16  1  0.61356000  0.53930000  0.02921000  1.0
  H  H17  1  0.38644000  0.46070000  0.97079000  1.0
  H  H18  1  0.46896000  0.35278000  0.77701000  1.0
  H  H19  1  0.53104000  0.64722000  0.22299000  1.0
  H  H20  1  0.17366000  0.31686000  0.78003000  1.0
  H  H21  1  0.82634000  0.68314000  0.21997000  1.0
  H  H22  1  0.79115000  0.76365000  0.76416000  1.0
  H  H23  1  0.20884000  0.23635000  0.23584000  1.0
  H  H24  1  0.13319000  0.06460000  0.03417000  1.0
  H  H25  1  0.86681000  0.93541000  0.96583000  1.0
  H  H26  1  0.34492000  0.31120000  0.64647000  1.0
  H  H27  1  0.65508000  0.68881000  0.35353000  1.0
  H  H28  1  0.94863000  0.34158000  0.60456000  1.0
  H  H29  1  0.05137000  0.65842000  0.39543000  1.0
  H  H30  1  0.82874000  0.29516000  0.47400000  1.0
  H  H31  1  0.17125000  0.70483000  0.52600000  1.0
  H  H32  1  0.36795000  0.16073000  0.76171000  1.0
  H  H33  1  0.63204000  0.83927000  0.23829000  1.0
  C  C34  1  0.82239000  0.43471000  0.11477000  1.0
  C  C35  1  0.17763000  0.56529000  0.88523000  1.0
  C  C36  1  0.74743000  0.38987000  0.20556000  1.0
  C  C37  1  0.25257000  0.61013000  0.79443000  1.0
  C  C38  1  0.70743000  0.29159000  0.21358000  1.0
  C  C39  1  0.29257000  0.70841000  0.78642000  1.0
  C  C40  1  0.63482000  0.24993000  0.29768000  1.0
  C  C41  1  0.36518000  0.75007000  0.70232000  1.0
  C  C42  1  0.71425000  0.44581000  0.28399000  1.0
  C  C43  1  0.28574000  0.55418000  0.71601000  1.0
  C  C44  1  0.63831000  0.40517000  0.36774000  1.0
  C  C45  1  0.36170000  0.59482000  0.63225000  1.0
  C  C46  1  0.62043000  0.75088000  0.89356000  1.0
  C  C47  1  0.37957000  0.24912000  0.10644000  1.0
  C  C48  1  0.82403000  0.62004000  0.83317000  1.0
  C  C49  1  0.17597000  0.37996000  0.16683000  1.0
  C  C50  1  0.54241000  0.85145000  0.88343000  1.0
  C  C51  1  0.45759000  0.14855000  0.11658000  1.0
  C  C52  1  0.71605000  0.34953000  0.69902000  1.0
  C  C53  1  0.28396000  0.65047000  0.30099000  1.0
  C  C54  1  0.78877000  0.37376000  0.77839000  1.0
  C  C55  1  0.21125000  0.62624000  0.22162000  1.0
  C  C56  1  0.04563000  0.20697000  0.97942000  1.0
  C  C57  1  0.95436000  0.79303000  0.02058000  1.0
  C  C58  1  0.37970000  0.00904000  0.88446000  1.0
  C  C59  1  0.62029000  0.99096000  0.11553000  1.0
  C  C60  1  0.59847000  0.30648000  0.37592000  1.0
  C  C61  1  0.40153000  0.69352000  0.62408000  1.0
  C  C62  1  0.56924000  0.68571000  0.96836000  1.0
  C  C63  1  0.43077000  0.31429000  0.03165000  1.0
  C  C64  1  0.26616000  0.09911000  0.89615000  1.0
  C  C65  1  0.73384000  0.90090000  0.10385000  1.0
  C  C66  1  0.57736000  0.30085000  0.55018000  1.0
  C  C67  1  0.42264000  0.69915000  0.44982000  1.0
  C  C68  1  0.65136000  0.59094000  0.97176000  1.0
  C  C69  1  0.34863000  0.40905000  0.02825000  1.0
  C  C70  1  0.54620000  0.34079000  0.70992000  1.0
  C  C71  1  0.45380000  0.65921000  0.29008000  1.0
  C  C72  1  0.50765000  0.26692000  0.46927000  1.0
  C  C73  1  0.49235000  0.73308000  0.53073000  1.0
  C  C74  1  0.17094000  0.25874000  0.83432000  1.0
  C  C75  1  0.82905000  0.74126000  0.16568000  1.0
  C  C76  1  0.75051000  0.71597000  0.82427000  1.0
  C  C77  1  0.24949000  0.28403000  0.17574000  1.0
  C  C78  1  0.14665000  0.11778000  0.97535000  1.0
  C  C79  1  0.85335000  0.88223000  0.02465000  1.0
  C  C80  1  0.47750000  0.31749000  0.63615000  1.0
  C  C81  1  0.52250000  0.68251000  0.36385000  1.0
  C  C82  1  0.81644000  0.33429000  0.61311000  1.0
  C  C83  1  0.18356000  0.66571000  0.38689000  1.0
  C  C84  1  0.74825000  0.30873000  0.53987000  1.0
  C  C85  1  0.25175000  0.69127000  0.46013000  1.0
  C  C86  1  0.27692000  0.17240000  0.82424000  1.0
  C  C87  1  0.72307000  0.82761000  0.17576000  1.0
  C  C88  1  0.52341000  0.15081000  0.47821000  1.0
  C  C89  1  0.47659000  0.84919000  0.52179000  1.0
  C  C90  1  0.32084000  0.30519000  0.47363000  1.0
  C  C91  1  0.67917000  0.69481000  0.52637000  1.0
  S  S92  1  0.36987000  0.90327000  0.95760000  1.0
  S  S93  1  0.63012000  0.09673000  0.04241000  1.0
  N  N94  1  0.50389000  0.00063000  0.81356000  1.0
  N  N95  1  0.49611000  0.99937000  0.18644000  1.0
  N  N96  1  0.59473000  0.91261000  0.81307000  1.0
  N  N97  1  0.40527000  0.08739000  0.18693000  1.0
  N  N98  1  0.77833000  0.55789000  0.90644000  1.0
  N  N99  1  0.22166000  0.44211000  0.09356000  1.0
  N  N100  1  0.05591000  0.27706000  0.91030000  1.0
  N  N101  1  0.94409000  0.72294000  0.08970000  1.0
  O  O102  1  0.82532000  0.38554000  0.04407000  1.0
  O  O103  1  0.17470000  0.61446000  0.95594000  1.0
  O  O104  1  0.93155000  0.40662000  0.76438000  1.0
  O  O105  1  0.06846000  0.59340000  0.23559000  1.0
  O  O106  1  0.87418000  0.52038000  0.11239000  1.0
  O  O107  1  0.12580000  0.47962000  0.88762000  1.0
  O  O108  1  0.70930000  0.36195000  0.86041000  1.0
  O  O109  1  0.29071000  0.63804000  0.13959000  1.0
  F  F110  1  0.43719000  0.10951000  0.42282000  1.0
  F  F111  1  0.56281000  0.89049000  0.57719000  1.0
  F  F112  1  0.21652000  0.25793000  0.54133000  1.0
  F  F113  1  0.78348000  0.74207000  0.45867000  1.0
  F  F114  1  0.29435000  0.40413000  0.48911000  1.0
  F  F115  1  0.70565000  0.59587000  0.51089000  1.0
  F  F116  1  0.26853000  0.29311000  0.39376000  1.0
  F  F117  1  0.73147000  0.70689000  0.60624000  1.0
  F  F118  1  0.46662000  0.11685000  0.56546000  1.0
  F  F119  1  0.53338000  0.88315000  0.43454000  1.0
  F  F120  1  0.68521000  0.11399000  0.45614000  1.0
  F  F121  1  0.31479000  0.88600000  0.54386000  1.0
