# generated using pymatgen
data_Cu2H4C6BrN5
_symmetry_space_group_name_H-M   'P 1'
_cell_length_a   3.74326000
_cell_length_b   9.99534000
_cell_length_c   11.55930000
_cell_angle_alpha   103.59400000
_cell_angle_beta   90.14090000
_cell_angle_gamma   100.68800000
_symmetry_Int_Tables_number   1
_chemical_formula_structural   Cu2H4C6BrN5
_chemical_formula_sum   'Cu4 H8 C12 Br2 N10'
_cell_volume   412.60375372
_cell_formula_units_Z   2
loop_
 _symmetry_equiv_pos_site_id
 _symmetry_equiv_pos_as_xyz
  1  'x, y, z'
loop_
 _atom_site_type_symbol
 _atom_site_label
 _atom_site_symmetry_multiplicity
 _atom_site_fract_x
 _atom_site_fract_y
 _atom_site_fract_z
 _atom_site_occupancy
  Cu  Cu0  1  0.71541000  0.47518000  0.18248000  1.0
  Cu  Cu1  1  0.76261000  0.47521000  0.68266000  1.0
  Cu  Cu2  1  0.79877000  0.28260000  0.86578000  1.0
  Cu  Cu3  1  0.48501000  0.28212000  0.36665000  1.0
  H  H4  1  0.44415000  0.89368000  0.06486000  1.0
  H  H5  1  0.45094000  0.89197000  0.56513000  1.0
  H  H6  1  0.91763000  0.77756000  0.72304000  1.0
  H  H7  1  0.85557000  0.77838000  0.22364000  1.0
  H  H8  1  0.46976000  0.13151000  0.02953000  1.0
  H  H9  1  0.66115000  0.13031000  0.53090000  1.0
  H  H10  1  0.94918000  0.02245000  0.70641000  1.0
  H  H11  1  0.06936000  0.02336000  0.20782000  1.0
  C  C12  1  0.69998000  0.68223000  0.92683000  1.0
  C  C13  1  0.98253000  0.68165000  0.42686000  1.0
  C  C14  1  0.68390000  0.81533000  0.89818000  1.0
  C  C15  1  0.13026000  0.81490000  0.39854000  1.0
  C  C16  1  0.55459000  0.91791000  0.98360000  1.0
  C  C17  1  0.36346000  0.91691000  0.48416000  1.0
  C  C18  1  0.81448000  0.85150000  0.79386000  1.0
  C  C19  1  0.03388000  0.85177000  0.29458000  1.0
  C  C20  1  0.57170000  0.05065000  0.96504000  1.0
  C  C21  1  0.47810000  0.04991000  0.46617000  1.0
  C  C22  1  0.83054000  0.98798000  0.78308000  1.0
  C  C23  1  0.15436000  0.98834000  0.28426000  1.0
  Br  Br24  1  0.12628000  0.29561000  0.17521000  1.0
  Br  Br25  1  0.17295000  0.29575000  0.67576000  1.0
  N  N26  1  0.66807000  0.66873000  0.03990000  1.0
  N  N27  1  0.00192000  0.66812000  0.53994000  1.0
  N  N28  1  0.71860000  0.54030000  0.03795000  1.0
  N  N29  1  0.82437000  0.53968000  0.53791000  1.0
  N  N30  1  0.77549000  0.47456000  0.92654000  1.0
  N  N31  1  0.70093000  0.47396000  0.42644000  1.0
  N  N32  1  0.76735000  0.56264000  0.85477000  1.0
  N  N33  1  0.79605000  0.56202000  0.35469000  1.0
  N  N34  1  0.71646000  0.08806000  0.86728000  1.0
  N  N35  1  0.36960000  0.08793000  0.36862000  1.0
