# generated using pymatgen
data_Cu5H20C16(NO3)6
_symmetry_space_group_name_H-M   'P 1'
_cell_length_a   10.64480000
_cell_length_b   11.97890000
_cell_length_c   12.01870000
_cell_angle_alpha   89.98960000
_cell_angle_beta   89.95800000
_cell_angle_gamma   104.46900000
_symmetry_Int_Tables_number   1
_chemical_formula_structural   Cu5H20C16(NO3)6
_chemical_formula_sum   'Cu10 H40 C32 N12 O36'
_cell_volume   1483.93229076
_cell_formula_units_Z   2
loop_
 _symmetry_equiv_pos_site_id
 _symmetry_equiv_pos_as_xyz
  1  'x, y, z'
loop_
 _atom_site_type_symbol
 _atom_site_label
 _atom_site_symmetry_multiplicity
 _atom_site_fract_x
 _atom_site_fract_y
 _atom_site_fract_z
 _atom_site_occupancy
  Cu  Cu0  1  0.50002000  0.50000000  0.49987000  1.0
  Cu  Cu1  1  1.00000000  0.00003000  0.99988000  1.0
  Cu  Cu2  1  0.70710000  0.11531000  0.30763000  1.0
  Cu  Cu3  1  0.79308000  0.38461000  0.80755000  1.0
  Cu  Cu4  1  0.29308000  0.88445000  0.69243000  1.0
  Cu  Cu5  1  0.20675000  0.61553000  0.19249000  1.0
  Cu  Cu6  1  0.87891000  0.51903000  0.16347000  1.0
  Cu  Cu7  1  0.62104000  0.98115000  0.66341000  1.0
  Cu  Cu8  1  0.12096000  0.48094000  0.83650000  1.0
  Cu  Cu9  1  0.37912000  0.01896000  0.33657000  1.0
  H  H10  1  0.79408000  0.60007000  0.40838000  1.0
  H  H11  1  0.70581000  0.89968000  0.90834000  1.0
  H  H12  1  0.20611000  0.40000000  0.59178000  1.0
  H  H13  1  0.29390000  0.10019000  0.09182000  1.0
  H  H14  1  0.91500000  0.67989000  0.35008000  1.0
  H  H15  1  0.58475000  0.82009000  0.85023000  1.0
  H  H16  1  0.08480000  0.32040000  0.64974000  1.0
  H  H17  1  0.41532000  0.17965000  0.14960000  1.0
  H  H18  1  0.38616000  0.42191000  0.74854000  1.0
  H  H19  1  0.11398000  0.07824000  0.24831000  1.0
  H  H20  1  0.61380000  0.57789000  0.25155000  1.0
  H  H21  1  0.88607000  0.92194000  0.75176000  1.0
  H  H22  1  0.51794000  0.40626000  0.70081000  1.0
  H  H23  1  0.98213000  0.09377000  0.20075000  1.0
  H  H24  1  0.48192000  0.59353000  0.29910000  1.0
  H  H25  1  0.01797000  0.90636000  0.79915000  1.0
  H  H26  1  0.67558000  0.75487000  0.54289000  1.0
  H  H27  1  0.82506000  0.74560000  0.04300000  1.0
  H  H28  1  0.32451000  0.24533000  0.45702000  1.0
  H  H29  1  0.17494000  0.25437000  0.95691000  1.0
  H  H30  1  0.27642000  0.61897000  0.59712000  1.0
  H  H31  1  0.22424000  0.88112000  0.09709000  1.0
  H  H32  1  0.72384000  0.38066000  0.40306000  1.0
  H  H33  1  0.77557000  0.11924000  0.90307000  1.0
  H  H34  1  0.96612000  0.06184000  0.39556000  1.0
  H  H35  1  0.53423000  0.43845000  0.89546000  1.0
  H  H36  1  0.03398000  0.93813000  0.60444000  1.0
  H  H37  1  0.46567000  0.56165000  0.10448000  1.0
  H  H38  1  0.09729000  0.34417000  0.20554000  1.0
  H  H39  1  0.40317000  0.15611000  0.70555000  1.0
  H  H40  1  0.90307000  0.65595000  0.79463000  1.0
  H  H41  1  0.59639000  0.84375000  0.29464000  1.0
  H  H42  1  0.04972000  0.45707000  0.42622000  1.0
  H  H43  1  0.45011000  0.04256000  0.92600000  1.0
  H  H44  1  0.95050000  0.54366000  0.57354000  1.0
  H  H45  1  0.54964000  0.95655000  0.07375000  1.0
  H  H46  1  0.08653000  0.32167000  0.41490000  1.0
  H  H47  1  0.41380000  0.17824000  0.91487000  1.0
  H  H48  1  0.91329000  0.67881000  0.58547000  1.0
  H  H49  1  0.58636000  0.82121000  0.08556000  1.0
  C  C50  1  0.90359000  0.32144000  0.26202000  1.0
  C  C51  1  0.59679000  0.17859000  0.76210000  1.0
  C  C52  1  0.09651000  0.67844000  0.73796000  1.0
  C  C53  1  0.40307000  0.82155000  0.23787000  1.0
  C  C54  1  0.24463000  0.46670000  0.37933000  1.0
  C  C55  1  0.25537000  0.03350000  0.87923000  1.0
  C  C56  1  0.75536000  0.53332000  0.62048000  1.0
  C  C57  1  0.74459000  0.96642000  0.12063000  1.0
  C  C58  1  0.57534000  0.74554000  0.56603000  1.0
  C  C59  1  0.92522000  0.75478000  0.06614000  1.0
  C  C60  1  0.42472000  0.25454000  0.43385000  1.0
  C  C61  1  0.07480000  0.24524000  0.93375000  1.0
  C  C62  1  0.37208000  0.67702000  0.59289000  1.0
  C  C63  1  0.12845000  0.82326000  0.09285000  1.0
  C  C64  1  0.62805000  0.32279000  0.40709000  1.0
  C  C65  1  0.87151000  0.17694000  0.90715000  1.0
  C  C66  1  0.82164000  0.00543000  0.52606000  1.0
  C  C67  1  0.67830000  0.49457000  0.02612000  1.0
  C  C68  1  0.17862000  0.99450000  0.47407000  1.0
  C  C69  1  0.32146000  0.50551000  0.97401000  1.0
  C  C70  1  0.95231000  0.01886000  0.47620000  1.0
  C  C71  1  0.54776000  0.48119000  0.97619000  1.0
  C  C72  1  0.04790000  0.98108000  0.52377000  1.0
  C  C73  1  0.45206000  0.51891000  0.02377000  1.0
  C  C74  1  0.04427000  0.39311000  0.25833000  1.0
  C  C75  1  0.45608000  0.10703000  0.75826000  1.0
  C  C76  1  0.95579000  0.60696000  0.74168000  1.0
  C  C77  1  0.54383000  0.89291000  0.24179000  1.0
  C  C78  1  0.10163000  0.40646000  0.37530000  1.0
  C  C79  1  0.39844000  0.09346000  0.87522000  1.0
  C  C80  1  0.89837000  0.59383000  0.62474000  1.0
  C  C81  1  0.60156000  0.90617000  0.12489000  1.0
  N  N82  1  0.40094000  0.78523000  0.62958000  1.0
  N  N83  1  0.09931000  0.71491000  0.12940000  1.0
  N  N84  1  0.59906000  0.21457000  0.37044000  1.0
  N  N85  1  0.90076000  0.28533000  0.87066000  1.0
  N  N86  1  0.47902000  0.64864000  0.55278000  1.0
  N  N87  1  0.02165000  0.85176000  0.05291000  1.0
  N  N88  1  0.52116000  0.35135000  0.44711000  1.0
  N  N89  1  0.97829000  0.14832000  0.94698000  1.0
  N  N90  1  0.53015000  0.82837000  0.61234000  1.0
  N  N91  1  0.97016000  0.67180000  0.11228000  1.0
  N  N92  1  0.46980000  0.17161000  0.38761000  1.0
  N  N93  1  0.02994000  0.32830000  0.88770000  1.0
  O  O94  1  0.86717000  0.59984000  0.35793000  1.0
  O  O95  1  0.63273000  0.90010000  0.85804000  1.0
  O  O96  1  0.13305000  0.40038000  0.64220000  1.0
  O  O97  1  0.36696000  0.09971000  0.14211000  1.0
  O  O98  1  0.80001000  0.96646000  0.62688000  1.0
  O  O99  1  0.69973000  0.53349000  0.12694000  1.0
  O  O100  1  0.20032000  0.03359000  0.37329000  1.0
  O  O101  1  0.30000000  0.46642000  0.87327000  1.0
  O  O102  1  0.87810000  0.22890000  0.31778000  1.0
  O  O103  1  0.62235000  0.27093000  0.81808000  1.0
  O  O104  1  0.12217000  0.77093000  0.68212000  1.0
  O  O105  1  0.37740000  0.72922000  0.18187000  1.0
  O  O106  1  0.81838000  0.35877000  0.20887000  1.0
  O  O107  1  0.68204000  0.14123000  0.70886000  1.0
  O  O108  1  0.18159000  0.64109000  0.79126000  1.0
  O  O109  1  0.31797000  0.85893000  0.29128000  1.0
  O  O110  1  0.30624000  0.44484000  0.46461000  1.0
  O  O111  1  0.19374000  0.05558000  0.96449000  1.0
  O  O112  1  0.69394000  0.55503000  0.53502000  1.0
  O  O113  1  0.80607000  0.94456000  0.03517000  1.0
  O  O114  1  0.29851000  0.53495000  0.30212000  1.0
  O  O115  1  0.20152000  0.96529000  0.80209000  1.0
  O  O116  1  0.70127000  0.46505000  0.69761000  1.0
  O  O117  1  0.79863000  0.03459000  0.19772000  1.0
  O  O118  1  0.04542000  0.50071000  0.20995000  1.0
  O  O119  1  0.45480000  0.99950000  0.70966000  1.0
  O  O120  1  0.95435000  0.49927000  0.78999000  1.0
  O  O121  1  0.54539000  0.00050000  0.29029000  1.0
  O  O122  1  0.73383000  0.03108000  0.46899000  1.0
  O  O123  1  0.76621000  0.46898000  0.96902000  1.0
  O  O124  1  0.26633000  0.96874000  0.53115000  1.0
  O  O125  1  0.23359000  0.53124000  0.03105000  1.0
  O  O126  1  0.42469000  0.39126000  0.68449000  1.0
  O  O127  1  0.07540000  0.10885000  0.18433000  1.0
  O  O128  1  0.57511000  0.60834000  0.31563000  1.0
  O  O129  1  0.92478000  0.89154000  0.81580000  1.0
