# generated using pymatgen
data_CdH6C9SO4
_symmetry_space_group_name_H-M   'P 1'
_cell_length_a   5.98538000
_cell_length_b   7.86434000
_cell_length_c   10.05870000
_cell_angle_alpha   93.35280000
_cell_angle_beta   89.99470000
_cell_angle_gamma   89.99920000
_symmetry_Int_Tables_number   1
_chemical_formula_structural   CdH6C9SO4
_chemical_formula_sum   'Cd2 H12 C18 S2 O8'
_cell_volume   472.66327941
_cell_formula_units_Z   2
loop_
 _symmetry_equiv_pos_site_id
 _symmetry_equiv_pos_as_xyz
  1  'x, y, z'
loop_
 _atom_site_type_symbol
 _atom_site_label
 _atom_site_symmetry_multiplicity
 _atom_site_fract_x
 _atom_site_fract_y
 _atom_site_fract_z
 _atom_site_occupancy
  Cd  Cd0  1  0.58046000  0.61849000  0.55150000  1.0
  Cd  Cd1  1  0.08046000  0.38153000  0.44850000  1.0
  H  H2  1  0.07238000  0.70996000  0.83247000  1.0
  H  H3  1  0.57242000  0.29004000  0.16751000  1.0
  H  H4  1  0.10692000  0.60215000  0.05700000  1.0
  H  H5  1  0.60694000  0.39786000  0.94297000  1.0
  H  H6  1  0.45136000  0.79172000  0.15897000  1.0
  H  H7  1  0.95136000  0.20826000  0.84107000  1.0
  H  H8  1  0.41294000  0.90339000  0.93436000  1.0
  H  H9  1  0.91298000  0.09656000  0.06566000  1.0
  H  H10  1  0.94380000  0.01056000  0.56212000  1.0
  H  H11  1  0.44383000  0.98942000  0.43786000  1.0
  H  H12  1  0.08453000  0.98062000  0.71190000  1.0
  H  H13  1  0.58455000  0.01940000  0.28807000  1.0
  C  C14  1  0.74091000  0.81664000  0.86881000  1.0
  C  C15  1  0.24095000  0.18336000  0.13119000  1.0
  C  C16  1  0.93627000  0.73134000  0.90320000  1.0
  C  C17  1  0.43630000  0.26866000  0.09680000  1.0
  C  C18  1  0.95642000  0.67006000  0.02992000  1.0
  C  C19  1  0.45645000  0.32994000  0.97006000  1.0
  C  C20  1  0.78460000  0.69425000  0.12366000  1.0
  C  C21  1  0.28461000  0.30573000  0.87635000  1.0
  C  C22  1  0.58780000  0.77670000  0.08740000  1.0
  C  C23  1  0.08782000  0.22328000  0.91261000  1.0
  C  C24  1  0.56545000  0.83750000  0.96106000  1.0
  C  C25  1  0.06547000  0.16248000  0.03897000  1.0
  C  C26  1  0.81020000  0.63350000  0.26142000  1.0
  C  C27  1  0.31020000  0.36650000  0.73858000  1.0
  C  C28  1  0.96727000  0.91965000  0.63991000  1.0
  C  C29  1  0.46728000  0.08035000  0.36008000  1.0
  C  C30  1  0.07171000  0.75779000  0.57790000  1.0
  C  C31  1  0.57171000  0.24222000  0.42209000  1.0
  S  S32  1  0.69447000  0.90547000  0.71351000  1.0
  S  S33  1  0.19449000  0.09452000  0.28650000  1.0
  O  O34  1  0.69614000  0.71151000  0.35271000  1.0
  O  O35  1  0.19611000  0.28852000  0.64731000  1.0
  O  O36  1  0.94461000  0.50931000  0.27356000  1.0
  O  O37  1  0.44461000  0.49071000  0.72644000  1.0
  O  O38  1  0.96956000  0.61556000  0.58492000  1.0
  O  O39  1  0.46956000  0.38444000  0.41509000  1.0
  O  O40  1  0.25900000  0.77573000  0.52303000  1.0
  O  O41  1  0.75897000  0.22428000  0.47696000  1.0
