# generated using pymatgen
data_AlH10C14O5
_symmetry_space_group_name_H-M   'P 1'
_cell_length_a   6.60745000
_cell_length_b   10.96055324
_cell_length_c   15.22190000
_cell_angle_alpha   90.27829248
_cell_angle_beta   101.36840000
_cell_angle_gamma   105.59844149
_symmetry_Int_Tables_number   1
_chemical_formula_structural   AlH10C14O5
_chemical_formula_sum   'Al2 H20 C28 O10'
_cell_volume   1039.00044198
_cell_formula_units_Z   2
loop_
 _symmetry_equiv_pos_site_id
 _symmetry_equiv_pos_as_xyz
  1  'x, y, z'
loop_
 _atom_site_type_symbol
 _atom_site_label
 _atom_site_symmetry_multiplicity
 _atom_site_fract_x
 _atom_site_fract_y
 _atom_site_fract_z
 _atom_site_occupancy
  Al  Al0  1  0.01037000  0.50314000  0.49894000  1.0
  Al  Al1  1  0.51332000  0.50727000  0.50062000  1.0
  H  H2  1  0.34352000  0.59343000  0.60243000  1.0
  H  H3  1  0.66504000  0.34780000  0.46058000  1.0
  H  H4  1  0.55506000  0.44407000  0.77591000  1.0
  H  H5  1  0.64311000  0.43131000  0.94043000  1.0
  H  H6  1  0.45982000  0.59694000  0.22796000  1.0
  H  H7  1  0.36953000  0.59761000  0.06260000  1.0
  H  H8  1  0.81648000  0.37464000  0.22891000  1.0
  H  H9  1  0.73090000  0.36058000  0.06306000  1.0
  H  H10  1  0.22585000  0.54605000  0.76884000  1.0
  H  H11  1  0.31755000  0.53033000  0.93276000  1.0
  H  H12  1  0.51482000  0.77462000  0.38092000  1.0
  H  H13  1  0.78483000  0.24289000  0.38163000  1.0
  H  H14  1  0.37710000  0.11337000  0.54980000  1.0
  H  H15  1  0.25165000  0.87612000  0.53866000  1.0
  H  H16  1  0.09804000  0.91072000  0.30656000  1.0
  H  H17  1  0.18715000  0.77487000  0.29011000  1.0
  H  H18  1  0.20783000  0.89530000  0.21157000  1.0
  H  H19  1  0.34284000  0.12926000  0.21259000  1.0
  H  H20  1  0.46398000  0.25868000  0.29435000  1.0
  H  H21  1  0.22986000  0.14062000  0.30715000  1.0
  C  C22  1  0.86447000  0.72863000  0.48097000  1.0
  C  C23  1  0.83280000  0.50883000  0.66305000  1.0
  C  C24  1  0.14936000  0.27550000  0.49926000  1.0
  C  C25  1  0.19422000  0.49459000  0.33850000  1.0
  C  C26  1  0.88498000  0.49785000  0.76191000  1.0
  C  C27  1  0.14323000  0.48694000  0.23872000  1.0
  C  C28  1  0.72199000  0.46384000  0.81116000  1.0
  C  C29  1  0.77294000  0.45591000  0.90364000  1.0
  C  C30  1  0.29973000  0.54670000  0.19097000  1.0
  C  C31  1  0.24841000  0.54493000  0.09788000  1.0
  C  C32  1  0.93744000  0.42150000  0.19151000  1.0
  C  C33  1  0.88960000  0.41584000  0.09825000  1.0
  C  C34  1  0.09931000  0.52103000  0.80724000  1.0
  C  C35  1  0.14950000  0.51269000  0.89958000  1.0
  C  C36  1  0.98790000  0.48160000  0.95037000  1.0
  C  C37  1  0.04240000  0.47960000  0.04927000  1.0
  C  C38  1  0.92988000  0.86879000  0.47363000  1.0
  C  C39  1  0.78500000  0.93757000  0.43140000  1.0
  C  C40  1  0.14184000  0.93145000  0.51138000  1.0
  C  C41  1  0.57447000  0.87757000  0.38231000  1.0
  C  C42  1  0.44314000  0.94523000  0.33578000  1.0
  C  C43  1  0.07346000  0.13503000  0.48219000  1.0
  C  C44  1  0.21293000  0.06445000  0.51664000  1.0
  C  C45  1  0.86063000  0.07352000  0.43391000  1.0
  C  C46  1  0.72415000  0.14056000  0.38437000  1.0
  C  C47  1  0.52054000  0.08044000  0.33634000  1.0
  C  C48  1  0.22296000  0.87760000  0.28343000  1.0
  C  C49  1  0.38327000  0.15653000  0.28499000  1.0
  O  O50  1  0.99975000  0.66947000  0.46957000  1.0
  O  O51  1  0.63657000  0.49578000  0.62613000  1.0
  O  O52  1  0.34165000  0.33061000  0.49247000  1.0
  O  O53  1  0.03640000  0.47058000  0.37820000  1.0
  O  O54  1  0.01695000  0.33071000  0.52030000  1.0
  O  O55  1  0.39150000  0.52403000  0.37744000  1.0
  O  O56  1  0.68431000  0.67823000  0.50188000  1.0
  O  O57  1  0.98914000  0.53136000  0.62222000  1.0
  O  O58  1  0.30562000  0.56485000  0.53949000  1.0
  O  O59  1  0.71442000  0.43995000  0.46395000  1.0
