# generated using pymatgen
data_Mn3H40C48(NO10)2
_symmetry_space_group_name_H-M   'P 1'
_cell_length_a   9.17724000
_cell_length_b   17.25440000
_cell_length_c   17.25440000
_cell_angle_alpha   75.25840000
_cell_angle_beta   78.75000000
_cell_angle_gamma   78.74850000
_symmetry_Int_Tables_number   1
_chemical_formula_structural   Mn3H40C48(NO10)2
_chemical_formula_sum   'Mn6 H80 C96 N4 O40'
_cell_volume   2560.82940108
_cell_formula_units_Z   2
loop_
 _symmetry_equiv_pos_site_id
 _symmetry_equiv_pos_as_xyz
  1  'x, y, z'
loop_
 _atom_site_type_symbol
 _atom_site_label
 _atom_site_symmetry_multiplicity
 _atom_site_fract_x
 _atom_site_fract_y
 _atom_site_fract_z
 _atom_site_occupancy
  Mn  Mn0  1  0.44567000  0.18624000  0.31067000  1.0
  Mn  Mn1  1  0.05436000  0.68934000  0.81372000  1.0
  Mn  Mn2  1  0.55432000  0.81368000  0.68935000  1.0
  Mn  Mn3  1  0.94566000  0.31070000  0.18624000  1.0
  Mn  Mn4  1  0.50014000  0.99980000  0.50006000  1.0
  Mn  Mn5  1  0.00008000  0.50001000  0.99990000  1.0
  H  H6  1  0.41729000  0.83375000  0.38819000  1.0
  H  H7  1  0.08270000  0.61181000  0.16624000  1.0
  H  H8  1  0.58269000  0.16623000  0.61181000  1.0
  H  H9  1  0.91730000  0.38819000  0.83375000  1.0
  H  H10  1  0.43144000  0.78338000  0.15400000  1.0
  H  H11  1  0.06850000  0.84601000  0.21662000  1.0
  H  H12  1  0.56849000  0.21660000  0.84601000  1.0
  H  H13  1  0.93144000  0.15401000  0.78338000  1.0
  H  H14  1  0.41011000  0.02938000  0.17505000  1.0
  H  H15  1  0.08990000  0.82495000  0.97061000  1.0
  H  H16  1  0.58989000  0.97060000  0.82494000  1.0
  H  H17  1  0.91011000  0.17506000  0.02938000  1.0
  H  H18  1  0.69366000  0.84793000  0.07516000  1.0
  H  H19  1  0.80632000  0.92485000  0.15207000  1.0
  H  H20  1  0.30631000  0.15206000  0.92486000  1.0
  H  H21  1  0.19365000  0.07517000  0.84793000  1.0
  H  H22  1  0.81358000  0.76558000  0.97306000  1.0
  H  H23  1  0.68643000  0.02697000  0.23443000  1.0
  H  H24  1  0.18644000  0.23443000  0.02696000  1.0
  H  H25  1  0.31357000  0.97305000  0.76558000  1.0
  H  H26  1  0.42139000  0.83999000  0.85521000  1.0
  H  H27  1  0.07861000  0.14480000  0.15999000  1.0
  H  H28  1  0.57865000  0.15999000  0.14479000  1.0
  H  H29  1  0.92139000  0.85521000  0.84001000  1.0
  H  H30  1  0.30028000  0.92259000  0.95760000  1.0
  H  H31  1  0.19971000  0.04240000  0.07740000  1.0
  H  H32  1  0.69972000  0.07740000  0.04239000  1.0
  H  H33  1  0.80028000  0.95760000  0.92259000  1.0
  H  H34  1  0.69340000  0.72606000  0.20679000  1.0
  H  H35  1  0.80656000  0.79322000  0.27394000  1.0
  H  H36  1  0.30657000  0.27394000  0.79323000  1.0
  H  H37  1  0.19339000  0.20680000  0.72606000  1.0
  H  H38  1  0.84179000  0.60856000  0.15388000  1.0
  H  H39  1  0.65819000  0.84614000  0.39143000  1.0
  H  H40  1  0.15821000  0.39143000  0.84615000  1.0
  H  H41  1  0.34177000  0.15388000  0.60857000  1.0
  H  H42  1  0.50206000  0.46208000  0.28075000  1.0
  H  H43  1  0.99793000  0.71926000  0.53791000  1.0
  H  H44  1  0.49792000  0.53790000  0.71925000  1.0
  H  H45  1  0.00203000  0.28075000  0.46209000  1.0
  H  H46  1  0.34875000  0.58092000  0.33052000  1.0
  H  H47  1  0.15122000  0.66948000  0.41908000  1.0
  H  H48  1  0.65121000  0.41906000  0.66947000  1.0
  H  H49  1  0.84873000  0.33053000  0.58092000  1.0
  H  H50  1  0.06421000  0.07524000  0.62824000  1.0
  H  H51  1  0.43588000  0.37173000  0.92475000  1.0
  H  H52  1  0.93588000  0.92476000  0.37172000  1.0
  H  H53  1  0.56420000  0.62825000  0.07525000  1.0
  H  H54  1  0.92166000  0.02106000  0.69354000  1.0
  H  H55  1  0.57843000  0.30644000  0.97896000  1.0
  H  H56  1  0.07842000  0.97896000  0.30643000  1.0
  H  H57  1  0.42163000  0.69355000  0.02106000  1.0
  H  H58  1  0.89414000  0.07294000  0.59284000  1.0
  H  H59  1  0.60594000  0.40714000  0.92708000  1.0
  H  H60  1  0.10595000  0.92708000  0.40714000  1.0
  H  H61  1  0.39412000  0.59285000  0.07294000  1.0
  H  H62  1  0.02330000  0.85413000  0.58347000  1.0
  H  H63  1  0.47667000  0.41653000  0.14587000  1.0
  H  H64  1  0.97666000  0.14588000  0.41652000  1.0
  H  H65  1  0.52330000  0.58348000  0.85414000  1.0
  H  H66  1  0.86668000  0.93355000  0.56728000  1.0
  H  H67  1  0.63332000  0.43272000  0.06647000  1.0
  H  H68  1  0.13332000  0.06648000  0.43272000  1.0
  H  H69  1  0.36667000  0.56728000  0.93355000  1.0
  H  H70  1  0.90127000  0.88469000  0.66745000  1.0
  H  H71  1  0.59873000  0.33255000  0.11534000  1.0
  H  H72  1  0.09873000  0.11534000  0.33254000  1.0
  H  H73  1  0.40125000  0.66745000  0.88469000  1.0
  H  H74  1  0.23704000  0.89496000  0.55601000  1.0
  H  H75  1  0.26293000  0.44398000  0.10500000  1.0
  H  H76  1  0.76292000  0.10500000  0.44397000  1.0
  H  H77  1  0.73704000  0.55602000  0.89498000  1.0
  H  H78  1  0.59635000  0.33052000  0.28861000  1.0
  H  H79  1  0.90363000  0.71140000  0.66949000  1.0
  H  H80  1  0.40365000  0.66949000  0.71140000  1.0
  H  H81  1  0.09636000  0.28861000  0.33053000  1.0
  H  H82  1  0.55262000  0.29146000  0.37983000  1.0
  H  H83  1  0.94740000  0.62018000  0.70857000  1.0
  H  H84  1  0.44738000  0.70858000  0.62018000  1.0
  H  H85  1  0.05262000  0.37983000  0.29144000  1.0
  C  C86  1  0.40494000  0.99900000  0.33632000  1.0
  C  C87  1  0.09508000  0.66368000  0.00098000  1.0
  C  C88  1  0.59508000  0.00097000  0.66368000  1.0
  C  C89  1  0.90496000  0.33631000  0.99900000  1.0
  C  C90  1  0.41107000  0.93782000  0.28659000  1.0
  C  C91  1  0.08893000  0.71340000  0.06217000  1.0
  C  C92  1  0.58892000  0.06217000  0.71340000  1.0
  C  C93  1  0.91107000  0.28660000  0.93782000  1.0
  C  C94  1  0.41828000  0.85486000  0.32305000  1.0
  C  C95  1  0.08170000  0.67694000  0.14513000  1.0
  C  C96  1  0.58170000  0.14512000  0.67694000  1.0
  C  C97  1  0.91829000  0.32306000  0.85486000  1.0
  C  C98  1  0.42816000  0.80013000  0.27435000  1.0
  C  C99  1  0.07180000  0.72566000  0.19986000  1.0
  C  C100  1  0.57179000  0.19985000  0.72566000  1.0
  C  C101  1  0.92816000  0.27435000  0.80013000  1.0
  C  C102  1  0.42808000  0.82646000  0.19089000  1.0
  C  C103  1  0.07187000  0.80911000  0.17354000  1.0
  C  C104  1  0.57185000  0.17353000  0.80911000  1.0
  C  C105  1  0.92808000  0.19090000  0.82645000  1.0
  C  C106  1  0.42380000  0.90905000  0.15590000  1.0
  C  C107  1  0.07617000  0.84411000  0.09095000  1.0
  C  C108  1  0.57615000  0.09093000  0.84411000  1.0
  C  C109  1  0.92380000  0.15591000  0.90905000  1.0
  C  C110  1  0.41412000  0.96513000  0.20286000  1.0
  C  C111  1  0.08588000  0.79714000  0.03487000  1.0
  C  C112  1  0.58586000  0.03486000  0.79714000  1.0
  C  C113  1  0.91412000  0.20287000  0.96513000  1.0
  C  C114  1  0.48978000  0.88921000  0.02151000  1.0
  C  C115  1  0.01021000  0.97850000  0.11078000  1.0
  C  C116  1  0.51021000  0.11078000  0.97849000  1.0
  C  C117  1  0.98977000  0.02151000  0.88921000  1.0
  C  C118  1  0.63419000  0.84543000  0.02722000  1.0
  C  C119  1  0.86580000  0.97280000  0.15456000  1.0
  C  C120  1  0.36580000  0.15456000  0.97280000  1.0
  C  C121  1  0.13418000  0.02722000  0.84543000  1.0
  C  C122  1  0.70095000  0.79974000  0.97044000  1.0
  C  C123  1  0.79905000  0.02958000  0.20025000  1.0
  C  C124  1  0.29905000  0.20025000  0.02957000  1.0
  C  C125  1  0.20094000  0.97044000  0.79975000  1.0
  C  C126  1  0.62497000  0.79785000  0.90792000  1.0
  C  C127  1  0.87504000  0.09210000  0.20213000  1.0
  C  C128  1  0.37505000  0.20214000  0.09209000  1.0
  C  C129  1  0.12496000  0.90792000  0.79786000  1.0
  C  C130  1  0.48006000  0.84161000  0.90372000  1.0
  C  C131  1  0.01994000  0.09630000  0.15837000  1.0
  C  C132  1  0.51996000  0.15838000  0.09629000  1.0
  C  C133  1  0.98006000  0.90371000  0.84162000  1.0
  C  C134  1  0.41211000  0.88760000  0.96023000  1.0
  C  C135  1  0.08788000  0.03977000  0.11239000  1.0
  C  C136  1  0.58789000  0.11239000  0.03977000  1.0
  C  C137  1  0.91211000  0.96023000  0.88760000  1.0
  C  C138  1  0.69978000  0.74967000  0.84679000  1.0
  C  C139  1  0.80026000  0.15323000  0.25032000  1.0
  C  C140  1  0.30026000  0.25032000  0.15323000  1.0
  C  C141  1  0.19976000  0.84678000  0.74968000  1.0
  C  C142  1  0.51322000  0.65952000  0.27360000  1.0
  C  C143  1  0.98675000  0.72640000  0.34047000  1.0
  C  C144  1  0.48675000  0.34046000  0.72641000  1.0
  C  C145  1  0.01321000  0.27360000  0.65952000  1.0
  C  C146  1  0.65089000  0.66850000  0.22262000  1.0
  C  C147  1  0.84906000  0.77739000  0.33149000  1.0
  C  C148  1  0.34907000  0.33149000  0.77740000  1.0
  C  C149  1  0.15089000  0.22262000  0.66850000  1.0
  C  C150  1  0.73449000  0.60260000  0.19330000  1.0
  C  C151  1  0.76548000  0.80672000  0.39738000  1.0
  C  C152  1  0.26548000  0.39738000  0.80673000  1.0
  C  C153  1  0.23448000  0.19330000  0.60261000  1.0
  C  C154  1  0.68384000  0.52725000  0.21482000  1.0
  C  C155  1  0.81615000  0.78520000  0.47274000  1.0
  C  C156  1  0.31615000  0.47274000  0.78520000  1.0
  C  C157  1  0.18383000  0.21482000  0.52725000  1.0
  C  C158  1  0.54348000  0.52008000  0.26399000  1.0
  C  C159  1  0.95650000  0.73602000  0.47992000  1.0
  C  C160  1  0.45650000  0.47991000  0.73601000  1.0
  C  C161  1  0.04347000  0.26399000  0.52008000  1.0
  C  C162  1  0.45786000  0.58581000  0.29263000  1.0
  C  C163  1  0.04211000  0.70737000  0.41419000  1.0
  C  C164  1  0.54210000  0.41418000  0.70736000  1.0
  C  C165  1  0.95785000  0.29264000  0.58582000  1.0
  C  C166  1  0.78138000  0.45493000  0.19087000  1.0
  C  C167  1  0.71863000  0.80915000  0.54506000  1.0
  C  C168  1  0.21864000  0.54506000  0.80915000  1.0
  C  C169  1  0.28139000  0.19087000  0.45492000  1.0
  C  C170  1  0.97857000  0.03821000  0.63089000  1.0
  C  C171  1  0.52149000  0.36910000  0.96180000  1.0
  C  C172  1  0.02149000  0.96181000  0.36909000  1.0
  C  C173  1  0.47856000  0.63090000  0.03821000  1.0
  C  C174  1  0.95489000  0.90616000  0.60503000  1.0
  C  C175  1  0.54509000  0.39497000  0.09386000  1.0
  C  C176  1  0.04508000  0.09386000  0.39496000  1.0
  C  C177  1  0.45489000  0.60504000  0.90616000  1.0
  C  C178  1  0.19719000  0.95249000  0.57573000  1.0
  C  C179  1  0.30282000  0.42426000  0.04748000  1.0
  C  C180  1  0.80281000  0.04748000  0.42425000  1.0
  C  C181  1  0.69719000  0.57574000  0.95251000  1.0
  N  N182  1  0.04997000  0.96543000  0.60222000  1.0
  N  N183  1  0.45006000  0.39777000  0.03457000  1.0
  N  N184  1  0.95006000  0.03457000  0.39776000  1.0
  N  N185  1  0.54996000  0.60223000  0.96544000  1.0
  O  O186  1  0.40617000  0.97148000  0.41224000  1.0
  O  O187  1  0.09387000  0.58776000  0.02849000  1.0
  O  O188  1  0.59387000  0.02848000  0.58776000  1.0
  O  O189  1  0.90617000  0.41224000  0.97147000  1.0
  O  O190  1  0.39807000  0.07298000  0.29923000  1.0
  O  O191  1  0.10198000  0.70078000  0.92700000  1.0
  O  O192  1  0.60198000  0.92699000  0.70078000  1.0
  O  O193  1  0.89809000  0.29923000  0.07297000  1.0
  O  O194  1  0.42129000  0.93901000  0.07391000  1.0
  O  O195  1  0.07870000  0.92609000  0.06099000  1.0
  O  O196  1  0.57869000  0.06098000  0.92609000  1.0
  O  O197  1  0.92127000  0.07392000  0.93901000  1.0
  O  O198  1  0.83327000  0.71405000  0.85368000  1.0
  O  O199  1  0.66679000  0.14633000  0.28596000  1.0
  O  O200  1  0.16678000  0.28596000  0.14634000  1.0
  O  O201  1  0.33326000  0.85368000  0.71406000  1.0
  O  O202  1  0.62777000  0.74381000  0.79296000  1.0
  O  O203  1  0.87227000  0.20707000  0.25615000  1.0
  O  O204  1  0.37230000  0.25616000  0.20705000  1.0
  O  O205  1  0.12776000  0.79295000  0.74382000  1.0
  O  O206  1  0.42950000  0.71885000  0.31196000  1.0
  O  O207  1  0.07047000  0.68804000  0.28115000  1.0
  O  O208  1  0.57045000  0.28114000  0.68805000  1.0
  O  O209  1  0.92951000  0.31197000  0.71885000  1.0
  O  O210  1  0.91020000  0.45999000  0.14659000  1.0
  O  O211  1  0.58981000  0.85346000  0.53998000  1.0
  O  O212  1  0.08982000  0.53999000  0.85345000  1.0
  O  O213  1  0.41019000  0.14661000  0.45999000  1.0
  O  O214  1  0.73743000  0.38530000  0.21958000  1.0
  O  O215  1  0.76253000  0.78044000  0.61470000  1.0
  O  O216  1  0.26256000  0.61470000  0.78043000  1.0
  O  O217  1  0.23743000  0.21958000  0.38528000  1.0
  O  O218  1  0.51470000  0.30601000  0.32836000  1.0
  O  O219  1  0.98531000  0.67165000  0.69400000  1.0
  O  O220  1  0.48531000  0.69400000  0.67165000  1.0
  O  O221  1  0.01470000  0.32836000  0.30601000  1.0
  O  O222  1  0.28569000  0.00073000  0.57266000  1.0
  O  O223  1  0.21440000  0.42732000  0.99922000  1.0
  O  O224  1  0.71439000  0.99922000  0.42730000  1.0
  O  O225  1  0.78568000  0.57267000  0.00075000  1.0
