# generated using pymatgen
data_ZnH9C8NO9
_symmetry_space_group_name_H-M   'P 1'
_cell_length_a   6.98740000
_cell_length_b   7.24542000
_cell_length_c   10.82560000
_cell_angle_alpha   97.13200000
_cell_angle_beta   91.36610000
_cell_angle_gamma   100.52100000
_symmetry_Int_Tables_number   1
_chemical_formula_structural   ZnH9C8NO9
_chemical_formula_sum   'Zn2 H18 C16 N2 O18'
_cell_volume   534.07260999
_cell_formula_units_Z   2
loop_
 _symmetry_equiv_pos_site_id
 _symmetry_equiv_pos_as_xyz
  1  'x, y, z'
loop_
 _atom_site_type_symbol
 _atom_site_label
 _atom_site_symmetry_multiplicity
 _atom_site_fract_x
 _atom_site_fract_y
 _atom_site_fract_z
 _atom_site_occupancy
  Zn  Zn0  1  0.26131000  0.77963000  0.48407000  1.0
  Zn  Zn1  1  0.73869000  0.22037000  0.51593000  1.0
  H  H2  1  0.27944000  0.00160000  0.86723000  1.0
  H  H3  1  0.72056000  0.99840000  0.13277000  1.0
  H  H4  1  0.18468000  0.51014000  0.09150000  1.0
  H  H5  1  0.81532000  0.48986000  0.90850000  1.0
  H  H6  1  0.28475000  0.69407000  0.91620000  1.0
  H  H7  1  0.71525000  0.30593000  0.08380000  1.0
  H  H8  1  0.86780000  0.65466000  0.46944000  1.0
  H  H9  1  0.13220000  0.34535000  0.53056000  1.0
  H  H10  1  0.90314000  0.85583000  0.55942000  1.0
  H  H11  1  0.09686000  0.14417000  0.44058000  1.0
  H  H12  1  0.03446000  0.48750000  0.33655000  1.0
  H  H13  1  0.96554000  0.51250000  0.66345000  1.0
  H  H14  1  0.25583000  0.47569000  0.31555000  1.0
  H  H15  1  0.74417000  0.52431000  0.68445000  1.0
  H  H16  1  0.19565000  0.95770000  0.27603000  1.0
  H  H17  1  0.80435000  0.04230000  0.72397000  1.0
  H  H18  1  0.34891000  0.11307000  0.35713000  1.0
  H  H19  1  0.65109000  0.88693000  0.64287000  1.0
  C  C20  1  0.38671000  0.56881000  0.68879000  1.0
  C  C21  1  0.61328000  0.43119000  0.31121000  1.0
  C  C22  1  0.33386000  0.45030000  0.79242000  1.0
  C  C23  1  0.66614000  0.54970000  0.20758000  1.0
  C  C24  1  0.33059000  0.25410000  0.77845000  1.0
  C  C25  1  0.66941000  0.74590000  0.22155000  1.0
  C  C26  1  0.28206000  0.15307000  0.87840000  1.0
  C  C27  1  0.71794000  0.84694000  0.12160000  1.0
  C  C28  1  0.22948000  0.24724000  0.98852000  1.0
  C  C29  1  0.77051000  0.75276000  0.01148000  1.0
  C  C30  1  0.22677000  0.44131000  0.00381000  1.0
  C  C31  1  0.77323000  0.55869000  0.99619000  1.0
  C  C32  1  0.28286000  0.54224000  0.90551000  1.0
  C  C33  1  0.71713000  0.45776000  0.09449000  1.0
  C  C34  1  0.37555000  0.14873000  0.65741000  1.0
  C  C35  1  0.62445000  0.85127000  0.34259000  1.0
  N  N36  1  0.16660000  0.13825000  0.08912000  1.0
  N  N37  1  0.83340000  0.86175000  0.91088000  1.0
  O  O38  1  0.24864000  0.56952000  0.60872000  1.0
  O  O39  1  0.75136000  0.43048000  0.39128000  1.0
  O  O40  1  0.55557000  0.66726000  0.69438000  1.0
  O  O41  1  0.44442000  0.33274000  0.30562000  1.0
  O  O42  1  0.46764000  0.24580000  0.57987000  1.0
  O  O43  1  0.53236000  0.75420000  0.42014000  1.0
  O  O44  1  0.31656000  0.97101000  0.64281000  1.0
  O  O45  1  0.68344000  0.02899000  0.35719000  1.0
  O  O46  1  0.22204000  0.98378000  0.09289000  1.0
  O  O47  1  0.77796000  0.01622000  0.90711000  1.0
  O  O48  1  0.05784000  0.20095000  0.16574000  1.0
  O  O49  1  0.94215000  0.79905000  0.83425000  1.0
  O  O50  1  0.96549000  0.76669000  0.50396000  1.0
  O  O51  1  0.03451000  0.23331000  0.49604000  1.0
  O  O52  1  0.16321000  0.56462000  0.32690000  1.0
  O  O53  1  0.83679000  0.43539000  0.67310000  1.0
  O  O54  1  0.24154000  0.00300000  0.36295000  1.0
  O  O55  1  0.75846000  0.99700000  0.63705000  1.0
