# generated using pymatgen
data_Co3PH12C18N3O10
_symmetry_space_group_name_H-M   'P 1'
_cell_length_a   4.38488000
_cell_length_b   11.54980000
_cell_length_c   11.55660000
_cell_angle_alpha   118.39600000
_cell_angle_beta   97.16060000
_cell_angle_gamma   97.33010000
_symmetry_Int_Tables_number   1
_chemical_formula_structural   Co3PH12C18N3O10
_chemical_formula_sum   'Co3 P1 H12 C18 N3 O10'
_cell_volume   498.99810271
_cell_formula_units_Z   1
loop_
 _symmetry_equiv_pos_site_id
 _symmetry_equiv_pos_as_xyz
  1  'x, y, z'
loop_
 _atom_site_type_symbol
 _atom_site_label
 _atom_site_symmetry_multiplicity
 _atom_site_fract_x
 _atom_site_fract_y
 _atom_site_fract_z
 _atom_site_occupancy
  Co  Co0  1  0.87943000  0.18222000  0.00011000  1.0
  Co  Co1  1  0.69967000  0.81772000  0.81770000  1.0
  Co  Co2  1  0.88234000  0.99943000  0.18280000  1.0
  P  P3  1  0.33840000  0.00012000  0.99978000  1.0
  H  H4  1  0.05990000  0.56327000  0.37636000  1.0
  H  H5  1  0.49661000  0.81350000  0.43716000  1.0
  H  H6  1  0.68152000  0.62339000  0.18660000  1.0
  H  H7  1  0.98881000  0.75894000  0.58808000  1.0
  H  H8  1  0.23115000  0.82946000  0.24146000  1.0
  H  H9  1  0.39970000  0.41114000  0.17015000  1.0
  H  H10  1  0.46471000  0.50726000  0.68590000  1.0
  H  H11  1  0.95760000  0.17841000  0.49249000  1.0
  H  H12  1  0.77910000  0.31375000  0.82158000  1.0
  H  H13  1  0.53069000  0.29991000  0.48195000  1.0
  H  H14  1  0.23036000  0.18198000  0.69982000  1.0
  H  H15  1  0.04826000  0.51823000  0.81851000  1.0
  C  C16  1  0.85440000  0.29649000  0.29247000  1.0
  C  C17  1  0.55899000  0.99644000  0.70344000  1.0
  C  C18  1  0.56248000  0.70753000  0.00429000  1.0
  C  C19  1  0.80268000  0.41616000  0.41375000  1.0
  C  C20  1  0.38680000  0.99787000  0.58393000  1.0
  C  C21  1  0.38793000  0.58631000  0.00251000  1.0
  C  C22  1  0.92673000  0.54712000  0.44287000  1.0
  C  C23  1  0.37972000  0.89605000  0.45313000  1.0
  C  C24  1  0.48226000  0.55692000  0.10408000  1.0
  C  C25  1  0.88606000  0.65577000  0.55939000  1.0
  C  C26  1  0.23098000  0.90384000  0.34447000  1.0
  C  C27  1  0.32556000  0.44007000  0.09597000  1.0
  C  C28  1  0.59683000  0.51434000  0.61484000  1.0
  C  C29  1  0.08269000  0.10043000  0.48557000  1.0
  C  C30  1  0.98182000  0.38487000  0.89958000  1.0
  C  C31  1  0.63453000  0.40035000  0.50237000  1.0
  C  C32  1  0.23413000  0.10208000  0.59954000  1.0
  C  C33  1  0.13163000  0.49764000  0.89827000  1.0
  N  N34  1  0.72227000  0.64065000  0.64453000  1.0
  N  N35  1  0.08241000  0.00397000  0.35937000  1.0
  N  N36  1  0.07733000  0.35486000  0.99585000  1.0
  O  O37  1  0.90602000  0.31491000  0.19609000  1.0
  O  O38  1  0.59490000  0.88191000  0.68509000  1.0
  O  O39  1  0.71218000  0.80349000  0.11891000  1.0
  O  O40  1  0.84818000  0.18969000  0.29937000  1.0
  O  O41  1  0.65754000  0.11011000  0.81017000  1.0
  O  O42  1  0.55032000  0.70104000  0.89086000  1.0
  O  O43  1  0.69970000  0.00029000  0.99946000  1.0
  O  O44  1  0.29722000  0.13767000  0.01565000  1.0
  O  O45  1  0.15988000  0.87836000  0.86233000  1.0
  O  O46  1  0.28117000  0.98404000  0.12139000  1.0
