# generated using pymatgen
data_CdH32C28N12(ClO2)2
_symmetry_space_group_name_H-M   'P 1'
_cell_length_a   8.33188000
_cell_length_b   15.45633726
_cell_length_c   16.83950000
_cell_angle_alpha   100.94023165
_cell_angle_beta   104.25770000
_cell_angle_gamma   105.63297126
_symmetry_Int_Tables_number   1
_chemical_formula_structural   CdH32C28N12(ClO2)2
_chemical_formula_sum   'Cd2 H64 C56 N24 Cl4 O8'
_cell_volume   1946.33082315
_cell_formula_units_Z   2
loop_
 _symmetry_equiv_pos_site_id
 _symmetry_equiv_pos_as_xyz
  1  'x, y, z'
loop_
 _atom_site_type_symbol
 _atom_site_label
 _atom_site_symmetry_multiplicity
 _atom_site_fract_x
 _atom_site_fract_y
 _atom_site_fract_z
 _atom_site_occupancy
  Cd  Cd0  1  0.50000000  0.00000000  0.50000000  1.0
  Cd  Cd1  1  0.50000000  0.50000000  0.00000000  1.0
  H  H2  1  0.50876000  0.77643000  0.09622000  1.0
  H  H3  1  0.13521000  0.72353000  0.40388000  1.0
  H  H4  1  0.49124000  0.22356000  0.90378000  1.0
  H  H5  1  0.86479000  0.27648000  0.59612000  1.0
  H  H6  1  0.50825000  0.78983000  0.97036000  1.0
  H  H7  1  0.24794000  0.71057000  0.52971000  1.0
  H  H8  1  0.49175000  0.21016000  0.02964000  1.0
  H  H9  1  0.75206000  0.28943000  0.47030000  1.0
  H  H10  1  0.28868000  0.92037000  0.86398000  1.0
  H  H11  1  0.00471000  0.57995000  0.63616000  1.0
  H  H12  1  0.71133000  0.07964000  0.13602000  1.0
  H  H13  1  0.99530000  0.42005000  0.36384000  1.0
  H  H14  1  0.01337000  0.83142000  0.84179000  1.0
  H  H15  1  0.84009000  0.66881000  0.65866000  1.0
  H  H16  1  0.98663000  0.16859000  0.15821000  1.0
  H  H17  1  0.15991000  0.33119000  0.34134000  1.0
  H  H18  1  0.36308000  0.80519000  0.34377000  1.0
  H  H19  1  0.71243000  0.69423000  0.15686000  1.0
  H  H20  1  0.63694000  0.19481000  0.65623000  1.0
  H  H21  1  0.28757000  0.30577000  0.84315000  1.0
  H  H22  1  0.39026000  0.74664000  0.20041000  1.0
  H  H23  1  0.94142000  0.75294000  0.30005000  1.0
  H  H24  1  0.60976000  0.25335000  0.79960000  1.0
  H  H25  1  0.05857000  0.24706000  0.69995000  1.0
  H  H26  1  0.78084000  0.01623000  0.24694000  1.0
  H  H27  1  0.01710000  0.48361000  0.25329000  1.0
  H  H28  1  0.21916000  0.98377000  0.75305000  1.0
  H  H29  1  0.98289000  0.51639000  0.74672000  1.0
  H  H30  1  0.73541000  0.06219000  0.38585000  1.0
  H  H31  1  0.78705000  0.43750000  0.11448000  1.0
  H  H32  1  0.26459000  0.93782000  0.61415000  1.0
  H  H33  1  0.21293000  0.56249000  0.88553000  1.0
  H  H34  1  0.76740000  0.90575000  0.92374000  1.0
  H  H35  1  0.43794000  0.59484000  0.57622000  1.0
  H  H36  1  0.23261000  0.09426000  0.07627000  1.0
  H  H37  1  0.56208000  0.40517000  0.42379000  1.0
  H  H38  1  0.65971000  0.98044000  0.96234000  1.0
  H  H39  1  0.21725000  0.52005000  0.53798000  1.0
  H  H40  1  0.34028000  0.01956000  0.03766000  1.0
  H  H41  1  0.78276000  0.47995000  0.46202000  1.0
  H  H42  1  0.52587000  0.91386000  0.80705000  1.0
  H  H43  1  0.30551000  0.58682000  0.69326000  1.0
  H  H44  1  0.47413000  0.08614000  0.19295000  1.0
  H  H45  1  0.69451000  0.41319000  0.30674000  1.0
  H  H46  1  0.49052000  0.79815000  0.81636000  1.0
  H  H47  1  0.37597000  0.70249000  0.68379000  1.0
  H  H48  1  0.50948000  0.20185000  0.18364000  1.0
  H  H49  1  0.62404000  0.29752000  0.31621000  1.0
  H  H50  1  0.71017000  0.75098000  0.81991000  1.0
  H  H51  1  0.63856000  0.74907000  0.68037000  1.0
  H  H52  1  0.28982000  0.24903000  0.18009000  1.0
  H  H53  1  0.36144000  0.25094000  0.31963000  1.0
  H  H54  1  0.49931000  0.64488000  0.87003000  1.0
  H  H55  1  0.48381000  0.85511000  0.63017000  1.0
  H  H56  1  0.50069000  0.35512000  0.12997000  1.0
  H  H57  1  0.51619000  0.14489000  0.36983000  1.0
  H  H58  1  0.88903000  0.55556000  0.99765000  1.0
  H  H59  1  0.83677000  0.94499000  0.50317000  1.0
  H  H60  1  0.11098000  0.44444000  0.00234000  1.0
  H  H61  1  0.16323000  0.05500000  0.49682000  1.0
  H  H62  1  0.11705000  0.66047000  0.95806000  1.0
  H  H63  1  0.99926000  0.84005000  0.54279000  1.0
  H  H64  1  0.88296000  0.33954000  0.04194000  1.0
  H  H65  1  0.00073000  0.15993000  0.45720000  1.0
  C  C66  1  0.45442000  0.84945000  0.31962000  1.0
  C  C67  1  0.78393000  0.65007000  0.18088000  1.0
  C  C68  1  0.54559000  0.15054000  0.68038000  1.0
  C  C69  1  0.21607000  0.34993000  0.81912000  1.0
  C  C70  1  0.46917000  0.81732000  0.24004000  1.0
  C  C71  1  0.91028000  0.68228000  0.26039000  1.0
  C  C72  1  0.53084000  0.18268000  0.75996000  1.0
  C  C73  1  0.08971000  0.31771000  0.73961000  1.0
  C  C74  1  0.58447000  0.87771000  0.20961000  1.0
  C  C75  1  0.99597000  0.62202000  0.29070000  1.0
  C  C76  1  0.41554000  0.12229000  0.79040000  1.0
  C  C77  1  0.00402000  0.37798000  0.70931000  1.0
  C  C78  1  0.68528000  0.96714000  0.26455000  1.0
  C  C79  1  0.95277000  0.53259000  0.23574000  1.0
  C  C80  1  0.31471000  0.03286000  0.73545000  1.0
  C  C81  1  0.04723000  0.46741000  0.76426000  1.0
  C  C82  1  0.66066000  0.99272000  0.34302000  1.0
  C  C83  1  0.82424000  0.50696000  0.15733000  1.0
  C  C84  1  0.33934000  0.00728000  0.65698000  1.0
  C  C85  1  0.17576000  0.49304000  0.84268000  1.0
  C  C86  1  0.65833000  0.89831000  0.07895000  1.0
  C  C87  1  0.18021000  0.60174000  0.42128000  1.0
  C  C88  1  0.34165000  0.10168000  0.92105000  1.0
  C  C89  1  0.81978000  0.39826000  0.57872000  1.0
  C  C90  1  0.64212000  0.90695000  0.93412000  1.0
  C  C91  1  0.30116000  0.59356000  0.56607000  1.0
  C  C92  1  0.35788000  0.09305000  0.06589000  1.0
  C  C93  1  0.69885000  0.40645000  0.43394000  1.0
  C  C94  1  0.49598000  0.86831000  0.84805000  1.0
  C  C95  1  0.27993000  0.63226000  0.65224000  1.0
  C  C96  1  0.50401000  0.13169000  0.15196000  1.0
  C  C97  1  0.72007000  0.36774000  0.34777000  1.0
  C  C98  1  0.22039000  0.78009000  0.86170000  1.0
  C  C99  1  0.07872000  0.72036000  0.63894000  1.0
  C  C100  1  0.77961000  0.21992000  0.13830000  1.0
  C  C101  1  0.92128000  0.27964000  0.36106000  1.0
  C  C102  1  0.93301000  0.71553000  0.88449000  1.0
  C  C103  1  0.83306000  0.78477000  0.61607000  1.0
  C  C104  1  0.06699000  0.28448000  0.11551000  1.0
  C  C105  1  0.16693000  0.21522000  0.38392000  1.0
  C  C106  1  0.75492000  0.70849000  0.85942000  1.0
  C  C107  1  0.68672000  0.79166000  0.64098000  1.0
  C  C108  1  0.24507000  0.29151000  0.14058000  1.0
  C  C109  1  0.31328000  0.20834000  0.35901000  1.0
  C  C110  1  0.63679000  0.64887000  0.88701000  1.0
  C  C111  1  0.60066000  0.85125000  0.61335000  1.0
  C  C112  1  0.36320000  0.35113000  0.11299000  1.0
  C  C113  1  0.39935000  0.14875000  0.38665000  1.0
  C  C114  1  0.85384000  0.60015000  0.95816000  1.0
  C  C115  1  0.79603000  0.90027000  0.54251000  1.0
  C  C116  1  0.14616000  0.39985000  0.04184000  1.0
  C  C117  1  0.20396000  0.09972000  0.45747000  1.0
  C  C118  1  0.98186000  0.65855000  0.93503000  1.0
  C  C119  1  0.88880000  0.84192000  0.56571000  1.0
  C  C120  1  0.01813000  0.34145000  0.06496000  1.0
  C  C121  1  0.11119000  0.15807000  0.43428000  1.0
  N  N122  1  0.54662000  0.93646000  0.37090000  1.0
  N  N123  1  0.73826000  0.56310000  0.12957000  1.0
  N  N124  1  0.45338000  0.06354000  0.62910000  1.0
  N  N125  1  0.26173000  0.43690000  0.87044000  1.0
  N  N126  1  0.58703000  0.84549000  0.12742000  1.0
  N  N127  1  0.11309000  0.65440000  0.37276000  1.0
  N  N128  1  0.41298000  0.15451000  0.87258000  1.0
  N  N129  1  0.88690000  0.34560000  0.62724000  1.0
  N  N130  1  0.60175000  0.85475000  0.99410000  1.0
  N  N131  1  0.25258000  0.64557000  0.50604000  1.0
  N  N132  1  0.39826000  0.14525000  0.00590000  1.0
  N  N133  1  0.74742000  0.35443000  0.49396000  1.0
  N  N134  1  0.32289000  0.86069000  0.85425000  1.0
  N  N135  1  0.10827000  0.63977000  0.64627000  1.0
  N  N136  1  0.67710000  0.13931000  0.14575000  1.0
  N  N137  1  0.89174000  0.36023000  0.35374000  1.0
  N  N138  1  0.05199000  0.77970000  0.86107000  1.0
  N  N139  1  0.91125000  0.72061000  0.63949000  1.0
  N  N140  1  0.94800000  0.22030000  0.13893000  1.0
  N  N141  1  0.08876000  0.27939000  0.36052000  1.0
  N  N142  1  0.68411000  0.59493000  0.93596000  1.0
  N  N143  1  0.65339000  0.90536000  0.56456000  1.0
  N  N144  1  0.31589000  0.40507000  0.06403000  1.0
  N  N145  1  0.34661000  0.09463000  0.43543000  1.0
  Cl  Cl146  1  0.19268000  0.86572000  0.45298000  1.0
  Cl  Cl147  1  0.37384000  0.63422000  0.04719000  1.0
  Cl  Cl148  1  0.80734000  0.13429000  0.54702000  1.0
  Cl  Cl149  1  0.62616000  0.36578000  0.95281000  1.0
  O  O150  1  0.76465000  0.98004000  0.10915000  1.0
  O  O151  1  0.17437000  0.51991000  0.39121000  1.0
  O  O152  1  0.23533000  0.01996000  0.89085000  1.0
  O  O153  1  0.82563000  0.48009000  0.60880000  1.0
  O  O154  1  0.26878000  0.71133000  0.86666000  1.0
  O  O155  1  0.19080000  0.78927000  0.63414000  1.0
  O  O156  1  0.73121000  0.28867000  0.13334000  1.0
  O  O157  1  0.80920000  0.21073000  0.36586000  1.0
