# generated using pymatgen
data_MgB2H16(C2N)4
_symmetry_space_group_name_H-M   'P 1'
_cell_length_a   7.47296000
_cell_length_b   7.47297000
_cell_length_c   10.31970000
_cell_angle_alpha   90.00000000
_cell_angle_beta   89.99990000
_cell_angle_gamma   91.82310000
_symmetry_Int_Tables_number   1
_chemical_formula_structural   MgB2H16(C2N)4
_chemical_formula_sum   'Mg2 B4 H32 C16 N8'
_cell_volume   576.01405403
_cell_formula_units_Z   2
loop_
 _symmetry_equiv_pos_site_id
 _symmetry_equiv_pos_as_xyz
  1  'x, y, z'
loop_
 _atom_site_type_symbol
 _atom_site_label
 _atom_site_symmetry_multiplicity
 _atom_site_fract_x
 _atom_site_fract_y
 _atom_site_fract_z
 _atom_site_occupancy
  Mg  Mg0  1  0.25000000  0.75000000  0.75000000  1.0
  Mg  Mg1  1  0.75000000  0.25000000  0.25000000  1.0
  B  B2  1  0.49198000  0.50802000  0.75000000  1.0
  B  B3  1  0.00802000  0.99198000  0.75000000  1.0
  B  B4  1  0.50802000  0.49197000  0.25000000  1.0
  B  B5  1  0.99198000  0.00803000  0.25000000  1.0
  H  H6  1  0.85523000  0.61674000  0.80881000  1.0
  H  H7  1  0.64477000  0.88325000  0.80881000  1.0
  H  H8  1  0.11674000  0.35523000  0.69118000  1.0
  H  H9  1  0.38326000  0.14477000  0.69119000  1.0
  H  H10  1  0.14477000  0.38326000  0.19119000  1.0
  H  H11  1  0.35523000  0.11674000  0.19119000  1.0
  H  H12  1  0.88325000  0.64477000  0.30881000  1.0
  H  H13  1  0.61674000  0.85523000  0.30882000  1.0
  H  H14  1  0.32423000  0.53310000  0.01622000  1.0
  H  H15  1  0.17577000  0.96690000  0.01622000  1.0
  H  H16  1  0.03310000  0.82423000  0.48378000  1.0
  H  H17  1  0.46690000  0.67577000  0.48378000  1.0
  H  H18  1  0.67577000  0.46690000  0.98378000  1.0
  H  H19  1  0.82423000  0.03310000  0.98378000  1.0
  H  H20  1  0.96690000  0.17577000  0.51622000  1.0
  H  H21  1  0.53310000  0.32423000  0.51622000  1.0
  H  H22  1  0.47561000  0.62115000  0.83464000  1.0
  H  H23  1  0.02440000  0.87885000  0.83464000  1.0
  H  H24  1  0.12115000  0.97560000  0.66536000  1.0
  H  H25  1  0.37884000  0.52440000  0.66536000  1.0
  H  H26  1  0.52440000  0.37885000  0.16536000  1.0
  H  H27  1  0.97561000  0.12116000  0.16536000  1.0
  H  H28  1  0.87885000  0.02440000  0.33465000  1.0
  H  H29  1  0.62115000  0.47560000  0.33464000  1.0
  H  H30  1  0.47083000  0.36211000  0.80193000  1.0
  H  H31  1  0.02917000  0.13789000  0.80193000  1.0
  H  H32  1  0.86211000  0.97083000  0.69807000  1.0
  H  H33  1  0.63789000  0.52917000  0.69807000  1.0
  H  H34  1  0.52917000  0.63789000  0.19807000  1.0
  H  H35  1  0.97083000  0.86211000  0.19807000  1.0
  H  H36  1  0.13789000  0.02917000  0.30193000  1.0
  H  H37  1  0.36211000  0.47083000  0.30193000  1.0
  C  C38  1  0.92157000  0.56404000  0.89394000  1.0
  C  C39  1  0.57843000  0.93595000  0.89394000  1.0
  C  C40  1  0.06404000  0.42157000  0.60606000  1.0
  C  C41  1  0.43595000  0.07843000  0.60606000  1.0
  C  C42  1  0.07843000  0.43596000  0.10606000  1.0
  C  C43  1  0.42157000  0.06404000  0.10606000  1.0
  C  C44  1  0.93595000  0.57843000  0.39394000  1.0
  C  C45  1  0.56404000  0.92157000  0.39394000  1.0
  C  C46  1  0.17914000  0.51852000  0.00813000  1.0
  C  C47  1  0.32086000  0.98148000  0.00813000  1.0
  C  C48  1  0.01852000  0.67915000  0.49186000  1.0
  C  C49  1  0.48148000  0.82085000  0.49187000  1.0
  C  C50  1  0.82085000  0.48148000  0.99187000  1.0
  C  C51  1  0.67915000  0.01852000  0.99187000  1.0
  C  C52  1  0.98148000  0.32086000  0.50813000  1.0
  C  C53  1  0.51852000  0.17914000  0.50814000  1.0
  N  N54  1  0.10084000  0.58307000  0.90151000  1.0
  N  N55  1  0.39916000  0.91693000  0.90151000  1.0
  N  N56  1  0.08307000  0.60084000  0.59849000  1.0
  N  N57  1  0.41693000  0.89916000  0.59849000  1.0
  N  N58  1  0.89916000  0.41693000  0.09849000  1.0
  N  N59  1  0.60084000  0.08307000  0.09849000  1.0
  N  N60  1  0.91693000  0.39916000  0.40151000  1.0
  N  N61  1  0.58307000  0.10084000  0.40152000  1.0
