# generated using pymatgen
data_MgH6(CO3)2
_symmetry_space_group_name_H-M   'P 1'
_cell_length_a   7.06186000
_cell_length_b   8.61018000
_cell_length_c   9.42343000
_cell_angle_alpha   98.35840000
_cell_angle_beta   89.99990000
_cell_angle_gamma   89.99980000
_symmetry_Int_Tables_number   1
_chemical_formula_structural   MgH6(CO3)2
_chemical_formula_sum   'Mg4 H24 C8 O24'
_cell_volume   566.89503344
_cell_formula_units_Z   4
loop_
 _symmetry_equiv_pos_site_id
 _symmetry_equiv_pos_as_xyz
  1  'x, y, z'
loop_
 _atom_site_type_symbol
 _atom_site_label
 _atom_site_symmetry_multiplicity
 _atom_site_fract_x
 _atom_site_fract_y
 _atom_site_fract_z
 _atom_site_occupancy
  Mg  Mg0  1  0.00000000  0.00000000  0.00000000  1.0
  Mg  Mg1  1  0.50000000  0.00000000  0.50000000  1.0
  Mg  Mg2  1  0.50000000  0.50000000  0.00000000  1.0
  Mg  Mg3  1  0.00000000  0.50000000  0.50000000  1.0
  H  H4  1  0.60563000  0.20516000  0.00678000  1.0
  H  H5  1  0.10564000  0.79484000  0.49322000  1.0
  H  H6  1  0.39437000  0.79484000  0.99322000  1.0
  H  H7  1  0.89437000  0.20516000  0.50678000  1.0
  H  H8  1  0.38522000  0.23375000  0.04378000  1.0
  H  H9  1  0.88522000  0.76625000  0.45621000  1.0
  H  H10  1  0.61478000  0.76625000  0.95621000  1.0
  H  H11  1  0.11478000  0.23375000  0.54379000  1.0
  H  H12  1  0.03441000  0.66771000  0.11842000  1.0
  H  H13  1  0.53441000  0.33229000  0.38158000  1.0
  H  H14  1  0.96559000  0.33229000  0.88158000  1.0
  H  H15  1  0.46559000  0.66771000  0.61843000  1.0
  H  H16  1  0.71315000  0.91957000  0.22606000  1.0
  H  H17  1  0.21315000  0.08045000  0.27393000  1.0
  H  H18  1  0.28685000  0.08042000  0.77394000  1.0
  H  H19  1  0.78686000  0.91956000  0.72607000  1.0
  H  H20  1  0.34607000  0.53282000  0.27683000  1.0
  H  H21  1  0.84608000  0.46718000  0.22317000  1.0
  H  H22  1  0.65393000  0.46718000  0.72317000  1.0
  H  H23  1  0.15392000  0.53282000  0.77683000  1.0
  H  H24  1  0.39867000  0.70086000  0.23641000  1.0
  H  H25  1  0.89868000  0.29914000  0.26359000  1.0
  H  H26  1  0.60133000  0.29914000  0.76359000  1.0
  H  H27  1  0.10132000  0.70086000  0.73641000  1.0
  C  C28  1  0.78045000  0.02983000  0.27575000  1.0
  C  C29  1  0.28047000  0.97018000  0.22427000  1.0
  C  C30  1  0.21954000  0.97016000  0.72425000  1.0
  C  C31  1  0.71952000  0.02983000  0.77573000  1.0
  C  C32  1  0.89272000  0.67122000  0.06907000  1.0
  C  C33  1  0.39272000  0.32877000  0.43094000  1.0
  C  C34  1  0.10728000  0.32878000  0.93093000  1.0
  C  C35  1  0.60728000  0.67123000  0.56906000  1.0
  O  O36  1  0.89647000  0.09585000  0.20109000  1.0
  O  O37  1  0.39644000  0.90417000  0.29890000  1.0
  O  O38  1  0.10352000  0.90415000  0.79890000  1.0
  O  O39  1  0.60355000  0.09583000  0.70111000  1.0
  O  O40  1  0.73544000  0.08262000  0.40423000  1.0
  O  O41  1  0.23543000  0.91739000  0.09575000  1.0
  O  O42  1  0.26457000  0.91738000  0.59577000  1.0
  O  O43  1  0.76457000  0.08262000  0.90425000  1.0
  O  O44  1  0.77959000  0.55975000  0.08186000  1.0
  O  O45  1  0.27959000  0.44025000  0.41815000  1.0
  O  O46  1  0.22041000  0.44025000  0.91814000  1.0
  O  O47  1  0.72041000  0.55975000  0.58185000  1.0
  O  O48  1  0.85347000  0.78773000  0.00449000  1.0
  O  O49  1  0.35347000  0.21227000  0.49551000  1.0
  O  O50  1  0.14653000  0.21226000  0.99550000  1.0
  O  O51  1  0.64652000  0.78773000  0.50449000  1.0
  O  O52  1  0.51482000  0.27766000  0.06352000  1.0
  O  O53  1  0.01482000  0.72233000  0.43647000  1.0
  O  O54  1  0.48518000  0.72233000  0.93648000  1.0
  O  O55  1  0.98518000  0.27767000  0.56352000  1.0
  O  O56  1  0.38561000  0.58862000  0.19626000  1.0
  O  O57  1  0.88562000  0.41138000  0.30374000  1.0
  O  O58  1  0.61439000  0.41138000  0.80374000  1.0
  O  O59  1  0.11438000  0.58862000  0.69626000  1.0
