# generated using pymatgen
data_CoH10C12(NO)4
_symmetry_space_group_name_H-M   'P 1'
_cell_length_a   12.62440000
_cell_length_b   13.03230000
_cell_length_c   13.53621920
_cell_angle_alpha   76.95083730
_cell_angle_beta   62.21349946
_cell_angle_gamma   61.03190000
_symmetry_Int_Tables_number   1
_chemical_formula_structural   CoH10C12(NO)4
_chemical_formula_sum   'Co4 H40 C48 N16 O16'
_cell_volume   1723.74859056
_cell_formula_units_Z   4
loop_
 _symmetry_equiv_pos_site_id
 _symmetry_equiv_pos_as_xyz
  1  'x, y, z'
loop_
 _atom_site_type_symbol
 _atom_site_label
 _atom_site_symmetry_multiplicity
 _atom_site_fract_x
 _atom_site_fract_y
 _atom_site_fract_z
 _atom_site_occupancy
  Co  Co0  1  0.83118000  0.83768000  0.74991000  1.0
  Co  Co1  1  0.41881000  0.66228000  0.75008000  1.0
  Co  Co2  1  0.16882000  0.16232000  0.25009000  1.0
  Co  Co3  1  0.58119000  0.33772000  0.24992000  1.0
  H  H4  1  0.93147000  0.04250000  0.96061000  1.0
  H  H5  1  0.10810000  0.45718000  0.96069000  1.0
  H  H6  1  0.52613000  0.04273000  0.53919000  1.0
  H  H7  1  0.93462000  0.45747000  0.53955000  1.0
  H  H8  1  0.06853000  0.95751000  0.03938000  1.0
  H  H9  1  0.89190000  0.54282000  0.03931000  1.0
  H  H10  1  0.47388000  0.95727000  0.46080000  1.0
  H  H11  1  0.06538000  0.54253000  0.46045000  1.0
  H  H12  1  0.51728000  0.15109000  0.04414000  1.0
  H  H13  1  0.43879000  0.34872000  0.04418000  1.0
  H  H14  1  0.83173000  0.15127000  0.45575000  1.0
  H  H15  1  0.71274000  0.34883000  0.45580000  1.0
  H  H16  1  0.48271000  0.84891000  0.95587000  1.0
  H  H17  1  0.56120000  0.65128000  0.95583000  1.0
  H  H18  1  0.16828000  0.84873000  0.54425000  1.0
  H  H19  1  0.28726000  0.65116000  0.54420000  1.0
  H  H20  1  0.59403000  0.01433000  0.89729000  1.0
  H  H21  1  0.50870000  0.48561000  0.89739000  1.0
  H  H22  1  0.89174000  0.01450000  0.60257000  1.0
  H  H23  1  0.50585000  0.48538000  0.60275000  1.0
  H  H24  1  0.40598000  0.98567000  0.10271000  1.0
  H  H25  1  0.49130000  0.51438000  0.10261000  1.0
  H  H26  1  0.10827000  0.98549000  0.39743000  1.0
  H  H27  1  0.49415000  0.51463000  0.39725000  1.0
  H  H28  1  0.04389000  0.83829000  0.74744000  1.0
  H  H29  1  0.20867000  0.66151000  0.74753000  1.0
  H  H30  1  0.61798000  0.83841000  0.75227000  1.0
  H  H31  1  0.62956000  0.66159000  0.75273000  1.0
  H  H32  1  0.95611000  0.16171000  0.25256000  1.0
  H  H33  1  0.79133000  0.33849000  0.25246000  1.0
  H  H34  1  0.38202000  0.16159000  0.24773000  1.0
  H  H35  1  0.37045000  0.33841000  0.24727000  1.0
  H  H36  1  0.09233000  0.88169000  0.82587000  1.0
  H  H37  1  0.08175000  0.61821000  0.82604000  1.0
  H  H38  1  0.52624000  0.88168000  0.67380000  1.0
  H  H39  1  0.79976000  0.61839000  0.67423000  1.0
  H  H40  1  0.90766000  0.11832000  0.17413000  1.0
  H  H41  1  0.91825000  0.38179000  0.17396000  1.0
  H  H42  1  0.47377000  0.11832000  0.32620000  1.0
  H  H43  1  0.20024000  0.38161000  0.32578000  1.0
  C  C44  1  0.89127000  0.96041000  0.86777000  1.0
  C  C45  1  0.24102000  0.53939000  0.86786000  1.0
  C  C46  1  0.64846000  0.96053000  0.63200000  1.0
  C  C47  1  0.71949000  0.53944000  0.63240000  1.0
  C  C48  1  0.10872000  0.03959000  0.13223000  1.0
  C  C49  1  0.75898000  0.46061000  0.13214000  1.0
  C  C50  1  0.35154000  0.03947000  0.36800000  1.0
  C  C51  1  0.28052000  0.46056000  0.36759000  1.0
  C  C52  1  0.85444000  0.03655000  0.94980000  1.0
  C  C53  1  0.19594000  0.46316000  0.94983000  1.0
  C  C54  1  0.60912000  0.03674000  0.55003000  1.0
  C  C55  1  0.84085000  0.46334000  0.55040000  1.0
  C  C56  1  0.14556000  0.96345000  0.05020000  1.0
  C  C57  1  0.80404000  0.53684000  0.05018000  1.0
  C  C58  1  0.39089000  0.96326000  0.44996000  1.0
  C  C59  1  0.15915000  0.53666000  0.44960000  1.0
  C  C60  1  0.72125000  0.10526000  0.01378000  1.0
  C  C61  1  0.26520000  0.39448000  0.01378000  1.0
  C  C62  1  0.67357000  0.10549000  0.48613000  1.0
  C  C63  1  0.84038000  0.39466000  0.48636000  1.0
  C  C64  1  0.27874000  0.89475000  0.98622000  1.0
  C  C65  1  0.73478000  0.60552000  0.98623000  1.0
  C  C66  1  0.32644000  0.89451000  0.51386000  1.0
  C  C67  1  0.15962000  0.60534000  0.51364000  1.0
  C  C68  1  0.68565000  0.18616000  0.09841000  1.0
  C  C69  1  0.21618000  0.31357000  0.09843000  1.0
  C  C70  1  0.62812000  0.18653000  0.40159000  1.0
  C  C71  1  0.97033000  0.31377000  0.40171000  1.0
  C  C72  1  0.31434000  0.81384000  0.90160000  1.0
  C  C73  1  0.78380000  0.68643000  0.90158000  1.0
  C  C74  1  0.37188000  0.81346000  0.59841000  1.0
  C  C75  1  0.02969000  0.68622000  0.59828000  1.0
  C  C76  1  0.62312000  0.09861000  0.99603000  1.0
  C  C77  1  0.38097000  0.40124000  0.99613000  1.0
  C  C78  1  0.77842000  0.09877000  0.50384000  1.0
  C  C79  1  0.71792000  0.40131000  0.50397000  1.0
  C  C80  1  0.37688000  0.90140000  0.00397000  1.0
  C  C81  1  0.61902000  0.59875000  0.00388000  1.0
  C  C82  1  0.22159000  0.90123000  0.49616000  1.0
  C  C83  1  0.28210000  0.59869000  0.49602000  1.0
  C  C84  1  0.66573000  0.02269000  0.91469000  1.0
  C  C85  1  0.41961000  0.47723000  0.91481000  1.0
  C  C86  1  0.81173000  0.02282000  0.58514000  1.0
  C  C87  1  0.60325000  0.47715000  0.58536000  1.0
  C  C88  1  0.33427000  0.97731000  0.08531000  1.0
  C  C89  1  0.58039000  0.52277000  0.08519000  1.0
  C  C90  1  0.18827000  0.97718000  0.41486000  1.0
  C  C91  1  0.39675000  0.52285000  0.41464000  1.0
  N  N92  1  0.79578000  0.95368000  0.85200000  1.0
  N  N93  1  0.35222000  0.54619000  0.85215000  1.0
  N  N94  1  0.75070000  0.95379000  0.64776000  1.0
  N  N95  1  0.60155000  0.54610000  0.64812000  1.0
  N  N96  1  0.20423000  0.04632000  0.14799000  1.0
  N  N97  1  0.64778000  0.45381000  0.14785000  1.0
  N  N98  1  0.24930000  0.04620000  0.35224000  1.0
  N  N99  1  0.39847000  0.45389000  0.35187000  1.0
  N  N100  1  0.02060000  0.89620000  0.80183000  1.0
  N  N101  1  0.17754000  0.60365000  0.80198000  1.0
  N  N102  1  0.58339000  0.89627000  0.69785000  1.0
  N  N103  1  0.71860000  0.60370000  0.69836000  1.0
  N  N104  1  0.97941000  0.10380000  0.19816000  1.0
  N  N105  1  0.82246000  0.39635000  0.19802000  1.0
  N  N106  1  0.41661000  0.10373000  0.30215000  1.0
  N  N107  1  0.28140000  0.39630000  0.30164000  1.0
  O  O108  1  0.56249000  0.26218000  0.14677000  1.0
  O  O109  1  0.29094000  0.23762000  0.14687000  1.0
  O  O110  1  0.67536000  0.26250000  0.35314000  1.0
  O  O111  1  0.97145000  0.23797000  0.35314000  1.0
  O  O112  1  0.43751000  0.73783000  0.85323000  1.0
  O  O113  1  0.70904000  0.76238000  0.85314000  1.0
  O  O114  1  0.32465000  0.73750000  0.64686000  1.0
  O  O115  1  0.02855000  0.76202000  0.64686000  1.0
  O  O116  1  0.77296000  0.18199000  0.12229000  1.0
  O  O117  1  0.10502000  0.31773000  0.12227000  1.0
  O  O118  1  0.54485000  0.18244000  0.37784000  1.0
  O  O119  1  0.07736000  0.31777000  0.37805000  1.0
  O  O120  1  0.22704000  0.81802000  0.87771000  1.0
  O  O121  1  0.89496000  0.68228000  0.87774000  1.0
  O  O122  1  0.45516000  0.81756000  0.62215000  1.0
  O  O123  1  0.92266000  0.68222000  0.62194000  1.0
