# generated using pymatgen
data_CdH16C20S(NO4)2
_symmetry_space_group_name_H-M   'P 1'
_cell_length_a   8.12726000
_cell_length_b   10.19240000
_cell_length_c   12.95430000
_cell_angle_alpha   92.85110000
_cell_angle_beta   94.27060000
_cell_angle_gamma   107.82300000
_symmetry_Int_Tables_number   1
_chemical_formula_structural   CdH16C20S(NO4)2
_chemical_formula_sum   'Cd2 H32 C40 S2 N4 O16'
_cell_volume   1015.77087880
_cell_formula_units_Z   2
loop_
 _symmetry_equiv_pos_site_id
 _symmetry_equiv_pos_as_xyz
  1  'x, y, z'
loop_
 _atom_site_type_symbol
 _atom_site_label
 _atom_site_symmetry_multiplicity
 _atom_site_fract_x
 _atom_site_fract_y
 _atom_site_fract_z
 _atom_site_occupancy
  Cd  Cd0  1  0.21987000  0.12047000  0.50419000  1.0
  Cd  Cd1  1  0.78013000  0.87953000  0.49581000  1.0
  H  H2  1  0.13767000  0.39012000  0.01211000  1.0
  H  H3  1  0.86234000  0.60989000  0.98789000  1.0
  H  H4  1  0.57406000  0.18806000  0.46451000  1.0
  H  H5  1  0.42594000  0.81194000  0.53549000  1.0
  H  H6  1  0.49748000  0.31382000  0.44530000  1.0
  H  H7  1  0.50252000  0.68617000  0.55470000  1.0
  H  H8  1  0.69268000  0.33753000  0.82016000  1.0
  H  H9  1  0.30730000  0.66248000  0.17984000  1.0
  H  H10  1  0.49079000  0.33564000  0.66657000  1.0
  H  H11  1  0.50920000  0.66437000  0.33343000  1.0
  H  H12  1  0.24434000  0.91443000  0.66950000  1.0
  H  H13  1  0.75566000  0.08558000  0.33050000  1.0
  H  H14  1  0.43626000  0.89628000  0.82337000  1.0
  H  H15  1  0.56373000  0.10372000  0.17663000  1.0
  H  H16  1  0.66983000  0.00436000  0.95485000  1.0
  H  H17  1  0.33017000  0.99565000  0.04515000  1.0
  H  H18  1  0.88544000  0.30468000  0.92296000  1.0
  H  H19  1  0.11457000  0.69532000  0.07703000  1.0
  H  H20  1  0.36304000  0.40278000  0.13793000  1.0
  H  H21  1  0.63696000  0.59723000  0.86207000  1.0
  H  H22  1  0.33570000  0.21145000  0.25892000  1.0
  H  H23  1  0.66432000  0.78855000  0.74107000  1.0
  H  H24  1  0.05941000  0.01154000  0.24000000  1.0
  H  H25  1  0.94060000  0.98846000  0.76000000  1.0
  H  H26  1  0.83061000  0.00148000  0.09789000  1.0
  H  H27  1  0.16940000  0.99853000  0.90211000  1.0
  H  H28  1  0.24382000  0.62679000  0.48254000  1.0
  H  H29  1  0.75618000  0.37321000  0.51746000  1.0
  H  H30  1  0.88954000  0.73029000  0.26049000  1.0
  H  H31  1  0.11046000  0.26970000  0.73951000  1.0
  H  H32  1  0.90500000  0.31175000  0.26565000  1.0
  H  H33  1  0.09500000  0.68824000  0.73435000  1.0
  C  C34  1  0.58613000  0.11561000  0.83426000  1.0
  C  C35  1  0.41386000  0.88440000  0.16574000  1.0
  C  C36  1  0.59778000  0.24042000  0.78902000  1.0
  C  C37  1  0.40221000  0.75958000  0.21098000  1.0
  C  C38  1  0.48490000  0.24066000  0.70346000  1.0
  C  C39  1  0.51510000  0.75934000  0.29654000  1.0
  C  C40  1  0.34625000  0.00511000  0.70556000  1.0
  C  C41  1  0.65375000  0.99490000  0.29444000  1.0
  C  C42  1  0.45393000  0.99633000  0.79151000  1.0
  C  C43  1  0.54607000  0.00367000  0.20849000  1.0
  C  C44  1  0.70416000  0.10437000  0.92125000  1.0
  C  C45  1  0.29584000  0.89564000  0.07875000  1.0
  C  C46  1  0.85025000  0.20606000  0.95806000  1.0
  C  C47  1  0.14975000  0.79394000  0.04194000  1.0
  C  C48  1  0.97136000  0.19684000  0.04307000  1.0
  C  C49  1  0.02865000  0.80317000  0.95693000  1.0
  C  C50  1  0.24841000  0.31174000  0.13413000  1.0
  C  C51  1  0.75159000  0.68827000  0.86586000  1.0
  C  C52  1  0.23136000  0.20562000  0.19935000  1.0
  C  C53  1  0.76865000  0.79439000  0.80065000  1.0
  C  C54  1  0.07844000  0.09353000  0.18686000  1.0
  C  C55  1  0.92157000  0.90648000  0.81314000  1.0
  C  C56  1  0.94980000  0.08824000  0.10817000  1.0
  C  C57  1  0.05021000  0.91176000  0.89184000  1.0
  C  C58  1  0.15597000  0.35740000  0.42924000  1.0
  C  C59  1  0.84403000  0.64259000  0.57075000  1.0
  C  C60  1  0.08546000  0.46029000  0.37802000  1.0
  C  C61  1  0.91454000  0.53970000  0.62198000  1.0
  C  C62  1  0.14672000  0.59841000  0.41630000  1.0
  C  C63  1  0.85328000  0.40159000  0.58370000  1.0
  C  C64  1  0.07850000  0.69643000  0.37445000  1.0
  C  C65  1  0.92150000  0.30357000  0.62555000  1.0
  C  C66  1  0.14384000  0.84204000  0.42049000  1.0
  C  C67  1  0.85616000  0.15795000  0.57950000  1.0
  C  C68  1  0.94689000  0.65555000  0.29216000  1.0
  C  C69  1  0.05311000  0.34444000  0.70784000  1.0
  C  C70  1  0.88819000  0.51768000  0.25232000  1.0
  C  C71  1  0.11181000  0.48232000  0.74768000  1.0
  C  C72  1  0.95535000  0.41971000  0.29529000  1.0
  C  C73  1  0.04466000  0.58029000  0.70471000  1.0
  S  S74  1  0.72841000  0.46442000  0.14280000  1.0
  S  S75  1  0.27159000  0.53558000  0.85720000  1.0
  N  N76  1  0.36244000  0.12484000  0.66135000  1.0
  N  N77  1  0.63756000  0.87516000  0.33865000  1.0
  N  N78  1  0.12024000  0.30523000  0.06024000  1.0
  N  N79  1  0.87977000  0.69478000  0.93976000  1.0
  O  O80  1  0.29019000  0.39888000  0.49280000  1.0
  O  O81  1  0.70982000  0.60112000  0.50719000  1.0
  O  O82  1  0.07096000  0.22905000  0.40515000  1.0
  O  O83  1  0.92904000  0.77095000  0.59485000  1.0
  O  O84  1  0.05055000  0.92201000  0.40153000  1.0
  O  O85  1  0.94945000  0.07798000  0.59847000  1.0
  O  O86  1  0.28702000  0.88544000  0.47645000  1.0
  O  O87  1  0.71297000  0.11455000  0.52355000  1.0
  O  O88  1  0.62485000  0.55914000  0.14502000  1.0
  O  O89  1  0.37514000  0.44085000  0.85499000  1.0
  O  O90  1  0.83514000  0.48088000  0.05263000  1.0
  O  O91  1  0.16486000  0.51913000  0.94737000  1.0
  O  O92  1  0.63351000  0.31956000  0.15317000  1.0
  O  O93  1  0.36650000  0.68043000  0.84683000  1.0
  O  O94  1  0.47974000  0.21590000  0.42618000  1.0
  O  O95  1  0.52026000  0.78410000  0.57381000  1.0
