# generated using pymatgen
data_CdH18C20(NO)4
_symmetry_space_group_name_H-M   'P 1'
_cell_length_a   8.16022000
_cell_length_b   8.16023000
_cell_length_c   14.07580000
_cell_angle_alpha   90.81660000
_cell_angle_beta   90.81630000
_cell_angle_gamma   90.59210000
_symmetry_Int_Tables_number   1
_chemical_formula_structural   CdH18C20(NO)4
_chemical_formula_sum   'Cd2 H36 C40 N8 O8'
_cell_volume   937.05492057
_cell_formula_units_Z   2
loop_
 _symmetry_equiv_pos_site_id
 _symmetry_equiv_pos_as_xyz
  1  'x, y, z'
loop_
 _atom_site_type_symbol
 _atom_site_label
 _atom_site_symmetry_multiplicity
 _atom_site_fract_x
 _atom_site_fract_y
 _atom_site_fract_z
 _atom_site_occupancy
  Cd  Cd0  1  0.79661000  0.20340000  0.25000000  1.0
  Cd  Cd1  1  0.20339000  0.79661000  0.75000000  1.0
  H  H2  1  0.29360000  0.18013000  0.61195000  1.0
  H  H3  1  0.81986000  0.70639000  0.88805000  1.0
  H  H4  1  0.70639000  0.81986000  0.38805000  1.0
  H  H5  1  0.18014000  0.29360000  0.11195000  1.0
  H  H6  1  0.49169000  0.35714000  0.70373000  1.0
  H  H7  1  0.64286000  0.50831000  0.79627000  1.0
  H  H8  1  0.50831000  0.64286000  0.29627000  1.0
  H  H9  1  0.35715000  0.49168000  0.20373000  1.0
  H  H10  1  0.74033000  0.47260000  0.62747000  1.0
  H  H11  1  0.52740000  0.25966000  0.87253000  1.0
  H  H12  1  0.25967000  0.52739000  0.37253000  1.0
  H  H13  1  0.47261000  0.74033000  0.12747000  1.0
  H  H14  1  0.80105000  0.40889000  0.45829000  1.0
  H  H15  1  0.59111000  0.19895000  0.04171000  1.0
  H  H16  1  0.19895000  0.59110000  0.54171000  1.0
  H  H17  1  0.40889000  0.80105000  0.95830000  1.0
  H  H18  1  0.16485000  0.02796000  0.49841000  1.0
  H  H19  1  0.97204000  0.83515000  0.00159000  1.0
  H  H20  1  0.83515000  0.97204000  0.50159000  1.0
  H  H21  1  0.02796000  0.16485000  0.99841000  1.0
  H  H22  1  0.20437000  0.90606000  0.39730000  1.0
  H  H23  1  0.09394000  0.79563000  0.10270000  1.0
  H  H24  1  0.79564000  0.09394000  0.60270000  1.0
  H  H25  1  0.90605000  0.20437000  0.89730000  1.0
  H  H26  1  0.47845000  0.04835000  0.18818000  1.0
  H  H27  1  0.95166000  0.52155000  0.31182000  1.0
  H  H28  1  0.52155000  0.95165000  0.81182000  1.0
  H  H29  1  0.04835000  0.47845000  0.68818000  1.0
  H  H30  1  0.27180000  0.11086000  0.21064000  1.0
  H  H31  1  0.88914000  0.72820000  0.28936000  1.0
  H  H32  1  0.72820000  0.88914000  0.78936000  1.0
  H  H33  1  0.11086000  0.27180000  0.71065000  1.0
  H  H34  1  0.34311000  0.92051000  0.25192000  1.0
  H  H35  1  0.07949000  0.65689000  0.24808000  1.0
  H  H36  1  0.65689000  0.07949000  0.74808000  1.0
  H  H37  1  0.92051000  0.34312000  0.75192000  1.0
  C  C38  1  0.40204000  0.23146000  0.57866000  1.0
  C  C39  1  0.76853000  0.59796000  0.92133000  1.0
  C  C40  1  0.59796000  0.76853000  0.42134000  1.0
  C  C41  1  0.23147000  0.40204000  0.07866000  1.0
  C  C42  1  0.51540000  0.32874000  0.62932000  1.0
  C  C43  1  0.67126000  0.48459000  0.87068000  1.0
  C  C44  1  0.48460000  0.67126000  0.37068000  1.0
  C  C45  1  0.32875000  0.51540000  0.12932000  1.0
  C  C46  1  0.65679000  0.39314000  0.58630000  1.0
  C  C47  1  0.60686000  0.34320000  0.91370000  1.0
  C  C48  1  0.34320000  0.60686000  0.41370000  1.0
  C  C49  1  0.39314000  0.65680000  0.08630000  1.0
  C  C50  1  0.69088000  0.36032000  0.49114000  1.0
  C  C51  1  0.63968000  0.30912000  0.00886000  1.0
  C  C52  1  0.30912000  0.63968000  0.50886000  1.0
  C  C53  1  0.36032000  0.69088000  0.99114000  1.0
  C  C54  1  0.57779000  0.26385000  0.43910000  1.0
  C  C55  1  0.73615000  0.42221000  0.06090000  1.0
  C  C56  1  0.42221000  0.73615000  0.56090000  1.0
  C  C57  1  0.26385000  0.57779000  0.93910000  1.0
  C  C58  1  0.43498000  0.20317000  0.48294000  1.0
  C  C59  1  0.79683000  0.56502000  0.01706000  1.0
  C  C60  1  0.56502000  0.79683000  0.51706000  1.0
  C  C61  1  0.20317000  0.43498000  0.98294000  1.0
  C  C62  1  0.43606000  0.12692000  0.33022000  1.0
  C  C63  1  0.87308000  0.56394000  0.16978000  1.0
  C  C64  1  0.56394000  0.87308000  0.66978000  1.0
  C  C65  1  0.12692000  0.43606000  0.83022000  1.0
  C  C66  1  0.19347000  0.03345000  0.42237000  1.0
  C  C67  1  0.96655000  0.80653000  0.07763000  1.0
  C  C68  1  0.80653000  0.96655000  0.57763000  1.0
  C  C69  1  0.03345000  0.19348000  0.92237000  1.0
  C  C70  1  0.04961000  0.11145000  0.37006000  1.0
  C  C71  1  0.88854000  0.95039000  0.12993000  1.0
  C  C72  1  0.95039000  0.88855000  0.62993000  1.0
  C  C73  1  0.11145000  0.04961000  0.87007000  1.0
  C  C74  1  0.37965000  0.04850000  0.23995000  1.0
  C  C75  1  0.95150000  0.62035000  0.26005000  1.0
  C  C76  1  0.62034000  0.95149000  0.76005000  1.0
  C  C77  1  0.04851000  0.37966000  0.73995000  1.0
  N  N78  1  0.34870000  0.11795000  0.41211000  1.0
  N  N79  1  0.88205000  0.65130000  0.08789000  1.0
  N  N80  1  0.65130000  0.88205000  0.58789000  1.0
  N  N81  1  0.11795000  0.34871000  0.91211000  1.0
  N  N82  1  0.57478000  0.21322000  0.34415000  1.0
  N  N83  1  0.78678000  0.42522000  0.15585000  1.0
  N  N84  1  0.42522000  0.78678000  0.65585000  1.0
  N  N85  1  0.21322000  0.57478000  0.84415000  1.0
  O  O86  1  0.92241000  0.02011000  0.36078000  1.0
  O  O87  1  0.97989000  0.07759000  0.13922000  1.0
  O  O88  1  0.07759000  0.97989000  0.63922000  1.0
  O  O89  1  0.02010000  0.92242000  0.86078000  1.0
  O  O90  1  0.06053000  0.25569000  0.33842000  1.0
  O  O91  1  0.74431000  0.93947000  0.16158000  1.0
  O  O92  1  0.93947000  0.74431000  0.66158000  1.0
  O  O93  1  0.25568000  0.06054000  0.83842000  1.0
