# generated using pymatgen
data_Zn2H29C43N8O
_symmetry_space_group_name_H-M   'P 1'
_cell_length_a   14.94950000
_cell_length_b   15.00130000
_cell_length_c   15.09450000
_cell_angle_alpha   110.38800000
_cell_angle_beta   108.74200000
_cell_angle_gamma   108.31000000
_symmetry_Int_Tables_number   1
_chemical_formula_structural   Zn2H29C43N8O
_chemical_formula_sum   'Zn4 H58 C86 N16 O2'
_cell_volume   2635.98555884
_cell_formula_units_Z   2
loop_
 _symmetry_equiv_pos_site_id
 _symmetry_equiv_pos_as_xyz
  1  'x, y, z'
loop_
 _atom_site_type_symbol
 _atom_site_label
 _atom_site_symmetry_multiplicity
 _atom_site_fract_x
 _atom_site_fract_y
 _atom_site_fract_z
 _atom_site_occupancy
  Zn  Zn0  1  0.37464000  0.86523000  0.00067000  1.0
  Zn  Zn1  1  0.62896000  0.12061000  0.99806000  1.0
  Zn  Zn2  1  0.50100000  0.13182000  0.13539000  1.0
  Zn  Zn3  1  0.49669000  0.84997000  0.85540000  1.0
  H  H4  1  0.15176000  0.82411000  0.02679000  1.0
  H  H5  1  0.82182000  0.52343000  0.03219000  1.0
  H  H6  1  0.08169000  0.51956000  0.67076000  1.0
  H  H7  1  0.82061000  0.56873000  0.20641000  1.0
  H  H8  1  0.92851000  0.71616000  0.73187000  1.0
  H  H9  1  0.13413000  0.59444000  0.34736000  1.0
  H  H10  1  0.94342000  0.70096000  0.89428000  1.0
  H  H11  1  0.13637000  0.55073000  0.17413000  1.0
  H  H12  1  0.84615000  0.47481000  0.49643000  1.0
  H  H13  1  0.12216000  0.75122000  0.48710000  1.0
  H  H14  1  0.25796000  0.24279000  0.38955000  1.0
  H  H15  1  0.83962000  0.15017000  0.16257000  1.0
  H  H16  1  0.81370000  0.77582000  0.86830000  1.0
  H  H17  1  0.20510000  0.19758000  0.70162000  1.0
  H  H18  1  0.50683000  0.53148000  0.02858000  1.0
  H  H19  1  0.72436000  0.17053000  0.83837000  1.0
  H  H20  1  0.49335000  0.83266000  0.19858000  1.0
  H  H21  1  0.11516000  0.17576000  0.06152000  1.0
  H  H22  1  0.80964000  0.74101000  0.13799000  1.0
  H  H23  1  0.55290000  0.56464000  0.57372000  1.0
  H  H24  1  0.64240000  0.46856000  0.55911000  1.0
  H  H25  1  0.74421000  0.70342000  0.65871000  1.0
  H  H26  1  0.40967000  0.41442000  0.44128000  1.0
  H  H27  1  0.48319000  0.28762000  0.41847000  1.0
  H  H28  1  0.78771000  0.86467000  0.63408000  1.0
  H  H29  1  0.49239000  0.11989000  0.39713000  1.0
  H  H30  1  0.45200000  0.73656000  0.42138000  1.0
  H  H31  1  0.82089000  0.31160000  0.65401000  1.0
  H  H32  1  0.40693000  0.57930000  0.45160000  1.0
  H  H33  1  0.81109000  0.47974000  0.67785000  1.0
  H  H34  1  0.62113000  0.85341000  0.36534000  1.0
  H  H35  1  0.68110000  0.16489000  0.67866000  1.0
  H  H36  1  0.98738000  0.15023000  0.20743000  1.0
  H  H37  1  0.66587000  0.58541000  0.74126000  1.0
  H  H38  1  0.02276000  0.82154000  0.06695000  1.0
  H  H39  1  0.34642000  0.36434000  0.02421000  1.0
  H  H40  1  0.36633000  0.36266000  0.70556000  1.0
  H  H41  1  0.18612000  0.35638000  0.85234000  1.0
  H  H42  1  0.52555000  0.36884000  0.87695000  1.0
  H  H43  1  0.32087000  0.17367000  0.00396000  1.0
  H  H44  1  0.44461000  0.58427000  0.77009000  1.0
  H  H45  1  0.49777000  0.17240000  0.82577000  1.0
  H  H46  1  0.29954000  0.62146000  0.97737000  1.0
  H  H47  1  0.15529000  0.83123000  0.83599000  1.0
  H  H48  1  0.26618000  0.34828000  0.11293000  1.0
  H  H49  1  0.85792000  0.35870000  0.17722000  1.0
  H  H50  1  0.54853000  0.81983000  0.65565000  1.0
  H  H51  1  0.68515000  0.18094000  0.35131000  1.0
  H  H52  1  0.33478000  0.17396000  0.22531000  1.0
  H  H53  1  0.66072000  0.79879000  0.98924000  1.0
  H  H54  1  0.41777000  0.46449000  0.30208000  1.0
  H  H55  1  0.58794000  0.47373000  0.81291000  1.0
  H  H56  1  0.24127000  0.72663000  0.54749000  1.0
  H  H57  1  0.70441000  0.46347000  0.40885000  1.0
  H  H58  1  0.65920000  0.55230000  0.01135000  1.0
  H  H59  1  0.03076000  0.59827000  0.94745000  1.0
  H  H60  1  0.97624000  0.50846000  0.01359000  1.0
  H  H61  1  0.09797000  0.50473000  0.83316000  1.0
  C  C62  1  0.21030000  0.90965000  0.07379000  1.0
  C  C63  1  0.01576000  0.89501000  0.09774000  1.0
  C  C64  1  0.34496000  0.36267000  0.35790000  1.0
  C  C65  1  0.69654000  0.61961000  0.82808000  1.0
  C  C66  1  0.25946000  0.26669000  0.32933000  1.0
  C  C67  1  0.78018000  0.72564000  0.89914000  1.0
  C  C68  1  0.06076000  0.55133000  0.81170000  1.0
  C  C69  1  0.89047000  0.53928000  0.10147000  1.0
  C  C70  1  0.05135000  0.55915000  0.72004000  1.0
  C  C71  1  0.89011000  0.56557000  0.19950000  1.0
  C  C72  1  0.00389000  0.61860000  0.69064000  1.0
  C  C73  1  0.78123000  0.06452000  0.11378000  1.0
  C  C74  1  0.97731000  0.58475000  0.28915000  1.0
  C  C75  1  0.96543000  0.66971000  0.75435000  1.0
  C  C76  1  0.06645000  0.58115000  0.27877000  1.0
  C  C77  1  0.67768000  0.08410000  0.80647000  1.0
  C  C78  1  0.53367000  0.91688000  0.21948000  1.0
  C  C79  1  0.97483000  0.66200000  0.84612000  1.0
  C  C80  1  0.06717000  0.55522000  0.18085000  1.0
  C  C81  1  0.02291000  0.60323000  0.87522000  1.0
  C  C82  1  0.97818000  0.53248000  0.09143000  1.0
  C  C83  1  0.90384000  0.53815000  0.49307000  1.0
  C  C84  1  0.64731000  0.99604000  0.70787000  1.0
  C  C85  1  0.06310000  0.68859000  0.49005000  1.0
  C  C86  1  0.89233000  0.52245000  0.39156000  1.0
  C  C87  1  0.07724000  0.70097000  0.59150000  1.0
  C  C88  1  0.97545000  0.60052000  0.39113000  1.0
  C  C89  1  0.99349000  0.62287000  0.59101000  1.0
  C  C90  1  0.17765000  0.19762000  0.22184000  1.0
  C  C91  1  0.82238000  0.77034000  0.01139000  1.0
  C  C92  1  0.26488000  0.32538000  0.17380000  1.0
  C  C93  1  0.69334000  0.60105000  0.97974000  1.0
  C  C94  1  0.67998000  0.71040000  0.60630000  1.0
  C  C95  1  0.60895000  0.00988000  0.32175000  1.0
  C  C96  1  0.55721000  0.29323000  0.47070000  1.0
  C  C97  1  0.70465000  0.80014000  0.59147000  1.0
  C  C98  1  0.56247000  0.19885000  0.45816000  1.0
  C  C99  1  0.62253000  0.81089000  0.52584000  1.0
  C  C100  1  0.65753000  0.20427000  0.52393000  1.0
  C  C101  1  0.37046000  0.16348000  0.96613000  1.0
  C  C102  1  0.41133000  0.61011000  0.82232000  1.0
  C  C103  1  0.51593000  0.72756000  0.47141000  1.0
  C  C104  1  0.74670000  0.30641000  0.60243000  1.0
  C  C105  1  0.49076000  0.63980000  0.48908000  1.0
  C  C106  1  0.38794000  0.19725000  0.89443000  1.0
  C  C107  1  0.74130000  0.40119000  0.61570000  1.0
  C  C108  1  0.57274000  0.63171000  0.55755000  1.0
  C  C109  1  0.64657000  0.39468000  0.54971000  1.0
  C  C110  1  0.63428000  0.92264000  0.43452000  1.0
  C  C111  1  0.67182000  0.09683000  0.61152000  1.0
  C  C112  1  0.63849000  0.01439000  0.42632000  1.0
  C  C113  1  0.65844000  0.00229000  0.61673000  1.0
  C  C114  1  0.65989000  0.10440000  0.51923000  1.0
  C  C115  1  0.64237000  0.91432000  0.52586000  1.0
  C  C116  1  0.34924000  0.39117000  0.27994000  1.0
  C  C117  1  0.36063000  0.55463000  0.86513000  1.0
  C  C118  1  0.65293000  0.55681000  0.86831000  1.0
  C  C119  1  0.91441000  0.88255000  0.08265000  1.0
  C  C120  1  0.09253000  0.08836000  0.18412000  1.0
  C  C121  1  0.17966000  0.22928000  0.14500000  1.0
  C  C122  1  0.77772000  0.70704000  0.05101000  1.0
  C  C123  1  0.90096000  0.97518000  0.12212000  1.0
  C  C124  1  0.10594000  0.99578000  0.14314000  1.0
  C  C125  1  0.28244000  0.80167000  0.69611000  1.0
  C  C126  1  0.69704000  0.36695000  0.28068000  1.0
  C  C127  1  0.26251000  0.36023000  0.85850000  1.0
  C  C128  1  0.18062000  0.77902000  0.69007000  1.0
  C  C129  1  0.45070000  0.36841000  0.87193000  1.0
  C  C130  1  0.35068000  0.36493000  0.95338000  1.0
  C  C131  1  0.36247000  0.36351000  0.77711000  1.0
  C  C132  1  0.36278000  0.27663000  0.87124000  1.0
  C  C133  1  0.35279000  0.45289000  0.86100000  1.0
  C  C134  1  0.27276000  0.27186000  0.77464000  1.0
  C  C135  1  0.44069000  0.45562000  0.95627000  1.0
  C  C136  1  0.46104000  0.16320000  0.87576000  1.0
  C  C137  1  0.33813000  0.62914000  0.92848000  1.0
  C  C138  1  0.20715000  0.82707000  0.80010000  1.0
  C  C139  1  0.80127000  0.42194000  0.29526000  1.0
  C  C140  1  0.79608000  0.34995000  0.20144000  1.0
  C  C141  1  0.58980000  0.90551000  0.71374000  1.0
  C  C142  1  0.63117000  0.09460000  0.29806000  1.0
  C  C143  1  0.30270000  0.08784000  0.17441000  1.0
  C  C144  1  0.69054000  0.88551000  0.02551000  1.0
  C  C145  1  0.20217000  0.99944000  0.13516000  1.0
  C  C146  1  0.79648000  0.97266000  0.09428000  1.0
  C  C147  1  0.99384000  0.07647000  0.17670000  1.0
  N  N148  1  0.30601000  0.94193000  0.07611000  1.0
  N  N149  1  0.37229000  0.72091000  0.92319000  1.0
  N  N150  1  0.31372000  0.87223000  0.86383000  1.0
  N  N151  1  0.69893000  0.26123000  0.13861000  1.0
  N  N152  1  0.58600000  0.93742000  0.80666000  1.0
  N  N153  1  0.57130000  0.05487000  0.19142000  1.0
  N  N154  1  0.36361000  0.05290000  0.13899000  1.0
  N  N155  1  0.62045000  0.92387000  0.00403000  1.0
  N  N156  1  0.67656000  0.03383000  0.05828000  1.0
  N  N157  1  0.64099000  0.04880000  0.86475000  1.0
  N  N158  1  0.51142000  0.94527000  0.14297000  1.0
  N  N159  1  0.43025000  0.11546000  0.98935000  1.0
  N  N160  1  0.41818000  0.70916000  0.85726000  1.0
  N  N161  1  0.36055000  0.85666000  0.79899000  1.0
  N  N162  1  0.63675000  0.27132000  0.18862000  1.0
  N  N163  1  0.48608000  0.11522000  0.93377000  1.0
  O  O164  1  0.30841000  0.77046000  0.61618000  1.0
  O  O165  1  0.65005000  0.39699000  0.34074000  1.0
