# generated using pymatgen
data_ZnH34C36(N2O3)2
_symmetry_space_group_name_H-M   'P 1'
_cell_length_a   11.23300000
_cell_length_b   12.84330000
_cell_length_c   41.75930000
_cell_angle_alpha   93.25900000
_cell_angle_beta   90.00450000
_cell_angle_gamma   115.93100000
_symmetry_Int_Tables_number   1
_chemical_formula_structural   ZnH34C36(N2O3)2
_chemical_formula_sum   'Zn6 H204 C216 N24 O36'
_cell_volume   5407.16933224
_cell_formula_units_Z   6
loop_
 _symmetry_equiv_pos_site_id
 _symmetry_equiv_pos_as_xyz
  1  'x, y, z'
loop_
 _atom_site_type_symbol
 _atom_site_label
 _atom_site_symmetry_multiplicity
 _atom_site_fract_x
 _atom_site_fract_y
 _atom_site_fract_z
 _atom_site_occupancy
  Zn  Zn0  1  0.44629000  0.38836000  0.85190000  1.0
  Zn  Zn1  1  0.05787000  0.61139000  0.64815000  1.0
  Zn  Zn2  1  0.55371000  0.61163000  0.14810000  1.0
  Zn  Zn3  1  0.94213000  0.38861000  0.35185000  1.0
  Zn  Zn4  1  0.67368000  0.99981000  0.75006000  1.0
  Zn  Zn5  1  0.32632000  0.00019000  0.24994000  1.0
  H  H6  1  0.36779000  0.78927000  0.16746000  1.0
  H  H7  1  0.57852000  0.21059000  0.33248000  1.0
  H  H8  1  0.63221000  0.21073000  0.83254000  1.0
  H  H9  1  0.42147000  0.78941000  0.66752000  1.0
  H  H10  1  0.40373000  0.72894000  0.11167000  1.0
  H  H11  1  0.67459000  0.27090000  0.38827000  1.0
  H  H12  1  0.59627000  0.27106000  0.88833000  1.0
  H  H13  1  0.32540000  0.72910000  0.61173000  1.0
  H  H14  1  0.61366000  0.08997000  0.09118000  1.0
  H  H15  1  0.52333000  0.90989000  0.40876000  1.0
  H  H16  1  0.38634000  0.91003000  0.90882000  1.0
  H  H17  1  0.47666000  0.09011000  0.59124000  1.0
  H  H18  1  0.58499000  0.14678000  0.14707000  1.0
  H  H19  1  0.43794000  0.85303000  0.35288000  1.0
  H  H20  1  0.41501000  0.85322000  0.85293000  1.0
  H  H21  1  0.56206000  0.14697000  0.64712000  1.0
  H  H22  1  0.65882000  0.01258000  0.04699000  1.0
  H  H23  1  0.64642000  0.98749000  0.45296000  1.0
  H  H24  1  0.34118000  0.98742000  0.95301000  1.0
  H  H25  1  0.35358000  0.01251000  0.54704000  1.0
  H  H26  1  0.49410000  0.99425000  0.04504000  1.0
  H  H27  1  0.49982000  0.00555000  0.45496000  1.0
  H  H28  1  0.50590000  0.00575000  0.95496000  1.0
  H  H29  1  0.50018000  0.99445000  0.54504000  1.0
  H  H30  1  0.25886000  0.72716000  0.03752000  1.0
  H  H31  1  0.53153000  0.27266000  0.46253000  1.0
  H  H32  1  0.74114000  0.27283000  0.96248000  1.0
  H  H33  1  0.46847000  0.72734000  0.53747000  1.0
  H  H34  1  0.19882000  0.78614000  0.00738000  1.0
  H  H35  1  0.41257000  0.21364000  0.49267000  1.0
  H  H36  1  0.80118000  0.21386000  0.99262000  1.0
  H  H37  1  0.58742000  0.78636000  0.50733000  1.0
  H  H38  1  0.31131000  0.87780000  0.03776000  1.0
  H  H39  1  0.43335000  0.12199000  0.46228000  1.0
  H  H40  1  0.68869000  0.12220000  0.96224000  1.0
  H  H41  1  0.56665000  0.87801000  0.53772000  1.0
  H  H42  1  0.44887000  0.61053000  0.91791000  1.0
  H  H43  1  0.83837000  0.38912000  0.58214000  1.0
  H  H44  1  0.55114000  0.38947000  0.08209000  1.0
  H  H45  1  0.16163000  0.61088000  0.41786000  1.0
  H  H46  1  0.53071000  0.74715000  0.90121000  1.0
  H  H47  1  0.78345000  0.25239000  0.59880000  1.0
  H  H48  1  0.46929000  0.25285000  0.09879000  1.0
  H  H49  1  0.21655000  0.74761000  0.40120000  1.0
  H  H50  1  0.35964000  0.68906000  0.90745000  1.0
  H  H51  1  0.67055000  0.31064000  0.59258000  1.0
  H  H52  1  0.64037000  0.31094000  0.09255000  1.0
  H  H53  1  0.32945000  0.68936000  0.40742000  1.0
  H  H54  1  0.78833000  0.97466000  0.03059000  1.0
  H  H55  1  0.81365000  0.02520000  0.46940000  1.0
  H  H56  1  0.21168000  0.02535000  0.96941000  1.0
  H  H57  1  0.18634000  0.97480000  0.53060000  1.0
  H  H58  1  0.83100000  0.03477000  0.99278000  1.0
  H  H59  1  0.79642000  0.96529000  0.50724000  1.0
  H  H60  1  0.16900000  0.96523000  0.00722000  1.0
  H  H61  1  0.20357000  0.03471000  0.49276000  1.0
  H  H62  1  0.83816000  0.90314000  0.00022000  1.0
  H  H63  1  0.93509000  0.09686000  0.49973000  1.0
  H  H64  1  0.16184000  0.09686000  0.99978000  1.0
  H  H65  1  0.06491000  0.90314000  0.50027000  1.0
  H  H66  1  0.81751000  0.87119000  0.95369000  1.0
  H  H67  1  0.94641000  0.12874000  0.54628000  1.0
  H  H68  1  0.18249000  0.12881000  0.04631000  1.0
  H  H69  1  0.05359000  0.87126000  0.45372000  1.0
  H  H70  1  0.70721000  0.75810000  0.92694000  1.0
  H  H71  1  0.94931000  0.24184000  0.57302000  1.0
  H  H72  1  0.29279000  0.24191000  0.07306000  1.0
  H  H73  1  0.05069000  0.75815000  0.42698000  1.0
  H  H74  1  0.72964000  0.01032000  0.86495000  1.0
  H  H75  1  0.71952000  0.98955000  0.63502000  1.0
  H  H76  1  0.27036000  0.98968000  0.13505000  1.0
  H  H77  1  0.28047000  0.01045000  0.36498000  1.0
  H  H78  1  0.92900000  0.13472000  0.83474000  1.0
  H  H79  1  0.79430000  0.86499000  0.66520000  1.0
  H  H80  1  0.07100000  0.86528000  0.16526000  1.0
  H  H81  1  0.20570000  0.13500000  0.33480000  1.0
  H  H82  1  0.18162000  0.11012000  0.90801000  1.0
  H  H83  1  0.07169000  0.88977000  0.59196000  1.0
  H  H84  1  0.81839000  0.88990000  0.09199000  1.0
  H  H85  1  0.92830000  0.11022000  0.40804000  1.0
  H  H86  1  0.98542000  0.97873000  0.93706000  1.0
  H  H87  1  0.00704000  0.02127000  0.56296000  1.0
  H  H88  1  0.01458000  0.02128000  0.06294000  1.0
  H  H89  1  0.99295000  0.97873000  0.43704000  1.0
  H  H90  1  0.22854000  0.59906000  0.94329000  1.0
  H  H91  1  0.62942000  0.40061000  0.55678000  1.0
  H  H92  1  0.77146000  0.40094000  0.05671000  1.0
  H  H93  1  0.37058000  0.59939000  0.44322000  1.0
  H  H94  1  0.17184000  0.63251000  0.98042000  1.0
  H  H95  1  0.53927000  0.36724000  0.51964000  1.0
  H  H96  1  0.82816000  0.36748000  0.01958000  1.0
  H  H97  1  0.46073000  0.63276000  0.48036000  1.0
  H  H98  1  0.99648000  0.51768000  0.94701000  1.0
  H  H99  1  0.47851000  0.48199000  0.55294000  1.0
  H  H100  1  0.00351000  0.48231000  0.05299000  1.0
  H  H101  1  0.52149000  0.51801000  0.44706000  1.0
  H  H102  1  0.78159000  0.43788000  0.91674000  1.0
  H  H103  1  0.34377000  0.56203000  0.58326000  1.0
  H  H104  1  0.21841000  0.56212000  0.08326000  1.0
  H  H105  1  0.65623000  0.43796000  0.41674000  1.0
  H  H106  1  0.88932000  0.76583000  0.87627000  1.0
  H  H107  1  0.12381000  0.23435000  0.62382000  1.0
  H  H108  1  0.11069000  0.23417000  0.12373000  1.0
  H  H109  1  0.87620000  0.76565000  0.37618000  1.0
  H  H110  1  0.10317000  0.85046000  0.90786000  1.0
  H  H111  1  0.25273000  0.14941000  0.59225000  1.0
  H  H112  1  0.89683000  0.14954000  0.09214000  1.0
  H  H113  1  0.74728000  0.85059000  0.40775000  1.0
  H  H114  1  0.18183000  0.41663000  0.86800000  1.0
  H  H115  1  0.76529000  0.58327000  0.63200000  1.0
  H  H116  1  0.81817000  0.58337000  0.13200000  1.0
  H  H117  1  0.23471000  0.41674000  0.36800000  1.0
  H  H118  1  0.34233000  0.72509000  0.81779000  1.0
  H  H119  1  0.61673000  0.27490000  0.68225000  1.0
  H  H120  1  0.65767000  0.27491000  0.18221000  1.0
  H  H121  1  0.38327000  0.72510000  0.31774000  1.0
  H  H122  1  0.53062000  0.64020000  0.82413000  1.0
  H  H123  1  0.88997000  0.35951000  0.67596000  1.0
  H  H124  1  0.46938000  0.35980000  0.17587000  1.0
  H  H125  1  0.11003000  0.64049000  0.32404000  1.0
  H  H126  1  0.11976000  0.66178000  0.86283000  1.0
  H  H127  1  0.45795000  0.33841000  0.63710000  1.0
  H  H128  1  0.88024000  0.33822000  0.13717000  1.0
  H  H129  1  0.54205000  0.66160000  0.36290000  1.0
  H  H130  1  0.03813000  0.51040000  0.86282000  1.0
  H  H131  1  0.52781000  0.48982000  0.63715000  1.0
  H  H132  1  0.96187000  0.48960000  0.13718000  1.0
  H  H133  1  0.47220000  0.51019000  0.36285000  1.0
  H  H134  1  0.85056000  0.27910000  0.80658000  1.0
  H  H135  1  0.57088000  0.72091000  0.69336000  1.0
  H  H136  1  0.14945000  0.72090000  0.19342000  1.0
  H  H137  1  0.42912000  0.27910000  0.30664000  1.0
  H  H138  1  0.90176000  0.36101000  0.84328000  1.0
  H  H139  1  0.54009000  0.63898000  0.65666000  1.0
  H  H140  1  0.09824000  0.63899000  0.15672000  1.0
  H  H141  1  0.45991000  0.36102000  0.34334000  1.0
  H  H142  1  0.02054000  0.34724000  0.81784000  1.0
  H  H143  1  0.67288000  0.65295000  0.68206000  1.0
  H  H144  1  0.97946000  0.65276000  0.18216000  1.0
  H  H145  1  0.32713000  0.34705000  0.31793000  1.0
  H  H146  1  0.74069000  0.60996000  0.74065000  1.0
  H  H147  1  0.13075000  0.39005000  0.75934000  1.0
  H  H148  1  0.25931000  0.39004000  0.25935000  1.0
  H  H149  1  0.86925000  0.60995000  0.24066000  1.0
  H  H150  1  0.72464000  0.47422000  0.72524000  1.0
  H  H151  1  0.25042000  0.52578000  0.77475000  1.0
  H  H152  1  0.27537000  0.52578000  0.27476000  1.0
  H  H153  1  0.74957000  0.47422000  0.22525000  1.0
  H  H154  1  0.85453000  0.60315000  0.71246000  1.0
  H  H155  1  0.25137000  0.39678000  0.78751000  1.0
  H  H156  1  0.14547000  0.39685000  0.28754000  1.0
  H  H157  1  0.74863000  0.60322000  0.21249000  1.0
  H  H158  1  0.23094000  0.83864000  0.80524000  1.0
  H  H159  1  0.39199000  0.16140000  0.69467000  1.0
  H  H160  1  0.76906000  0.16136000  0.19476000  1.0
  H  H161  1  0.60802000  0.83860000  0.30533000  1.0
  H  H162  1  0.16518000  0.79628000  0.84310000  1.0
  H  H163  1  0.36863000  0.20372000  0.65680000  1.0
  H  H164  1  0.83482000  0.20372000  0.15690000  1.0
  H  H165  1  0.63137000  0.79628000  0.34320000  1.0
  H  H166  1  0.09009000  0.85695000  0.81815000  1.0
  H  H167  1  0.23288000  0.14313000  0.68176000  1.0
  H  H168  1  0.90991000  0.14305000  0.18185000  1.0
  H  H169  1  0.76712000  0.85687000  0.31824000  1.0
  H  H170  1  0.08280000  0.85299000  0.76649000  1.0
  H  H171  1  0.22973000  0.14709000  0.73343000  1.0
  H  H172  1  0.91721000  0.14702000  0.23351000  1.0
  H  H173  1  0.77027000  0.85291000  0.26657000  1.0
  H  H174  1  0.98455000  0.76636000  0.73317000  1.0
  H  H175  1  0.21836000  0.23372000  0.76677000  1.0
  H  H176  1  0.01545000  0.23364000  0.26683000  1.0
  H  H177  1  0.78165000  0.76628000  0.23323000  1.0
  H  H178  1  0.82809000  0.74179000  0.81558000  1.0
  H  H179  1  0.08577000  0.25841000  0.68449000  1.0
  H  H180  1  0.17191000  0.25821000  0.18442000  1.0
  H  H181  1  0.91423000  0.74159000  0.31551000  1.0
  H  H182  1  0.65328000  0.84055000  0.81071000  1.0
  H  H183  1  0.81226000  0.15922000  0.68944000  1.0
  H  H184  1  0.34672000  0.15945000  0.18929000  1.0
  H  H185  1  0.18774000  0.84078000  0.31056000  1.0
  H  H186  1  0.86494000  0.88490000  0.72495000  1.0
  H  H187  1  0.98025000  0.11482000  0.77509000  1.0
  H  H188  1  0.13506000  0.11510000  0.27505000  1.0
  H  H189  1  0.01975000  0.88518000  0.22491000  1.0
  H  H190  1  0.75403000  0.34503000  0.73456000  1.0
  H  H191  1  0.40920000  0.65491000  0.76545000  1.0
  H  H192  1  0.24597000  0.65497000  0.26544000  1.0
  H  H193  1  0.59080000  0.34509000  0.23455000  1.0
  H  H194  1  0.79070000  0.27348000  0.76476000  1.0
  H  H195  1  0.51732000  0.72654000  0.73524000  1.0
  H  H196  1  0.20930000  0.72652000  0.23525000  1.0
  H  H197  1  0.48268000  0.27346000  0.26476000  1.0
  H  H198  1  0.69922000  0.47130000  0.81000000  1.0
  H  H199  1  0.22779000  0.52867000  0.69008000  1.0
  H  H200  1  0.30078000  0.52870000  0.19000000  1.0
  H  H201  1  0.77221000  0.47133000  0.30992000  1.0
  H  H202  1  0.51347000  0.15951000  0.75143000  1.0
  H  H203  1  0.35399000  0.84050000  0.74863000  1.0
  H  H204  1  0.48653000  0.84049000  0.24857000  1.0
  H  H205  1  0.64601000  0.15950000  0.25137000  1.0
  H  H206  1  0.33420000  0.17587000  0.79680000  1.0
  H  H207  1  0.15819000  0.82406000  0.70327000  1.0
  H  H208  1  0.66580000  0.82413000  0.20320000  1.0
  H  H209  1  0.84181000  0.17594000  0.29673000  1.0
  C  C210  1  0.45749000  0.00894000  0.19436000  1.0
  C  C211  1  0.44851000  0.99101000  0.30554000  1.0
  C  C212  1  0.54251000  0.99106000  0.80564000  1.0
  C  C213  1  0.55149000  0.00898000  0.69446000  1.0
  C  C214  1  0.47641000  0.97210000  0.16113000  1.0
  C  C215  1  0.50410000  0.02772000  0.33880000  1.0
  C  C216  1  0.52359000  0.02790000  0.83887000  1.0
  C  C217  1  0.49590000  0.97228000  0.66120000  1.0
  C  C218  1  0.42324000  0.85412000  0.15072000  1.0
  C  C219  1  0.56899000  0.14570000  0.34922000  1.0
  C  C220  1  0.57676000  0.14588000  0.84928000  1.0
  C  C221  1  0.43101000  0.85430000  0.65078000  1.0
  C  C222  1  0.44119000  0.82030000  0.11971000  1.0
  C  C223  1  0.62063000  0.17954000  0.38025000  1.0
  C  C224  1  0.55882000  0.17970000  0.88029000  1.0
  C  C225  1  0.37937000  0.82046000  0.61975000  1.0
  C  C226  1  0.50954000  0.90511000  0.09809000  1.0
  C  C227  1  0.60403000  0.09472000  0.40187000  1.0
  C  C228  1  0.49046000  0.09489000  0.90191000  1.0
  C  C229  1  0.39596000  0.90528000  0.59813000  1.0
  C  C230  1  0.56173000  0.02338000  0.10782000  1.0
  C  C231  1  0.53799000  0.97647000  0.39212000  1.0
  C  C232  1  0.43827000  0.97662000  0.89218000  1.0
  C  C233  1  0.46201000  0.02353000  0.60788000  1.0
  C  C234  1  0.54589000  0.05532000  0.13935000  1.0
  C  C235  1  0.49030000  0.94450000  0.36058000  1.0
  C  C236  1  0.45411000  0.94468000  0.86065000  1.0
  C  C237  1  0.50970000  0.05550000  0.63942000  1.0
  C  C238  1  0.55590000  0.94713000  0.04324000  1.0
  C  C239  1  0.60874000  0.05279000  0.45674000  1.0
  C  C240  1  0.44410000  0.05287000  0.95676000  1.0
  C  C241  1  0.39126000  0.94721000  0.54326000  1.0
  C  C242  1  0.53246000  0.87951000  0.01156000  1.0
  C  C243  1  0.65292000  0.12037000  0.48843000  1.0
  C  C244  1  0.46754000  0.12049000  0.98844000  1.0
  C  C245  1  0.34708000  0.87963000  0.51157000  1.0
  C  C246  1  0.40037000  0.80928000  0.00107000  1.0
  C  C247  1  0.59100000  0.19049000  0.49895000  1.0
  C  C248  1  0.59963000  0.19071000  0.99893000  1.0
  C  C249  1  0.40900000  0.80951000  0.50105000  1.0
  C  C250  1  0.37558000  0.74682000  0.97110000  1.0
  C  C251  1  0.62866000  0.25290000  0.52894000  1.0
  C  C252  1  0.62442000  0.25318000  0.02890000  1.0
  C  C253  1  0.37134000  0.74710000  0.47106000  1.0
  C  C254  1  0.48052000  0.75760000  0.95099000  1.0
  C  C255  1  0.72286000  0.24217000  0.54903000  1.0
  C  C256  1  0.51949000  0.24240000  0.04901000  1.0
  C  C257  1  0.27713000  0.75783000  0.45097000  1.0
  C  C258  1  0.61172000  0.82537000  0.96222000  1.0
  C  C259  1  0.78637000  0.17453000  0.53778000  1.0
  C  C260  1  0.38828000  0.17463000  0.03778000  1.0
  C  C261  1  0.21363000  0.82547000  0.46222000  1.0
  C  C262  1  0.63888000  0.88473000  0.99279000  1.0
  C  C263  1  0.75418000  0.11521000  0.50720000  1.0
  C  C264  1  0.36112000  0.11528000  0.00721000  1.0
  C  C265  1  0.24582000  0.88479000  0.49280000  1.0
  C  C266  1  0.28646000  0.79988000  0.02185000  1.0
  C  C267  1  0.48646000  0.19991000  0.47820000  1.0
  C  C268  1  0.71354000  0.20012000  0.97815000  1.0
  C  C269  1  0.51354000  0.80009000  0.52180000  1.0
  C  C270  1  0.45362000  0.69801000  0.91777000  1.0
  C  C271  1  0.75557000  0.30167000  0.58227000  1.0
  C  C272  1  0.54639000  0.30199000  0.08224000  1.0
  C  C273  1  0.24443000  0.69833000  0.41773000  1.0
  C  C274  1  0.78092000  0.95300000  0.00473000  1.0
  C  C275  1  0.82799000  0.04699000  0.49524000  1.0
  C  C276  1  0.21908000  0.04701000  0.99527000  1.0
  C  C277  1  0.17201000  0.95301000  0.50476000  1.0
  C  C278  1  0.72332000  0.83974000  0.94033000  1.0
  C  C279  1  0.88370000  0.16019000  0.55965000  1.0
  C  C280  1  0.27668000  0.16027000  0.05968000  1.0
  C  C281  1  0.11630000  0.83980000  0.44035000  1.0
  C  C282  1  0.84409000  0.98605000  0.90258000  1.0
  C  C283  1  0.85829000  0.01389000  0.59741000  1.0
  C  C284  1  0.15592000  0.01396000  0.09742000  1.0
  C  C285  1  0.14171000  0.98611000  0.40259000  1.0
  C  C286  1  0.82922000  0.03086000  0.87376000  1.0
  C  C287  1  0.79854000  0.96899000  0.62620000  1.0
  C  C288  1  0.17079000  0.96915000  0.12624000  1.0
  C  C289  1  0.20145000  0.03100000  0.37379000  1.0
  C  C290  1  0.94020000  0.10061000  0.85728000  1.0
  C  C291  1  0.83970000  0.89917000  0.64268000  1.0
  C  C292  1  0.05980000  0.89939000  0.14272000  1.0
  C  C293  1  0.16029000  0.10083000  0.35732000  1.0
  C  C294  1  0.06813000  0.12992000  0.86947000  1.0
  C  C295  1  0.93837000  0.86987000  0.63052000  1.0
  C  C296  1  0.93187000  0.87008000  0.13053000  1.0
  C  C297  1  0.06162000  0.13013000  0.36948000  1.0
  C  C298  1  0.08195000  0.08567000  0.89843000  1.0
  C  C299  1  0.99649000  0.91420000  0.60157000  1.0
  C  C300  1  0.91805000  0.91434000  0.10157000  1.0
  C  C301  1  0.00350000  0.08580000  0.39843000  1.0
  C  C302  1  0.97131000  0.01264000  0.91479000  1.0
  C  C303  1  0.95892000  0.98728000  0.58521000  1.0
  C  C304  1  0.02870000  0.98738000  0.08521000  1.0
  C  C305  1  0.04107000  0.01272000  0.41478000  1.0
  C  C306  1  0.18664000  0.21040000  0.85226000  1.0
  C  C307  1  0.97625000  0.78929000  0.64773000  1.0
  C  C308  1  0.81337000  0.78960000  0.14774000  1.0
  C  C309  1  0.02374000  0.21071000  0.35227000  1.0
  C  C310  1  0.23516000  0.67071000  0.96007000  1.0
  C  C311  1  0.56438000  0.32899000  0.53998000  1.0
  C  C312  1  0.76484000  0.32928000  0.03993000  1.0
  C  C313  1  0.43562000  0.67101000  0.46002000  1.0
  C  C314  1  0.06465000  0.68953000  0.92898000  1.0
  C  C315  1  0.37509000  0.31024000  0.57105000  1.0
  C  C316  1  0.93535000  0.31047000  0.07102000  1.0
  C  C317  1  0.62492000  0.68976000  0.42895000  1.0
  C  C318  1  0.97408000  0.57313000  0.93173000  1.0
  C  C319  1  0.40080000  0.42661000  0.56826000  1.0
  C  C320  1  0.02592000  0.42686000  0.06827000  1.0
  C  C321  1  0.59921000  0.57339000  0.43174000  1.0
  C  C322  1  0.85326000  0.52787000  0.91458000  1.0
  C  C323  1  0.32542000  0.47203000  0.58543000  1.0
  C  C324  1  0.14674000  0.47213000  0.08542000  1.0
  C  C325  1  0.67458000  0.52797000  0.41457000  1.0
  C  C326  1  0.82264000  0.59586000  0.89410000  1.0
  C  C327  1  0.22693000  0.40417000  0.60594000  1.0
  C  C328  1  0.17736000  0.40415000  0.10590000  1.0
  C  C329  1  0.77307000  0.59583000  0.39406000  1.0
  C  C330  1  0.91362000  0.71262000  0.89202000  1.0
  C  C331  1  0.20123000  0.28743000  0.60804000  1.0
  C  C332  1  0.08638000  0.28738000  0.10798000  1.0
  C  C333  1  0.79877000  0.71257000  0.39196000  1.0
  C  C334  1  0.03246000  0.75987000  0.90950000  1.0
  C  C335  1  0.27270000  0.24001000  0.59057000  1.0
  C  C336  1  0.96754000  0.24013000  0.09050000  1.0
  C  C337  1  0.72731000  0.75999000  0.40943000  1.0
  C  C338  1  0.69843000  0.54662000  0.87353000  1.0
  C  C339  1  0.15199000  0.45342000  0.62651000  1.0
  C  C340  1  0.30157000  0.45338000  0.12647000  1.0
  C  C341  1  0.84801000  0.54658000  0.37349000  1.0
  C  C342  1  0.25247000  0.48889000  0.85550000  1.0
  C  C343  1  0.76356000  0.51101000  0.64452000  1.0
  C  C344  1  0.74753000  0.51111000  0.14450000  1.0
  C  C345  1  0.23645000  0.48900000  0.35548000  1.0
  C  C346  1  0.33732000  0.64982000  0.82942000  1.0
  C  C347  1  0.68712000  0.35009000  0.67062000  1.0
  C  C348  1  0.66268000  0.35018000  0.17058000  1.0
  C  C349  1  0.31288000  0.64991000  0.32938000  1.0
  C  C350  1  0.42973000  0.60742000  0.83219000  1.0
  C  C351  1  0.82196000  0.39239000  0.66789000  1.0
  C  C352  1  0.57027000  0.39258000  0.16781000  1.0
  C  C353  1  0.17804000  0.60761000  0.33211000  1.0
  C  C354  1  0.10027000  0.58197000  0.84834000  1.0
  C  C355  1  0.51827000  0.41817000  0.65161000  1.0
  C  C356  1  0.89973000  0.41803000  0.15166000  1.0
  C  C357  1  0.48173000  0.58183000  0.34839000  1.0
  C  C358  1  0.03110000  0.57653000  0.81687000  1.0
  C  C359  1  0.45444000  0.42355000  0.68307000  1.0
  C  C360  1  0.96890000  0.42347000  0.18313000  1.0
  C  C361  1  0.54557000  0.57645000  0.31693000  1.0
  C  C362  1  0.94558000  0.46670000  0.80229000  1.0
  C  C363  1  0.47868000  0.53335000  0.69767000  1.0
  C  C364  1  0.05442000  0.53330000  0.19771000  1.0
  C  C365  1  0.52132000  0.46665000  0.30233000  1.0
  C  C366  1  0.87269000  0.46074000  0.77414000  1.0
  C  C367  1  0.41193000  0.53932000  0.72584000  1.0
  C  C368  1  0.12731000  0.53926000  0.22586000  1.0
  C  C369  1  0.58807000  0.46068000  0.27416000  1.0
  C  C370  1  0.88500000  0.56297000  0.76069000  1.0
  C  C371  1  0.32201000  0.43705000  0.73926000  1.0
  C  C372  1  0.11500000  0.43703000  0.23931000  1.0
  C  C373  1  0.67799000  0.56295000  0.26073000  1.0
  C  C374  1  0.97617000  0.67090000  0.77460000  1.0
  C  C375  1  0.30511000  0.32913000  0.72531000  1.0
  C  C376  1  0.02383000  0.32910000  0.22540000  1.0
  C  C377  1  0.69489000  0.67087000  0.27468000  1.0
  C  C378  1  0.04789000  0.67958000  0.80306000  1.0
  C  C379  1  0.36812000  0.32048000  0.69685000  1.0
  C  C380  1  0.95211000  0.32042000  0.19694000  1.0
  C  C381  1  0.63188000  0.67952000  0.30315000  1.0
  C  C382  1  0.92870000  0.35827000  0.81801000  1.0
  C  C383  1  0.56996000  0.64180000  0.68191000  1.0
  C  C384  1  0.07130000  0.64173000  0.18199000  1.0
  C  C385  1  0.43004000  0.35820000  0.31809000  1.0
  C  C386  1  0.79703000  0.56142000  0.73327000  1.0
  C  C387  1  0.23565000  0.43858000  0.76670000  1.0
  C  C388  1  0.20297000  0.43858000  0.26673000  1.0
  C  C389  1  0.76434000  0.56142000  0.23330000  1.0
  C  C390  1  0.13757000  0.79817000  0.81811000  1.0
  C  C391  1  0.33913000  0.20190000  0.68179000  1.0
  C  C392  1  0.86243000  0.20183000  0.18189000  1.0
  C  C393  1  0.66088000  0.79810000  0.31821000  1.0
  C  C394  1  0.98867000  0.77847000  0.75942000  1.0
  C  C395  1  0.21016000  0.22161000  0.74052000  1.0
  C  C396  1  0.01133000  0.22153000  0.24058000  1.0
  C  C397  1  0.78984000  0.77839000  0.25948000  1.0
  C  C398  1  0.81279000  0.78963000  0.79667000  1.0
  C  C399  1  0.02281000  0.21047000  0.70341000  1.0
  C  C400  1  0.18721000  0.21037000  0.20333000  1.0
  C  C401  1  0.97719000  0.78953000  0.29658000  1.0
  C  C402  1  0.72441000  0.83634000  0.79382000  1.0
  C  C403  1  0.88771000  0.16345000  0.70631000  1.0
  C  C404  1  0.27559000  0.16366000  0.20619000  1.0
  C  C405  1  0.11229000  0.83655000  0.29369000  1.0
  C  C406  1  0.83088000  0.86262000  0.74907000  1.0
  C  C407  1  0.96832000  0.13714000  0.75098000  1.0
  C  C408  1  0.16912000  0.13738000  0.25093000  1.0
  C  C409  1  0.03168000  0.86286000  0.24902000  1.0
  C  C410  1  0.76745000  0.34602000  0.76056000  1.0
  C  C411  1  0.42157000  0.65403000  0.73945000  1.0
  C  C412  1  0.23255000  0.65398000  0.23944000  1.0
  C  C413  1  0.57843000  0.34598000  0.26055000  1.0
  C  C414  1  0.62405000  0.38859000  0.80029000  1.0
  C  C415  1  0.23537000  0.61141000  0.69979000  1.0
  C  C416  1  0.37594000  0.61142000  0.19970000  1.0
  C  C417  1  0.76463000  0.38859000  0.30021000  1.0
  C  C418  1  0.52193000  0.22479000  0.77013000  1.0
  C  C419  1  0.29721000  0.77530000  0.72992000  1.0
  C  C420  1  0.47807000  0.77522000  0.22987000  1.0
  C  C421  1  0.70279000  0.22470000  0.27008000  1.0
  C  C422  1  0.43602000  0.23425000  0.79221000  1.0
  C  C423  1  0.20174000  0.76575000  0.70784000  1.0
  C  C424  1  0.56398000  0.76576000  0.20779000  1.0
  C  C425  1  0.79826000  0.23425000  0.29216000  1.0
  N  N426  1  0.37523000  0.50696000  0.84834000  1.0
  N  N427  1  0.86814000  0.49284000  0.65172000  1.0
  N  N428  1  0.62477000  0.49304000  0.15166000  1.0
  N  N429  1  0.13186000  0.50716000  0.34828000  1.0
  N  N430  1  0.22589000  0.57383000  0.84452000  1.0
  N  N431  1  0.65192000  0.42615000  0.65548000  1.0
  N  N432  1  0.77410000  0.42617000  0.15548000  1.0
  N  N433  1  0.34808000  0.57385000  0.34452000  1.0
  N  N434  1  0.50072000  0.33710000  0.81066000  1.0
  N  N435  1  0.16348000  0.66286000  0.68942000  1.0
  N  N436  1  0.49928000  0.66290000  0.18934000  1.0
  N  N437  1  0.83653000  0.33714000  0.31058000  1.0
  N  N438  1  0.64060000  0.32263000  0.77580000  1.0
  N  N439  1  0.31801000  0.67743000  0.72425000  1.0
  N  N440  1  0.35940000  0.67737000  0.22420000  1.0
  N  N441  1  0.68200000  0.32257000  0.27575000  1.0
  N  N442  1  0.87967000  0.80795000  0.76817000  1.0
  N  N443  1  0.07161000  0.19209000  0.73187000  1.0
  N  N444  1  0.12033000  0.19205000  0.23183000  1.0
  N  N445  1  0.92839000  0.80791000  0.26813000  1.0
  N  N446  1  0.73661000  0.88158000  0.76408000  1.0
  N  N447  1  0.85493000  0.11803000  0.73602000  1.0
  N  N448  1  0.26339000  0.11842000  0.23592000  1.0
  N  N449  1  0.14507000  0.88197000  0.26398000  1.0
  O  O450  1  0.36008000  0.93288000  0.20966000  1.0
  O  O451  1  0.42715000  0.06714000  0.29027000  1.0
  O  O452  1  0.63991000  0.06713000  0.79034000  1.0
  O  O453  1  0.57285000  0.93286000  0.70973000  1.0
  O  O454  1  0.53122000  0.10933000  0.20633000  1.0
  O  O455  1  0.42197000  0.89069000  0.29354000  1.0
  O  O456  1  0.46879000  0.89067000  0.79367000  1.0
  O  O457  1  0.57803000  0.10931000  0.70646000  1.0
  O  O458  1  0.51944000  0.86476000  0.06781000  1.0
  O  O459  1  0.65437000  0.13513000  0.43215000  1.0
  O  O460  1  0.48056000  0.13524000  0.93219000  1.0
  O  O461  1  0.34563000  0.86487000  0.56785000  1.0
  O  O462  1  0.72834000  0.92213000  0.91740000  1.0
  O  O463  1  0.80643000  0.07782000  0.58260000  1.0
  O  O464  1  0.27166000  0.07788000  0.08260000  1.0
  O  O465  1  0.19357000  0.92217000  0.41740000  1.0
  O  O466  1  0.29549000  0.25836000  0.86962000  1.0
  O  O467  1  0.03715000  0.74135000  0.63036000  1.0
  O  O468  1  0.70452000  0.74164000  0.13038000  1.0
  O  O469  1  0.96285000  0.25864000  0.36964000  1.0
  O  O470  1  0.17517000  0.22977000  0.82347000  1.0
  O  O471  1  0.94536000  0.76981000  0.67651000  1.0
  O  O472  1  0.82483000  0.77024000  0.17653000  1.0
  O  O473  1  0.05464000  0.23019000  0.32349000  1.0
  O  O474  1  0.18692000  0.74245000  0.94388000  1.0
  O  O475  1  0.44434000  0.25726000  0.55615000  1.0
  O  O476  1  0.81308000  0.25754000  0.05612000  1.0
  O  O477  1  0.55566000  0.74274000  0.44385000  1.0
  O  O478  1  0.69264000  0.59954000  0.84962000  1.0
  O  O479  1  0.09310000  0.40049000  0.65041000  1.0
  O  O480  1  0.30737000  0.40046000  0.15038000  1.0
  O  O481  1  0.90689000  0.59950000  0.34959000  1.0
  O  O482  1  0.60442000  0.44948000  0.88172000  1.0
  O  O483  1  0.15523000  0.55061000  0.61833000  1.0
  O  O484  1  0.39558000  0.55052000  0.11828000  1.0
  O  O485  1  0.84477000  0.44939000  0.38167000  1.0
