# generated using pymatgen
data_KH4C3S3N3O
_symmetry_space_group_name_H-M   'P 1'
_cell_length_a   7.31935000
_cell_length_b   10.21760000
_cell_length_c   11.52580000
_cell_angle_alpha   76.17170000
_cell_angle_beta   81.05520000
_cell_angle_gamma   88.30480000
_symmetry_Int_Tables_number   1
_chemical_formula_structural   KH4C3S3N3O
_chemical_formula_sum   'K4 H16 C12 S12 N12 O4'
_cell_volume   826.78285122
_cell_formula_units_Z   4
loop_
 _symmetry_equiv_pos_site_id
 _symmetry_equiv_pos_as_xyz
  1  'x, y, z'
loop_
 _atom_site_type_symbol
 _atom_site_label
 _atom_site_symmetry_multiplicity
 _atom_site_fract_x
 _atom_site_fract_y
 _atom_site_fract_z
 _atom_site_occupancy
  K  K0  1  0.27443000  0.43919000  0.45228000  1.0
  K  K1  1  0.72556000  0.56079000  0.54771000  1.0
  K  K2  1  0.28255000  0.62196000  0.09196000  1.0
  K  K3  1  0.71748000  0.37804000  0.90804000  1.0
  H  H4  1  0.99400000  0.67775000  0.30435000  1.0
  H  H5  1  0.00600000  0.32225000  0.69564000  1.0
  H  H6  1  0.93382000  0.53027000  0.29735000  1.0
  H  H7  1  0.06619000  0.46974000  0.70263000  1.0
  H  H8  1  0.42027000  0.31176000  0.21217000  1.0
  H  H9  1  0.57974000  0.68825000  0.78781000  1.0
  H  H10  1  0.58549000  0.39770000  0.22093000  1.0
  H  H11  1  0.41452000  0.60231000  0.77905000  1.0
  H  H12  1  0.68047000  0.83502000  0.13566000  1.0
  H  H13  1  0.31953000  0.16496000  0.86435000  1.0
  H  H14  1  0.99522000  0.83635000  0.81046000  1.0
  H  H15  1  0.00477000  0.16365000  0.18955000  1.0
  H  H16  1  0.15701000  0.95545000  0.60269000  1.0
  H  H17  1  0.84298000  0.04455000  0.39731000  1.0
  H  H18  1  0.47980000  0.96001000  0.27757000  1.0
  H  H19  1  0.52019000  0.03999000  0.72243000  1.0
  C  C20  1  0.72713000  0.02625000  0.01797000  1.0
  C  C21  1  0.27289000  0.97375000  0.98205000  1.0
  C  C22  1  0.91238000  0.02814000  0.83459000  1.0
  C  C23  1  0.08761000  0.97186000  0.16542000  1.0
  C  C24  1  0.83837000  0.81405000  0.97767000  1.0
  C  C25  1  0.16163000  0.18595000  0.02234000  1.0
  C  C26  1  0.42885000  0.76816000  0.39424000  1.0
  C  C27  1  0.57114000  0.23184000  0.60577000  1.0
  C  C28  1  0.24950000  0.76520000  0.57998000  1.0
  C  C29  1  0.75050000  0.23480000  0.42002000  1.0
  C  C30  1  0.31072000  0.97820000  0.43383000  1.0
  C  C31  1  0.68927000  0.02180000  0.56617000  1.0
  S  S32  1  0.28006000  0.14363000  0.38983000  1.0
  S  S33  1  0.71994000  0.85637000  0.61016000  1.0
  S  S34  1  0.85322000  0.64598000  0.01946000  1.0
  S  S35  1  0.14678000  0.35401000  0.98054000  1.0
  S  S36  1  0.55150000  0.68765000  0.29577000  1.0
  S  S37  1  0.44848000  0.31234000  0.70423000  1.0
  S  S38  1  0.60147000  0.10458000  0.11630000  1.0
  S  S39  1  0.39854000  0.89542000  0.88371000  1.0
  S  S40  1  0.03339000  0.10637000  0.70014000  1.0
  S  S41  1  0.96660000  0.89364000  0.29986000  1.0
  S  S42  1  0.14425000  0.68551000  0.71933000  1.0
  S  S43  1  0.85574000  0.31449000  0.28067000  1.0
  N  N44  1  0.81355000  0.09589000  0.90960000  1.0
  N  N45  1  0.18646000  0.90410000  0.09042000  1.0
  N  N46  1  0.74546000  0.88783000  0.05122000  1.0
  N  N47  1  0.25454000  0.11217000  0.94879000  1.0
  N  N48  1  0.91874000  0.88856000  0.86840000  1.0
  N  N49  1  0.08126000  0.11144000  0.13161000  1.0
  N  N50  1  0.23256000  0.90324000  0.54394000  1.0
  N  N51  1  0.76744000  0.09676000  0.45606000  1.0
  N  N52  1  0.34739000  0.69800000  0.50388000  1.0
  N  N53  1  0.65260000  0.30200000  0.49612000  1.0
  N  N54  1  0.41374000  0.90626000  0.36214000  1.0
  N  N55  1  0.58626000  0.09374000  0.63786000  1.0
  O  O56  1  0.02288000  0.58003000  0.32693000  1.0
  O  O57  1  0.97713000  0.41997000  0.67305000  1.0
  O  O58  1  0.45923000  0.40576000  0.19951000  1.0
  O  O59  1  0.54078000  0.59425000  0.80046000  1.0
