# generated using pymatgen
data_CdH2C4NO5
_symmetry_space_group_name_H-M   'P 1'
_cell_length_a   5.09401000
_cell_length_b   6.75005000
_cell_length_c   8.56928000
_cell_angle_alpha   87.50770000
_cell_angle_beta   75.34680000
_cell_angle_gamma   77.81360000
_symmetry_Int_Tables_number   1
_chemical_formula_structural   CdH2C4NO5
_chemical_formula_sum   'Cd2 H4 C8 N2 O10'
_cell_volume   278.63042517
_cell_formula_units_Z   2
loop_
 _symmetry_equiv_pos_site_id
 _symmetry_equiv_pos_as_xyz
  1  'x, y, z'
loop_
 _atom_site_type_symbol
 _atom_site_label
 _atom_site_symmetry_multiplicity
 _atom_site_fract_x
 _atom_site_fract_y
 _atom_site_fract_z
 _atom_site_occupancy
  Cd  Cd0  1  0.00000000  0.50000000  0.00000000  1.0
  Cd  Cd1  1  0.50000000  0.00000000  0.50000000  1.0
  H  H2  1  0.77943000  0.62575000  0.65476000  1.0
  H  H3  1  0.22057000  0.37425000  0.34524000  1.0
  H  H4  1  0.00323000  0.72097000  0.52224000  1.0
  H  H5  1  0.99677000  0.27903000  0.47776000  1.0
  C  C6  1  0.94319000  0.11624000  0.19276000  1.0
  C  C7  1  0.05682000  0.88376000  0.80723000  1.0
  C  C8  1  0.24003000  0.05645000  0.09302000  1.0
  C  C9  1  0.75997000  0.94355000  0.90698000  1.0
  C  C10  1  0.40646000  0.86744000  0.11453000  1.0
  C  C11  1  0.59354000  0.13256000  0.88547000  1.0
  C  C12  1  0.31054000  0.71904000  0.24419000  1.0
  C  C13  1  0.68946000  0.28096000  0.75581000  1.0
  N  N14  1  0.66422000  0.81489000  0.01978000  1.0
  N  N15  1  0.33578000  0.18511000  0.98022000  1.0
  O  O16  1  0.22901000  0.56996000  0.20134000  1.0
  O  O17  1  0.77099000  0.43004000  0.79866000  1.0
  O  O18  1  0.33333333  0.74674000  0.38497000  1.0
  O  O19  1  0.66666667  0.25326000  0.61504000  1.0
  O  O20  1  0.79937000  0.28971000  0.17738000  1.0
  O  O21  1  0.20062000  0.71030000  0.82261000  1.0
  O  O22  1  0.85908000  0.97632000  0.28168000  1.0
  O  O23  1  0.14092000  0.02369000  0.71831000  1.0
  O  O24  1  0.81023000  0.74784000  0.58929000  1.0
  O  O25  1  0.18977000  0.25216000  0.41072000  1.0
