# generated using pymatgen
data_CdH22C34N4O5
_symmetry_space_group_name_H-M   'P 1'
_cell_length_a   10.32560000
_cell_length_b   12.54820000
_cell_length_c   13.88280000
_cell_angle_alpha   101.36500000
_cell_angle_beta   104.51800000
_cell_angle_gamma   103.40500000
_symmetry_Int_Tables_number   1
_chemical_formula_structural   CdH22C34N4O5
_chemical_formula_sum   'Cd2 H44 C68 N8 O10'
_cell_volume   1630.51052940
_cell_formula_units_Z   2
loop_
 _symmetry_equiv_pos_site_id
 _symmetry_equiv_pos_as_xyz
  1  'x, y, z'
loop_
 _atom_site_type_symbol
 _atom_site_label
 _atom_site_symmetry_multiplicity
 _atom_site_fract_x
 _atom_site_fract_y
 _atom_site_fract_z
 _atom_site_occupancy
  Cd  Cd0  1  0.24072000  0.05666000  0.49474000  1.0
  Cd  Cd1  1  0.75927000  0.94334000  0.50526000  1.0
  H  H2  1  0.98918000  0.18781000  0.49185000  1.0
  H  H3  1  0.01082000  0.81219000  0.50815000  1.0
  H  H4  1  0.64520000  0.02567000  0.77334000  1.0
  H  H5  1  0.35480000  0.97433000  0.22666000  1.0
  H  H6  1  0.58403000  0.19871000  0.56950000  1.0
  H  H7  1  0.41596000  0.80129000  0.43050000  1.0
  H  H8  1  0.45326000  0.22943000  0.73889000  1.0
  H  H9  1  0.54674000  0.77057000  0.26111000  1.0
  H  H10  1  0.23260000  0.79402000  0.69081000  1.0
  H  H11  1  0.76740000  0.20598000  0.30919000  1.0
  H  H12  1  0.80492000  0.23838000  0.53607000  1.0
  H  H13  1  0.19508000  0.76162000  0.46393000  1.0
  H  H14  1  0.15117000  0.17135000  0.29604000  1.0
  H  H15  1  0.84883000  0.82865000  0.70396000  1.0
  H  H16  1  0.20461000  0.52310000  0.81404000  1.0
  H  H17  1  0.79540000  0.47690000  0.18597000  1.0
  H  H18  1  0.98743000  0.76069000  0.16021000  1.0
  H  H19  1  0.01257000  0.23931000  0.83979000  1.0
  H  H20  1  0.81851000  0.03297000  0.24589000  1.0
  H  H21  1  0.18148000  0.96703000  0.75410000  1.0
  H  H22  1  0.31821000  0.70182000  0.82969000  1.0
  H  H23  1  0.68179000  0.29818000  0.17031000  1.0
  H  H24  1  0.73208000  0.93269000  0.91001000  1.0
  H  H25  1  0.26792000  0.06731000  0.08999000  1.0
  H  H26  1  0.77934000  0.67351000  0.99788000  1.0
  H  H27  1  0.22066000  0.32649000  0.00212000  1.0
  H  H28  1  0.15569000  0.30990000  0.18778000  1.0
  H  H29  1  0.84431000  0.69010000  0.81222000  1.0
  H  H30  1  0.43906000  0.54121000  0.93119000  1.0
  H  H31  1  0.56094000  0.45879000  0.06881000  1.0
  H  H32  1  0.59236000  0.48409000  0.35232000  1.0
  H  H33  1  0.40765000  0.51591000  0.64768000  1.0
  H  H34  1  0.56082000  0.39679000  0.89622000  1.0
  H  H35  1  0.43918000  0.60321000  0.10378000  1.0
  H  H36  1  0.61216000  0.94859000  0.08475000  1.0
  H  H37  1  0.38783000  0.05140000  0.91525000  1.0
  H  H38  1  0.37378000  0.46250000  0.21710000  1.0
  H  H39  1  0.62622000  0.53750000  0.78290000  1.0
  H  H40  1  0.94990000  0.66078000  0.61707000  1.0
  H  H41  1  0.05009000  0.33922000  0.38294000  1.0
  H  H42  1  0.12901000  0.56124000  0.66105000  1.0
  H  H43  1  0.87100000  0.43876000  0.33895000  1.0
  H  H44  1  0.69990000  0.55178000  0.53201000  1.0
  H  H45  1  0.30010000  0.44822000  0.46799000  1.0
  C  C46  1  0.73806000  0.38866000  0.52835000  1.0
  C  C47  1  0.26194000  0.61134000  0.47165000  1.0
  C  C48  1  0.38236000  0.97190000  0.64367000  1.0
  C  C49  1  0.61764000  0.02811000  0.35632000  1.0
  C  C50  1  0.91529000  0.90257000  0.21125000  1.0
  C  C51  1  0.08471000  0.09743000  0.78874000  1.0
  C  C52  1  0.27220000  0.28691000  0.68683000  1.0
  C  C53  1  0.72780000  0.71309000  0.31317000  1.0
  C  C54  1  0.07534000  0.23482000  0.56202000  1.0
  C  C55  1  0.92466000  0.76518000  0.43799000  1.0
  C  C56  1  0.03401000  0.95238000  0.30958000  1.0
  C  C57  1  0.96599000  0.04762000  0.69042000  1.0
  C  C58  1  0.20344000  0.37035000  0.70714000  1.0
  C  C59  1  0.79657000  0.62965000  0.29287000  1.0
  C  C60  1  0.97694000  0.39401000  0.60457000  1.0
  C  C61  1  0.02306000  0.60599000  0.39543000  1.0
  C  C62  1  0.43363000  0.91596000  0.72445000  1.0
  C  C63  1  0.56638000  0.08404000  0.27555000  1.0
  C  C64  1  0.57396000  0.95541000  0.78699000  1.0
  C  C65  1  0.42604000  0.04459000  0.21301000  1.0
  C  C66  1  0.53092000  0.23032000  0.50826000  1.0
  C  C67  1  0.46908000  0.76968000  0.49174000  1.0
  C  C68  1  0.40204000  0.29493000  0.75446000  1.0
  C  C69  1  0.59797000  0.70507000  0.24554000  1.0
  C  C70  1  0.34157000  0.82393000  0.73969000  1.0
  C  C71  1  0.65844000  0.17607000  0.26031000  1.0
  C  C72  1  0.49343000  0.34017000  0.40216000  1.0
  C  C73  1  0.50658000  0.65983000  0.59784000  1.0
  C  C74  1  0.83665000  0.33113000  0.55550000  1.0
  C  C75  1  0.16336000  0.66887000  0.44451000  1.0
  C  C76  1  0.36949000  0.25171000  0.38498000  1.0
  C  C77  1  0.63051000  0.74829000  0.61502000  1.0
  C  C78  1  0.24590000  0.23932000  0.30780000  1.0
  C  C79  1  0.75410000  0.76068000  0.69220000  1.0
  C  C80  1  0.25985000  0.46153000  0.79622000  1.0
  C  C81  1  0.74015000  0.53847000  0.20379000  1.0
  C  C82  1  0.90502000  0.80110000  0.14197000  1.0
  C  C83  1  0.09498000  0.19890000  0.85802000  1.0
  C  C84  1  0.52878000  0.81243000  0.87733000  1.0
  C  C85  1  0.47122000  0.18757000  0.12267000  1.0
  C  C86  1  0.81003000  0.95571000  0.18984000  1.0
  C  C87  1  0.18997000  0.04429000  0.81016000  1.0
  C  C88  1  0.38813000  0.77281000  0.81622000  1.0
  C  C89  1  0.61187000  0.22719000  0.18377000  1.0
  C  C90  1  0.62237000  0.90387000  0.86303000  1.0
  C  C91  1  0.37763000  0.09613000  0.13697000  1.0
  C  C92  1  0.68705000  0.80725000  0.03287000  1.0
  C  C93  1  0.31295000  0.19275000  0.96712000  1.0
  C  C94  1  0.79073000  0.75305000  0.05244000  1.0
  C  C95  1  0.20927000  0.24695000  0.94756000  1.0
  C  C96  1  0.25011000  0.31676000  0.24857000  1.0
  C  C97  1  0.74989000  0.68324000  0.75143000  1.0
  C  C98  1  0.38976000  0.46931000  0.86258000  1.0
  C  C99  1  0.61024000  0.53068000  0.13742000  1.0
  C  C100  1  0.49746000  0.41743000  0.34210000  1.0
  C  C101  1  0.50254000  0.58257000  0.65790000  1.0
  C  C102  1  0.45961000  0.38767000  0.84182000  1.0
  C  C103  1  0.54039000  0.61233000  0.15818000  1.0
  C  C104  1  0.69543000  0.90862000  0.10088000  1.0
  C  C105  1  0.30458000  0.09138000  0.89912000  1.0
  C  C106  1  0.37351000  0.40400000  0.26547000  1.0
  C  C107  1  0.62649000  0.59600000  0.73453000  1.0
  C  C108  1  0.91847000  0.56829000  0.59963000  1.0
  C  C109  1  0.08153000  0.43171000  0.40037000  1.0
  C  C110  1  0.01875000  0.51295000  0.62689000  1.0
  C  C111  1  0.98125000  0.48705000  0.37312000  1.0
  C  C112  1  0.77785000  0.50732000  0.55019000  1.0
  C  C113  1  0.22216000  0.49267000  0.44981000  1.0
  N  N114  1  0.07819000  0.33512000  0.62546000  1.0
  N  N115  1  0.92181000  0.66488000  0.37454000  1.0
  N  N116  1  0.39754000  0.18586000  0.45293000  1.0
  N  N117  1  0.60246000  0.81413000  0.54707000  1.0
  N  N118  1  0.18879000  0.20411000  0.59585000  1.0
  N  N119  1  0.81121000  0.79589000  0.40415000  1.0
  N  N120  1  0.59494000  0.32383000  0.48151000  1.0
  N  N121  1  0.40506000  0.67617000  0.51849000  1.0
  O  O122  1  0.45960000  0.06356000  0.63839000  1.0
  O  O123  1  0.54040000  0.93645000  0.36162000  1.0
  O  O124  1  0.25620000  0.92355000  0.58130000  1.0
  O  O125  1  0.74381000  0.07646000  0.41870000  1.0
  O  O126  1  0.03719000  0.04602000  0.36944000  1.0
  O  O127  1  0.96281000  0.95398000  0.63056000  1.0
  O  O128  1  0.12685000  0.90223000  0.33200000  1.0
  O  O129  1  0.87315000  0.09777000  0.66800000  1.0
  O  O130  1  0.56950000  0.75278000  0.94696000  1.0
  O  O131  1  0.43049000  0.24722000  0.05303000  1.0
