# generated using pymatgen
data_ZnH6C7O8
_symmetry_space_group_name_H-M   'P 1'
_cell_length_a   5.05226000
_cell_length_b   9.16723000
_cell_length_c   9.96820000
_cell_angle_alpha   104.71900000
_cell_angle_beta   95.95080000
_cell_angle_gamma   93.10930000
_symmetry_Int_Tables_number   1
_chemical_formula_structural   ZnH6C7O8
_chemical_formula_sum   'Zn2 H12 C14 O16'
_cell_volume   442.56161272
_cell_formula_units_Z   2
loop_
 _symmetry_equiv_pos_site_id
 _symmetry_equiv_pos_as_xyz
  1  'x, y, z'
loop_
 _atom_site_type_symbol
 _atom_site_label
 _atom_site_symmetry_multiplicity
 _atom_site_fract_x
 _atom_site_fract_y
 _atom_site_fract_z
 _atom_site_occupancy
  Zn  Zn0  1  0.29412000  0.68351000  0.78005000  1.0
  Zn  Zn1  1  0.70588000  0.31649000  0.21995000  1.0
  H  H2  1  0.55209000  0.45775000  0.66050000  1.0
  H  H3  1  0.44791000  0.54225000  0.33950000  1.0
  H  H4  1  0.55487000  0.45963000  0.82492000  1.0
  H  H5  1  0.44513000  0.54037000  0.17508000  1.0
  H  H6  1  0.58836000  0.92308000  0.79213000  1.0
  H  H7  1  0.41164000  0.07691000  0.20787000  1.0
  H  H8  1  0.76655000  0.81351000  0.86984000  1.0
  H  H9  1  0.23345000  0.18649000  0.13016000  1.0
  H  H10  1  0.72220000  0.88911000  0.52083000  1.0
  H  H11  1  0.27779000  0.11089000  0.47916000  1.0
  H  H12  1  0.71592000  0.89126000  0.08384000  1.0
  H  H13  1  0.28408000  0.10874000  0.91616000  1.0
  C  C14  1  0.13361000  0.69638000  0.51232000  1.0
  C  C15  1  0.86638000  0.30362000  0.48768000  1.0
  C  C16  1  0.98935000  0.75601000  0.40051000  1.0
  C  C17  1  0.01065000  0.24399000  0.59949000  1.0
  C  C18  1  0.79174000  0.85124000  0.41886000  1.0
  C  C19  1  0.20825000  0.14876000  0.58114000  1.0
  C  C20  1  0.67116000  0.90130000  0.30281000  1.0
  C  C21  1  0.32883000  0.09870000  0.69719000  1.0
  C  C22  1  0.78930000  0.85314000  0.17468000  1.0
  C  C23  1  0.21070000  0.14686000  0.82532000  1.0
  C  C24  1  0.98402000  0.75575000  0.16565000  1.0
  C  C25  1  0.01598000  0.24425000  0.83435000  1.0
  C  C26  1  0.12158000  0.69310000  0.03913000  1.0
  C  C27  1  0.87843000  0.30691000  0.96087000  1.0
  O  O28  1  0.31169000  0.60795000  0.48282000  1.0
  O  O29  1  0.68830000  0.39205000  0.51718000  1.0
  O  O30  1  0.06222000  0.74516000  0.63498000  1.0
  O  O31  1  0.93778000  0.25484000  0.36502000  1.0
  O  O32  1  0.08113000  0.70477000  0.27545000  1.0
  O  O33  1  0.91887000  0.29523000  0.72455000  1.0
  O  O34  1  0.47324000  0.98123000  0.31316000  1.0
  O  O35  1  0.52675000  0.01876000  0.68683000  1.0
  O  O36  1  0.30176000  0.60635000  0.04566000  1.0
  O  O37  1  0.69824000  0.39365000  0.95434000  1.0
  O  O38  1  0.04687000  0.73703000  0.92867000  1.0
  O  O39  1  0.95313000  0.26297000  0.07133000  1.0
  O  O40  1  0.45688000  0.49142000  0.74581000  1.0
  O  O41  1  0.54312000  0.50858000  0.25419000  1.0
  O  O42  1  0.58743000  0.85012000  0.85453000  1.0
  O  O43  1  0.41257000  0.14988000  0.14548000  1.0
