# generated using pymatgen
data_Fe3H33C57N3O13
_symmetry_space_group_name_H-M   'P 1'
_cell_length_a   18.94470000
_cell_length_b   18.94460000
_cell_length_c   18.94480000
_cell_angle_alpha   61.31930000
_cell_angle_beta   61.31950000
_cell_angle_gamma   61.31950000
_symmetry_Int_Tables_number   1
_chemical_formula_structural   Fe3H33C57N3O13
_chemical_formula_sum   'Fe6 H66 C114 N6 O26'
_cell_volume   4950.39667785
_cell_formula_units_Z   2
loop_
 _symmetry_equiv_pos_site_id
 _symmetry_equiv_pos_as_xyz
  1  'x, y, z'
loop_
 _atom_site_type_symbol
 _atom_site_label
 _atom_site_symmetry_multiplicity
 _atom_site_fract_x
 _atom_site_fract_y
 _atom_site_fract_z
 _atom_site_occupancy
  Fe  Fe0  1  0.85012000  0.64988000  0.75000000  1.0
  Fe  Fe1  1  0.64988000  0.75000000  0.85012000  1.0
  Fe  Fe2  1  0.75000000  0.85012000  0.64988000  1.0
  Fe  Fe3  1  0.14988000  0.35012000  0.25000000  1.0
  Fe  Fe4  1  0.35012000  0.25000000  0.14988000  1.0
  Fe  Fe5  1  0.25000000  0.14988000  0.35012000  1.0
  H  H6  1  0.96656000  0.52633000  0.64503000  1.0
  H  H7  1  0.07784000  0.51124000  0.52394000  1.0
  H  H8  1  0.11618000  0.45263000  0.41347000  1.0
  H  H9  1  0.17936000  0.19855000  0.58639000  1.0
  H  H10  1  0.13861000  0.25625000  0.69917000  1.0
  H  H11  1  0.52633000  0.64503000  0.96657000  1.0
  H  H12  1  0.51124000  0.52394000  0.07784000  1.0
  H  H13  1  0.45262000  0.41347000  0.11619000  1.0
  H  H14  1  0.19854000  0.58640000  0.17936000  1.0
  H  H15  1  0.25626000  0.69918000  0.13860000  1.0
  H  H16  1  0.64503000  0.96656000  0.52633000  1.0
  H  H17  1  0.52394000  0.07784000  0.51123000  1.0
  H  H18  1  0.41347000  0.11619000  0.45261000  1.0
  H  H19  1  0.58640000  0.17937000  0.19854000  1.0
  H  H20  1  0.69918000  0.13860000  0.25625000  1.0
  H  H21  1  0.97367000  0.53343000  0.85497000  1.0
  H  H22  1  0.98876000  0.42216000  0.97606000  1.0
  H  H23  1  0.04738000  0.38382000  0.08653000  1.0
  H  H24  1  0.30145000  0.32064000  0.91361000  1.0
  H  H25  1  0.24374000  0.36140000  0.80082000  1.0
  H  H26  1  0.85497000  0.97367000  0.53343000  1.0
  H  H27  1  0.97606000  0.98877000  0.42216000  1.0
  H  H28  1  0.08653000  0.04739000  0.38381000  1.0
  H  H29  1  0.91360000  0.30146000  0.32063000  1.0
  H  H30  1  0.80082000  0.24375000  0.36139000  1.0
  H  H31  1  0.53344000  0.85497000  0.97367000  1.0
  H  H32  1  0.42216000  0.97606000  0.98876000  1.0
  H  H33  1  0.38381000  0.08654000  0.04737000  1.0
  H  H34  1  0.32064000  0.91361000  0.30145000  1.0
  H  H35  1  0.36140000  0.80082000  0.24375000  1.0
  H  H36  1  0.03344000  0.47367000  0.35497000  1.0
  H  H37  1  0.92216000  0.48876000  0.47606000  1.0
  H  H38  1  0.88382000  0.54737000  0.58653000  1.0
  H  H39  1  0.82064000  0.80145000  0.41362000  1.0
  H  H40  1  0.86140000  0.74375000  0.30082000  1.0
  H  H41  1  0.47367000  0.35497000  0.03343000  1.0
  H  H42  1  0.48876000  0.47606000  0.92216000  1.0
  H  H43  1  0.54738000  0.58653000  0.88381000  1.0
  H  H44  1  0.80146000  0.41360000  0.82064000  1.0
  H  H45  1  0.74374000  0.30082000  0.86140000  1.0
  H  H46  1  0.35497000  0.03344000  0.47367000  1.0
  H  H47  1  0.47606000  0.92216000  0.48876000  1.0
  H  H48  1  0.58653000  0.88381000  0.54739000  1.0
  H  H49  1  0.41360000  0.82063000  0.80146000  1.0
  H  H50  1  0.30082000  0.86140000  0.74374000  1.0
  H  H51  1  0.02633000  0.46657000  0.14503000  1.0
  H  H52  1  0.01124000  0.57784000  0.02394000  1.0
  H  H53  1  0.95262000  0.61618000  0.91347000  1.0
  H  H54  1  0.69855000  0.67936000  0.08640000  1.0
  H  H55  1  0.75626000  0.63861000  0.19918000  1.0
  H  H56  1  0.14503000  0.02633000  0.46656000  1.0
  H  H57  1  0.02394000  0.01123000  0.57784000  1.0
  H  H58  1  0.91347000  0.95261000  0.61619000  1.0
  H  H59  1  0.08639000  0.69854000  0.67937000  1.0
  H  H60  1  0.19918000  0.75625000  0.63861000  1.0
  H  H61  1  0.46656000  0.14503000  0.02633000  1.0
  H  H62  1  0.57784000  0.02394000  0.01124000  1.0
  H  H63  1  0.61619000  0.91346000  0.95263000  1.0
  H  H64  1  0.67936000  0.08639000  0.69855000  1.0
  H  H65  1  0.63860000  0.19918000  0.75626000  1.0
  H  H66  1  0.16694000  0.33306000  0.75000000  1.0
  H  H67  1  0.33306000  0.75000000  0.16694000  1.0
  H  H68  1  0.75000000  0.16693000  0.33307000  1.0
  H  H69  1  0.83306000  0.66693000  0.25000000  1.0
  H  H70  1  0.66694000  0.25000000  0.83306000  1.0
  H  H71  1  0.25000000  0.83307000  0.66693000  1.0
  C  C72  1  0.99988000  0.49671000  0.69084000  1.0
  C  C73  1  0.07266000  0.42433000  0.68742000  1.0
  C  C74  1  0.16340000  0.28852000  0.42840000  1.0
  C  C75  1  0.10375000  0.38799000  0.62016000  1.0
  C  C76  1  0.09881000  0.44262000  0.53857000  1.0
  C  C77  1  0.12006000  0.41003000  0.47652000  1.0
  C  C78  1  0.14737000  0.32202000  0.49392000  1.0
  C  C79  1  0.15674000  0.26701000  0.57359000  1.0
  C  C80  1  0.13474000  0.29964000  0.63613000  1.0
  C  C81  1  0.49672000  0.69084000  0.99988000  1.0
  C  C82  1  0.42433000  0.68742000  0.07267000  1.0
  C  C83  1  0.28850000  0.42840000  0.16340000  1.0
  C  C84  1  0.38799000  0.62016000  0.10375000  1.0
  C  C85  1  0.44261000  0.53857000  0.09881000  1.0
  C  C86  1  0.41002000  0.47652000  0.12007000  1.0
  C  C87  1  0.32201000  0.49393000  0.14736000  1.0
  C  C88  1  0.26701000  0.57360000  0.15674000  1.0
  C  C89  1  0.29964000  0.63614000  0.13474000  1.0
  C  C90  1  0.69084000  0.99987000  0.49671000  1.0
  C  C91  1  0.68742000  0.07266000  0.42433000  1.0
  C  C92  1  0.42840000  0.16340000  0.28850000  1.0
  C  C93  1  0.62016000  0.10374000  0.38799000  1.0
  C  C94  1  0.53857000  0.09881000  0.44260000  1.0
  C  C95  1  0.47652000  0.12007000  0.41002000  1.0
  C  C96  1  0.49393000  0.14737000  0.32200000  1.0
  C  C97  1  0.57360000  0.15674000  0.26700000  1.0
  C  C98  1  0.63614000  0.13474000  0.29964000  1.0
  C  C99  1  0.00329000  0.50011000  0.80917000  1.0
  C  C100  1  0.07566000  0.42734000  0.81258000  1.0
  C  C101  1  0.21149000  0.33661000  0.07160000  1.0
  C  C102  1  0.11201000  0.39625000  0.87984000  1.0
  C  C103  1  0.05739000  0.40119000  0.96143000  1.0
  C  C104  1  0.08997000  0.37994000  0.02348000  1.0
  C  C105  1  0.17799000  0.35263000  0.00607000  1.0
  C  C106  1  0.23299000  0.34326000  0.92640000  1.0
  C  C107  1  0.20035000  0.36526000  0.86387000  1.0
  C  C108  1  0.80916000  0.00328000  0.50012000  1.0
  C  C109  1  0.81258000  0.07567000  0.42734000  1.0
  C  C110  1  0.07160000  0.21150000  0.33660000  1.0
  C  C111  1  0.87984000  0.11201000  0.39625000  1.0
  C  C112  1  0.96143000  0.05740000  0.40119000  1.0
  C  C113  1  0.02348000  0.08998000  0.37993000  1.0
  C  C114  1  0.00607000  0.17800000  0.35263000  1.0
  C  C115  1  0.92640000  0.23300000  0.34326000  1.0
  C  C116  1  0.86386000  0.20036000  0.36526000  1.0
  C  C117  1  0.50013000  0.80916000  0.00329000  1.0
  C  C118  1  0.42734000  0.81258000  0.07567000  1.0
  C  C119  1  0.33660000  0.07161000  0.21149000  1.0
  C  C120  1  0.39625000  0.87985000  0.11201000  1.0
  C  C121  1  0.40119000  0.96143000  0.05739000  1.0
  C  C122  1  0.37993000  0.02349000  0.08997000  1.0
  C  C123  1  0.35263000  0.00608000  0.17798000  1.0
  C  C124  1  0.34326000  0.92641000  0.23299000  1.0
  C  C125  1  0.36527000  0.86387000  0.20036000  1.0
  C  C126  1  0.00012000  0.50329000  0.30916000  1.0
  C  C127  1  0.92734000  0.57567000  0.31258000  1.0
  C  C128  1  0.83660000  0.71148000  0.57160000  1.0
  C  C129  1  0.89625000  0.61201000  0.37984000  1.0
  C  C130  1  0.90119000  0.55738000  0.46143000  1.0
  C  C131  1  0.87993000  0.58997000  0.52348000  1.0
  C  C132  1  0.85263000  0.67798000  0.50608000  1.0
  C  C133  1  0.84326000  0.73299000  0.42641000  1.0
  C  C134  1  0.86526000  0.70035000  0.36387000  1.0
  C  C135  1  0.50328000  0.30917000  0.00012000  1.0
  C  C136  1  0.57567000  0.31258000  0.92733000  1.0
  C  C137  1  0.71150000  0.57160000  0.83661000  1.0
  C  C138  1  0.61201000  0.37985000  0.89625000  1.0
  C  C139  1  0.55739000  0.46143000  0.90119000  1.0
  C  C140  1  0.58997000  0.52348000  0.87994000  1.0
  C  C141  1  0.67799000  0.50607000  0.85264000  1.0
  C  C142  1  0.73300000  0.42640000  0.84326000  1.0
  C  C143  1  0.70036000  0.36386000  0.86526000  1.0
  C  C144  1  0.30916000  0.00013000  0.50328000  1.0
  C  C145  1  0.31258000  0.92734000  0.57567000  1.0
  C  C146  1  0.57160000  0.83660000  0.71149000  1.0
  C  C147  1  0.37984000  0.89626000  0.61201000  1.0
  C  C148  1  0.46143000  0.90119000  0.55739000  1.0
  C  C149  1  0.52348000  0.87993000  0.58998000  1.0
  C  C150  1  0.50607000  0.85263000  0.67799000  1.0
  C  C151  1  0.42640000  0.84326000  0.73299000  1.0
  C  C152  1  0.36386000  0.86526000  0.70036000  1.0
  C  C153  1  0.99671000  0.49988000  0.19084000  1.0
  C  C154  1  0.92434000  0.57266000  0.18742000  1.0
  C  C155  1  0.78851000  0.66339000  0.92840000  1.0
  C  C156  1  0.88799000  0.60375000  0.12016000  1.0
  C  C157  1  0.94261000  0.59881000  0.03857000  1.0
  C  C158  1  0.91003000  0.62006000  0.97652000  1.0
  C  C159  1  0.82201000  0.64736000  0.99393000  1.0
  C  C160  1  0.76701000  0.65674000  0.07360000  1.0
  C  C161  1  0.79964000  0.63474000  0.13614000  1.0
  C  C162  1  0.19084000  0.99672000  0.49988000  1.0
  C  C163  1  0.18742000  0.92433000  0.57266000  1.0
  C  C164  1  0.92840000  0.78850000  0.66340000  1.0
  C  C165  1  0.12016000  0.88799000  0.60375000  1.0
  C  C166  1  0.03857000  0.94261000  0.59881000  1.0
  C  C167  1  0.97652000  0.91002000  0.62007000  1.0
  C  C168  1  0.99393000  0.82201000  0.64737000  1.0
  C  C169  1  0.07360000  0.76700000  0.65674000  1.0
  C  C170  1  0.13614000  0.79964000  0.63474000  1.0
  C  C171  1  0.49988000  0.19084000  0.99671000  1.0
  C  C172  1  0.57266000  0.18742000  0.92433000  1.0
  C  C173  1  0.66340000  0.92839000  0.78851000  1.0
  C  C174  1  0.60375000  0.12015000  0.88800000  1.0
  C  C175  1  0.59881000  0.03856000  0.94261000  1.0
  C  C176  1  0.62007000  0.97652000  0.91004000  1.0
  C  C177  1  0.64737000  0.99392000  0.82202000  1.0
  C  C178  1  0.65674000  0.07359000  0.76702000  1.0
  C  C179  1  0.63474000  0.13613000  0.79965000  1.0
  C  C180  1  0.11045000  0.38955000  0.75000000  1.0
  C  C181  1  0.38956000  0.75000000  0.11045000  1.0
  C  C182  1  0.75000000  0.11044000  0.38956000  1.0
  C  C183  1  0.88955000  0.61045000  0.25000000  1.0
  C  C184  1  0.61044000  0.25000000  0.88955000  1.0
  C  C185  1  0.25000000  0.88956000  0.61044000  1.0
  N  N186  1  0.96636000  0.53364000  0.75000000  1.0
  N  N187  1  0.53364000  0.75000000  0.96636000  1.0
  N  N188  1  0.75000000  0.96636000  0.53364000  1.0
  N  N189  1  0.03364000  0.46636000  0.25000000  1.0
  N  N190  1  0.46636000  0.25000000  0.03364000  1.0
  N  N191  1  0.25000000  0.03364000  0.46636000  1.0
  O  O192  1  0.12861000  0.34060000  0.37095000  1.0
  O  O193  1  0.20901000  0.21116000  0.43538000  1.0
  O  O194  1  0.34060000  0.37096000  0.12860000  1.0
  O  O195  1  0.21116000  0.43538000  0.20900000  1.0
  O  O196  1  0.37095000  0.12861000  0.34060000  1.0
  O  O197  1  0.43538000  0.20901000  0.21115000  1.0
  O  O198  1  0.15940000  0.37139000  0.12904000  1.0
  O  O199  1  0.28884000  0.29099000  0.06462000  1.0
  O  O200  1  0.12904000  0.15940000  0.37139000  1.0
  O  O201  1  0.06462000  0.28884000  0.29099000  1.0
  O  O202  1  0.37139000  0.12905000  0.15940000  1.0
  O  O203  1  0.29099000  0.06463000  0.28884000  1.0
  O  O204  1  0.87139000  0.65939000  0.62905000  1.0
  O  O205  1  0.79099000  0.78884000  0.56463000  1.0
  O  O206  1  0.65940000  0.62904000  0.87140000  1.0
  O  O207  1  0.78884000  0.56462000  0.79100000  1.0
  O  O208  1  0.62905000  0.87139000  0.65940000  1.0
  O  O209  1  0.56462000  0.79099000  0.78884000  1.0
  O  O210  1  0.84060000  0.62860000  0.87096000  1.0
  O  O211  1  0.71116000  0.70900000  0.93538000  1.0
  O  O212  1  0.87095000  0.84060000  0.62861000  1.0
  O  O213  1  0.93538000  0.71116000  0.70901000  1.0
  O  O214  1  0.62861000  0.87095000  0.84060000  1.0
  O  O215  1  0.70901000  0.93537000  0.71116000  1.0
  O  O216  1  0.75000000  0.75000000  0.75000000  1.0
  O  O217  1  0.25000000  0.25000000  0.25000000  1.0
