# generated using pymatgen
data_Zr3H19C44N5(ClO13)2
_symmetry_space_group_name_H-M   'P 1'
_cell_length_a   18.94684868
_cell_length_b   19.03690272
_cell_length_c   19.03820000
_cell_angle_alpha   90.30808245
_cell_angle_beta   119.76608133
_cell_angle_gamma   119.76124008
_symmetry_Int_Tables_number   1
_chemical_formula_structural   Zr3H19C44N5(ClO13)2
_chemical_formula_sum   'Zr6 H38 C88 N10 Cl4 O52'
_cell_volume   4877.16567457
_cell_formula_units_Z   2
loop_
 _symmetry_equiv_pos_site_id
 _symmetry_equiv_pos_as_xyz
  1  'x, y, z'
loop_
 _atom_site_type_symbol
 _atom_site_label
 _atom_site_symmetry_multiplicity
 _atom_site_fract_x
 _atom_site_fract_y
 _atom_site_fract_z
 _atom_site_occupancy
  Zr  Zr0  1  0.49491000  0.90310000  0.90551000  1.0
  Zr  Zr1  1  0.50540000  0.09449000  0.09686000  1.0
  Zr  Zr2  1  0.68599000  0.08856000  0.09052000  1.0
  Zr  Zr3  1  0.31433000  0.90947000  0.91142000  1.0
  Zr  Zr4  1  0.50016000  0.90631000  0.09372000  1.0
  Zr  Zr5  1  0.50020000  0.09155000  0.90846000  1.0
  H  H6  1  0.64198000  0.92063000  0.06842000  1.0
  H  H7  1  0.35833000  0.93162000  0.07932000  1.0
  H  H8  1  0.65112000  0.21809000  0.07449000  1.0
  H  H9  1  0.34924000  0.92549000  0.78192000  1.0
  H  H10  1  0.52746000  0.46832000  0.12325000  1.0
  H  H11  1  0.49995000  0.54352000  0.89158000  1.0
  H  H12  1  0.43897000  0.65042000  0.07984000  1.0
  H  H13  1  0.42699000  0.51432000  0.07637000  1.0
  H  H14  1  0.43421000  0.28262000  0.86540000  1.0
  H  H15  1  0.41151000  0.40069000  0.85399000  1.0
  H  H16  1  0.50031000  0.10845000  0.45647000  1.0
  H  H17  1  0.47292000  0.87670000  0.53175000  1.0
  H  H18  1  0.56584000  0.13447000  0.71725000  1.0
  H  H19  1  0.58843000  0.14587000  0.59915000  1.0
  H  H20  1  0.56108000  0.92007000  0.34945000  1.0
  H  H21  1  0.57302000  0.92346000  0.48550000  1.0
  H  H22  1  0.84418000  0.45671000  0.89448000  1.0
  H  H23  1  0.15373000  0.55397000  0.11946000  1.0
  H  H24  1  0.07781000  0.65083000  0.86529000  1.0
  H  H25  1  0.94739000  0.51107000  0.85375000  1.0
  H  H26  1  0.92625000  0.28580000  0.07501000  1.0
  H  H27  1  0.05845000  0.40948000  0.07090000  1.0
  H  H28  1  0.84666000  0.88058000  0.44606000  1.0
  H  H29  1  0.15613000  0.10546000  0.54319000  1.0
  H  H30  1  0.07425000  0.92524000  0.71437000  1.0
  H  H31  1  0.94203000  0.92934000  0.59068000  1.0
  H  H32  1  0.92246000  0.13476000  0.34921000  1.0
  H  H33  1  0.05292000  0.14633000  0.48898000  1.0
  H  H34  1  0.29384000  0.12795000  0.10847000  1.0
  H  H35  1  0.07606000  0.90392000  0.88277000  1.0
  H  H36  1  0.70649000  0.89134000  0.87217000  1.0
  H  H37  1  0.92427000  0.11730000  0.09595000  1.0
  H  H38  1  0.06951000  0.46375000  0.45098000  1.0
  H  H39  1  0.93064000  0.54902000  0.53630000  1.0
  H  H40  1  0.28532000  0.65304000  0.71582000  1.0
  H  H41  1  0.16191000  0.51672000  0.59368000  1.0
  H  H42  1  0.71484000  0.28409000  0.34692000  1.0
  H  H43  1  0.83817000  0.40622000  0.48323000  1.0
  C  C44  1  0.48340000  0.75536000  0.99269000  1.0
  C  C45  1  0.51690000  0.00736000  0.24463000  1.0
  C  C46  1  0.49986000  0.23386000  0.00205000  1.0
  C  C47  1  0.50047000  0.99790000  0.76617000  1.0
  C  C48  1  0.72976000  0.99743000  0.98930000  1.0
  C  C49  1  0.25713000  0.75940000  0.77065000  1.0
  C  C50  1  0.27056000  0.01074000  0.00249000  1.0
  C  C51  1  0.74312000  0.22934000  0.24057000  1.0
  C  C52  1  0.73500000  0.99897000  0.23668000  1.0
  C  C53  1  0.73473000  0.22595000  0.99193000  1.0
  C  C54  1  0.26570000  0.00816000  0.77406000  1.0
  C  C55  1  0.26533000  0.76333000  0.00105000  1.0
  C  C56  1  0.49218000  0.30808000  0.99909000  1.0
  C  C57  1  0.47406000  0.67277000  0.98748000  1.0
  C  C58  1  0.51674000  0.36110000  0.07026000  1.0
  C  C59  1  0.50462000  0.42742000  0.06549000  1.0
  C  C60  1  0.48836000  0.63954000  0.93363000  1.0
  C  C61  1  0.48376000  0.56451000  0.93165000  1.0
  C  C62  1  0.45133000  0.62562000  0.03839000  1.0
  C  C63  1  0.44571000  0.54996000  0.03672000  1.0
  C  C64  1  0.45426000  0.32398000  0.92130000  1.0
  C  C65  1  0.44231000  0.39054000  0.91559000  1.0
  C  C66  1  0.46821000  0.44387000  0.98772000  1.0
  C  C67  1  0.46387000  0.51912000  0.98463000  1.0
  C  C68  1  0.52615000  0.01253000  0.32718000  1.0
  C  C69  1  0.50810000  0.00083000  0.69194000  1.0
  C  C70  1  0.51189000  0.06641000  0.36043000  1.0
  C  C71  1  0.51645000  0.06834000  0.43545000  1.0
  C  C72  1  0.48364000  0.92969000  0.63896000  1.0
  C  C73  1  0.49567000  0.93445000  0.57259000  1.0
  C  C74  1  0.54585000  0.07858000  0.67593000  1.0
  C  C75  1  0.55774000  0.08429000  0.60934000  1.0
  C  C76  1  0.54876000  0.96154000  0.37427000  1.0
  C  C77  1  0.55435000  0.96316000  0.44991000  1.0
  C  C78  1  0.53624000  0.01529000  0.48079000  1.0
  C  C79  1  0.53190000  0.01218000  0.55603000  1.0
  C  C80  1  0.81147000  0.29992000  0.98659000  1.0
  C  C81  1  0.18840000  0.68072000  0.99726000  1.0
  C  C82  1  0.79050000  0.34839000  0.93485000  1.0
  C  C83  1  0.86342000  0.41887000  0.93281000  1.0
  C  C84  1  0.20785000  0.65053000  0.06705000  1.0
  C  C85  1  0.13596000  0.57303000  0.06241000  1.0
  C  C86  1  0.09307000  0.62867000  0.92049000  1.0
  C  C87  1  0.02032000  0.55071000  0.91466000  1.0
  C  C88  1  0.90955000  0.32364000  0.03519000  1.0
  C  C89  1  0.98331000  0.39351000  0.03330000  1.0
  C  C90  1  0.96174000  0.44327000  0.98323000  1.0
  C  C91  1  0.04008000  0.52222000  0.98591000  1.0
  C  C92  1  0.81194000  0.00277000  0.31929000  1.0
  C  C93  1  0.18896000  0.01351000  0.70014000  1.0
  C  C94  1  0.79255000  0.93299000  0.34951000  1.0
  C  C95  1  0.86441000  0.93763000  0.42702000  1.0
  C  C96  1  0.20987000  0.06514000  0.65156000  1.0
  C  C97  1  0.13695000  0.06720000  0.58110000  1.0
  C  C98  1  0.09090000  0.96500000  0.67647000  1.0
  C  C99  1  0.01716000  0.96690000  0.60662000  1.0
  C  C100  1  0.90723000  0.07957000  0.37137000  1.0
  C  C101  1  0.98000000  0.08541000  0.44933000  1.0
  C  C102  1  0.96028000  0.01416000  0.47783000  1.0
  C  C103  1  0.03866000  0.01686000  0.55678000  1.0
  C  C104  1  0.21609000  0.08002000  0.05709000  1.0
  C  C105  1  0.14090000  0.08171000  0.05273000  1.0
  C  C106  1  0.16310000  0.14730000  0.11437000  1.0
  C  C107  1  0.09247000  0.95293000  0.92930000  1.0
  C  C108  1  0.01533000  0.95226000  0.92290000  1.0
  C  C109  1  0.91230000  0.88820000  0.85507000  1.0
  C  C110  1  0.78424000  0.94280000  0.92004000  1.0
  C  C111  1  0.85942000  0.94716000  0.91832000  1.0
  C  C112  1  0.83724000  0.88545000  0.85282000  1.0
  C  C113  1  0.90785000  0.07071000  0.04698000  1.0
  C  C114  1  0.98499000  0.07711000  0.04764000  1.0
  C  C115  1  0.08803000  0.14503000  0.11162000  1.0
  C  C116  1  0.19146000  0.01536000  0.99632000  1.0
  C  C117  1  0.03887000  0.01634000  0.98616000  1.0
  C  C118  1  0.80886000  0.00360000  0.98465000  1.0
  C  C119  1  0.96145000  0.01379000  0.98362000  1.0
  C  C120  1  0.82119000  0.30299000  0.32287000  1.0
  C  C121  1  0.17902000  0.67712000  0.69700000  1.0
  C  C122  1  0.92227000  0.35378000  0.35541000  1.0
  C  C123  1  0.99258000  0.42403000  0.43053000  1.0
  C  C124  1  0.07794000  0.64460000  0.64626000  1.0
  C  C125  1  0.00758000  0.56947000  0.57601000  1.0
  C  C126  1  0.20712000  0.62903000  0.67614000  1.0
  C  C127  1  0.13755000  0.55309000  0.60693000  1.0
  C  C128  1  0.79305000  0.32381000  0.37094000  1.0
  C  C129  1  0.86256000  0.39301000  0.44687000  1.0
  C  C130  1  0.96328000  0.44540000  0.47724000  1.0
  C  C131  1  0.03682000  0.52273000  0.55458000  1.0
  N  N132  1  0.56406000  0.35375000  0.15671000  1.0
  N  N133  1  0.51483000  0.68456000  0.87840000  1.0
  N  N134  1  0.48559000  0.12175000  0.31550000  1.0
  N  N135  1  0.43665000  0.84328000  0.64649000  1.0
  N  N136  1  0.69023000  0.33069000  0.88172000  1.0
  N  N137  1  0.30474000  0.70160000  0.15208000  1.0
  N  N138  1  0.69570000  0.84792000  0.29839000  1.0
  N  N139  1  0.31009000  0.11812000  0.66912000  1.0
  N  N140  1  0.96007000  0.33775000  0.30959000  1.0
  N  N141  1  0.04018000  0.69043000  0.66235000  1.0
  Cl  Cl142  1  0.11554000  0.22374000  0.18545000  1.0
  Cl  Cl143  1  0.28538000  0.22831000  0.19119000  1.0
  Cl  Cl144  1  0.71497000  0.80851000  0.77195000  1.0
  Cl  Cl145  1  0.88478000  0.81425000  0.77646000  1.0
  O  O146  1  0.48656000  0.78730000  0.93467000  1.0
  O  O147  1  0.51372000  0.06536000  0.21267000  1.0
  O  O148  1  0.50407000  0.20550000  0.06363000  1.0
  O  O149  1  0.49622000  0.93629000  0.79452000  1.0
  O  O150  1  0.75965000  0.05466000  0.05222000  1.0
  O  O151  1  0.22895000  0.79312000  0.79965000  1.0
  O  O152  1  0.24068000  0.94782000  0.94526000  1.0
  O  O153  1  0.77134000  0.20034000  0.20691000  1.0
  O  O154  1  0.64480000  0.93830000  0.20490000  1.0
  O  O155  1  0.64440000  0.19791000  0.93551000  1.0
  O  O156  1  0.35603000  0.06457000  0.80210000  1.0
  O  O157  1  0.35553000  0.79513000  0.06172000  1.0
  O  O158  1  0.76516000  0.19706000  0.05233000  1.0
  O  O159  1  0.23524000  0.94772000  0.80290000  1.0
  O  O160  1  0.23496000  0.79488000  0.94334000  1.0
  O  O161  1  0.76535000  0.05666000  0.20512000  1.0
  O  O162  1  0.63936000  0.93646000  0.93234000  1.0
  O  O163  1  0.65362000  0.20136000  0.21031000  1.0
  O  O164  1  0.36097000  0.06771000  0.06345000  1.0
  O  O165  1  0.34663000  0.78962000  0.79865000  1.0
  O  O166  1  0.50044000  0.05777000  0.79626000  1.0
  O  O167  1  0.48830000  0.78798000  0.05487000  1.0
  O  O168  1  0.51202000  0.94518000  0.21203000  1.0
  O  O169  1  0.49996000  0.20381000  0.94221000  1.0
  O  O170  1  0.39177000  0.94649000  0.84420000  1.0
  O  O171  1  0.60859000  0.15580000  0.05350000  1.0
  O  O172  1  0.39884000  0.95028000  0.05731000  1.0
  O  O173  1  0.60148000  0.94266000  0.04975000  1.0
  O  O174  1  0.57979000  0.03735000  0.11644000  1.0
  O  O175  1  0.42053000  0.88355000  0.96266000  1.0
  O  O176  1  0.42551000  0.04002000  0.96530000  1.0
  O  O177  1  0.57485000  0.03467000  0.95999000  1.0
  O  O178  1  0.65026000  0.37505000  0.19262000  1.0
  O  O179  1  0.51582000  0.33160000  0.18794000  1.0
  O  O180  1  0.60329000  0.74273000  0.91278000  1.0
  O  O181  1  0.44711000  0.65665000  0.80126000  1.0
  O  O182  1  0.39716000  0.08749000  0.25730000  1.0
  O  O183  1  0.55341000  0.19887000  0.34347000  1.0
  O  O184  1  0.35037000  0.80708000  0.62508000  1.0
  O  O185  1  0.48525000  0.81239000  0.66893000  1.0
  O  O186  1  0.66797000  0.36124000  0.91807000  1.0
  O  O187  1  0.63966000  0.29141000  0.80418000  1.0
  O  O188  1  0.32194000  0.76334000  0.19609000  1.0
  O  O189  1  0.35799000  0.67532000  0.17410000  1.0
  O  O190  1  0.67852000  0.80401000  0.23660000  1.0
  O  O191  1  0.64245000  0.82578000  0.32467000  1.0
  O  O192  1  0.33222000  0.08159000  0.63860000  1.0
  O  O193  1  0.36073000  0.19571000  0.70824000  1.0
  O  O194  1  0.95303000  0.36706000  0.25056000  1.0
  O  O195  1  0.00051000  0.29997000  0.33728000  1.0
  O  O196  1  0.04712000  0.74942000  0.63299000  1.0
  O  O197  1  0.99992000  0.66282000  0.70028000  1.0
