# generated using pymatgen
data_Cd3H46C62(N3O8)2
_symmetry_space_group_name_H-M   'P 1'
_cell_length_a   8.24127000
_cell_length_b   12.64720000
_cell_length_c   14.29900000
_cell_angle_alpha   98.71070000
_cell_angle_beta   97.47260000
_cell_angle_gamma   93.32710000
_symmetry_Int_Tables_number   1
_chemical_formula_structural   Cd3H46C62(N3O8)2
_chemical_formula_sum   'Cd3 H46 C62 N6 O16'
_cell_volume   1456.06695127
_cell_formula_units_Z   1
loop_
 _symmetry_equiv_pos_site_id
 _symmetry_equiv_pos_as_xyz
  1  'x, y, z'
loop_
 _atom_site_type_symbol
 _atom_site_label
 _atom_site_symmetry_multiplicity
 _atom_site_fract_x
 _atom_site_fract_y
 _atom_site_fract_z
 _atom_site_occupancy
  Cd  Cd0  1  0.50000000  0.00000000  0.00000000  1.0
  Cd  Cd1  1  0.50245000  0.68882000  0.44411000  1.0
  Cd  Cd2  1  0.49755000  0.31118000  0.55589000  1.0
  H  H3  1  0.49994000  0.34532000  0.20794000  1.0
  H  H4  1  0.50006000  0.65468000  0.79206000  1.0
  H  H5  1  0.26282000  0.61198000  0.11383000  1.0
  H  H6  1  0.73718000  0.38802000  0.88617000  1.0
  H  H7  1  0.26437000  0.31743000  0.91691000  1.0
  H  H8  1  0.73563000  0.68257000  0.08309000  1.0
  H  H9  1  0.27566000  0.66783000  0.95846000  1.0
  H  H10  1  0.72434000  0.33217000  0.04154000  1.0
  H  H11  1  0.08324000  0.64349000  0.00002000  1.0
  H  H12  1  0.91676000  0.35651000  0.99998000  1.0
  H  H13  1  0.96222000  0.78326000  0.92062000  1.0
  H  H14  1  0.03778000  0.21674000  0.07938000  1.0
  H  H15  1  0.79372000  0.81814000  0.77111000  1.0
  H  H16  1  0.20628000  0.18186000  0.22889000  1.0
  H  H17  1  0.97519000  0.54538000  0.61183000  1.0
  H  H18  1  0.02481000  0.45462000  0.38817000  1.0
  H  H19  1  0.14852000  0.51297000  0.75988000  1.0
  H  H20  1  0.85148000  0.48702000  0.24012000  1.0
  H  H21  1  0.14518000  0.05263000  0.04910000  1.0
  H  H22  1  0.85482000  0.94737000  0.95090000  1.0
  H  H23  1  0.92172000  0.99124000  0.13425000  1.0
  H  H24  1  0.07828000  0.00876000  0.86575000  1.0
  H  H25  1  0.24006000  0.75333000  0.22653000  1.0
  H  H26  1  0.75994000  0.24667000  0.77347000  1.0
  H  H27  1  0.44192000  0.82108000  0.13150000  1.0
  H  H28  1  0.55808000  0.17892000  0.86850000  1.0
  H  H29  1  0.04071000  0.68012000  0.26910000  1.0
  H  H30  1  0.95929000  0.31988000  0.73089000  1.0
  H  H31  1  0.82903000  0.63069000  0.36754000  1.0
  H  H32  1  0.17097000  0.36930000  0.63246000  1.0
  H  H33  1  0.59157000  0.90514000  0.33602000  1.0
  H  H34  1  0.40843000  0.09486000  0.66398000  1.0
  H  H35  1  0.79185000  0.96921000  0.24104000  1.0
  H  H36  1  0.20815000  0.03079000  0.75896000  1.0
  H  H37  1  0.41663000  0.93019000  0.39698000  1.0
  H  H38  1  0.58337000  0.06981000  0.60302000  1.0
  H  H39  1  0.21153000  0.05986000  0.41514000  1.0
  H  H40  1  0.78847000  0.94014000  0.58486000  1.0
  H  H41  1  0.96860000  0.84471000  0.57289000  1.0
  H  H42  1  0.03140000  0.15529000  0.42711000  1.0
  H  H43  1  0.19061000  0.72349000  0.54782000  1.0
  H  H44  1  0.80939000  0.27651000  0.45218000  1.0
  H  H45  1  0.30254000  0.51483000  0.49543000  1.0
  H  H46  1  0.69746000  0.48517000  0.50457000  1.0
  H  H47  1  0.40359000  0.57035000  0.58992000  1.0
  H  H48  1  0.59641000  0.42965000  0.41008000  1.0
  C  C49  1  0.42389000  0.20540000  0.04127000  1.0
  C  C50  1  0.57611000  0.79460000  0.95873000  1.0
  C  C51  1  0.38554000  0.31991000  0.06061000  1.0
  C  C52  1  0.61446000  0.68009000  0.93939000  1.0
  C  C53  1  0.43154000  0.38053000  0.15169000  1.0
  C  C54  1  0.56846000  0.61947000  0.84831000  1.0
  C  C55  1  0.42062000  0.54820000  0.26884000  1.0
  C  C56  1  0.57938000  0.45180000  0.73116000  1.0
  C  C57  1  0.38337000  0.48472000  0.17027000  1.0
  C  C58  1  0.61663000  0.51527000  0.82973000  1.0
  C  C59  1  0.29814000  0.53061000  0.09703000  1.0
  C  C60  1  0.70185000  0.46939000  0.90297000  1.0
  C  C61  1  0.25938000  0.47132000  0.00522000  1.0
  C  C62  1  0.74062000  0.52868000  0.99478000  1.0
  C  C63  1  0.29968000  0.36489000  0.98762000  1.0
  C  C64  1  0.70031000  0.63511000  0.01238000  1.0
  C  C65  1  0.15487000  0.62142000  0.94090000  1.0
  C  C66  1  0.84513000  0.37858000  0.05910000  1.0
  C  C67  1  0.06400000  0.64515000  0.84954000  1.0
  C  C68  1  0.93601000  0.35485000  0.15046000  1.0
  C  C69  1  0.96849000  0.73321000  0.85209000  1.0
  C  C70  1  0.03151000  0.26679000  0.14791000  1.0
  C  C71  1  0.87434000  0.75279000  0.76940000  1.0
  C  C72  1  0.12566000  0.24721000  0.23061000  1.0
  C  C73  1  0.87296000  0.68343000  0.68292000  1.0
  C  C74  1  0.12704000  0.31657000  0.31708000  1.0
  C  C75  1  0.97422000  0.59793000  0.67960000  1.0
  C  C76  1  0.02578000  0.40207000  0.32040000  1.0
  C  C77  1  0.07032000  0.57954000  0.76211000  1.0
  C  C78  1  0.92968000  0.42046000  0.23789000  1.0
  C  C79  1  0.75554000  0.69622000  0.59758000  1.0
  C  C80  1  0.24446000  0.30378000  0.40242000  1.0
  C  C81  1  0.15883000  0.98586000  0.08888000  1.0
  C  C82  1  0.84117000  0.01414000  0.91112000  1.0
  C  C83  1  0.03566000  0.95168000  0.13765000  1.0
  C  C84  1  0.96434000  0.04832000  0.86235000  1.0
  C  C85  1  0.06040000  0.86677000  0.18946000  1.0
  C  C86  1  0.93961000  0.13323000  0.81054000  1.0
  C  C87  1  0.20989000  0.81912000  0.18755000  1.0
  C  C88  1  0.79011000  0.18088000  0.81245000  1.0
  C  C89  1  0.32520000  0.85699000  0.13534000  1.0
  C  C90  1  0.67480000  0.14301000  0.86466000  1.0
  C  C91  1  0.93608000  0.83031000  0.24563000  1.0
  C  C92  1  0.06392000  0.16969000  0.75437000  1.0
  C  C93  1  0.94378000  0.73339000  0.28218000  1.0
  C  C94  1  0.05623000  0.26661000  0.71782000  1.0
  C  C95  1  0.82539000  0.70439000  0.33675000  1.0
  C  C96  1  0.17461000  0.29561000  0.66325000  1.0
  C  C97  1  0.69260000  0.85685000  0.32009000  1.0
  C  C98  1  0.30740000  0.14315000  0.67991000  1.0
  C  C99  1  0.80577000  0.89261000  0.26587000  1.0
  C  C100  1  0.19423000  0.10739000  0.73413000  1.0
  C  C101  1  0.31521000  0.91314000  0.43547000  1.0
  C  C102  1  0.68478000  0.08686000  0.56453000  1.0
  C  C103  1  0.19688000  0.98612000  0.44522000  1.0
  C  C104  1  0.80312000  0.01388000  0.55478000  1.0
  C  C105  1  0.06565000  0.96319000  0.49443000  1.0
  C  C106  1  0.93436000  0.03681000  0.50557000  1.0
  C  C107  1  0.06516000  0.86756000  0.53297000  1.0
  C  C108  1  0.93484000  0.13244000  0.46703000  1.0
  C  C109  1  0.18893000  0.79899000  0.51976000  1.0
  C  C110  1  0.81107000  0.20101000  0.48024000  1.0
  N  N111  1  0.30121000  0.93944000  0.08713000  1.0
  N  N112  1  0.69879000  0.06056000  0.91287000  1.0
  N  N113  1  0.70080000  0.76474000  0.35588000  1.0
  N  N114  1  0.29920000  0.23526000  0.64412000  1.0
  N  N115  1  0.31281000  0.82048000  0.47086000  1.0
  N  N116  1  0.68719000  0.17952000  0.52914000  1.0
  O  O117  1  0.53328000  0.17126000  0.09826000  1.0
  O  O118  1  0.46672000  0.82874000  0.90174000  1.0
  O  O119  1  0.34443000  0.14500000  0.96677000  1.0
  O  O120  1  0.65557000  0.85500000  0.03323000  1.0
  O  O121  1  0.52440000  0.51624000  0.33028000  1.0
  O  O122  1  0.47560000  0.48376000  0.66972000  1.0
  O  O123  1  0.34871000  0.63444000  0.28815000  1.0
  O  O124  1  0.65129000  0.36556000  0.71185000  1.0
  O  O125  1  0.17849000  0.50918000  0.92909000  1.0
  O  O126  1  0.82151000  0.49082000  0.07091000  1.0
  O  O127  1  0.73614000  0.62021000  0.52523000  1.0
  O  O128  1  0.26386000  0.37979000  0.47477000  1.0
  O  O129  1  0.67573000  0.77933000  0.59801000  1.0
  O  O130  1  0.32427000  0.22067000  0.40199000  1.0
  O  O131  1  0.34372000  0.58783000  0.53025000  1.0
  O  O132  1  0.65628000  0.41217000  0.46975000  1.0
