# generated using pymatgen
data_LaFe2H25C36(NO4)2
_symmetry_space_group_name_H-M   'P 1'
_cell_length_a   11.67620000
_cell_length_b   12.05870000
_cell_length_c   13.71220000
_cell_angle_alpha   94.44060000
_cell_angle_beta   109.28700000
_cell_angle_gamma   117.70500000
_symmetry_Int_Tables_number   1
_chemical_formula_structural   LaFe2H25C36(NO4)2
_chemical_formula_sum   'La2 Fe4 H50 C72 N4 O16'
_cell_volume   1550.53473941
_cell_formula_units_Z   2
loop_
 _symmetry_equiv_pos_site_id
 _symmetry_equiv_pos_as_xyz
  1  'x, y, z'
loop_
 _atom_site_type_symbol
 _atom_site_label
 _atom_site_symmetry_multiplicity
 _atom_site_fract_x
 _atom_site_fract_y
 _atom_site_fract_z
 _atom_site_occupancy
  La  La0  1  0.20056000  0.64135000  0.61717000  1.0
  La  La1  1  0.79944000  0.35865000  0.38282000  1.0
  Fe  Fe2  1  0.14971000  0.23733000  0.74925000  1.0
  Fe  Fe3  1  0.85029000  0.76267000  0.25075000  1.0
  Fe  Fe4  1  0.77311000  0.65608000  0.75159000  1.0
  Fe  Fe5  1  0.22690000  0.34392000  0.24841000  1.0
  H  H6  1  0.48053000  0.67482000  0.88292000  1.0
  H  H7  1  0.51947000  0.32518000  0.11708000  1.0
  H  H8  1  0.92484000  0.02313000  0.57452000  1.0
  H  H9  1  0.07516000  0.97688000  0.42548000  1.0
  H  H10  1  0.15616000  0.01079000  0.68722000  1.0
  H  H11  1  0.84384000  0.98922000  0.31278000  1.0
  H  H12  1  0.39041000  0.24695000  0.73471000  1.0
  H  H13  1  0.60959000  0.75305000  0.26529000  1.0
  H  H14  1  0.30523000  0.40671000  0.65110000  1.0
  H  H15  1  0.69477000  0.59329000  0.34890000  1.0
  H  H16  1  0.98243000  0.33963000  0.76311000  1.0
  H  H17  1  0.01757000  0.66037000  0.23689000  1.0
  H  H18  1  0.91393000  0.10073000  0.79890000  1.0
  H  H19  1  0.08607000  0.89927000  0.20110000  1.0
  H  H20  1  0.15995000  0.11494000  0.91683000  1.0
  H  H21  1  0.84005000  0.88506000  0.08317000  1.0
  H  H22  1  0.37826000  0.35918000  0.95410000  1.0
  H  H23  1  0.62174000  0.64082000  0.04590000  1.0
  H  H24  1  0.57450000  0.63665000  0.55854000  1.0
  H  H25  1  0.42549000  0.36335000  0.44146000  1.0
  H  H26  1  0.84847000  0.73901000  0.58443000  1.0
  H  H27  1  0.15153000  0.26099000  0.41557000  1.0
  H  H28  1  0.01986000  0.89448000  0.78712000  1.0
  H  H29  1  0.98014000  0.10552000  0.21287000  1.0
  H  H30  1  0.85191000  0.88744000  0.88855000  1.0
  H  H31  1  0.14809000  0.11256000  0.11145000  1.0
  H  H32  1  0.01411000  0.64595000  0.87214000  1.0
  H  H33  1  0.98589000  0.35405000  0.12786000  1.0
  H  H34  1  0.83597000  0.63241000  0.96351000  1.0
  H  H35  1  0.16403000  0.36759000  0.03649000  1.0
  H  H36  1  0.56672000  0.48081000  0.81308000  1.0
  H  H37  1  0.43328000  0.51919000  0.18692000  1.0
  H  H38  1  0.57645000  0.39772000  0.62728000  1.0
  H  H39  1  0.42355000  0.60228000  0.37272000  1.0
  H  H40  1  0.44522000  0.76714000  0.50232000  1.0
  H  H41  1  0.55478000  0.23286000  0.49768000  1.0
  H  H42  1  0.66635000  0.96248000  0.50847000  1.0
  H  H43  1  0.33365000  0.03752000  0.49153000  1.0
  H  H44  1  0.77538000  0.17261000  0.64293000  1.0
  H  H45  1  0.22462000  0.82739000  0.35707000  1.0
  H  H46  1  0.47826000  0.18140000  0.99287000  1.0
  H  H47  1  0.52174000  0.81860000  0.00713000  1.0
  H  H48  1  0.26545000  0.97425000  0.97627000  1.0
  H  H49  1  0.73455000  0.02575000  0.02373000  1.0
  H  H50  1  0.16879000  0.77421000  0.82823000  1.0
  H  H51  1  0.83120000  0.22579000  0.17177000  1.0
  H  H52  1  0.77531000  0.29698000  0.80088000  1.0
  H  H53  1  0.22469000  0.70302000  0.19912000  1.0
  H  H54  1  0.66536000  0.29992000  0.92646000  1.0
  H  H55  1  0.33464000  0.70008000  0.07354000  1.0
  C  C56  1  0.99293000  0.28059000  0.53640000  1.0
  C  C57  1  0.00707000  0.71941000  0.46360000  1.0
  C  C58  1  0.08363000  0.23057000  0.59115000  1.0
  C  C59  1  0.91638000  0.76944000  0.40885000  1.0
  C  C60  1  0.03505000  0.10111000  0.60401000  1.0
  C  C61  1  0.96496000  0.89890000  0.39599000  1.0
  C  C62  1  0.15715000  0.09518000  0.66397000  1.0
  C  C63  1  0.84285000  0.90483000  0.33603000  1.0
  C  C64  1  0.28141000  0.22020000  0.68835000  1.0
  C  C65  1  0.71860000  0.77980000  0.31165000  1.0
  C  C66  1  0.23696000  0.30447000  0.64444000  1.0
  C  C67  1  0.76304000  0.69553000  0.35556000  1.0
  C  C68  1  0.28574000  0.52803000  0.85209000  1.0
  C  C69  1  0.71426000  0.47197000  0.14791000  1.0
  C  C70  1  0.20655000  0.39539000  0.86052000  1.0
  C  C71  1  0.79345000  0.60461000  0.13948000  1.0
  C  C72  1  0.05423000  0.31095000  0.80936000  1.0
  C  C73  1  0.94577000  0.68905000  0.19064000  1.0
  C  C74  1  0.01960000  0.18688000  0.82880000  1.0
  C  C75  1  0.98040000  0.81313000  0.17120000  1.0
  C  C76  1  0.15000000  0.19391000  0.89074000  1.0
  C  C77  1  0.85000000  0.80610000  0.10926000  1.0
  C  C78  1  0.26586000  0.32201000  0.91020000  1.0
  C  C79  1  0.73414000  0.67799000  0.08980000  1.0
  C  C80  1  0.54648000  0.71440000  0.75561000  1.0
  C  C81  1  0.45352000  0.28560000  0.24439000  1.0
  C  C82  1  0.67073000  0.75499000  0.72971000  1.0
  C  C83  1  0.32926000  0.24501000  0.27029000  1.0
  C  C84  1  0.66939000  0.70593000  0.62980000  1.0
  C  C85  1  0.33060000  0.29407000  0.37020000  1.0
  C  C86  1  0.81358000  0.76031000  0.64376000  1.0
  C  C87  1  0.18642000  0.23969000  0.35624000  1.0
  C  C88  1  0.90455000  0.84205000  0.75184000  1.0
  C  C89  1  0.09544000  0.15794000  0.24816000  1.0
  C  C90  1  0.81715000  0.83909000  0.80534000  1.0
  C  C91  1  0.18285000  0.16091000  0.19466000  1.0
  C  C92  1  0.87197000  0.50880000  0.64199000  1.0
  C  C93  1  0.12803000  0.49120000  0.35801000  1.0
  C  C94  1  0.81413000  0.51479000  0.72253000  1.0
  C  C95  1  0.18587000  0.48521000  0.27747000  1.0
  C  C96  1  0.89887000  0.59163000  0.83327000  1.0
  C  C97  1  0.10113000  0.40837000  0.16673000  1.0
  C  C98  1  0.80480000  0.58280000  0.88162000  1.0
  C  C99  1  0.19520000  0.41720000  0.11838000  1.0
  C  C100  1  0.66170000  0.50133000  0.80161000  1.0
  C  C101  1  0.33830000  0.49867000  0.19839000  1.0
  C  C102  1  0.66674000  0.45841000  0.70363000  1.0
  C  C103  1  0.33326000  0.54159000  0.29637000  1.0
  C  C104  1  0.49967000  0.86034000  0.56237000  1.0
  C  C105  1  0.50033000  0.13966000  0.43763000  1.0
  C  C106  1  0.62271000  0.96919000  0.56618000  1.0
  C  C107  1  0.37729000  0.03081000  0.43382000  1.0
  C  C108  1  0.68353000  0.08558000  0.64139000  1.0
  C  C109  1  0.31647000  0.91442000  0.35861000  1.0
  C  C110  1  0.62398000  0.09189000  0.71479000  1.0
  C  C111  1  0.37602000  0.90810000  0.28521000  1.0
  C  C112  1  0.50041000  0.97598000  0.70553000  1.0
  C  C113  1  0.49959000  0.02402000  0.29447000  1.0
  C  C114  1  0.43697000  0.97760000  0.77964000  1.0
  C  C115  1  0.56303000  0.02240000  0.22036000  1.0
  C  C116  1  0.49809000  0.09546000  0.85933000  1.0
  C  C117  1  0.50191000  0.90454000  0.14067000  1.0
  C  C118  1  0.43352000  0.09322000  0.93049000  1.0
  C  C119  1  0.56648000  0.90677000  0.06952000  1.0
  C  C120  1  0.31558000  0.97869000  0.92108000  1.0
  C  C121  1  0.68441000  0.02131000  0.07892000  1.0
  C  C122  1  0.26252000  0.86683000  0.83995000  1.0
  C  C123  1  0.73748000  0.13317000  0.16005000  1.0
  C  C124  1  0.68214000  0.20859000  0.79602000  1.0
  C  C125  1  0.31786000  0.79141000  0.20398000  1.0
  C  C126  1  0.62148000  0.21044000  0.86549000  1.0
  C  C127  1  0.37852000  0.78956000  0.13452000  1.0
  N  N128  1  0.43955000  0.86317000  0.62912000  1.0
  N  N129  1  0.56045000  0.13683000  0.37088000  1.0
  N  N130  1  0.32085000  0.86580000  0.77141000  1.0
  N  N131  1  0.67915000  0.13420000  0.22859000  1.0
  O  O132  1  0.04881000  0.40462000  0.55291000  1.0
  O  O133  1  0.95119000  0.59538000  0.44708000  1.0
  O  O134  1  0.86379000  0.20098000  0.47262000  1.0
  O  O135  1  0.13621000  0.79902000  0.52738000  1.0
  O  O136  1  0.22485000  0.57566000  0.79287000  1.0
  O  O137  1  0.77515000  0.42435000  0.20713000  1.0
  O  O138  1  0.42335000  0.59124000  0.91136000  1.0
  O  O139  1  0.57665000  0.40876000  0.08864000  1.0
  O  O140  1  0.42287000  0.62961000  0.68403000  1.0
  O  O141  1  0.57713000  0.37039000  0.31597000  1.0
  O  O142  1  0.57160000  0.76712000  0.85122000  1.0
  O  O143  1  0.42840000  0.23288000  0.14878000  1.0
  O  O144  1  0.99943000  0.59756000  0.66513000  1.0
  O  O145  1  0.00057000  0.40244000  0.33486000  1.0
  O  O146  1  0.78950000  0.41499000  0.55560000  1.0
  O  O147  1  0.21050000  0.58501000  0.44440000  1.0
