# generated using pymatgen
data_CdH8C8(SN2)2
_symmetry_space_group_name_H-M   'P 1'
_cell_length_a   7.74060000
_cell_length_b   8.07485000
_cell_length_c   9.51164000
_cell_angle_alpha   90.00010000
_cell_angle_beta   90.00020000
_cell_angle_gamma   115.91800000
_symmetry_Int_Tables_number   1
_chemical_formula_structural   CdH8C8(SN2)2
_chemical_formula_sum   'Cd2 H16 C16 S4 N8'
_cell_volume   534.72104897
_cell_formula_units_Z   2
loop_
 _symmetry_equiv_pos_site_id
 _symmetry_equiv_pos_as_xyz
  1  'x, y, z'
loop_
 _atom_site_type_symbol
 _atom_site_label
 _atom_site_symmetry_multiplicity
 _atom_site_fract_x
 _atom_site_fract_y
 _atom_site_fract_z
 _atom_site_occupancy
  Cd  Cd0  1  0.00000000  0.00000000  0.00000000  1.0
  Cd  Cd1  1  0.00000000  0.50000000  0.50000000  1.0
  H  H2  1  0.77900000  0.20869000  0.13017000  1.0
  H  H3  1  0.22100000  0.29131000  0.63017000  1.0
  H  H4  1  0.22100000  0.79130000  0.86983000  1.0
  H  H5  1  0.77899000  0.70869000  0.36983000  1.0
  H  H6  1  0.68900000  0.83623000  0.74110000  1.0
  H  H7  1  0.31100000  0.66377000  0.24111000  1.0
  H  H8  1  0.31100000  0.16377000  0.25889000  1.0
  H  H9  1  0.68900000  0.33622000  0.75889000  1.0
  H  H10  1  0.43366000  0.72743000  0.71629000  1.0
  H  H11  1  0.56634000  0.77257000  0.21630000  1.0
  H  H12  1  0.56634000  0.27257000  0.28370000  1.0
  H  H13  1  0.43366000  0.22742000  0.78370000  1.0
  H  H14  1  0.54053000  0.63975000  0.84267000  1.0
  H  H15  1  0.45947000  0.86025000  0.34268000  1.0
  H  H16  1  0.45946000  0.36025000  0.15732000  1.0
  H  H17  1  0.54053000  0.13974000  0.65732000  1.0
  C  C18  1  0.91242000  0.58464000  0.16215000  1.0
  C  C19  1  0.08759000  0.91538000  0.66216000  1.0
  C  C20  1  0.08760000  0.41537000  0.83785000  1.0
  C  C21  1  0.91241000  0.08463000  0.33785000  1.0
  C  C22  1  0.52657000  0.88845000  0.90273000  1.0
  C  C23  1  0.47343000  0.61156000  0.40273000  1.0
  C  C24  1  0.47343000  0.11155000  0.09727000  1.0
  C  C25  1  0.52657000  0.38844000  0.59727000  1.0
  C  C26  1  0.65317000  0.11491000  0.07155000  1.0
  C  C27  1  0.34682000  0.38508000  0.57155000  1.0
  C  C28  1  0.34683000  0.88508000  0.92845000  1.0
  C  C29  1  0.65317000  0.61491000  0.42845000  1.0
  C  C30  1  0.54961000  0.76690000  0.79383000  1.0
  C  C31  1  0.45039000  0.73310000  0.29383000  1.0
  C  C32  1  0.45038000  0.23310000  0.20617000  1.0
  C  C33  1  0.54961000  0.26689000  0.70617000  1.0
  S  S34  1  0.82098000  0.62743000  0.02045000  1.0
  S  S35  1  0.17901000  0.87258000  0.52045000  1.0
  S  S36  1  0.17903000  0.37257000  0.97955000  1.0
  S  S37  1  0.82097000  0.12744000  0.47955000  1.0
  N  N38  1  0.68000000  0.00514000  0.97726000  1.0
  N  N39  1  0.32000000  0.49486000  0.47726000  1.0
  N  N40  1  0.32000000  0.99485000  0.02274000  1.0
  N  N41  1  0.68000000  0.50514000  0.52274000  1.0
  N  N42  1  0.97412000  0.54431000  0.26363000  1.0
  N  N43  1  0.02589000  0.95571000  0.76363000  1.0
  N  N44  1  0.02589000  0.45570000  0.73638000  1.0
  N  N45  1  0.97411000  0.04430000  0.23638000  1.0
