# generated using pymatgen
data_ZnH14C20(NO)4
_symmetry_space_group_name_H-M   'P 1'
_cell_length_a   10.76610000
_cell_length_b   15.52590000
_cell_length_c   16.22300000
_cell_angle_alpha   89.99990000
_cell_angle_beta   90.00050000
_cell_angle_gamma   89.99960000
_symmetry_Int_Tables_number   1
_chemical_formula_structural   ZnH14C20(NO)4
_chemical_formula_sum   'Zn4 H56 C80 N16 O16'
_cell_volume   2711.72947808
_cell_formula_units_Z   4
loop_
 _symmetry_equiv_pos_site_id
 _symmetry_equiv_pos_as_xyz
  1  'x, y, z'
loop_
 _atom_site_type_symbol
 _atom_site_label
 _atom_site_symmetry_multiplicity
 _atom_site_fract_x
 _atom_site_fract_y
 _atom_site_fract_z
 _atom_site_occupancy
  Zn  Zn0  1  0.17501000  0.50001000  0.75000000  1.0
  Zn  Zn1  1  0.32498000  0.00000000  0.75000000  1.0
  Zn  Zn2  1  0.82499000  0.50000000  0.25000000  1.0
  Zn  Zn3  1  0.67501000  0.00000000  0.25000000  1.0
  H  H4  1  0.49825000  0.84658000  0.62275000  1.0
  H  H5  1  0.49824000  0.15342000  0.87725000  1.0
  H  H6  1  0.00175000  0.34658000  0.87725000  1.0
  H  H7  1  0.00175000  0.65342000  0.62275000  1.0
  H  H8  1  0.50175000  0.15342000  0.37725000  1.0
  H  H9  1  0.50176000  0.84658000  0.12275000  1.0
  H  H10  1  0.99824000  0.65342000  0.12275000  1.0
  H  H11  1  0.99825000  0.34658000  0.37725000  1.0
  H  H12  1  0.56407000  0.92947000  0.50078000  1.0
  H  H13  1  0.56405000  0.07053000  0.99921000  1.0
  H  H14  1  0.93594000  0.42947000  0.99921000  1.0
  H  H15  1  0.93593000  0.57053000  0.50079000  1.0
  H  H16  1  0.43594000  0.07053000  0.49921000  1.0
  H  H17  1  0.43595000  0.92947000  0.00078000  1.0
  H  H18  1  0.06405000  0.57053000  0.00079000  1.0
  H  H19  1  0.06406000  0.42947000  0.49921000  1.0
  H  H20  1  0.40877000  0.73685000  0.34107000  1.0
  H  H21  1  0.40878000  0.26316000  0.15893000  1.0
  H  H22  1  0.09121000  0.23684000  0.15893000  1.0
  H  H23  1  0.09121000  0.76316000  0.34108000  1.0
  H  H24  1  0.59122000  0.26316000  0.65893000  1.0
  H  H25  1  0.59122000  0.73684000  0.84107000  1.0
  H  H26  1  0.90878000  0.76316000  0.84107000  1.0
  H  H27  1  0.90879000  0.23685000  0.65893000  1.0
  H  H28  1  0.34676000  0.65024000  0.46223000  1.0
  H  H29  1  0.34677000  0.34977000  0.03777000  1.0
  H  H30  1  0.15322000  0.15023000  0.03778000  1.0
  H  H31  1  0.15322000  0.84976000  0.46223000  1.0
  H  H32  1  0.65323000  0.34976000  0.53777000  1.0
  H  H33  1  0.65324000  0.65024000  0.96223000  1.0
  H  H34  1  0.84676000  0.84977000  0.96223000  1.0
  H  H35  1  0.84677000  0.15024000  0.53778000  1.0
  H  H36  1  0.34605000  0.65760000  0.81955000  1.0
  H  H37  1  0.34604000  0.34241000  0.68045000  1.0
  H  H38  1  0.15396000  0.15760000  0.68045000  1.0
  H  H39  1  0.15396000  0.84240000  0.81955000  1.0
  H  H40  1  0.65396000  0.34241000  0.18045000  1.0
  H  H41  1  0.65396000  0.65759000  0.31955000  1.0
  H  H42  1  0.84604000  0.84241000  0.31955000  1.0
  H  H43  1  0.84604000  0.15760000  0.18045000  1.0
  H  H44  1  0.26789000  0.57738000  0.57726000  1.0
  H  H45  1  0.26789000  0.42263000  0.92274000  1.0
  H  H46  1  0.23211000  0.07737000  0.92274000  1.0
  H  H47  1  0.23211000  0.92262000  0.57726000  1.0
  H  H48  1  0.73212000  0.42262000  0.42274000  1.0
  H  H49  1  0.73211000  0.57737000  0.07726000  1.0
  H  H50  1  0.76789000  0.92263000  0.07726000  1.0
  H  H51  1  0.76789000  0.07737000  0.42274000  1.0
  H  H52  1  0.44437000  0.76886000  0.72601000  1.0
  H  H53  1  0.44436000  0.23115000  0.77399000  1.0
  H  H54  1  0.05564000  0.26886000  0.77399000  1.0
  H  H55  1  0.05564000  0.73114000  0.72601000  1.0
  H  H56  1  0.55563000  0.23115000  0.27399000  1.0
  H  H57  1  0.55564000  0.76885000  0.22601000  1.0
  H  H58  1  0.94436000  0.73114000  0.22601000  1.0
  H  H59  1  0.94436000  0.26886000  0.27399000  1.0
  C  C60  1  0.41968000  0.74084000  0.55173000  1.0
  C  C61  1  0.41968000  0.25917000  0.94827000  1.0
  C  C62  1  0.08031000  0.24083000  0.94827000  1.0
  C  C63  1  0.08032000  0.75916000  0.55173000  1.0
  C  C64  1  0.58032000  0.25916000  0.44827000  1.0
  C  C65  1  0.58032000  0.74084000  0.05173000  1.0
  C  C66  1  0.91968000  0.75917000  0.05173000  1.0
  C  C67  1  0.91968000  0.24084000  0.44827000  1.0
  C  C68  1  0.48056000  0.82053000  0.56145000  1.0
  C  C69  1  0.48054000  0.17947000  0.93854000  1.0
  C  C70  1  0.01945000  0.32053000  0.93854000  1.0
  C  C71  1  0.01945000  0.67946000  0.56146000  1.0
  C  C72  1  0.51946000  0.17946000  0.43854000  1.0
  C  C73  1  0.51946000  0.82053000  0.06146000  1.0
  C  C74  1  0.98054000  0.67947000  0.06146000  1.0
  C  C75  1  0.98055000  0.32053000  0.43854000  1.0
  C  C76  1  0.51689000  0.86801000  0.49289000  1.0
  C  C77  1  0.51687000  0.13199000  0.00711000  1.0
  C  C78  1  0.98312000  0.36801000  0.00711000  1.0
  C  C79  1  0.98312000  0.63199000  0.49289000  1.0
  C  C80  1  0.48312000  0.13199000  0.50711000  1.0
  C  C81  1  0.48313000  0.86801000  0.99289000  1.0
  C  C82  1  0.01688000  0.63199000  0.99289000  1.0
  C  C83  1  0.01688000  0.36801000  0.50711000  1.0
  C  C84  1  0.49272000  0.83810000  0.41290000  1.0
  C  C85  1  0.49271000  0.16190000  0.08710000  1.0
  C  C86  1  0.00728000  0.33809000  0.08709000  1.0
  C  C87  1  0.00728000  0.66190000  0.41290000  1.0
  C  C88  1  0.50729000  0.16190000  0.58710000  1.0
  C  C89  1  0.50729000  0.83809000  0.91290000  1.0
  C  C90  1  0.99271000  0.66191000  0.91290000  1.0
  C  C91  1  0.99272000  0.33810000  0.58710000  1.0
  C  C92  1  0.43050000  0.75930000  0.40308000  1.0
  C  C93  1  0.43049000  0.24070000  0.09692000  1.0
  C  C94  1  0.06950000  0.25930000  0.09692000  1.0
  C  C95  1  0.06950000  0.74069000  0.40309000  1.0
  C  C96  1  0.56951000  0.24069000  0.59692000  1.0
  C  C97  1  0.56951000  0.75930000  0.90308000  1.0
  C  C98  1  0.93050000  0.74070000  0.90308000  1.0
  C  C99  1  0.93050000  0.25931000  0.59692000  1.0
  C  C100  1  0.39537000  0.71111000  0.47126000  1.0
  C  C101  1  0.39537000  0.28890000  0.02874000  1.0
  C  C102  1  0.10462000  0.21110000  0.02874000  1.0
  C  C103  1  0.10463000  0.78889000  0.47127000  1.0
  C  C104  1  0.60463000  0.28889000  0.52874000  1.0
  C  C105  1  0.60463000  0.71111000  0.97127000  1.0
  C  C106  1  0.89537000  0.78890000  0.97126000  1.0
  C  C107  1  0.89538000  0.21111000  0.52874000  1.0
  C  C108  1  0.37824000  0.69054000  0.62223000  1.0
  C  C109  1  0.37822000  0.30946000  0.87777000  1.0
  C  C110  1  0.12177000  0.19053000  0.87777000  1.0
  C  C111  1  0.12177000  0.80946000  0.62223000  1.0
  C  C112  1  0.62177000  0.30946000  0.37777000  1.0
  C  C113  1  0.62178000  0.69054000  0.12223000  1.0
  C  C114  1  0.87822000  0.80946000  0.12223000  1.0
  C  C115  1  0.87823000  0.19054000  0.37777000  1.0
  C  C116  1  0.34472000  0.65477000  0.75271000  1.0
  C  C117  1  0.34472000  0.34524000  0.74728000  1.0
  C  C118  1  0.15528000  0.15476000  0.74728000  1.0
  C  C119  1  0.15527000  0.84524000  0.75272000  1.0
  C  C120  1  0.65528000  0.34524000  0.24729000  1.0
  C  C121  1  0.65528000  0.65476000  0.25272000  1.0
  C  C122  1  0.84472000  0.84524000  0.25272000  1.0
  C  C123  1  0.84472000  0.15476000  0.24729000  1.0
  C  C124  1  0.30793000  0.61568000  0.62632000  1.0
  C  C125  1  0.30792000  0.38433000  0.87368000  1.0
  C  C126  1  0.19208000  0.11567000  0.87368000  1.0
  C  C127  1  0.19208000  0.88432000  0.62632000  1.0
  C  C128  1  0.69208000  0.38432000  0.37368000  1.0
  C  C129  1  0.69208000  0.61568000  0.12632000  1.0
  C  C130  1  0.80792000  0.88432000  0.12632000  1.0
  C  C131  1  0.80792000  0.11568000  0.37368000  1.0
  C  C132  1  0.53454000  0.88758000  0.33894000  1.0
  C  C133  1  0.53454000  0.11242000  0.16106000  1.0
  C  C134  1  0.96546000  0.38758000  0.16106000  1.0
  C  C135  1  0.96546000  0.61241000  0.33894000  1.0
  C  C136  1  0.46546000  0.11241000  0.66106000  1.0
  C  C137  1  0.46547000  0.88758000  0.83894000  1.0
  C  C138  1  0.03454000  0.61242000  0.83894000  1.0
  C  C139  1  0.03454000  0.38759000  0.66106000  1.0
  N  N140  1  0.28781000  0.59457000  0.70750000  1.0
  N  N141  1  0.28780000  0.40544000  0.79249000  1.0
  N  N142  1  0.21220000  0.09457000  0.79249000  1.0
  N  N143  1  0.21219000  0.90543000  0.70751000  1.0
  N  N144  1  0.71220000  0.40543000  0.29250000  1.0
  N  N145  1  0.71220000  0.59456000  0.20750000  1.0
  N  N146  1  0.78780000  0.90543000  0.20751000  1.0
  N  N147  1  0.78781000  0.09457000  0.29250000  1.0
  N  N148  1  0.40027000  0.71319000  0.70364000  1.0
  N  N149  1  0.40027000  0.28681000  0.79636000  1.0
  N  N150  1  0.09973000  0.21319000  0.79636000  1.0
  N  N151  1  0.09973000  0.78681000  0.70364000  1.0
  N  N152  1  0.59973000  0.28681000  0.29636000  1.0
  N  N153  1  0.59974000  0.71319000  0.20364000  1.0
  N  N154  1  0.90026000  0.78681000  0.20364000  1.0
  N  N155  1  0.90027000  0.21319000  0.29636000  1.0
  O  O156  1  0.51009000  0.86046000  0.26723000  1.0
  O  O157  1  0.51010000  0.13953000  0.23277000  1.0
  O  O158  1  0.98991000  0.36047000  0.23276000  1.0
  O  O159  1  0.98991000  0.63953000  0.26723000  1.0
  O  O160  1  0.48990000  0.13953000  0.73277000  1.0
  O  O161  1  0.48992000  0.86047000  0.76723000  1.0
  O  O162  1  0.01008000  0.63953000  0.76723000  1.0
  O  O163  1  0.01010000  0.36047000  0.73277000  1.0
  O  O164  1  0.59786000  0.95689000  0.35259000  1.0
  O  O165  1  0.59786000  0.04311000  0.14740000  1.0
  O  O166  1  0.90214000  0.45689000  0.14740000  1.0
  O  O167  1  0.90214000  0.54311000  0.35260000  1.0
  O  O168  1  0.40213000  0.04311000  0.64741000  1.0
  O  O169  1  0.40214000  0.95689000  0.85260000  1.0
  O  O170  1  0.09786000  0.54311000  0.85260000  1.0
  O  O171  1  0.09785000  0.45690000  0.64740000  1.0
