# generated using pymatgen
data_AgP3H38C36(SO)2
_symmetry_space_group_name_H-M   'P 1'
_cell_length_a   6.88101000
_cell_length_b   16.17340000
_cell_length_c   16.59010000
_cell_angle_alpha   89.99860000
_cell_angle_beta   92.66680000
_cell_angle_gamma   89.99750000
_symmetry_Int_Tables_number   1
_chemical_formula_structural   AgP3H38C36(SO)2
_chemical_formula_sum   'Ag2 P6 H76 C72 S4 O4'
_cell_volume   1844.30152529
_cell_formula_units_Z   2
loop_
 _symmetry_equiv_pos_site_id
 _symmetry_equiv_pos_as_xyz
  1  'x, y, z'
loop_
 _atom_site_type_symbol
 _atom_site_label
 _atom_site_symmetry_multiplicity
 _atom_site_fract_x
 _atom_site_fract_y
 _atom_site_fract_z
 _atom_site_occupancy
  Ag  Ag0  1  0.94525000  0.26641000  0.27686000  1.0
  Ag  Ag1  1  0.05472000  0.76641000  0.72314000  1.0
  P  P2  1  0.79818000  0.23548000  0.40436000  1.0
  P  P3  1  0.20180000  0.73549000  0.59564000  1.0
  P  P4  1  0.10314000  0.13993000  0.24099000  1.0
  P  P5  1  0.89687000  0.63992000  0.75900000  1.0
  P  P6  1  0.87704000  0.43860000  0.19637000  1.0
  P  P7  1  0.12295000  0.93859000  0.80362000  1.0
  H  H8  1  0.55373000  0.36758000  0.34488000  1.0
  H  H9  1  0.44627000  0.86756000  0.65511000  1.0
  H  H10  1  0.36266000  0.47592000  0.41125000  1.0
  H  H11  1  0.63737000  0.97588000  0.58875000  1.0
  H  H12  1  0.39152000  0.49182000  0.56172000  1.0
  H  H13  1  0.60850000  0.99181000  0.43828000  1.0
  H  H14  1  0.60799000  0.39949000  0.64339000  1.0
  H  H15  1  0.39201000  0.89950000  0.35661000  1.0
  H  H16  1  0.79227000  0.28791000  0.57713000  1.0
  H  H17  1  0.20770000  0.78793000  0.42286000  1.0
  H  H18  1  0.81987000  0.07070000  0.48612000  1.0
  H  H19  1  0.18010000  0.57070000  0.51389000  1.0
  H  H20  1  0.07333000  0.00616000  0.57562000  1.0
  H  H21  1  0.92666000  0.50617000  0.42439000  1.0
  H  H22  1  0.36573000  0.08622000  0.62071000  1.0
  H  H23  1  0.63428000  0.58625000  0.37927000  1.0
  H  H24  1  0.40157000  0.23309000  0.57720000  1.0
  H  H25  1  0.59844000  0.73312000  0.42277000  1.0
  H  H26  1  0.15429000  0.29695000  0.48390000  1.0
  H  H27  1  0.84572000  0.79697000  0.51608000  1.0
  H  H28  1  0.31999000  0.26082000  0.15868000  1.0
  H  H29  1  0.68004000  0.76083000  0.84129000  1.0
  H  H30  1  0.48144000  0.26390000  0.02868000  1.0
  H  H31  1  0.51859000  0.76394000  0.97129000  1.0
  H  H32  1  0.45063000  0.14274000  0.93488000  1.0
  H  H33  1  0.54936000  0.64279000  0.06510000  1.0
  H  H34  1  0.11856000  0.01261000  0.10821000  1.0
  H  H35  1  0.88139000  0.51260000  0.89180000  1.0
  H  H36  1  0.26716000  0.01813000  0.97517000  1.0
  H  H37  1  0.73278000  0.51816000  0.02484000  1.0
  H  H38  1  0.75121000  0.10367000  0.14619000  1.0
  H  H39  1  0.24874000  0.60366000  0.85383000  1.0
  H  H40  1  0.51933000  0.98725000  0.14328000  1.0
  H  H41  1  0.48065000  0.48724000  0.85678000  1.0
  H  H42  1  0.56846000  0.86866000  0.23887000  1.0
  H  H43  1  0.43159000  0.36865000  0.76118000  1.0
  H  H44  1  0.85016000  0.86964000  0.33859000  1.0
  H  H45  1  0.14994000  0.36962000  0.66144000  1.0
  H  H46  1  0.08830000  0.98364000  0.33941000  1.0
  H  H47  1  0.91177000  0.48362000  0.66059000  1.0
  H  H48  1  0.07584000  0.36744000  0.05511000  1.0
  H  H49  1  0.92418000  0.86743000  0.94489000  1.0
  H  H50  1  0.23466000  0.39533000  0.13887000  1.0
  H  H51  1  0.76534000  0.89532000  0.86113000  1.0
  H  H52  1  0.38367000  0.43505000  0.01037000  1.0
  H  H53  1  0.61634000  0.93505000  0.98963000  1.0
  H  H54  1  0.33219000  0.52410000  0.06794000  1.0
  H  H55  1  0.66782000  0.02410000  0.93206000  1.0
  H  H56  1  0.17826000  0.49777000  0.98253000  1.0
  H  H57  1  0.82176000  0.99776000  0.01747000  1.0
  H  H58  1  0.46169000  0.46317000  0.22570000  1.0
  H  H59  1  0.53831000  0.96315000  0.77429000  1.0
  H  H60  1  0.26712000  0.58611000  0.25065000  1.0
  H  H61  1  0.73288000  0.08609000  0.74935000  1.0
  H  H62  1  0.77453000  0.74016000  0.22411000  1.0
  H  H63  1  0.22546000  0.24015000  0.77589000  1.0
  H  H64  1  0.96938000  0.61396000  0.19787000  1.0
  H  H65  1  0.03062000  0.11396000  0.80213000  1.0
  H  H66  1  0.68182000  0.10145000  0.36902000  1.0
  H  H67  1  0.31818000  0.60145000  0.63098000  1.0
  H  H68  1  0.54137000  0.14236000  0.44777000  1.0
  H  H69  1  0.45861000  0.64236000  0.55222000  1.0
  H  H70  1  0.51702000  0.19663000  0.26976000  1.0
  H  H71  1  0.48299000  0.69663000  0.73024000  1.0
  H  H72  1  0.37236000  0.23745000  0.34535000  1.0
  H  H73  1  0.62762000  0.73744000  0.65464000  1.0
  H  H74  1  0.23342000  0.09812000  0.37117000  1.0
  H  H75  1  0.76658000  0.59811000  0.62882000  1.0
  H  H76  1  0.37367000  0.05456000  0.29387000  1.0
  H  H77  1  0.62634000  0.55456000  0.70612000  1.0
  H  H78  1  0.16308000  0.80757000  0.26601000  1.0
  H  H79  1  0.83689000  0.30757000  0.73402000  1.0
  H  H80  1  0.15692000  0.70345000  0.30324000  1.0
  H  H81  1  0.84310000  0.20346000  0.69678000  1.0
  H  H82  1  0.14292000  0.72307000  0.19638000  1.0
  H  H83  1  0.85704000  0.22306000  0.80364000  1.0
  C  C84  1  0.68031000  0.31887000  0.45715000  1.0
  C  C85  1  0.31966000  0.81888000  0.54284000  1.0
  C  C86  1  0.56242000  0.37351000  0.41053000  1.0
  C  C87  1  0.43757000  0.87351000  0.58946000  1.0
  C  C88  1  0.45710000  0.43516000  0.44797000  1.0
  C  C89  1  0.54290000  0.93515000  0.55203000  1.0
  C  C90  1  0.47344000  0.44417000  0.53176000  1.0
  C  C91  1  0.52657000  0.94417000  0.46824000  1.0
  C  C92  1  0.59622000  0.39221000  0.57802000  1.0
  C  C93  1  0.40376000  0.89221000  0.42198000  1.0
  C  C94  1  0.69897000  0.32952000  0.54102000  1.0
  C  C95  1  0.30100000  0.82953000  0.45898000  1.0
  C  C96  1  0.96769000  0.18858000  0.47835000  1.0
  C  C97  1  0.03230000  0.68859000  0.52164000  1.0
  C  C98  1  0.94773000  0.10664000  0.50485000  1.0
  C  C99  1  0.05225000  0.60664000  0.49515000  1.0
  C  C100  1  0.09116000  0.06969000  0.55514000  1.0
  C  C101  1  0.90883000  0.56970000  0.44486000  1.0
  C  C102  1  0.25478000  0.11496000  0.58100000  1.0
  C  C103  1  0.74521000  0.61498000  0.41899000  1.0
  C  C104  1  0.27486000  0.19717000  0.55648000  1.0
  C  C105  1  0.72515000  0.69719000  0.44350000  1.0
  C  C106  1  0.13414000  0.23354000  0.50462000  1.0
  C  C107  1  0.86586000  0.73356000  0.49537000  1.0
  C  C108  1  0.21184000  0.13593000  0.14301000  1.0
  C  C109  1  0.78814000  0.63593000  0.85698000  1.0
  C  C110  1  0.31244000  0.20677000  0.11924000  1.0
  C  C111  1  0.68759000  0.70679000  0.88074000  1.0
  C  C112  1  0.40122000  0.20876000  0.04536000  1.0
  C  C113  1  0.59880000  0.70880000  0.95463000  1.0
  C  C114  1  0.38556000  0.14078000  0.99350000  1.0
  C  C115  1  0.61444000  0.64082000  0.00648000  1.0
  C  C116  1  0.19788000  0.06772000  0.09081000  1.0
  C  C117  1  0.80209000  0.56773000  0.90919000  1.0
  C  C118  1  0.28322000  0.07051000  0.01615000  1.0
  C  C119  1  0.71675000  0.57054000  0.98385000  1.0
  C  C120  1  0.93948000  0.05134000  0.24162000  1.0
  C  C121  1  0.06053000  0.55134000  0.75839000  1.0
  C  C122  1  0.77556000  0.05180000  0.18762000  1.0
  C  C123  1  0.22443000  0.55179000  0.81240000  1.0
  C  C124  1  0.64398000  0.98621000  0.18628000  1.0
  C  C125  1  0.35603000  0.48620000  0.81375000  1.0
  C  C126  1  0.67093000  0.92010000  0.23999000  1.0
  C  C127  1  0.32913000  0.42009000  0.76004000  1.0
  C  C128  1  0.83029000  0.92019000  0.29533000  1.0
  C  C129  1  0.16978000  0.42019000  0.70470000  1.0
  C  C130  1  0.96468000  0.98507000  0.29592000  1.0
  C  C131  1  0.03539000  0.48506000  0.70409000  1.0
  C  C132  1  0.14494000  0.41988000  0.08762000  1.0
  C  C133  1  0.85507000  0.91987000  0.91238000  1.0
  C  C134  1  0.26563000  0.47253000  0.03380000  1.0
  C  C135  1  0.73438000  0.97252000  0.96620000  1.0
  C  C136  1  0.72992000  0.52981000  0.21117000  1.0
  C  C137  1  0.27007000  0.02981000  0.78882000  1.0
  C  C138  1  0.53187000  0.52367000  0.22545000  1.0
  C  C139  1  0.46813000  0.02366000  0.77455000  1.0
  C  C140  1  0.42041000  0.59418000  0.23900000  1.0
  C  C141  1  0.57959000  0.09417000  0.76099000  1.0
  C  C142  1  0.50900000  0.67217000  0.23889000  1.0
  C  C143  1  0.49100000  0.17216000  0.76111000  1.0
  C  C144  1  0.70804000  0.67899000  0.22453000  1.0
  C  C145  1  0.29195000  0.17899000  0.77547000  1.0
  C  C146  1  0.81622000  0.60851000  0.21066000  1.0
  C  C147  1  0.18378000  0.10851000  0.78933000  1.0
  C  C148  1  0.60621000  0.15692000  0.39003000  1.0
  C  C149  1  0.39378000  0.65692000  0.60997000  1.0
  C  C150  1  0.44893000  0.18134000  0.32663000  1.0
  C  C151  1  0.55106000  0.68134000  0.67337000  1.0
  C  C152  1  0.30166000  0.11134000  0.31379000  1.0
  C  C153  1  0.69834000  0.61133000  0.68620000  1.0
  C  C154  1  0.20768000  0.74367000  0.25493000  1.0
  C  C155  1  0.79231000  0.24367000  0.74509000  1.0
  S  S156  1  0.07023000  0.41987000  0.28926000  1.0
  S  S157  1  0.92975000  0.91987000  0.71074000  1.0
  S  S158  1  0.70973000  0.34073000  0.16849000  1.0
  S  S159  1  0.29028000  0.84072000  0.83149000  1.0
  O  O160  1  0.99258000  0.47130000  0.11902000  1.0
  O  O161  1  0.00742000  0.97129000  0.88097000  1.0
  O  O162  1  0.41512000  0.74509000  0.25310000  1.0
  O  O163  1  0.58486000  0.24508000  0.74691000  1.0
