# generated using pymatgen
data_TlH5C7O3
_symmetry_space_group_name_H-M   'P 1'
_cell_length_a   10.33420000
_cell_length_b   10.54060000
_cell_length_c   13.00200000
_cell_angle_alpha   89.99990000
_cell_angle_beta   89.99990000
_cell_angle_gamma   90.00000000
_symmetry_Int_Tables_number   1
_chemical_formula_structural   TlH5C7O3
_chemical_formula_sum   'Tl8 H40 C56 O24'
_cell_volume   1416.29054809
_cell_formula_units_Z   8
loop_
 _symmetry_equiv_pos_site_id
 _symmetry_equiv_pos_as_xyz
  1  'x, y, z'
loop_
 _atom_site_type_symbol
 _atom_site_label
 _atom_site_symmetry_multiplicity
 _atom_site_fract_x
 _atom_site_fract_y
 _atom_site_fract_z
 _atom_site_occupancy
  Tl  Tl0  1  0.89966000  0.63362000  0.39938000  1.0
  Tl  Tl1  1  0.10034000  0.86638000  0.89938000  1.0
  Tl  Tl2  1  0.39966000  0.36638000  0.10062000  1.0
  Tl  Tl3  1  0.60034000  0.13362000  0.60062000  1.0
  Tl  Tl4  1  0.10033000  0.36638000  0.60062000  1.0
  Tl  Tl5  1  0.89966000  0.13361000  0.10062000  1.0
  Tl  Tl6  1  0.60033000  0.63361000  0.89938000  1.0
  Tl  Tl7  1  0.39966000  0.86639000  0.39938000  1.0
  H  H8  1  0.56760000  0.17333000  0.93905000  1.0
  H  H9  1  0.43240000  0.32667000  0.43906000  1.0
  H  H10  1  0.06760000  0.82667000  0.56094000  1.0
  H  H11  1  0.93240000  0.67333000  0.06094000  1.0
  H  H12  1  0.43240000  0.82667000  0.06095000  1.0
  H  H13  1  0.56760000  0.67333000  0.56094000  1.0
  H  H14  1  0.93240000  0.17333000  0.43906000  1.0
  H  H15  1  0.06760000  0.32667000  0.93906000  1.0
  H  H16  1  0.47363000  0.47741000  0.62130000  1.0
  H  H17  1  0.52637000  0.02259000  0.12130000  1.0
  H  H18  1  0.97363000  0.52259000  0.87870000  1.0
  H  H19  1  0.02637000  0.97741000  0.37870000  1.0
  H  H20  1  0.52637000  0.52259000  0.37870000  1.0
  H  H21  1  0.47363000  0.97741000  0.87870000  1.0
  H  H22  1  0.02637000  0.47741000  0.12130000  1.0
  H  H23  1  0.97363000  0.02259000  0.62130000  1.0
  H  H24  1  0.37545000  0.36152000  0.76802000  1.0
  H  H25  1  0.62455000  0.13848000  0.26802000  1.0
  H  H26  1  0.87545000  0.63848000  0.73198000  1.0
  H  H27  1  0.12455000  0.86152000  0.23198000  1.0
  H  H28  1  0.62455000  0.63848000  0.23198000  1.0
  H  H29  1  0.37545000  0.86152000  0.73198000  1.0
  H  H30  1  0.12455000  0.36152000  0.26802000  1.0
  H  H31  1  0.87545000  0.13848000  0.76802000  1.0
  H  H32  1  0.75567000  0.27742000  0.88552000  1.0
  H  H33  1  0.24433000  0.22258000  0.38552000  1.0
  H  H34  1  0.25567000  0.72258000  0.61448000  1.0
  H  H35  1  0.74433000  0.77742000  0.11448000  1.0
  H  H36  1  0.24433000  0.72258000  0.11448000  1.0
  H  H37  1  0.75567000  0.77742000  0.61448000  1.0
  H  H38  1  0.74433000  0.27742000  0.38552000  1.0
  H  H39  1  0.25567000  0.22258000  0.88552000  1.0
  H  H40  1  0.85320000  0.38779000  0.73698000  1.0
  H  H41  1  0.14680000  0.11222000  0.23699000  1.0
  H  H42  1  0.35319000  0.61221000  0.76302000  1.0
  H  H43  1  0.64681000  0.88779000  0.26301000  1.0
  H  H44  1  0.14681000  0.61221000  0.26302000  1.0
  H  H45  1  0.85319000  0.88778000  0.76301000  1.0
  H  H46  1  0.64681000  0.38779000  0.23698000  1.0
  H  H47  1  0.35319000  0.11222000  0.73699000  1.0
  C  C48  1  0.73295000  0.50025000  0.57608000  1.0
  C  C49  1  0.26705000  0.99975000  0.07608000  1.0
  C  C50  1  0.23295000  0.49975000  0.92392000  1.0
  C  C51  1  0.76705000  0.00025000  0.42392000  1.0
  C  C52  1  0.26705000  0.49975000  0.42392000  1.0
  C  C53  1  0.73295000  0.00025000  0.92392000  1.0
  C  C54  1  0.76705000  0.50025000  0.07608000  1.0
  C  C55  1  0.23295000  0.99975000  0.57608000  1.0
  C  C56  1  0.67102000  0.44023000  0.66802000  1.0
  C  C57  1  0.32898000  0.05978000  0.16802000  1.0
  C  C58  1  0.17102000  0.55977000  0.83198000  1.0
  C  C59  1  0.82898000  0.94023000  0.33198000  1.0
  C  C60  1  0.32898000  0.55978000  0.33198000  1.0
  C  C61  1  0.67102000  0.94023000  0.83198000  1.0
  C  C62  1  0.82898000  0.44023000  0.16802000  1.0
  C  C63  1  0.17102000  0.05977000  0.66802000  1.0
  C  C64  1  0.53578000  0.43469000  0.67949000  1.0
  C  C65  1  0.46422000  0.06531000  0.17949000  1.0
  C  C66  1  0.03578000  0.56531000  0.82051000  1.0
  C  C67  1  0.96422000  0.93469000  0.32051000  1.0
  C  C68  1  0.46422000  0.56531000  0.32051000  1.0
  C  C69  1  0.53578000  0.93469000  0.82051000  1.0
  C  C70  1  0.96422000  0.43469000  0.17949000  1.0
  C  C71  1  0.03578000  0.06531000  0.67949000  1.0
  C  C72  1  0.48011000  0.36891000  0.76133000  1.0
  C  C73  1  0.51989000  0.13109000  0.26133000  1.0
  C  C74  1  0.98011000  0.63109000  0.73867000  1.0
  C  C75  1  0.01989000  0.86891000  0.23867000  1.0
  C  C76  1  0.51989000  0.63109000  0.23867000  1.0
  C  C77  1  0.48011000  0.86891000  0.73867000  1.0
  C  C78  1  0.01989000  0.36891000  0.26133000  1.0
  C  C79  1  0.98011000  0.13109000  0.76133000  1.0
  C  C80  1  0.55836000  0.30751000  0.83473000  1.0
  C  C81  1  0.44164000  0.19249000  0.33473000  1.0
  C  C82  1  0.05836000  0.69249000  0.66527000  1.0
  C  C83  1  0.94164000  0.80751000  0.16527000  1.0
  C  C84  1  0.44164000  0.69249000  0.16527000  1.0
  C  C85  1  0.55836000  0.80751000  0.66527000  1.0
  C  C86  1  0.94164000  0.30751000  0.33473000  1.0
  C  C87  1  0.05836000  0.19249000  0.83473000  1.0
  C  C88  1  0.69388000  0.31903000  0.82682000  1.0
  C  C89  1  0.30612000  0.18097000  0.32682000  1.0
  C  C90  1  0.19388000  0.68097000  0.67318000  1.0
  C  C91  1  0.80612000  0.81903000  0.17318000  1.0
  C  C92  1  0.30612000  0.68097000  0.17318000  1.0
  C  C93  1  0.69388000  0.81903000  0.67318000  1.0
  C  C94  1  0.80612000  0.31903000  0.32682000  1.0
  C  C95  1  0.19388000  0.18097000  0.82682000  1.0
  C  C96  1  0.74835000  0.38255000  0.74373000  1.0
  C  C97  1  0.25165000  0.11745000  0.24372000  1.0
  C  C98  1  0.24835000  0.61745000  0.75628000  1.0
  C  C99  1  0.75165000  0.88255000  0.25628000  1.0
  C  C100  1  0.25165000  0.61745000  0.25628000  1.0
  C  C101  1  0.74835000  0.88255000  0.75628000  1.0
  C  C102  1  0.75165000  0.38255000  0.24373000  1.0
  C  C103  1  0.24835000  0.11745000  0.74372000  1.0
  O  O104  1  0.84898000  0.46953000  0.55508000  1.0
  O  O105  1  0.15102000  0.03047000  0.05508000  1.0
  O  O106  1  0.34898000  0.53047000  0.94492000  1.0
  O  O107  1  0.65102000  0.96954000  0.44492000  1.0
  O  O108  1  0.15102000  0.53047000  0.44492000  1.0
  O  O109  1  0.84898000  0.96953000  0.94492000  1.0
  O  O110  1  0.65102000  0.46953000  0.05508000  1.0
  O  O111  1  0.34898000  0.03047000  0.55508000  1.0
  O  O112  1  0.66773000  0.57904000  0.52107000  1.0
  O  O113  1  0.33227000  0.92096000  0.02107000  1.0
  O  O114  1  0.16773000  0.42096000  0.97894000  1.0
  O  O115  1  0.83227000  0.07905000  0.47894000  1.0
  O  O116  1  0.33227000  0.42096000  0.47894000  1.0
  O  O117  1  0.66773000  0.07904000  0.97893000  1.0
  O  O118  1  0.83227000  0.57904000  0.02106000  1.0
  O  O119  1  0.16773000  0.92095000  0.52106000  1.0
  O  O120  1  0.50174000  0.23806000  0.90982000  1.0
  O  O121  1  0.49826000  0.26194000  0.40982000  1.0
  O  O122  1  0.00174000  0.76194000  0.59018000  1.0
  O  O123  1  0.99826000  0.73806000  0.09017000  1.0
  O  O124  1  0.49826000  0.76194000  0.09018000  1.0
  O  O125  1  0.50174000  0.73806000  0.59017000  1.0
  O  O126  1  0.99826000  0.23806000  0.40983000  1.0
  O  O127  1  0.00174000  0.26194000  0.90982000  1.0
