# generated using pymatgen
data_K2H17C15SNO6
_symmetry_space_group_name_H-M   'P 1'
_cell_length_a   5.88588000
_cell_length_b   8.78766000
_cell_length_c   17.56219540
_cell_angle_alpha   92.95039390
_cell_angle_beta   96.92998779
_cell_angle_gamma   104.80970000
_symmetry_Int_Tables_number   1
_chemical_formula_structural   K2H17C15SNO6
_chemical_formula_sum   'K4 H34 C30 S2 N2 O12'
_cell_volume   868.56728584
_cell_formula_units_Z   2
loop_
 _symmetry_equiv_pos_site_id
 _symmetry_equiv_pos_as_xyz
  1  'x, y, z'
loop_
 _atom_site_type_symbol
 _atom_site_label
 _atom_site_symmetry_multiplicity
 _atom_site_fract_x
 _atom_site_fract_y
 _atom_site_fract_z
 _atom_site_occupancy
  K  K0  1  0.73765000  0.86426000  0.59092000  1.0
  K  K1  1  0.26230000  0.13575000  0.40907000  1.0
  K  K2  1  0.62589000  0.35530000  0.58651000  1.0
  K  K3  1  0.37411000  0.64470000  0.41349000  1.0
  H  H4  1  0.26058000  0.94303000  0.53322000  1.0
  H  H5  1  0.73942000  0.05698000  0.46678000  1.0
  H  H6  1  0.29221000  0.04271000  0.61159000  1.0
  H  H7  1  0.70778000  0.95729000  0.38840000  1.0
  H  H8  1  0.01709000  0.70538000  0.51541000  1.0
  H  H9  1  0.98289000  0.29464000  0.48459000  1.0
  H  H10  1  0.92816000  0.74434000  0.42852000  1.0
  H  H11  1  0.07184000  0.25566000  0.57148000  1.0
  H  H12  1  0.52491000  0.35132000  0.08241000  1.0
  H  H13  1  0.47510000  0.64867000  0.91759000  1.0
  H  H14  1  0.76901000  0.31161000  0.04174000  1.0
  H  H15  1  0.23101000  0.68838000  0.95826000  1.0
  H  H16  1  0.54703000  0.15491000  0.06814000  1.0
  H  H17  1  0.45299000  0.84508000  0.93186000  1.0
  H  H18  1  0.61430000  0.41704000  0.76343000  1.0
  H  H19  1  0.38571000  0.58296000  0.23658000  1.0
  H  H20  1  0.03434000  0.87787000  0.86134000  1.0
  H  H21  1  0.96566000  0.12213000  0.13867000  1.0
  H  H22  1  0.71825000  0.99473000  0.80492000  1.0
  H  H23  1  0.28176000  0.00529000  0.19509000  1.0
  H  H24  1  0.97926000  0.58707000  0.84170000  1.0
  H  H25  1  0.02075000  0.41293000  0.15831000  1.0
  H  H26  1  0.07605000  0.51630000  0.71740000  1.0
  H  H27  1  0.92397000  0.48369000  0.28261000  1.0
  H  H28  1  0.97039000  0.34389000  0.86009000  1.0
  H  H29  1  0.02961000  0.65610000  0.13991000  1.0
  H  H30  1  0.34356000  0.82420000  0.73208000  1.0
  H  H31  1  0.65645000  0.17581000  0.26792000  1.0
  H  H32  1  0.46035000  0.10466000  0.78087000  1.0
  H  H33  1  0.53965000  0.89534000  0.21912000  1.0
  H  H34  1  0.66793000  0.12599000  0.91473000  1.0
  H  H35  1  0.33207000  0.87401000  0.08526000  1.0
  H  H36  1  0.18614000  0.37313000  0.99386000  1.0
  H  H37  1  0.81387000  0.62685000  0.00614000  1.0
  C  C38  1  0.20767000  0.58086000  0.61197000  1.0
  C  C39  1  0.79232000  0.41917000  0.38803000  1.0
  C  C40  1  0.23322000  0.50889000  0.69048000  1.0
  C  C41  1  0.76676000  0.49111000  0.30951000  1.0
  C  C42  1  0.45420000  0.60805000  0.74207000  1.0
  C  C43  1  0.54579000  0.39194000  0.25793000  1.0
  C  C44  1  0.48357000  0.77154000  0.75570000  1.0
  C  C45  1  0.51644000  0.22846000  0.24430000  1.0
  C  C46  1  0.69197000  0.86748000  0.79773000  1.0
  C  C47  1  0.30803000  0.13253000  0.20228000  1.0
  C  C48  1  0.87133000  0.80193000  0.82908000  1.0
  C  C49  1  0.12867000  0.19807000  0.17092000  1.0
  C  C50  1  0.84000000  0.63930000  0.81769000  1.0
  C  C51  1  0.16001000  0.36070000  0.18232000  1.0
  C  C52  1  0.63404000  0.54321000  0.77392000  1.0
  C  C53  1  0.36595000  0.45679000  0.22608000  1.0
  C  C54  1  0.20515000  0.22376000  0.81283000  1.0
  C  C55  1  0.79484000  0.77622000  0.18716000  1.0
  C  C56  1  0.12567000  0.29867000  0.87230000  1.0
  C  C57  1  0.87433000  0.70132000  0.12770000  1.0
  C  C58  1  0.24550000  0.31301000  0.94720000  1.0
  C  C59  1  0.75450000  0.68697000  0.05280000  1.0
  C  C60  1  0.44323000  0.25302000  0.96363000  1.0
  C  C61  1  0.55679000  0.74697000  0.03637000  1.0
  C  C62  1  0.51568000  0.17486000  0.90294000  1.0
  C  C63  1  0.48431000  0.82513000  0.09705000  1.0
  C  C64  1  0.39997000  0.16112000  0.82821000  1.0
  C  C65  1  0.60003000  0.83887000  0.17178000  1.0
  C  C66  1  0.57707000  0.26942000  0.04323000  1.0
  C  C67  1  0.42294000  0.73057000  0.95677000  1.0
  S  S68  1  0.07753000  0.21415000  0.71482000  1.0
  S  S69  1  0.92246000  0.78585000  0.28517000  1.0
  N  N70  1  0.23509000  0.34417000  0.67163000  1.0
  N  N71  1  0.76491000  0.65583000  0.32837000  1.0
  O  O72  1  0.01041000  0.61277000  0.59141000  1.0
  O  O73  1  0.98955000  0.38724000  0.40860000  1.0
  O  O74  1  0.37834000  0.59849000  0.57276000  1.0
  O  O75  1  0.62164000  0.40149000  0.42723000  1.0
  O  O76  1  0.83394000  0.22719000  0.71672000  1.0
  O  O77  1  0.16607000  0.77282000  0.28328000  1.0
  O  O78  1  0.09429000  0.06106000  0.68036000  1.0
  O  O79  1  0.90571000  0.93894000  0.31964000  1.0
  O  O80  1  0.38036000  0.02229000  0.56934000  1.0
  O  O81  1  0.61963000  0.97771000  0.43066000  1.0
  O  O82  1  0.02570000  0.79131000  0.47851000  1.0
  O  O83  1  0.97429000  0.20870000  0.52150000  1.0
