# generated using pymatgen
data_Tm2U3H26(C3O4)10
_symmetry_space_group_name_H-M   'P 1'
_cell_length_a   10.47070000
_cell_length_b   11.38120000
_cell_length_c   13.37000000
_cell_angle_alpha   68.36670000
_cell_angle_beta   78.44440000
_cell_angle_gamma   64.11250000
_symmetry_Int_Tables_number   1
_chemical_formula_structural   Tm2U3H26(C3O4)10
_chemical_formula_sum   'Tm2 U3 H26 C30 O40'
_cell_volume   1330.96699335
_cell_formula_units_Z   1
loop_
 _symmetry_equiv_pos_site_id
 _symmetry_equiv_pos_as_xyz
  1  'x, y, z'
loop_
 _atom_site_type_symbol
 _atom_site_label
 _atom_site_symmetry_multiplicity
 _atom_site_fract_x
 _atom_site_fract_y
 _atom_site_fract_z
 _atom_site_occupancy
  Tm  Tm0  1  0.58731000  0.24122000  0.74690000  1.0
  Tm  Tm1  1  0.41268000  0.75878000  0.25310000  1.0
  U  U2  1  0.62082000  0.71435000  0.83858000  1.0
  U  U3  1  0.37919000  0.28564000  0.16141000  1.0
  U  U4  1  0.00000000  0.50000000  0.50002000  1.0
  H  H5  1  0.09591000  0.36823000  0.96755000  1.0
  H  H6  1  0.90411000  0.63177000  0.03244000  1.0
  H  H7  1  0.15074000  0.10756000  0.72401000  1.0
  H  H8  1  0.84925000  0.89241000  0.27600000  1.0
  H  H9  1  0.72792000  0.00301000  0.40526000  1.0
  H  H10  1  0.27207000  0.99700000  0.59473000  1.0
  H  H11  1  0.66216000  0.21119000  0.53481000  1.0
  H  H12  1  0.33783000  0.78881000  0.46519000  1.0
  H  H13  1  0.71561000  0.06041000  0.62391000  1.0
  H  H14  1  0.28439000  0.93959000  0.37608000  1.0
  H  H15  1  0.53541000  0.51776000  0.58781000  1.0
  H  H16  1  0.46458000  0.48225000  0.41219000  1.0
  H  H17  1  0.70302000  0.42491000  0.59751000  1.0
  H  H18  1  0.29697000  0.57510000  0.40249000  1.0
  H  H19  1  0.30301000  0.46769000  0.67149000  1.0
  H  H20  1  0.69697000  0.53231000  0.32853000  1.0
  H  H21  1  0.33343000  0.36935000  0.60522000  1.0
  H  H22  1  0.66656000  0.63065000  0.39478000  1.0
  H  H23  1  0.49994000  0.51473000  0.78139000  1.0
  H  H24  1  0.50007000  0.48527000  0.21861000  1.0
  H  H25  1  0.48711000  0.40761000  0.89572000  1.0
  H  H26  1  0.51290000  0.59240000  0.10428000  1.0
  H  H27  1  0.73476000  0.93678000  0.87235000  1.0
  H  H28  1  0.26524000  0.06323000  0.12765000  1.0
  H  H29  1  0.83408000  0.01785000  0.85714000  1.0
  H  H30  1  0.16590000  0.98217000  0.14285000  1.0
  C  C31  1  0.99314000  0.34327000  0.85743000  1.0
  C  C32  1  0.00686000  0.65672000  0.14257000  1.0
  C  C33  1  0.10910000  0.31126000  0.91344000  1.0
  C  C34  1  0.89091000  0.68873000  0.08655000  1.0
  C  C35  1  0.24283000  0.21331000  0.89612000  1.0
  C  C36  1  0.75718000  0.78667000  0.10388000  1.0
  C  C37  1  0.25893000  0.14265000  0.82415000  1.0
  C  C38  1  0.74107000  0.85733000  0.17585000  1.0
  C  C39  1  0.13915000  0.16559000  0.77662000  1.0
  C  C40  1  0.86084000  0.83438000  0.22339000  1.0
  C  C41  1  0.00689000  0.26737000  0.79043000  1.0
  C  C42  1  0.99311000  0.73261000  0.20958000  1.0
  C  C43  1  0.62706000  0.00313000  0.44667000  1.0
  C  C44  1  0.37293000  0.99688000  0.55332000  1.0
  C  C45  1  0.61619000  0.87634000  0.50042000  1.0
  C  C46  1  0.38380000  0.12368000  0.49958000  1.0
  C  C47  1  0.48754000  0.87277000  0.55514000  1.0
  C  C48  1  0.51245000  0.12724000  0.44485000  1.0
  C  C49  1  0.86050000  0.46474000  0.86155000  1.0
  C  C50  1  0.13952000  0.53526000  0.13843000  1.0
  C  C51  1  0.36184000  0.18948000  0.95674000  1.0
  C  C52  1  0.63817000  0.81052000  0.04325000  1.0
  C  C53  1  0.40064000  0.04355000  0.79429000  1.0
  C  C54  1  0.59936000  0.95644000  0.20570000  1.0
  C  C55  1  0.88433000  0.29503000  0.72997000  1.0
  C  C56  1  0.11567000  0.70496000  0.27004000  1.0
  C  C57  1  0.46808000  0.74097000  0.61968000  1.0
  C  C58  1  0.53191000  0.25904000  0.38032000  1.0
  C  C59  1  0.74285000  0.74904000  0.49593000  1.0
  C  C60  1  0.25715000  0.25097000  0.50409000  1.0
  O  O61  1  0.53230000  0.63207000  0.95672000  1.0
  O  O62  1  0.46773000  0.36792000  0.04327000  1.0
  O  O63  1  0.71255000  0.79727000  0.72531000  1.0
  O  O64  1  0.28746000  0.20274000  0.27468000  1.0
  O  O65  1  0.05532000  0.50951000  0.61543000  1.0
  O  O66  1  0.94467000  0.49049000  0.38460000  1.0
  O  O67  1  0.84927000  0.54179000  0.91527000  1.0
  O  O68  1  0.15075000  0.45822000  0.08470000  1.0
  O  O69  1  0.75712000  0.49731000  0.80540000  1.0
  O  O70  1  0.24289000  0.50269000  0.19459000  1.0
  O  O71  1  0.79925000  0.23838000  0.77864000  1.0
  O  O72  1  0.20073000  0.76162000  0.22137000  1.0
  O  O73  1  0.87739000  0.36752000  0.63021000  1.0
  O  O74  1  0.12260000  0.63248000  0.36981000  1.0
  O  O75  1  0.41152000  0.92040000  0.81499000  1.0
  O  O76  1  0.58849000  0.07959000  0.18500000  1.0
  O  O77  1  0.49761000  0.08517000  0.74886000  1.0
  O  O78  1  0.50238000  0.91483000  0.25113000  1.0
  O  O79  1  0.48312000  0.17738000  0.91434000  1.0
  O  O80  1  0.51689000  0.82262000  0.08565000  1.0
  O  O81  1  0.32977000  0.18420000  0.05680000  1.0
  O  O82  1  0.67023000  0.81580000  0.94320000  1.0
  O  O83  1  0.50242000  0.68614000  0.71851000  1.0
  O  O84  1  0.49759000  0.31387000  0.28148000  1.0
  O  O85  1  0.41271000  0.69262000  0.57786000  1.0
  O  O86  1  0.58728000  0.30739000  0.42214000  1.0
  O  O87  1  0.72829000  0.63595000  0.51544000  1.0
  O  O88  1  0.27171000  0.36406000  0.48458000  1.0
  O  O89  1  0.86494000  0.75261000  0.47050000  1.0
  O  O90  1  0.13507000  0.24739000  0.52954000  1.0
  O  O91  1  0.70355000  0.15535000  0.60804000  1.0
  O  O92  1  0.29645000  0.84465000  0.39196000  1.0
  O  O93  1  0.60826000  0.42261000  0.60201000  1.0
  O  O94  1  0.39173000  0.57740000  0.39799000  1.0
  O  O95  1  0.36403000  0.37588000  0.66750000  1.0
  O  O96  1  0.63597000  0.62413000  0.33250000  1.0
  O  O97  1  0.49197000  0.42479000  0.81723000  1.0
  O  O98  1  0.50804000  0.57522000  0.18277000  1.0
  O  O99  1  0.75494000  0.01928000  0.82857000  1.0
  O  O100  1  0.24506000  0.98073000  0.17142000  1.0
