# generated using pymatgen
data_PrH21C13O7
_symmetry_space_group_name_H-M   'P 1'
_cell_length_a   6.88717000
_cell_length_b   10.39710000
_cell_length_c   12.19210000
_cell_angle_alpha   72.26210000
_cell_angle_beta   87.09090000
_cell_angle_gamma   76.35170000
_symmetry_Int_Tables_number   1
_chemical_formula_structural   PrH21C13O7
_chemical_formula_sum   'Pr2 H42 C26 O14'
_cell_volume   807.83968924
_cell_formula_units_Z   2
loop_
 _symmetry_equiv_pos_site_id
 _symmetry_equiv_pos_as_xyz
  1  'x, y, z'
loop_
 _atom_site_type_symbol
 _atom_site_label
 _atom_site_symmetry_multiplicity
 _atom_site_fract_x
 _atom_site_fract_y
 _atom_site_fract_z
 _atom_site_occupancy
  Pr  Pr0  1  0.24415000  0.03656000  0.38352000  1.0
  Pr  Pr1  1  0.75584000  0.96344000  0.61648000  1.0
  H  H2  1  0.15828000  0.75590000  0.54246000  1.0
  H  H3  1  0.84172000  0.24410000  0.45754000  1.0
  H  H4  1  0.88651000  0.34824000  0.01088000  1.0
  H  H5  1  0.11349000  0.65176000  0.98912000  1.0
  H  H6  1  0.06092000  0.28898000  0.91234000  1.0
  H  H7  1  0.93908000  0.71102000  0.08766000  1.0
  H  H8  1  0.12967000  0.37697000  0.00389000  1.0
  H  H9  1  0.87032000  0.62303000  0.99611000  1.0
  H  H10  1  0.23206000  0.05837000  0.97242000  1.0
  H  H11  1  0.76795000  0.94163000  0.02758000  1.0
  H  H12  1  0.54469000  0.74545000  0.14000000  1.0
  H  H13  1  0.45531000  0.25455000  0.86000000  1.0
  H  H14  1  0.41205000  0.82975000  0.00501000  1.0
  H  H15  1  0.58795000  0.17025000  0.99499000  1.0
  H  H16  1  0.30005000  0.72607000  0.12427000  1.0
  H  H17  1  0.69995000  0.27393000  0.87573000  1.0
  H  H18  1  0.78240000  0.51844000  0.30078000  1.0
  H  H19  1  0.21760000  0.48156000  0.69922000  1.0
  H  H20  1  0.95576000  0.61558000  0.31584000  1.0
  H  H21  1  0.04423000  0.38442000  0.68416000  1.0
  H  H22  1  0.87121000  0.49985000  0.43945000  1.0
  H  H23  1  0.12879000  0.50015000  0.56055000  1.0
  H  H24  1  0.24187000  0.53609000  0.23314000  1.0
  H  H25  1  0.75814000  0.46390000  0.76686000  1.0
  H  H26  1  0.71758000  0.32758000  0.20234000  1.0
  H  H27  1  0.28242000  0.67242000  0.79767000  1.0
  H  H28  1  0.55321000  0.49752000  0.14983000  1.0
  H  H29  1  0.44679000  0.50248000  0.85017000  1.0
  H  H30  1  0.55341000  0.36686000  0.08360000  1.0
  H  H31  1  0.44659000  0.63314000  0.91640000  1.0
  H  H32  1  0.70988000  0.86088000  0.24013000  1.0
  H  H33  1  0.29011000  0.13913000  0.75986000  1.0
  H  H34  1  0.93818000  0.92274000  0.22053000  1.0
  H  H35  1  0.06181000  0.07726000  0.77946000  1.0
  H  H36  1  0.70024000  0.04127000  0.19032000  1.0
  H  H37  1  0.29975000  0.95873000  0.80968000  1.0
  H  H38  1  0.34615000  0.63437000  0.41687000  1.0
  H  H39  1  0.65384000  0.36563000  0.58313000  1.0
  H  H40  1  0.45554000  0.58233000  0.55954000  1.0
  H  H41  1  0.54446000  0.41767000  0.44046000  1.0
  H  H42  1  0.54800000  0.70226000  0.44335000  1.0
  H  H43  1  0.45200000  0.29774000  0.55665000  1.0
  C  C44  1  0.04349000  0.30239000  0.99834000  1.0
  C  C45  1  0.95651000  0.69761000  0.00166000  1.0
  C  C46  1  0.11621000  0.16828000  0.09359000  1.0
  C  C47  1  0.88380000  0.83172000  0.90641000  1.0
  C  C48  1  0.22215000  0.05033000  0.06340000  1.0
  C  C49  1  0.77786000  0.94967000  0.93660000  1.0
  C  C50  1  0.30948000  0.92192000  0.14250000  1.0
  C  C51  1  0.69053000  0.07808000  0.85750000  1.0
  C  C52  1  0.39751000  0.79972000  0.09878000  1.0
  C  C53  1  0.60250000  0.20028000  0.90122000  1.0
  C  C54  1  0.91477000  0.51532000  0.34935000  1.0
  C  C55  1  0.08523000  0.48468000  0.65065000  1.0
  C  C56  1  0.08081000  0.39540000  0.33901000  1.0
  C  C57  1  0.91919000  0.60461000  0.66099000  1.0
  C  C58  1  0.24419000  0.42646000  0.27092000  1.0
  C  C59  1  0.75580000  0.57354000  0.72908000  1.0
  C  C60  1  0.41022000  0.33123000  0.24563000  1.0
  C  C61  1  0.58978000  0.66877000  0.75437000  1.0
  C  C62  1  0.56798000  0.38587000  0.16656000  1.0
  C  C63  1  0.43202000  0.61413000  0.83344000  1.0
  C  C64  1  0.76699000  0.95176000  0.36716000  1.0
  C  C65  1  0.23301000  0.04824000  0.63284000  1.0
  C  C66  1  0.78268000  0.94105000  0.24710000  1.0
  C  C67  1  0.21732000  0.05895000  0.75290000  1.0
  C  C68  1  0.41329000  0.66865000  0.47995000  1.0
  C  C69  1  0.58671000  0.33135000  0.52005000  1.0
  O  O70  1  0.07766000  0.17156000  0.19616000  1.0
  O  O71  1  0.92234000  0.82844000  0.80384000  1.0
  O  O72  1  0.31906000  0.89797000  0.25189000  1.0
  O  O73  1  0.68094000  0.10203000  0.74811000  1.0
  O  O74  1  0.05807000  0.27275000  0.39305000  1.0
  O  O75  1  0.94193000  0.72725000  0.60695000  1.0
  O  O76  1  0.43779000  0.19982000  0.28286000  1.0
  O  O77  1  0.56221000  0.80018000  0.71714000  1.0
  O  O78  1  0.61373000  0.92979000  0.42687000  1.0
  O  O79  1  0.38627000  0.07021000  0.57312000  1.0
  O  O80  1  0.90751000  0.98304000  0.41072000  1.0
  O  O81  1  0.09249000  0.01696000  0.58928000  1.0
  O  O82  1  0.28064000  0.78415000  0.50434000  1.0
  O  O83  1  0.71936000  0.21585000  0.49566000  1.0
