# generated using pymatgen
data_CoHC3N3Cl
_symmetry_space_group_name_H-M   'P 1'
_cell_length_a   8.03851000
_cell_length_b   14.60880000
_cell_length_c   14.60720000
_cell_angle_alpha   116.70500000
_cell_angle_beta   100.56800000
_cell_angle_gamma   100.57500000
_symmetry_Int_Tables_number   1
_chemical_formula_structural   CoHC3N3Cl
_chemical_formula_sum   'Co6 H6 C18 N18 Cl6'
_cell_volume   1435.66435234
_cell_formula_units_Z   6
loop_
 _symmetry_equiv_pos_site_id
 _symmetry_equiv_pos_as_xyz
  1  'x, y, z'
loop_
 _atom_site_type_symbol
 _atom_site_label
 _atom_site_symmetry_multiplicity
 _atom_site_fract_x
 _atom_site_fract_y
 _atom_site_fract_z
 _atom_site_occupancy
  Co  Co0  1  0.28978000  0.58326000  0.28935000  1.0
  Co  Co1  1  0.70669000  0.70628000  0.41670000  1.0
  Co  Co2  1  0.00024000  0.71057000  0.29373000  1.0
  Co  Co3  1  0.70670000  0.41670000  0.70626000  1.0
  Co  Co4  1  0.28973000  0.28935000  0.58316000  1.0
  Co  Co5  1  0.00027000  0.29377000  0.71054000  1.0
  H  H6  1  0.18603000  0.99996000  0.42376000  1.0
  H  H7  1  0.81390000  0.57627000  0.99994000  1.0
  H  H8  1  0.18588000  0.42365000  0.99987000  1.0
  H  H9  1  0.76253000  0.57639000  0.57633000  1.0
  H  H10  1  0.23760000  0.42371000  0.42370000  1.0
  H  H11  1  0.81396000  0.99997000  0.57643000  1.0
  C  C12  1  0.36506000  0.90579000  0.43112000  1.0
  C  C13  1  0.63496000  0.56816000  0.09401000  1.0
  C  C14  1  0.45909000  0.52512000  0.09407000  1.0
  C  C15  1  0.93424000  0.56911000  0.47488000  1.0
  C  C16  1  0.06693000  0.52592000  0.43177000  1.0
  C  C17  1  0.54099000  0.90589000  0.47424000  1.0
  C  C18  1  0.63507000  0.09405000  0.56833000  1.0
  C  C19  1  0.36496000  0.43099000  0.90573000  1.0
  C  C20  1  0.54091000  0.47411000  0.90585000  1.0
  C  C21  1  0.06695000  0.43186000  0.52594000  1.0
  C  C22  1  0.93426000  0.47497000  0.56913000  1.0
  C  C23  1  0.45921000  0.09411000  0.52528000  1.0
  C  C24  1  0.31937000  0.99995000  0.45528000  1.0
  C  C25  1  0.68060000  0.54444000  0.99994000  1.0
  C  C26  1  0.31926000  0.45514000  0.99989000  1.0
  C  C27  1  0.86451000  0.54497000  0.54493000  1.0
  C  C28  1  0.13616000  0.45556000  0.45553000  1.0
  C  C29  1  0.68069000  0.99998000  0.54459000  1.0
  N  N30  1  0.26395000  0.79968000  0.36650000  1.0
  N  N31  1  0.73604000  0.63307000  0.20010000  1.0
  N  N32  1  0.46411000  0.56665000  0.20022000  1.0
  N  N33  1  0.89765000  0.63366000  0.43329000  1.0
  N  N34  1  0.10303000  0.56703000  0.36678000  1.0
  N  N35  1  0.53604000  0.79982000  0.43298000  1.0
  N  N36  1  0.73614000  0.20014000  0.63322000  1.0
  N  N37  1  0.26388000  0.36640000  0.79960000  1.0
  N  N38  1  0.53597000  0.43291000  0.79976000  1.0
  N  N39  1  0.10307000  0.36692000  0.56708000  1.0
  N  N40  1  0.89770000  0.43342000  0.63373000  1.0
  N  N41  1  0.46420000  0.20023000  0.56680000  1.0
  N  N42  1  0.37145000  0.74141000  0.37065000  1.0
  N  N43  1  0.62987000  0.62915000  0.25851000  1.0
  N  N44  1  0.00080000  0.62937000  0.37073000  1.0
  N  N45  1  0.62995000  0.25853000  0.62929000  1.0
  N  N46  1  0.37139000  0.37059000  0.74133000  1.0
  N  N47  1  0.00087000  0.37087000  0.62945000  1.0
  Cl  Cl48  1  0.07636000  0.57753000  0.15269000  1.0
  Cl  Cl49  1  0.92332000  0.84735000  0.42420000  1.0
  Cl  Cl50  1  0.49917000  0.57574000  0.42295000  1.0
  Cl  Cl51  1  0.92335000  0.42424000  0.84737000  1.0
  Cl  Cl52  1  0.07603000  0.15270000  0.57711000  1.0
  Cl  Cl53  1  0.49911000  0.42258000  0.57540000  1.0
