# generated using pymatgen
data_ZnH3C16Br3NO7
_symmetry_space_group_name_H-M   'P 1'
_cell_length_a   10.21680000
_cell_length_b   10.89720000
_cell_length_c   11.62140000
_cell_angle_alpha   86.48270000
_cell_angle_beta   85.22330000
_cell_angle_gamma   76.82530000
_symmetry_Int_Tables_number   1
_chemical_formula_structural   ZnH3C16Br3NO7
_chemical_formula_sum   'Zn2 H6 C32 Br6 N2 O14'
_cell_volume   1254.23488931
_cell_formula_units_Z   2
loop_
 _symmetry_equiv_pos_site_id
 _symmetry_equiv_pos_as_xyz
  1  'x, y, z'
loop_
 _atom_site_type_symbol
 _atom_site_label
 _atom_site_symmetry_multiplicity
 _atom_site_fract_x
 _atom_site_fract_y
 _atom_site_fract_z
 _atom_site_occupancy
  Zn  Zn0  1  0.64066000  0.47154000  0.47936000  1.0
  Zn  Zn1  1  0.34006000  0.53311000  0.49026000  1.0
  H  H2  1  0.30247000  0.18758000  0.62631000  1.0
  H  H3  1  0.82721000  0.23403000  0.97278000  1.0
  H  H4  1  0.70877000  0.27830000  0.63394000  1.0
  H  H5  1  0.78148000  0.47559000  0.31117000  1.0
  H  H6  1  0.34205000  0.81079000  0.59017000  1.0
  H  H7  1  0.30682000  0.37560000  0.65172000  1.0
  C  C8  1  0.53620000  0.25889000  0.46062000  1.0
  C  C9  1  0.51575000  0.87360000  0.41030000  1.0
  C  C10  1  0.10988000  0.40127000  0.74306000  1.0
  C  C11  1  0.46083000  0.54914000  0.69818000  1.0
  C  C12  1  0.02838000  0.37839000  0.84083000  1.0
  C  C13  1  0.89715000  0.36070000  0.83079000  1.0
  C  C14  1  0.84659000  0.36607000  0.72279000  1.0
  C  C15  1  0.91400000  0.41687000  0.62466000  1.0
  C  C16  1  0.04588000  0.43902000  0.63719000  1.0
  C  C17  1  0.03395000  0.55118000  0.46303000  1.0
  C  C18  1  0.92260000  0.50211000  0.43678000  1.0
  C  C19  1  0.82696000  0.00327000  0.21260000  1.0
  C  C20  1  0.51945000  0.73344000  0.42918000  1.0
  C  C21  1  0.43405000  0.50231000  0.27106000  1.0
  C  C22  1  0.45475000  0.56042000  0.82056000  1.0
  C  C23  1  0.44736000  0.55028000  0.92618000  1.0
  C  C24  1  0.43952000  0.53452000  0.04212000  1.0
  C  C25  1  0.43370000  0.51685000  0.14722000  1.0
  C  C26  1  0.72531000  0.09197000  0.26953000  1.0
  C  C27  1  0.29505000  0.17234000  0.53377000  1.0
  C  C28  1  0.81330000  0.33322000  0.93918000  1.0
  C  C29  1  0.73393000  0.30173000  0.71925000  1.0
  C  C30  1  0.80481000  0.88314000  0.19228000  1.0
  C  C31  1  0.88059000  0.50066000  0.31719000  1.0
  C  C32  1  0.32674000  0.91285000  0.56862000  1.0
  C  C33  1  0.25866000  0.37509000  0.74013000  1.0
  C  C34  1  0.68923000  0.85001000  0.24346000  1.0
  C  C35  1  0.60922000  0.92292000  0.33310000  1.0
  C  C36  1  0.62178000  0.05251000  0.34308000  1.0
  C  C37  1  0.52482000  0.13249000  0.42026000  1.0
  C  C38  1  0.41703000  0.08704000  0.47390000  1.0
  C  C39  1  0.41947000  0.95591000  0.47814000  1.0
  Br  Br40  1  0.71330000  0.26068000  0.21582000  1.0
  Br  Br41  1  0.98593000  0.04902000  0.14808000  1.0
  Br  Br42  1  0.91916000  0.78034000  0.08344000  1.0
  Br  Br43  1  0.62574000  0.72214000  0.17864000  1.0
  Br  Br44  1  0.06840000  0.69583000  0.38057000  1.0
  Br  Br45  1  0.08926000  0.36331000  0.99086000  1.0
  N  N46  1  0.10270000  0.50923000  0.55374000  1.0
  N  N47  1  0.85924000  0.44339000  0.52041000  1.0
  O  O48  1  0.65242000  0.28355000  0.46406000  1.0
  O  O49  1  0.74719000  0.42254000  0.99290000  1.0
  O  O50  1  0.68095000  0.26361000  0.80917000  1.0
  O  O51  1  0.95294000  0.51553000  0.23131000  1.0
  O  O52  1  0.23787000  0.98810000  0.62236000  1.0
  O  O53  1  0.32708000  0.34406000  0.82319000  1.0
  O  O54  1  0.42756000  0.33275000  0.49798000  1.0
  O  O55  1  0.57529000  0.50364000  0.64731000  1.0
  O  O56  1  0.34886000  0.58221000  0.64963000  1.0
  O  O57  1  0.63301000  0.66043000  0.44980000  1.0
  O  O58  1  0.40717000  0.70224000  0.43167000  1.0
  O  O59  1  0.54586000  0.49123000  0.31488000  1.0
  O  O60  1  0.32018000  0.50451000  0.32726000  1.0
  O  O61  1  0.19632000  0.22189000  0.48085000  1.0
