# generated using pymatgen
data_PrP2H11C8O7
_symmetry_space_group_name_H-M   'P 1'
_cell_length_a   5.62257000
_cell_length_b   9.51066000
_cell_length_c   11.58840000
_cell_angle_alpha   73.63870000
_cell_angle_beta   81.20150000
_cell_angle_gamma   79.92330000
_symmetry_Int_Tables_number   1
_chemical_formula_structural   PrP2H11C8O7
_chemical_formula_sum   'Pr2 P4 H22 C16 O14'
_cell_volume   581.88013526
_cell_formula_units_Z   2
loop_
 _symmetry_equiv_pos_site_id
 _symmetry_equiv_pos_as_xyz
  1  'x, y, z'
loop_
 _atom_site_type_symbol
 _atom_site_label
 _atom_site_symmetry_multiplicity
 _atom_site_fract_x
 _atom_site_fract_y
 _atom_site_fract_z
 _atom_site_occupancy
  Pr  Pr0  1  0.13828000  0.18675000  0.99449000  1.0
  Pr  Pr1  1  0.86173000  0.81325000  0.00551000  1.0
  P  P2  1  0.79925000  0.54668000  0.83059000  1.0
  P  P3  1  0.20076000  0.45332000  0.16941000  1.0
  P  P4  1  0.32601000  0.88485000  0.17951000  1.0
  P  P5  1  0.67399000  0.11515000  0.82049000  1.0
  H  H6  1  0.66666667  0.31339000  0.13747000  1.0
  H  H7  1  0.33333333  0.68661000  0.86252000  1.0
  H  H8  1  0.63790000  0.14811000  0.14300000  1.0
  H  H9  1  0.36210000  0.85189000  0.85700000  1.0
  H  H10  1  0.51607000  0.41638000  0.82740000  1.0
  H  H11  1  0.48394000  0.58361000  0.17259000  1.0
  H  H12  1  0.80638000  0.76167000  0.66375000  1.0
  H  H13  1  0.19362000  0.23832000  0.33626000  1.0
  H  H14  1  0.09856000  0.68132000  0.70616000  1.0
  H  H15  1  0.90145000  0.31868000  0.29385000  1.0
  H  H16  1  0.61447000  0.66340000  0.52996000  1.0
  H  H17  1  0.38553000  0.33660000  0.47004000  1.0
  H  H18  1  0.32503000  0.46845000  0.63211000  1.0
  H  H19  1  0.67497000  0.53155000  0.36789000  1.0
  H  H20  1  0.16283000  0.72236000  0.35346000  1.0
  H  H21  1  0.83714000  0.27765000  0.64654000  1.0
  H  H22  1  0.43931000  0.77062000  0.37310000  1.0
  H  H23  1  0.56067000  0.22937000  0.62691000  1.0
  H  H24  1  0.42339000  0.88352000  0.52611000  1.0
  H  H25  1  0.57660000  0.11649000  0.47388000  1.0
  H  H26  1  0.79266000  0.97040000  0.33524000  1.0
  H  H27  1  0.20733000  0.02960000  0.66476000  1.0
  C  C28  1  0.92704000  0.65614000  0.68780000  1.0
  C  C29  1  0.07296000  0.34386000  0.31220000  1.0
  C  C30  1  0.96663000  0.57714000  0.59024000  1.0
  C  C31  1  0.03337000  0.42287000  0.40976000  1.0
  C  C32  1  0.78486000  0.59248000  0.51573000  1.0
  C  C33  1  0.21515000  0.40752000  0.48427000  1.0
  C  C34  1  0.18265000  0.48263000  0.57397000  1.0
  C  C35  1  0.81736000  0.51738000  0.42603000  1.0
  C  C36  1  0.25977000  0.81739000  0.34254000  1.0
  C  C37  1  0.74022000  0.18261000  0.65746000  1.0
  C  C38  1  0.12577000  0.91576000  0.41981000  1.0
  C  C39  1  0.87422000  0.08425000  0.58018000  1.0
  C  C40  1  0.23683000  0.93510000  0.51374000  1.0
  C  C41  1  0.76316000  0.06490000  0.48626000  1.0
  C  C42  1  0.88501000  0.98204000  0.40758000  1.0
  C  C43  1  0.11498000  0.01797000  0.59241000  1.0
  O  O44  1  0.75909000  0.21659000  0.13336000  1.0
  O  O45  1  0.24092000  0.78341000  0.86664000  1.0
  O  O46  1  0.95288000  0.39647000  0.86229000  1.0
  O  O47  1  0.04712000  0.60353000  0.13772000  1.0
  O  O48  1  0.53333000  0.52561000  0.80941000  1.0
  O  O49  1  0.46667000  0.47439000  0.19059000  1.0
  O  O50  1  0.76606000  0.63866000  0.92116000  1.0
  O  O51  1  0.23395000  0.36134000  0.07885000  1.0
  O  O52  1  0.08783000  0.92380000  0.11658000  1.0
  O  O53  1  0.91218000  0.07620000  0.88342000  1.0
  O  O54  1  0.44677000  0.02770000  0.13860000  1.0
  O  O55  1  0.55322000  0.97230000  0.86140000  1.0
  O  O56  1  0.50231000  0.75627000  0.14366000  1.0
  O  O57  1  0.49770000  0.24373000  0.85634000  1.0
