# generated using pymatgen
data_CdH4C6N5Cl
_symmetry_space_group_name_H-M   'P 1'
_cell_length_a   8.04508000
_cell_length_b   9.32365000
_cell_length_c   10.63750000
_cell_angle_alpha   81.58390000
_cell_angle_beta   88.25730000
_cell_angle_gamma   89.42520000
_symmetry_Int_Tables_number   1
_chemical_formula_structural   CdH4C6N5Cl
_chemical_formula_sum   'Cd4 H16 C24 N20 Cl4'
_cell_volume   788.94347780
_cell_formula_units_Z   4
loop_
 _symmetry_equiv_pos_site_id
 _symmetry_equiv_pos_as_xyz
  1  'x, y, z'
loop_
 _atom_site_type_symbol
 _atom_site_label
 _atom_site_symmetry_multiplicity
 _atom_site_fract_x
 _atom_site_fract_y
 _atom_site_fract_z
 _atom_site_occupancy
  Cd  Cd0  1  0.21248000  0.75917000  0.21229000  1.0
  Cd  Cd1  1  0.78752000  0.24083000  0.78771000  1.0
  Cd  Cd2  1  0.00000000  0.50000000  0.50000000  1.0
  Cd  Cd3  1  0.50000000  0.50000000  0.00000000  1.0
  H  H4  1  0.54570000  0.36871000  0.56520000  1.0
  H  H5  1  0.45430000  0.63129000  0.43480000  1.0
  H  H6  1  0.01549000  0.99487000  0.33314000  1.0
  H  H7  1  0.98451000  0.00513000  0.66686000  1.0
  H  H8  1  0.24766000  0.03620000  0.97709000  1.0
  H  H9  1  0.75233000  0.96380000  0.02291000  1.0
  H  H10  1  0.21732000  0.03479000  0.48113000  1.0
  H  H11  1  0.78267000  0.96521000  0.51887000  1.0
  H  H12  1  0.99808000  0.40935000  0.09438000  1.0
  H  H13  1  0.00192000  0.59065000  0.90562000  1.0
  H  H14  1  0.51632000  0.98175000  0.81358000  1.0
  H  H15  1  0.48368000  0.01825000  0.18642000  1.0
  H  H16  1  0.92447000  0.25480000  0.30164000  1.0
  H  H17  1  0.07554000  0.74520000  0.69836000  1.0
  H  H18  1  0.31271000  0.88149000  0.68085000  1.0
  H  H19  1  0.68729000  0.11851000  0.31915000  1.0
  C  C20  1  0.33652000  0.31262000  0.39080000  1.0
  C  C21  1  0.66348000  0.68738000  0.60920000  1.0
  C  C22  1  0.37141000  0.21584000  0.50942000  1.0
  C  C23  1  0.62859000  0.78417000  0.49058000  1.0
  C  C24  1  0.48727000  0.26293000  0.58958000  1.0
  C  C25  1  0.51273000  0.73707000  0.41042000  1.0
  C  C26  1  0.04671000  0.06709000  0.24560000  1.0
  C  C27  1  0.95329000  0.93291000  0.75440000  1.0
  C  C28  1  0.17629000  0.08940000  0.04615000  1.0
  C  C29  1  0.82371000  0.91060000  0.95385000  1.0
  C  C30  1  0.30519000  0.07690000  0.54222000  1.0
  C  C31  1  0.69481000  0.92310000  0.45778000  1.0
  C  C32  1  0.16416000  0.32424000  0.89631000  1.0
  C  C33  1  0.83583000  0.67576000  0.10369000  1.0
  C  C34  1  0.12908000  0.23511000  0.01997000  1.0
  C  C35  1  0.87091000  0.76489000  0.98003000  1.0
  C  C36  1  0.03745000  0.29640000  0.11278000  1.0
  C  C37  1  0.96254000  0.70360000  0.88721000  1.0
  C  C38  1  0.47194000  0.04732000  0.72768000  1.0
  C  C39  1  0.52806000  0.95268000  0.27232000  1.0
  C  C40  1  0.99611000  0.21132000  0.22732000  1.0
  C  C41  1  0.00389000  0.78868000  0.77268000  1.0
  C  C42  1  0.35625000  0.99191000  0.65315000  1.0
  C  C43  1  0.64375000  0.00809000  0.34685000  1.0
  N  N44  1  0.24726000  0.43681000  0.38467000  1.0
  N  N45  1  0.75274000  0.56319000  0.61533000  1.0
  N  N46  1  0.26845000  0.50276000  0.26478000  1.0
  N  N47  1  0.73155000  0.49724000  0.73522000  1.0
  N  N48  1  0.36520000  0.42079000  0.20167000  1.0
  N  N49  1  0.63480000  0.57921000  0.79833000  1.0
  N  N50  1  0.40964000  0.30051000  0.27735000  1.0
  N  N51  1  0.59036000  0.69949000  0.72265000  1.0
  N  N52  1  0.13528000  0.00702000  0.15714000  1.0
  N  N53  1  0.86472000  0.99298000  0.84286000  1.0
  N  N54  1  0.53723000  0.18041000  0.69595000  1.0
  N  N55  1  0.46277000  0.81959000  0.30405000  1.0
  N  N56  1  0.06430000  0.32893000  0.79708000  1.0
  N  N57  1  0.93570000  0.67107000  0.20292000  1.0
  N  N58  1  0.26377000  0.48619000  0.74847000  1.0
  N  N59  1  0.73623000  0.51381000  0.25153000  1.0
  N  N60  1  0.28776000  0.42128000  0.86833000  1.0
  N  N61  1  0.71224000  0.57872000  0.13166000  1.0
  N  N62  1  0.13031000  0.43106000  0.70670000  1.0
  N  N63  1  0.86969000  0.56894000  0.29330000  1.0
  Cl  Cl64  1  0.10625000  0.76281000  0.46179000  1.0
  Cl  Cl65  1  0.89375000  0.23719000  0.53821000  1.0
  Cl  Cl66  1  0.35035000  0.75494000  0.99007000  1.0
  Cl  Cl67  1  0.64965000  0.24505000  0.00993000  1.0
