# generated using pymatgen
data_ZnH12C16NO6
_symmetry_space_group_name_H-M   'P 1'
_cell_length_a   9.40636000
_cell_length_b   9.54146000
_cell_length_c   10.18330000
_cell_angle_alpha   64.87110000
_cell_angle_beta   71.20150000
_cell_angle_gamma   86.72350000
_symmetry_Int_Tables_number   1
_chemical_formula_structural   ZnH12C16NO6
_chemical_formula_sum   'Zn2 H24 C32 N2 O12'
_cell_volume   779.92234930
_cell_formula_units_Z   2
loop_
 _symmetry_equiv_pos_site_id
 _symmetry_equiv_pos_as_xyz
  1  'x, y, z'
loop_
 _atom_site_type_symbol
 _atom_site_label
 _atom_site_symmetry_multiplicity
 _atom_site_fract_x
 _atom_site_fract_y
 _atom_site_fract_z
 _atom_site_occupancy
  Zn  Zn0  1  0.86946000  0.10939000  0.59000000  1.0
  Zn  Zn1  1  0.13054000  0.89061000  0.41001000  1.0
  H  H2  1  0.83605000  0.82177000  0.10341000  1.0
  H  H3  1  0.16395000  0.17824000  0.89659000  1.0
  H  H4  1  0.65958000  0.86996000  0.07677000  1.0
  H  H5  1  0.34042000  0.13004000  0.92323000  1.0
  H  H6  1  0.37710000  0.40168000  0.70639000  1.0
  H  H7  1  0.62290000  0.59832000  0.29361000  1.0
  H  H8  1  0.84031000  0.56933000  0.57103000  1.0
  H  H9  1  0.15970000  0.43066000  0.42897000  1.0
  H  H10  1  0.49391000  0.88478000  0.57070000  1.0
  H  H11  1  0.50610000  0.11523000  0.42929000  1.0
  H  H12  1  0.88290000  0.28916000  0.01104000  1.0
  H  H13  1  0.11710000  0.71085000  0.98895000  1.0
  H  H14  1  0.68405000  0.93742000  0.27464000  1.0
  H  H15  1  0.31595000  0.06259000  0.72536000  1.0
  H  H16  1  0.86323000  0.04199000  0.15538000  1.0
  H  H17  1  0.13677000  0.95802000  0.84462000  1.0
  H  H18  1  0.33741000  0.26501000  0.10443000  1.0
  H  H19  1  0.66258000  0.73498000  0.89557000  1.0
  H  H20  1  0.47135000  0.03064000  0.17579000  1.0
  H  H21  1  0.52865000  0.96936000  0.82421000  1.0
  H  H22  1  0.30173000  0.67062000  0.65088000  1.0
  H  H23  1  0.69828000  0.32938000  0.34911000  1.0
  H  H24  1  0.76666000  0.53914000  0.93220000  1.0
  H  H25  1  0.23333000  0.46087000  0.06779000  1.0
  C  C26  1  0.79377000  0.85998000  0.54239000  1.0
  C  C27  1  0.20624000  0.14001000  0.45761000  1.0
  C  C28  1  0.67873000  0.73918000  0.57189000  1.0
  C  C29  1  0.32128000  0.26082000  0.42811000  1.0
  C  C30  1  0.85301000  0.01410000  0.88878000  1.0
  C  C31  1  0.14699000  0.98590000  0.11122000  1.0
  C  C32  1  0.77029000  0.91959000  0.05919000  1.0
  C  C33  1  0.22970000  0.08041000  0.94081000  1.0
  C  C34  1  0.61354000  0.46925000  0.64001000  1.0
  C  C35  1  0.38646000  0.53074000  0.35999000  1.0
  C  C36  1  0.46124000  0.49728000  0.66730000  1.0
  C  C37  1  0.53876000  0.50272000  0.33270000  1.0
  C  C38  1  0.53822000  0.42771000  0.01704000  1.0
  C  C39  1  0.46178000  0.57229000  0.98296000  1.0
  C  C40  1  0.72191000  0.59062000  0.59145000  1.0
  C  C41  1  0.27809000  0.40937000  0.40855000  1.0
  C  C42  1  0.52711000  0.76832000  0.59043000  1.0
  C  C43  1  0.47290000  0.23168000  0.40956000  1.0
  C  C44  1  0.76266000  0.29364000  0.03048000  1.0
  C  C45  1  0.23734000  0.70637000  0.96951000  1.0
  C  C46  1  0.75375000  0.00917000  0.15547000  1.0
  C  C47  1  0.24625000  0.99084000  0.84453000  1.0
  C  C48  1  0.66152000  0.31032000  0.66143000  1.0
  C  C49  1  0.33848000  0.68967000  0.33857000  1.0
  C  C50  1  0.45811000  0.28164000  0.08108000  1.0
  C  C51  1  0.54188000  0.71836000  0.91892000  1.0
  C  C52  1  0.53050000  0.14698000  0.12245000  1.0
  C  C53  1  0.46949000  0.85302000  0.87755000  1.0
  C  C54  1  0.41891000  0.64753000  0.63811000  1.0
  C  C55  1  0.58109000  0.35247000  0.36189000  1.0
  C  C56  1  0.69504000  0.43061000  0.98778000  1.0
  C  C57  1  0.30495000  0.56939000  0.01222000  1.0
  N  N58  1  0.67972000  0.15452000  0.10100000  1.0
  N  N59  1  0.32028000  0.84548000  0.89900000  1.0
  O  O60  1  0.78986000  0.30999000  0.56405000  1.0
  O  O61  1  0.21014000  0.69000000  0.43595000  1.0
  O  O62  1  0.92180000  0.81532000  0.55209000  1.0
  O  O63  1  0.07820000  0.18466000  0.44792000  1.0
  O  O64  1  0.75563000  0.99761000  0.51818000  1.0
  O  O65  1  0.24438000  0.00238000  0.48182000  1.0
  O  O66  1  0.83935000  0.95089000  0.80189000  1.0
  O  O67  1  0.16065000  0.04911000  0.19811000  1.0
  O  O68  1  0.92657000  0.14102000  0.84072000  1.0
  O  O69  1  0.07343000  0.85898000  0.15928000  1.0
  O  O70  1  0.57783000  0.19231000  0.76725000  1.0
  O  O71  1  0.42216000  0.80769000  0.23275000  1.0
