# generated using pymatgen
data_ErH8C6NO7
_symmetry_space_group_name_H-M   'P 1'
_cell_length_a   6.55833000
_cell_length_b   6.75065000
_cell_length_c   19.40510000
_cell_angle_alpha   93.34410000
_cell_angle_beta   90.00000000
_cell_angle_gamma   89.99990000
_symmetry_Int_Tables_number   1
_chemical_formula_structural   ErH8C6NO7
_chemical_formula_sum   'Er4 H32 C24 N4 O28'
_cell_volume   857.65890608
_cell_formula_units_Z   4
loop_
 _symmetry_equiv_pos_site_id
 _symmetry_equiv_pos_as_xyz
  1  'x, y, z'
loop_
 _atom_site_type_symbol
 _atom_site_label
 _atom_site_symmetry_multiplicity
 _atom_site_fract_x
 _atom_site_fract_y
 _atom_site_fract_z
 _atom_site_occupancy
  Er  Er0  1  0.75683000  0.76660000  0.89789000  1.0
  Er  Er1  1  0.74317000  0.26657000  0.39790000  1.0
  Er  Er2  1  0.24316000  0.23341000  0.10211000  1.0
  Er  Er3  1  0.25684000  0.73342000  0.60210000  1.0
  H  H4  1  0.70536000  0.95483000  0.03291000  1.0
  H  H5  1  0.79466000  0.45484000  0.53291000  1.0
  H  H6  1  0.29464000  0.04518000  0.96709000  1.0
  H  H7  1  0.20536000  0.54515000  0.46709000  1.0
  H  H8  1  0.92067000  0.85107000  0.03768000  1.0
  H  H9  1  0.57934000  0.35109000  0.53768000  1.0
  H  H10  1  0.07932000  0.14893000  0.96232000  1.0
  H  H11  1  0.42068000  0.64891000  0.46232000  1.0
  H  H12  1  0.68130000  0.27178000  0.79363000  1.0
  H  H13  1  0.81872000  0.77175000  0.29364000  1.0
  H  H14  1  0.31869000  0.72822000  0.20637000  1.0
  H  H15  1  0.18129000  0.22824000  0.70636000  1.0
  H  H16  1  0.48137000  0.18868000  0.84426000  1.0
  H  H17  1  0.01865000  0.68865000  0.34427000  1.0
  H  H18  1  0.51863000  0.81133000  0.15574000  1.0
  H  H19  1  0.98135000  0.31134000  0.65573000  1.0
  H  H20  1  0.32371000  0.49584000  0.74899000  1.0
  H  H21  1  0.17629000  0.99583000  0.24899000  1.0
  H  H22  1  0.67628000  0.50417000  0.25101000  1.0
  H  H23  1  0.82372000  0.00417000  0.75101000  1.0
  H  H24  1  0.59115000  0.49200000  0.73536000  1.0
  H  H25  1  0.90885000  0.99198000  0.23536000  1.0
  H  H26  1  0.40884000  0.50801000  0.26465000  1.0
  H  H27  1  0.09116000  0.00801000  0.76464000  1.0
  H  H28  1  0.33168000  0.41717000  0.92493000  1.0
  H  H29  1  0.16835000  0.91713000  0.42493000  1.0
  H  H30  1  0.66831000  0.58285000  0.07507000  1.0
  H  H31  1  0.83167000  0.08286000  0.57507000  1.0
  H  H32  1  0.18621000  0.46576000  0.85092000  1.0
  H  H33  1  0.31380000  0.96574000  0.35093000  1.0
  H  H34  1  0.81378000  0.53424000  0.14908000  1.0
  H  H35  1  0.68621000  0.03425000  0.64907000  1.0
  C  C36  1  0.59746000  0.30509000  0.84190000  1.0
  C  C37  1  0.90255000  0.80505000  0.34191000  1.0
  C  C38  1  0.40253000  0.69492000  0.15810000  1.0
  C  C39  1  0.09746000  0.19494000  0.65809000  1.0
  C  C40  1  0.75254000  0.28799000  0.89949000  1.0
  C  C41  1  0.74747000  0.78796000  0.39950000  1.0
  C  C42  1  0.24745000  0.71202000  0.10051000  1.0
  C  C43  1  0.25254000  0.21203000  0.60050000  1.0
  C  C44  1  0.46988000  0.55552000  0.76891000  1.0
  C  C45  1  0.03012000  0.05550000  0.26891000  1.0
  C  C46  1  0.53011000  0.44450000  0.23110000  1.0
  C  C47  1  0.96989000  0.94450000  0.73109000  1.0
  C  C48  1  0.47693000  0.77786000  0.76042000  1.0
  C  C49  1  0.02307000  0.27783000  0.26042000  1.0
  C  C50  1  0.52307000  0.22215000  0.23958000  1.0
  C  C51  1  0.97693000  0.72217000  0.73958000  1.0
  C  C52  1  0.31903000  0.51609000  0.88189000  1.0
  C  C53  1  0.18098000  0.01606000  0.38189000  1.0
  C  C54  1  0.68096000  0.48392000  0.11811000  1.0
  C  C55  1  0.81903000  0.98393000  0.61810000  1.0
  C  C56  1  0.27740000  0.72088000  0.91526000  1.0
  C  C57  1  0.22262000  0.22084000  0.41527000  1.0
  C  C58  1  0.72259000  0.27913000  0.08474000  1.0
  C  C59  1  0.77739000  0.77914000  0.58473000  1.0
  N  N60  1  0.50910000  0.50498000  0.84052000  1.0
  N  N61  1  0.99091000  0.00495000  0.34053000  1.0
  N  N62  1  0.49089000  0.49503000  0.15948000  1.0
  N  N63  1  0.00910000  0.99504000  0.65947000  1.0
  O  O64  1  0.81013000  0.44687000  0.93197000  1.0
  O  O65  1  0.68988000  0.94684000  0.43198000  1.0
  O  O66  1  0.18987000  0.55314000  0.06803000  1.0
  O  O67  1  0.31013000  0.05315000  0.56802000  1.0
  O  O68  1  0.82431000  0.11644000  0.90981000  1.0
  O  O69  1  0.67570000  0.61641000  0.40982000  1.0
  O  O70  1  0.17569000  0.88357000  0.09019000  1.0
  O  O71  1  0.32430000  0.38358000  0.59018000  1.0
  O  O72  1  0.55639000  0.88621000  0.80870000  1.0
  O  O73  1  0.94360000  0.38618000  0.30871000  1.0
  O  O74  1  0.44361000  0.11381000  0.19130000  1.0
  O  O75  1  0.05641000  0.61381000  0.69129000  1.0
  O  O76  1  0.41138000  0.84330000  0.70455000  1.0
  O  O77  1  0.08860000  0.34328000  0.20456000  1.0
  O  O78  1  0.58861000  0.15671000  0.29545000  1.0
  O  O79  1  0.91139000  0.65672000  0.79544000  1.0
  O  O80  1  0.09772000  0.78569000  0.91919000  1.0
  O  O81  1  0.40229000  0.28566000  0.41920000  1.0
  O  O82  1  0.90227000  0.21432000  0.08080000  1.0
  O  O83  1  0.59772000  0.71433000  0.58080000  1.0
  O  O84  1  0.42961000  0.81936000  0.94076000  1.0
  O  O85  1  0.07041000  0.31934000  0.44077000  1.0
  O  O86  1  0.57038000  0.18065000  0.05924000  1.0
  O  O87  1  0.92960000  0.68065000  0.55923000  1.0
  O  O88  1  0.78213000  0.83271000  0.01793000  1.0
  O  O89  1  0.71788000  0.33272000  0.51794000  1.0
  O  O90  1  0.21786000  0.16729000  0.98207000  1.0
  O  O91  1  0.28213000  0.66727000  0.48206000  1.0
