# generated using pymatgen
data_CuH6C4O5
_symmetry_space_group_name_H-M   'P 1'
_cell_length_a   6.57224000
_cell_length_b   8.73642000
_cell_length_c   11.60220000
_cell_angle_alpha   79.19280000
_cell_angle_beta   85.39010000
_cell_angle_gamma   69.61020000
_symmetry_Int_Tables_number   1
_chemical_formula_structural   CuH6C4O5
_chemical_formula_sum   'Cu4 H24 C16 O20'
_cell_volume   613.27660700
_cell_formula_units_Z   4
loop_
 _symmetry_equiv_pos_site_id
 _symmetry_equiv_pos_as_xyz
  1  'x, y, z'
loop_
 _atom_site_type_symbol
 _atom_site_label
 _atom_site_symmetry_multiplicity
 _atom_site_fract_x
 _atom_site_fract_y
 _atom_site_fract_z
 _atom_site_occupancy
  Cu  Cu0  1  0.13326000  0.36468000  0.47458000  1.0
  Cu  Cu1  1  0.86673000  0.63531000  0.52542000  1.0
  Cu  Cu2  1  0.85191000  0.14153000  0.97193000  1.0
  Cu  Cu3  1  0.14809000  0.85848000  0.02808000  1.0
  H  H4  1  0.27883000  0.73371000  0.29606000  1.0
  H  H5  1  0.72119000  0.26626000  0.70394000  1.0
  H  H6  1  0.65526000  0.52387000  0.26073000  1.0
  H  H7  1  0.34475000  0.47612000  0.73927000  1.0
  H  H8  1  0.61587000  0.22518000  0.40119000  1.0
  H  H9  1  0.38414000  0.77483000  0.59880000  1.0
  H  H10  1  0.68598000  0.02476000  0.36006000  1.0
  H  H11  1  0.31404000  0.97524000  0.63992000  1.0
  H  H12  1  0.40649000  0.89479000  0.38997000  1.0
  H  H13  1  0.59354000  0.10520000  0.61001000  1.0
  H  H14  1  0.14839000  0.00903000  0.44779000  1.0
  H  H15  1  0.85163000  0.99097000  0.55219000  1.0
  H  H16  1  0.17179000  0.15867000  0.23155000  1.0
  H  H17  1  0.82821000  0.84135000  0.76846000  1.0
  H  H18  1  0.62835000  0.86073000  0.20717000  1.0
  H  H19  1  0.37166000  0.13926000  0.79284000  1.0
  H  H20  1  0.35347000  0.28382000  0.99851000  1.0
  H  H21  1  0.64651000  0.71619000  0.00148000  1.0
  H  H22  1  0.23806000  0.49725000  0.93074000  1.0
  H  H23  1  0.76192000  0.50276000  0.06925000  1.0
  H  H24  1  0.49278000  0.63779000  0.84433000  1.0
  H  H25  1  0.50719000  0.36222000  0.15566000  1.0
  H  H26  1  0.77649000  0.51887000  0.85350000  1.0
  H  H27  1  0.22349000  0.48114000  0.14649000  1.0
  C  C28  1  0.19612000  0.66336000  0.35978000  1.0
  C  C29  1  0.80390000  0.33661000  0.64022000  1.0
  C  C30  1  0.76178000  0.51495000  0.33253000  1.0
  C  C31  1  0.23823000  0.48505000  0.66747000  1.0
  C  C32  1  0.59667000  0.10334000  0.42446000  1.0
  C  C33  1  0.40337000  0.89665000  0.57554000  1.0
  C  C34  1  0.32424000  0.97808000  0.45259000  1.0
  C  C35  1  0.67577000  0.02190000  0.54742000  1.0
  C  C36  1  0.12019000  0.11067000  0.16148000  1.0
  C  C37  1  0.87982000  0.88934000  0.83853000  1.0
  C  C38  1  0.74311000  0.90131000  0.14475000  1.0
  C  C39  1  0.25689000  0.09870000  0.85526000  1.0
  C  C40  1  0.37260000  0.40551000  0.98377000  1.0
  C  C41  1  0.62738000  0.59450000  0.01623000  1.0
  C  C42  1  0.61975000  0.54178000  0.90016000  1.0
  C  C43  1  0.38024000  0.45823000  0.09983000  1.0
  O  O44  1  0.27272000  0.50678000  0.36837000  1.0
  O  O45  1  0.72728000  0.49320000  0.63163000  1.0
  O  O46  1  0.93228000  0.38816000  0.34683000  1.0
  O  O47  1  0.06772000  0.61183000  0.65318000  1.0
  O  O48  1  0.36736000  0.13180000  0.41736000  1.0
  O  O49  1  0.63262000  0.86823000  0.58262000  1.0
  O  O50  1  0.96452000  0.24984000  0.58510000  1.0
  O  O51  1  0.03549000  0.75015000  0.41490000  1.0
  O  O52  1  0.30395000  0.36663000  0.60944000  1.0
  O  O53  1  0.69606000  0.63336000  0.39056000  1.0
  O  O54  1  0.96327000  0.21343000  0.10019000  1.0
  O  O55  1  0.03671000  0.78660000  0.89982000  1.0
  O  O56  1  0.22432000  0.96061000  0.15211000  1.0
  O  O57  1  0.77566000  0.03941000  0.84790000  1.0
  O  O58  1  0.66966000  0.04911000  0.09013000  1.0
  O  O59  1  0.33032000  0.95090000  0.90988000  1.0
  O  O60  1  0.93027000  0.79400000  0.13672000  1.0
  O  O61  1  0.06972000  0.20602000  0.86329000  1.0
  O  O62  1  0.57460000  0.38783000  0.91815000  1.0
  O  O63  1  0.42540000  0.61217000  0.08184000  1.0
