# generated using pymatgen
data_Cu4H16C29(N2O)4
_symmetry_space_group_name_H-M   'P 1'
_cell_length_a   21.34290000
_cell_length_b   22.38640000
_cell_length_c   23.25840000
_cell_angle_alpha   89.10560000
_cell_angle_beta   89.97370000
_cell_angle_gamma   89.49690000
_symmetry_Int_Tables_number   1
_chemical_formula_structural   Cu4H16C29(N2O)4
_chemical_formula_sum   'Cu12 H48 C87 N24 O12'
_cell_volume   11110.86428181
_cell_formula_units_Z   3
loop_
 _symmetry_equiv_pos_site_id
 _symmetry_equiv_pos_as_xyz
  1  'x, y, z'
loop_
 _atom_site_type_symbol
 _atom_site_label
 _atom_site_symmetry_multiplicity
 _atom_site_fract_x
 _atom_site_fract_y
 _atom_site_fract_z
 _atom_site_occupancy
  Cu  Cu0  1  0.19248000  0.78593000  0.86252000  1.0
  Cu  Cu1  1  0.17412000  0.90831000  0.79993000  1.0
  Cu  Cu2  1  0.09882000  0.80619000  0.74919000  1.0
  Cu  Cu3  1  0.80620000  0.74301000  0.11503000  1.0
  Cu  Cu4  1  0.79971000  0.86205000  0.19730000  1.0
  Cu  Cu5  1  0.90916000  0.76982000  0.20267000  1.0
  Cu  Cu6  1  0.28539000  0.23493000  0.14925000  1.0
  Cu  Cu7  1  0.24547000  0.13707000  0.24518000  1.0
  Cu  Cu8  1  0.15095000  0.23739000  0.19449000  1.0
  Cu  Cu9  1  0.75106000  0.19816000  0.88176000  1.0
  Cu  Cu10  1  0.72914000  0.14149000  0.76856000  1.0
  Cu  Cu11  1  0.85625000  0.21376000  0.77808000  1.0
  H  H12  1  0.30353000  0.82192000  0.95484000  1.0
  H  H13  1  0.25008000  0.99218000  0.87745000  1.0
  H  H14  1  0.02741000  0.68533000  0.75431000  1.0
  H  H15  1  0.14711000  0.65963000  0.90309000  1.0
  H  H16  1  0.15149000  0.01211000  0.71004000  1.0
  H  H17  1  0.04285000  0.87214000  0.63205000  1.0
  H  H18  1  0.66615000  0.74258000  0.07321000  1.0
  H  H19  1  0.66942000  0.91386000  0.15713000  1.0
  H  H20  1  0.01555000  0.67940000  0.16749000  1.0
  H  H21  1  0.87568000  0.63936000  0.03890000  1.0
  H  H22  1  0.83904000  0.94909000  0.30383000  1.0
  H  H23  1  0.97412000  0.80388000  0.31751000  1.0
  H  H24  1  0.42513000  0.20228000  0.13171000  1.0
  H  H25  1  0.36402000  0.04846000  0.23120000  1.0
  H  H26  1  0.08368000  0.32634000  0.10279000  1.0
  H  H27  1  0.27315000  0.31860000  0.03585000  1.0
  H  H28  1  0.15662000  0.07873000  0.34325000  1.0
  H  H29  1  0.03866000  0.22301000  0.27814000  1.0
  H  H30  1  0.65260000  0.12449000  0.96451000  1.0
  H  H31  1  0.61868000  0.05174000  0.79578000  1.0
  H  H32  1  0.93970000  0.31618000  0.83553000  1.0
  H  H33  1  0.79507000  0.29317000  0.96450000  1.0
  H  H34  1  0.73814000  0.09125000  0.64834000  1.0
  H  H35  1  0.92592000  0.16168000  0.66170000  1.0
  H  H36  1  0.28524000  0.04239000  0.97751000  1.0
  H  H37  1  0.38959000  0.07136000  0.03831000  1.0
  H  H38  1  0.51856000  0.76497000  0.08829000  1.0
  H  H39  1  0.42758000  0.84402000  0.05074000  1.0
  H  H40  1  0.56089000  0.12826000  0.15596000  1.0
  H  H41  1  0.59708000  0.05124000  0.07129000  1.0
  H  H42  1  0.57826000  0.94895000  0.85288000  1.0
  H  H43  1  0.50855000  0.89350000  0.93687000  1.0
  H  H44  1  0.97635000  0.57030000  0.77973000  1.0
  H  H45  1  0.94845000  0.47685000  0.85230000  1.0
  H  H46  1  0.83869000  0.38523000  0.02239000  1.0
  H  H47  1  0.92035000  0.47374000  0.05001000  1.0
  H  H48  1  0.09384000  0.59854000  0.12051000  1.0
  H  H49  1  0.12884000  0.50832000  0.04912000  1.0
  H  H50  1  0.22196000  0.38031000  0.93293000  1.0
  H  H51  1  0.14015000  0.46127000  0.88357000  1.0
  H  H52  1  0.15264000  0.06784000  0.59956000  1.0
  H  H53  1  0.08810000  0.10753000  0.50432000  1.0
  H  H54  1  0.95737000  0.20346000  0.36294000  1.0
  H  H55  1  0.89908000  0.13904000  0.44816000  1.0
  H  H56  1  0.76347000  0.04300000  0.55051000  1.0
  H  H57  1  0.83857000  0.99200000  0.46900000  1.0
  H  H58  1  0.98069000  0.82465000  0.43007000  1.0
  H  H59  1  0.01793000  0.90339000  0.51172000  1.0
  C  C60  1  0.28364000  0.85862000  0.92970000  1.0
  C  C61  1  0.29470000  0.92030000  0.93290000  1.0
  C  C62  1  0.25553000  0.94569000  0.89051000  1.0
  C  C63  1  0.06191000  0.68802000  0.78840000  1.0
  C  C64  1  0.07448000  0.64791000  0.83407000  1.0
  C  C65  1  0.12313000  0.67505000  0.86446000  1.0
  C  C66  1  0.12790000  0.97129000  0.69849000  1.0
  C  C67  1  0.09094000  0.95929000  0.65025000  1.0
  C  C68  1  0.07197000  0.89976000  0.65884000  1.0
  C  C69  1  0.67707000  0.78218000  0.09747000  1.0
  C  C70  1  0.63980000  0.83267000  0.10840000  1.0
  C  C71  1  0.67923000  0.87010000  0.13973000  1.0
  C  C72  1  0.97458000  0.67675000  0.14011000  1.0
  C  C73  1  0.96381000  0.64059000  0.09239000  1.0
  C  C74  1  0.90288000  0.65627000  0.07440000  1.0
  C  C75  1  0.86815000  0.90955000  0.29872000  1.0
  C  C76  1  0.91663000  0.88674000  0.33388000  1.0
  C  C77  1  0.93670000  0.83486000  0.30585000  1.0
  C  C78  1  0.40118000  0.17050000  0.15957000  1.0
  C  C79  1  0.41996000  0.11259000  0.17631000  1.0
  C  C80  1  0.36976000  0.09146000  0.20977000  1.0
  C  C81  1  0.13296000  0.31806000  0.09445000  1.0
  C  C82  1  0.17012000  0.33838000  0.04834000  1.0
  C  C83  1  0.22981000  0.31405000  0.05985000  1.0
  C  C84  1  0.13561000  0.11657000  0.32057000  1.0
  C  C85  1  0.07700000  0.14422000  0.32893000  1.0
  C  C86  1  0.07538000  0.19049000  0.28746000  1.0
  C  C87  1  0.65122000  0.11385000  0.91920000  1.0
  C  C88  1  0.61750000  0.06934000  0.89099000  1.0
  C  C89  1  0.63410000  0.07643000  0.83287000  1.0
  C  C90  1  0.89984000  0.30292000  0.86156000  1.0
  C  C91  1  0.87929000  0.32515000  0.91462000  1.0
  C  C92  1  0.82596000  0.29124000  0.92749000  1.0
  C  C93  1  0.78106000  0.11370000  0.65988000  1.0
  C  C94  1  0.83932000  0.11381000  0.63194000  1.0
  C  C95  1  0.87719000  0.14935000  0.66701000  1.0
  C  C96  1  0.97398000  0.02976000  0.48275000  1.0
  C  C97  1  0.48571000  0.97093000  0.03770000  1.0
  C  C98  1  0.02692000  0.48170000  0.96249000  1.0
  C  C99  1  0.33347000  0.95608000  0.96928000  1.0
  C  C100  1  0.32584000  0.01418000  0.98620000  1.0
  C  C101  1  0.37998000  0.02906000  0.01839000  1.0
  C  C102  1  0.41768000  0.97920000  0.02005000  1.0
  C  C103  1  0.57637000  0.84552000  0.09027000  1.0
  C  C104  1  0.52320000  0.81277000  0.08137000  1.0
  C  C105  1  0.47535000  0.85402000  0.06271000  1.0
  C  C106  1  0.50199000  0.90939000  0.06151000  1.0
  C  C107  1  0.47191000  0.08047000  0.15018000  1.0
  C  C108  1  0.53317000  0.09314000  0.13721000  1.0
  C  C109  1  0.55210000  0.05307000  0.09284000  1.0
  C  C110  1  0.50136000  0.01826000  0.08116000  1.0
  C  C111  1  0.57886000  0.02251000  0.91418000  1.0
  C  C112  1  0.56380000  0.96711000  0.89384000  1.0
  C  C113  1  0.52838000  0.93789000  0.93767000  1.0
  C  C114  1  0.52345000  0.97700000  0.98218000  1.0
  C  C115  1  0.04283000  0.59303000  0.84794000  1.0
  C  C116  1  0.99724000  0.56038000  0.82135000  1.0
  C  C117  1  0.98253000  0.51160000  0.85917000  1.0
  C  C118  1  0.01998000  0.51688000  0.90653000  1.0
  C  C119  1  0.90303000  0.37226000  0.94976000  1.0
  C  C120  1  0.88092000  0.39770000  0.99932000  1.0
  C  C121  1  0.92349000  0.44389000  0.01389000  1.0
  C  C122  1  0.96909000  0.44432000  0.97259000  1.0
  C  C123  1  0.00709000  0.59736000  0.06972000  1.0
  C  C124  1  0.06661000  0.58001000  0.08578000  1.0
  C  C125  1  0.08489000  0.53290000  0.04861000  1.0
  C  C126  1  0.03582000  0.52401000  0.01200000  1.0
  C  C127  1  0.15098000  0.37710000  0.00138000  1.0
  C  C128  1  0.17732000  0.39527000  0.95008000  1.0
  C  C129  1  0.13451000  0.43713000  0.92399000  1.0
  C  C130  1  0.08466000  0.44200000  0.96057000  1.0
  C  C131  1  0.07912000  0.99992000  0.60279000  1.0
  C  C132  1  0.11009000  0.04930000  0.58194000  1.0
  C  C133  1  0.07680000  0.06975000  0.53199000  1.0
  C  C134  1  0.02766000  0.03180000  0.52507000  1.0
  C  C135  1  0.02795000  0.13168000  0.36977000  1.0
  C  C136  1  0.97349000  0.16191000  0.38271000  1.0
  C  C137  1  0.94313000  0.12856000  0.42721000  1.0
  C  C138  1  0.98052000  0.08005000  0.43912000  1.0
  C  C139  1  0.85210000  0.08112000  0.58030000  1.0
  C  C140  1  0.81372000  0.04795000  0.54577000  1.0
  C  C141  1  0.85271000  0.02103000  0.50347000  1.0
  C  C142  1  0.91244000  0.03949000  0.51408000  1.0
  C  C143  1  0.94236000  0.90535000  0.38797000  1.0
  C  C144  1  0.97348000  0.87269000  0.42972000  1.0
  C  C145  1  0.99293000  0.91358000  0.47227000  1.0
  C  C146  1  0.97245000  0.96900000  0.45465000  1.0
  N  N147  1  0.22350000  0.90253000  0.86429000  1.0
  N  N148  1  0.24064000  0.84845000  0.88832000  1.0
  N  N149  1  0.13820000  0.72747000  0.83875000  1.0
  N  N150  1  0.10011000  0.73560000  0.79157000  1.0
  N  N151  1  0.09641000  0.87808000  0.70861000  1.0
  N  N152  1  0.13085000  0.92252000  0.73295000  1.0
  N  N153  1  0.73566000  0.84357000  0.14726000  1.0
  N  N154  1  0.73441000  0.78904000  0.12083000  1.0
  N  N155  1  0.87936000  0.69874000  0.10921000  1.0
  N  N156  1  0.92388000  0.71130000  0.14970000  1.0
  N  N157  1  0.90265000  0.82721000  0.25799000  1.0
  N  N158  1  0.86007000  0.87336000  0.25328000  1.0
  N  N159  1  0.32449000  0.13378000  0.21253000  1.0
  N  N160  1  0.34395000  0.18291000  0.18113000  1.0
  N  N161  1  0.22809000  0.28176000  0.10927000  1.0
  N  N162  1  0.16814000  0.28412000  0.13055000  1.0
  N  N163  1  0.12889000  0.19038000  0.25683000  1.0
  N  N164  1  0.16643000  0.14461000  0.27722000  1.0
  N  N165  1  0.67502000  0.12154000  0.82709000  1.0
  N  N166  1  0.68581000  0.14471000  0.88041000  1.0
  N  N167  1  0.81551000  0.25200000  0.88540000  1.0
  N  N168  1  0.86122000  0.25899000  0.84427000  1.0
  N  N169  1  0.84351000  0.16857000  0.71263000  1.0
  N  N170  1  0.78397000  0.14635000  0.70782000  1.0
  O  O171  1  0.38982000  0.93391000  0.98998000  1.0
  O  O172  1  0.56351000  0.90488000  0.07860000  1.0
  O  O173  1  0.45306000  0.03303000  0.11725000  1.0
  O  O174  1  0.55375000  0.02919000  0.96852000  1.0
  O  O175  1  0.05740000  0.56633000  0.90019000  1.0
  O  O176  1  0.95750000  0.40038000  0.93308000  1.0
  O  O177  1  0.98787000  0.56351000  0.02402000  1.0
  O  O178  1  0.09370000  0.40523000  0.00781000  1.0
  O  O179  1  0.02808000  0.98910000  0.56834000  1.0
  O  O180  1  0.03281000  0.08110000  0.40426000  1.0
  O  O181  1  0.91291000  0.07660000  0.56078000  1.0
  O  O182  1  0.94094000  0.96482000  0.40304000  1.0
