# generated using pymatgen
data_CuHgH16C14(N2Cl)4
_symmetry_space_group_name_H-M   'P 1'
_cell_length_a   8.94148000
_cell_length_b   8.94148000
_cell_length_c   14.32840000
_cell_angle_alpha   92.64320000
_cell_angle_beta   92.64300000
_cell_angle_gamma   111.65000000
_symmetry_Int_Tables_number   1
_chemical_formula_structural   CuHgH16C14(N2Cl)4
_chemical_formula_sum   'Cu2 Hg2 H32 C28 N16 Cl8'
_cell_volume   1061.14908205
_cell_formula_units_Z   2
loop_
 _symmetry_equiv_pos_site_id
 _symmetry_equiv_pos_as_xyz
  1  'x, y, z'
loop_
 _atom_site_type_symbol
 _atom_site_label
 _atom_site_symmetry_multiplicity
 _atom_site_fract_x
 _atom_site_fract_y
 _atom_site_fract_z
 _atom_site_occupancy
  Cu  Cu0  1  0.50000000  0.00000000  0.00000000  1.0
  Cu  Cu1  1  0.00000000  0.50000000  0.50000000  1.0
  Hg  Hg2  1  0.20574000  0.79426000  0.25000000  1.0
  Hg  Hg3  1  0.79427000  0.20574000  0.75000000  1.0
  H  H4  1  0.79299000  0.91411000  0.08907000  1.0
  H  H5  1  0.08589000  0.20701000  0.41093000  1.0
  H  H6  1  0.20701000  0.08589000  0.91093000  1.0
  H  H7  1  0.91411000  0.79299000  0.58907000  1.0
  H  H8  1  0.04182000  0.14991000  0.19067000  1.0
  H  H9  1  0.85009000  0.95818000  0.30933000  1.0
  H  H10  1  0.95818000  0.85009000  0.80933000  1.0
  H  H11  1  0.14991000  0.04182000  0.69067000  1.0
  H  H12  1  0.00096000  0.43262000  0.14913000  1.0
  H  H13  1  0.56738000  0.99904000  0.35087000  1.0
  H  H14  1  0.99904000  0.56738000  0.85087000  1.0
  H  H15  1  0.43262000  0.00096000  0.64913000  1.0
  H  H16  1  0.60083000  0.56899000  0.13247000  1.0
  H  H17  1  0.43101000  0.39917000  0.36753000  1.0
  H  H18  1  0.39917000  0.43101000  0.86753000  1.0
  H  H19  1  0.56899000  0.60083000  0.63247000  1.0
  H  H20  1  0.29449000  0.39800000  0.18429000  1.0
  H  H21  1  0.60200000  0.70551000  0.31571000  1.0
  H  H22  1  0.70551000  0.60200000  0.81571000  1.0
  H  H23  1  0.39800000  0.29448000  0.68429000  1.0
  H  H24  1  0.22796000  0.08766000  0.10575000  1.0
  H  H25  1  0.91233000  0.77204000  0.39425000  1.0
  H  H26  1  0.77204000  0.91234000  0.89425000  1.0
  H  H27  1  0.08766000  0.22796000  0.60575000  1.0
  H  H28  1  0.70535000  0.34700000  0.94893000  1.0
  H  H29  1  0.65300000  0.29465000  0.55107000  1.0
  H  H30  1  0.29465000  0.65300000  0.05107000  1.0
  H  H31  1  0.34700000  0.70535000  0.44893000  1.0
  H  H32  1  0.80561000  0.49909000  0.04363000  1.0
  H  H33  1  0.50091000  0.19439000  0.45637000  1.0
  H  H34  1  0.19439000  0.50091000  0.95637000  1.0
  H  H35  1  0.49909000  0.80561000  0.54363000  1.0
  C  C36  1  0.82383000  0.04338000  0.09197000  1.0
  C  C37  1  0.95662000  0.17617000  0.40803000  1.0
  C  C38  1  0.17617000  0.95662000  0.90803000  1.0
  C  C39  1  0.04338000  0.82383000  0.59197000  1.0
  C  C40  1  0.95145000  0.16516000  0.14338000  1.0
  C  C41  1  0.83484000  0.04855000  0.35662000  1.0
  C  C42  1  0.04855000  0.83484000  0.85662000  1.0
  C  C43  1  0.16516000  0.95145000  0.64338000  1.0
  C  C44  1  0.93344000  0.30837000  0.12405000  1.0
  C  C45  1  0.69163000  0.06656000  0.37595000  1.0
  C  C46  1  0.06656000  0.69163000  0.87595000  1.0
  C  C47  1  0.30837000  0.93344000  0.62406000  1.0
  C  C48  1  0.52376000  0.44326000  0.11743000  1.0
  C  C49  1  0.55674000  0.47624000  0.38257000  1.0
  C  C50  1  0.47624000  0.55674000  0.88257000  1.0
  C  C51  1  0.44326000  0.52376000  0.61743000  1.0
  C  C52  1  0.36919000  0.35396000  0.14203000  1.0
  C  C53  1  0.64604000  0.63081000  0.35797000  1.0
  C  C54  1  0.63081000  0.64604000  0.85797000  1.0
  C  C55  1  0.35396000  0.36919000  0.64203000  1.0
  C  C56  1  0.33432000  0.19661000  0.10303000  1.0
  C  C57  1  0.80339000  0.66568000  0.39697000  1.0
  C  C58  1  0.66568000  0.80339000  0.89697000  1.0
  C  C59  1  0.19661000  0.33432000  0.60303000  1.0
  C  C60  1  0.72703000  0.37302000  0.02513000  1.0
  C  C61  1  0.62698000  0.27297000  0.47487000  1.0
  C  C62  1  0.27297000  0.62698000  0.97487000  1.0
  C  C63  1  0.37302000  0.72703000  0.52513000  1.0
  N  N64  1  0.73328000  0.10768000  0.04308000  1.0
  N  N65  1  0.89232000  0.26672000  0.45692000  1.0
  N  N66  1  0.26672000  0.89232000  0.95692000  1.0
  N  N67  1  0.10768000  0.73328000  0.54307000  1.0
  N  N68  1  0.80189000  0.26946000  0.06342000  1.0
  N  N69  1  0.73054000  0.19811000  0.43658000  1.0
  N  N70  1  0.19811000  0.73054000  0.93658000  1.0
  N  N71  1  0.26946000  0.80189000  0.56342000  1.0
  N  N72  1  0.57377000  0.34175000  0.06590000  1.0
  N  N73  1  0.65825000  0.42623000  0.43410000  1.0
  N  N74  1  0.42623000  0.65825000  0.93410000  1.0
  N  N75  1  0.34174000  0.57377000  0.56590000  1.0
  N  N76  1  0.45915000  0.19067000  0.05636000  1.0
  N  N77  1  0.80933000  0.54085000  0.44364000  1.0
  N  N78  1  0.54085000  0.80933000  0.94364000  1.0
  N  N79  1  0.19067000  0.45915000  0.55636000  1.0
  Cl  Cl80  1  0.97752000  0.74999000  0.13047000  1.0
  Cl  Cl81  1  0.25001000  0.02248000  0.36953000  1.0
  Cl  Cl82  1  0.02248000  0.25001000  0.86953000  1.0
  Cl  Cl83  1  0.74999000  0.97752000  0.63047000  1.0
  Cl  Cl84  1  0.47337000  0.84019000  0.17744000  1.0
  Cl  Cl85  1  0.15981000  0.52663000  0.32256000  1.0
  Cl  Cl86  1  0.52663000  0.15981000  0.82256000  1.0
  Cl  Cl87  1  0.84020000  0.47337000  0.67744000  1.0
