# generated using pymatgen
data_CdH20C18(NO2)3
_symmetry_space_group_name_H-M   'P 1'
_cell_length_a   9.55150000
_cell_length_b   10.09945706
_cell_length_c   11.76500000
_cell_angle_alpha   64.66322700
_cell_angle_beta   83.64580000
_cell_angle_gamma   63.93468249
_symmetry_Int_Tables_number   1
_chemical_formula_structural   CdH20C18(NO2)3
_chemical_formula_sum   'Cd2 H40 C36 N6 O12'
_cell_volume   917.22447588
_cell_formula_units_Z   2
loop_
 _symmetry_equiv_pos_site_id
 _symmetry_equiv_pos_as_xyz
  1  'x, y, z'
loop_
 _atom_site_type_symbol
 _atom_site_label
 _atom_site_symmetry_multiplicity
 _atom_site_fract_x
 _atom_site_fract_y
 _atom_site_fract_z
 _atom_site_occupancy
  Cd  Cd0  1  0.34024000  0.66892000  0.05922000  1.0
  Cd  Cd1  1  0.65976000  0.33108000  0.94079000  1.0
  H  H2  1  0.56618000  0.27474000  0.27186000  1.0
  H  H3  1  0.43382000  0.72525000  0.72815000  1.0
  H  H4  1  0.77578000  0.69168000  0.20359000  1.0
  H  H5  1  0.22422000  0.30833000  0.79641000  1.0
  H  H6  1  0.42109000  0.83938000  0.21872000  1.0
  H  H7  1  0.57890000  0.16062000  0.78128000  1.0
  H  H8  1  0.82096000  0.42527000  0.20513000  1.0
  H  H9  1  0.17904000  0.57474000  0.79486000  1.0
  H  H10  1  0.82859000  0.36041000  0.56845000  1.0
  H  H11  1  0.17141000  0.63959000  0.43155000  1.0
  H  H12  1  0.73323000  0.05902000  0.47507000  1.0
  H  H13  1  0.26677000  0.94098000  0.52494000  1.0
  H  H14  1  0.76758000  0.12177000  0.58441000  1.0
  H  H15  1  0.23243000  0.87822000  0.41559000  1.0
  H  H16  1  0.98917000  0.17068000  0.46115000  1.0
  H  H17  1  0.01082000  0.82932000  0.53885000  1.0
  H  H18  1  0.95298000  0.10225000  0.35662000  1.0
  H  H19  1  0.04702000  0.89775000  0.64338000  1.0
  H  H20  1  0.08733000  0.25328000  0.15898000  1.0
  H  H21  1  0.91266000  0.74673000  0.84101000  1.0
  H  H22  1  0.64700000  0.95518000  0.32984000  1.0
  H  H23  1  0.35300000  0.04482000  0.67017000  1.0
  H  H24  1  0.51240000  0.94135000  0.44574000  1.0
  H  H25  1  0.48760000  0.05865000  0.55426000  1.0
  H  H26  1  0.44872000  0.01850000  0.28342000  1.0
  H  H27  1  0.55129000  0.98149000  0.71658000  1.0
  H  H28  1  0.88578000  0.53910000  0.61258000  1.0
  H  H29  1  0.11422000  0.46090000  0.38741000  1.0
  H  H30  1  0.71492000  0.71393000  0.60526000  1.0
  H  H31  1  0.28509000  0.28606000  0.39474000  1.0
  H  H32  1  0.84518000  0.73276000  0.48670000  1.0
  H  H33  1  0.15483000  0.26724000  0.51330000  1.0
  H  H34  1  0.15328000  0.93339000  0.83235000  1.0
  H  H35  1  0.84673000  0.06661000  0.16765000  1.0
  H  H36  1  0.07165000  0.81869000  0.89441000  1.0
  H  H37  1  0.92834000  0.18132000  0.10558000  1.0
  H  H38  1  0.29759000  0.99027000  0.93062000  1.0
  H  H39  1  0.70240000  0.00974000  0.06938000  1.0
  H  H40  1  0.48246000  0.87407000  0.96521000  1.0
  H  H41  1  0.51753000  0.12594000  0.03479000  1.0
  C  C42  1  0.17093000  0.43099000  0.12343000  1.0
  C  C43  1  0.82907000  0.56901000  0.87657000  1.0
  C  C44  1  0.00833000  0.66156000  0.15444000  1.0
  C  C45  1  0.99167000  0.33844000  0.84556000  1.0
  C  C46  1  0.32567000  0.33890000  0.08269000  1.0
  C  C47  1  0.67433000  0.66110000  0.91731000  1.0
  C  C48  1  0.99448000  0.81304000  0.16252000  1.0
  C  C49  1  0.00552000  0.18696000  0.83748000  1.0
  C  C50  1  0.54901000  0.57667000  0.31399000  1.0
  C  C51  1  0.45099000  0.42333000  0.68601000  1.0
  C  C52  1  0.57524000  0.35736000  0.30341000  1.0
  C  C53  1  0.42476000  0.64264000  0.69659000  1.0
  C  C54  1  0.88693000  0.61398000  0.18244000  1.0
  C  C55  1  0.11306000  0.38603000  0.81756000  1.0
  C  C56  1  0.58512000  0.75861000  0.37479000  1.0
  C  C57  1  0.41488000  0.24139000  0.62521000  1.0
  C  C58  1  0.50776000  0.73610000  0.29563000  1.0
  C  C59  1  0.49224000  0.26390000  0.70437000  1.0
  C  C60  1  0.91305000  0.46587000  0.18434000  1.0
  C  C61  1  0.08695000  0.53414000  0.81566000  1.0
  C  C62  1  0.74061000  0.46374000  0.49256000  1.0
  C  C63  1  0.25939000  0.53626000  0.50744000  1.0
  C  C64  1  0.66173000  0.44287000  0.41319000  1.0
  C  C65  1  0.33828000  0.55712000  0.58681000  1.0
  C  C66  1  0.70371000  0.62295000  0.47130000  1.0
  C  C67  1  0.29629000  0.37705000  0.52870000  1.0
  C  C68  1  0.77768000  0.13694000  0.48592000  1.0
  C  C69  1  0.22231000  0.86306000  0.51408000  1.0
  C  C70  1  0.94781000  0.08766000  0.45502000  1.0
  C  C71  1  0.05218000  0.91234000  0.54499000  1.0
  C  C72  1  0.05823000  0.37115000  0.15731000  1.0
  C  C73  1  0.94176000  0.62886000  0.84268000  1.0
  C  C74  1  0.54538000  0.92788000  0.35730000  1.0
  C  C75  1  0.45461000  0.07212000  0.64270000  1.0
  C  C76  1  0.79192000  0.65303000  0.54843000  1.0
  C  C77  1  0.20808000  0.34697000  0.45157000  1.0
  N  N78  1  0.49822000  0.51854000  0.24685000  1.0
  N  N79  1  0.50178000  0.48146000  0.75315000  1.0
  N  N80  1  0.14546000  0.57264000  0.12292000  1.0
  N  N81  1  0.85454000  0.42736000  0.87708000  1.0
  N  N82  1  0.67396000  0.30502000  0.40473000  1.0
  N  N83  1  0.32605000  0.69497000  0.59527000  1.0
  O  O84  1  0.42283000  0.40155000  0.05423000  1.0
  O  O85  1  0.57717000  0.59845000  0.94578000  1.0
  O  O86  1  0.17055000  0.81544000  0.86108000  1.0
  O  O87  1  0.82944000  0.18457000  0.13892000  1.0
  O  O88  1  0.37745000  0.90036000  0.00067000  1.0
  O  O89  1  0.62254000  0.09965000  0.99933000  1.0
  O  O90  1  0.11072000  0.84475000  0.14246000  1.0
  O  O91  1  0.88928000  0.15525000  0.85754000  1.0
  O  O92  1  0.86221000  0.89588000  0.19270000  1.0
  O  O93  1  0.13780000  0.10412000  0.80730000  1.0
  O  O94  1  0.34529000  0.20858000  0.07990000  1.0
  O  O95  1  0.65471000  0.79141000  0.92011000  1.0
