# generated using pymatgen
data_ZnH17C22(NO)5
_symmetry_space_group_name_H-M   'P 1'
_cell_length_a   8.47751000
_cell_length_b   10.25030000
_cell_length_c   12.95250000
_cell_angle_alpha   75.09990000
_cell_angle_beta   87.44740000
_cell_angle_gamma   77.42580000
_symmetry_Int_Tables_number   1
_chemical_formula_structural   ZnH17C22(NO)5
_chemical_formula_sum   'Zn2 H34 C44 N10 O10'
_cell_volume   1061.52185466
_cell_formula_units_Z   2
loop_
 _symmetry_equiv_pos_site_id
 _symmetry_equiv_pos_as_xyz
  1  'x, y, z'
loop_
 _atom_site_type_symbol
 _atom_site_label
 _atom_site_symmetry_multiplicity
 _atom_site_fract_x
 _atom_site_fract_y
 _atom_site_fract_z
 _atom_site_occupancy
  Zn  Zn0  1  0.13944000  0.22290000  0.15291000  1.0
  Zn  Zn1  1  0.86056000  0.77711000  0.84709000  1.0
  H  H2  1  0.09705000  0.73885000  0.13048000  1.0
  H  H3  1  0.90295000  0.26116000  0.86952000  1.0
  H  H4  1  0.36173000  0.39600000  0.36707000  1.0
  H  H5  1  0.63825000  0.60400000  0.63293000  1.0
  H  H6  1  0.32505000  0.81239000  0.39483000  1.0
  H  H7  1  0.67495000  0.18761000  0.60517000  1.0
  H  H8  1  0.85255000  0.94106000  0.03396000  1.0
  H  H9  1  0.14745000  0.05895000  0.96604000  1.0
  H  H10  1  0.93176000  0.08207000  0.33026000  1.0
  H  H11  1  0.06824000  0.91792000  0.66974000  1.0
  H  H12  1  0.47595000  0.14100000  0.31510000  1.0
  H  H13  1  0.52405000  0.85899000  0.68490000  1.0
  H  H14  1  0.57679000  0.15808000  0.42616000  1.0
  H  H15  1  0.42320000  0.84192000  0.57384000  1.0
  H  H16  1  0.48591000  0.99729000  0.19924000  1.0
  H  H17  1  0.51409000  0.00270000  0.80077000  1.0
  H  H18  1  0.66735000  0.05356000  0.15707000  1.0
  H  H19  1  0.33265000  0.94644000  0.84294000  1.0
  H  H20  1  0.58755000  0.65448000  0.98921000  1.0
  H  H21  1  0.41246000  0.34553000  0.01078000  1.0
  H  H22  1  0.78610000  0.69346000  0.27005000  1.0
  H  H23  1  0.21392000  0.30654000  0.72995000  1.0
  H  H24  1  0.45542000  0.76222000  0.15818000  1.0
  H  H25  1  0.54459000  0.23777000  0.84183000  1.0
  H  H26  1  0.73621000  0.96425000  0.54184000  1.0
  H  H27  1  0.26379000  0.03574000  0.45817000  1.0
  H  H28  1  0.79080000  0.44060000  0.08017000  1.0
  H  H29  1  0.20920000  0.55940000  0.91983000  1.0
  H  H30  1  0.51277000  0.36430000  0.18669000  1.0
  H  H31  1  0.48723000  0.63569000  0.81332000  1.0
  H  H32  1  0.88417000  0.72026000  0.58661000  1.0
  H  H33  1  0.11583000  0.27974000  0.41339000  1.0
  H  H34  1  0.90895000  0.58431000  0.44872000  1.0
  H  H35  1  0.09106000  0.41568000  0.55128000  1.0
  C  C36  1  0.16836000  0.69984000  0.20415000  1.0
  C  C37  1  0.83163000  0.30017000  0.79584000  1.0
  C  C38  1  0.22632000  0.55769000  0.24295000  1.0
  C  C39  1  0.77366000  0.44233000  0.75705000  1.0
  C  C40  1  0.20460000  0.79211000  0.25793000  1.0
  C  C41  1  0.79540000  0.20789000  0.74207000  1.0
  C  C42  1  0.31908000  0.50654000  0.33695000  1.0
  C  C43  1  0.68090000  0.49347000  0.66305000  1.0
  C  C44  1  0.29655000  0.74155000  0.35233000  1.0
  C  C45  1  0.70344000  0.25845000  0.64767000  1.0
  C  C46  1  0.76311000  0.87769000  0.04291000  1.0
  C  C47  1  0.23689000  0.12232000  0.95709000  1.0
  C  C48  1  0.14979000  0.94475000  0.21013000  1.0
  C  C49  1  0.85021000  0.05525000  0.78987000  1.0
  C  C50  1  0.35236000  0.59921000  0.39065000  1.0
  C  C51  1  0.64762000  0.40079000  0.60935000  1.0
  C  C52  1  0.18961000  0.45947000  0.18358000  1.0
  C  C53  1  0.81038000  0.54054000  0.81642000  1.0
  C  C54  1  0.85730000  0.17114000  0.27709000  1.0
  C  C55  1  0.14271000  0.82886000  0.72291000  1.0
  C  C56  1  0.69077000  0.89153000  0.30306000  1.0
  C  C57  1  0.30924000  0.10847000  0.69694000  1.0
  C  C58  1  0.67613000  0.96845000  0.38059000  1.0
  C  C59  1  0.32387000  0.03155000  0.61941000  1.0
  C  C60  1  0.59483000  0.11996000  0.35371000  1.0
  C  C61  1  0.40518000  0.88004000  0.64629000  1.0
  C  C62  1  0.61760000  0.96193000  0.19302000  1.0
  C  C63  1  0.38240000  0.03806000  0.80699000  1.0
  C  C64  1  0.62300000  0.72952000  0.02381000  1.0
  C  C65  1  0.37700000  0.27048000  0.97619000  1.0
  C  C66  1  0.77403000  0.75366000  0.32926000  1.0
  C  C67  1  0.22598000  0.24633000  0.67075000  1.0
  C  C68  1  0.55627000  0.78212000  0.10687000  1.0
  C  C69  1  0.44374000  0.21788000  0.89313000  1.0
  C  C70  1  0.74653000  0.90504000  0.48181000  1.0
  C  C71  1  0.25347000  0.09495000  0.51820000  1.0
  C  C72  1  0.77679000  0.35666000  0.14821000  1.0
  C  C73  1  0.22322000  0.64333000  0.85179000  1.0
  C  C74  1  0.64075000  0.32028000  0.19862000  1.0
  C  C75  1  0.35925000  0.67971000  0.80138000  1.0
  C  C76  1  0.83083000  0.76741000  0.50714000  1.0
  C  C77  1  0.16917000  0.23259000  0.49286000  1.0
  C  C78  1  0.84398000  0.69194000  0.43050000  1.0
  C  C79  1  0.15604000  0.30805000  0.56951000  1.0
  N  N80  1  0.75150000  0.79005000  0.98453000  1.0
  N  N81  1  0.24850000  0.20996000  0.01547000  1.0
  N  N82  1  0.91056000  0.26204000  0.19788000  1.0
  N  N83  1  0.08944000  0.73795000  0.80212000  1.0
  N  N84  1  0.69432000  0.20228000  0.27946000  1.0
  N  N85  1  0.30569000  0.79772000  0.72054000  1.0
  N  N86  1  0.64572000  0.87599000  0.11744000  1.0
  N  N87  1  0.35429000  0.12401000  0.88256000  1.0
  N  N88  1  0.43490000  0.55248000  0.49289000  1.0
  N  N89  1  0.56508000  0.44752000  0.50711000  1.0
  O  O90  1  0.25367000  0.32923000  0.22452000  1.0
  O  O91  1  0.74633000  0.67078000  0.77547000  1.0
  O  O92  1  0.21813000  0.02496000  0.24792000  1.0
  O  O93  1  0.78188000  0.97504000  0.75207000  1.0
  O  O94  1  0.04613000  0.98656000  0.13635000  1.0
  O  O95  1  0.95386000  0.01345000  0.86365000  1.0
  O  O96  1  0.10337000  0.50362000  0.10117000  1.0
  O  O97  1  0.89662000  0.49638000  0.89883000  1.0
  O  O98  1  0.38287000  0.61285000  0.56620000  1.0
  O  O99  1  0.61711000  0.38715000  0.43380000  1.0
