# generated using pymatgen
data_CdH35C43(N3O2)2
_symmetry_space_group_name_H-M   'P 1'
_cell_length_a   10.21680000
_cell_length_b   13.83680000
_cell_length_c   13.87440000
_cell_angle_alpha   87.63890000
_cell_angle_beta   74.99580000
_cell_angle_gamma   69.34370000
_symmetry_Int_Tables_number   1
_chemical_formula_structural   CdH35C43(N3O2)2
_chemical_formula_sum   'Cd2 H70 C86 N12 O8'
_cell_volume   1770.00222678
_cell_formula_units_Z   2
loop_
 _symmetry_equiv_pos_site_id
 _symmetry_equiv_pos_as_xyz
  1  'x, y, z'
loop_
 _atom_site_type_symbol
 _atom_site_label
 _atom_site_symmetry_multiplicity
 _atom_site_fract_x
 _atom_site_fract_y
 _atom_site_fract_z
 _atom_site_occupancy
  Cd  Cd0  1  0.43867000  0.63646000  0.55337000  1.0
  Cd  Cd1  1  0.56132000  0.36354000  0.44663000  1.0
  H  H2  1  0.86749000  0.50814000  0.53793000  1.0
  H  H3  1  0.13251000  0.49187000  0.46207000  1.0
  H  H4  1  0.73243000  0.53539000  0.65183000  1.0
  H  H5  1  0.26756000  0.46461000  0.34817000  1.0
  H  H6  1  0.78175000  0.44722000  0.79964000  1.0
  H  H7  1  0.21826000  0.55278000  0.20036000  1.0
  H  H8  1  0.95669000  0.32247000  0.88229000  1.0
  H  H9  1  0.04332000  0.67754000  0.11770000  1.0
  H  H10  1  0.19243000  0.20180000  0.77953000  1.0
  H  H11  1  0.80758000  0.79820000  0.22046000  1.0
  H  H12  1  0.07797000  0.33108000  0.51224000  1.0
  H  H13  1  0.92202000  0.66892000  0.48776000  1.0
  H  H14  1  0.35206000  0.13219000  0.62245000  1.0
  H  H15  1  0.64793000  0.86781000  0.37755000  1.0
  H  H16  1  0.27556000  0.14142000  0.51988000  1.0
  H  H17  1  0.72444000  0.85858000  0.48012000  1.0
  H  H18  1  0.38545000  0.42938000  0.67111000  1.0
  H  H19  1  0.61455000  0.57062000  0.32889000  1.0
  H  H20  1  0.51139000  0.72968000  0.75456000  1.0
  H  H21  1  0.48860000  0.27032000  0.24544000  1.0
  H  H22  1  0.46747000  0.78033000  0.93648000  1.0
  H  H23  1  0.53254000  0.21967000  0.06352000  1.0
  H  H24  1  0.37121000  0.68503000  0.06959000  1.0
  H  H25  1  0.62880000  0.31497000  0.93041000  1.0
  H  H26  1  0.30985000  0.53161000  0.03182000  1.0
  H  H27  1  0.69015000  0.46839000  0.96818000  1.0
  H  H28  1  0.36234000  0.34582000  0.91754000  1.0
  H  H29  1  0.63765000  0.65418000  0.08246000  1.0
  H  H30  1  0.29027000  0.34658000  0.81456000  1.0
  H  H31  1  0.70973000  0.65342000  0.18543000  1.0
  H  H32  1  0.08135000  0.57184000  0.83800000  1.0
  H  H33  1  0.91864000  0.42816000  0.16199000  1.0
  H  H34  1  0.16592000  0.34201000  0.05561000  1.0
  H  H35  1  0.83407000  0.65799000  0.94438000  1.0
  H  H36  1  0.29882000  0.88224000  0.65993000  1.0
  H  H37  1  0.70118000  0.11776000  0.34008000  1.0
  H  H38  1  0.10658000  0.60022000  0.63317000  1.0
  H  H39  1  0.89342000  0.39978000  0.36683000  1.0
  H  H40  1  0.84593000  0.62975000  0.71463000  1.0
  H  H41  1  0.15407000  0.37025000  0.28536000  1.0
  H  H42  1  0.68322000  0.79418000  0.80875000  1.0
  H  H43  1  0.31678000  0.20582000  0.19125000  1.0
  H  H44  1  0.77428000  0.93516000  0.82905000  1.0
  H  H45  1  0.22572000  0.06484000  0.17095000  1.0
  H  H46  1  0.92442000  0.05758000  0.77029000  1.0
  H  H47  1  0.07558000  0.94243000  0.22971000  1.0
  H  H48  1  0.10753000  0.04451000  0.75089000  1.0
  H  H49  1  0.89247000  0.95549000  0.24911000  1.0
  H  H50  1  0.14687000  0.84016000  0.89171000  1.0
  H  H51  1  0.85313000  0.15985000  0.10830000  1.0
  H  H52  1  0.87282000  0.16245000  0.92799000  1.0
  H  H53  1  0.12717000  0.83756000  0.07202000  1.0
  H  H54  1  0.28579000  0.76354000  0.28519000  1.0
  H  H55  1  0.71421000  0.23646000  0.71481000  1.0
  H  H56  1  0.61328000  0.86618000  0.99803000  1.0
  H  H57  1  0.38673000  0.13381000  0.00198000  1.0
  H  H58  1  0.71585000  0.99828000  0.02833000  1.0
  H  H59  1  0.28416000  0.00172000  0.97168000  1.0
  H  H60  1  0.64390000  0.08718000  0.19374000  1.0
  H  H61  1  0.35609000  0.91282000  0.80627000  1.0
  H  H62  1  0.47432000  0.04608000  0.33857000  1.0
  H  H63  1  0.52568000  0.95391000  0.66143000  1.0
  H  H64  1  0.36874000  0.94069000  0.44433000  1.0
  H  H65  1  0.63127000  0.05930000  0.55567000  1.0
  H  H66  1  0.34310000  0.82019000  0.44919000  1.0
  H  H67  1  0.65691000  0.17981000  0.55081000  1.0
  H  H68  1  0.10637000  0.80867000  0.47080000  1.0
  H  H69  1  0.89364000  0.19132000  0.52919000  1.0
  H  H70  1  0.15726000  0.10512000  0.45354000  1.0
  H  H71  1  0.84274000  0.89487000  0.54646000  1.0
  C  C72  1  0.72621000  0.42260000  0.55676000  1.0
  C  C73  1  0.27379000  0.57740000  0.44323000  1.0
  C  C74  1  0.81311000  0.47164000  0.59955000  1.0
  C  C75  1  0.18689000  0.52836000  0.40044000  1.0
  C  C76  1  0.91866000  0.39797000  0.65051000  1.0
  C  C77  1  0.08134000  0.60203000  0.34949000  1.0
  C  C78  1  0.88529000  0.39428000  0.75482000  1.0
  C  C79  1  0.11472000  0.60572000  0.24518000  1.0
  C  C80  1  0.98310000  0.32409000  0.80102000  1.0
  C  C81  1  0.01691000  0.67591000  0.19898000  1.0
  C  C82  1  0.11561000  0.25651000  0.74332000  1.0
  C  C83  1  0.88440000  0.74349000  0.25667000  1.0
  C  C84  1  0.15092000  0.25869000  0.63887000  1.0
  C  C85  1  0.84908000  0.74132000  0.36113000  1.0
  C  C86  1  0.05149000  0.32961000  0.59376000  1.0
  C  C87  1  0.94851000  0.67039000  0.40623000  1.0
  C  C88  1  0.29326000  0.18681000  0.57489000  1.0
  C  C89  1  0.70674000  0.81319000  0.42511000  1.0
  C  C90  1  0.39257000  0.24252000  0.51843000  1.0
  C  C91  1  0.60743000  0.75748000  0.48157000  1.0
  C  C92  1  0.39480000  0.48026000  0.72475000  1.0
  C  C93  1  0.60519000  0.51974000  0.27525000  1.0
  C  C94  1  0.43359000  0.60261000  0.79375000  1.0
  C  C95  1  0.56640000  0.39739000  0.20626000  1.0
  C  C96  1  0.46856000  0.68719000  0.81499000  1.0
  C  C97  1  0.53143000  0.31281000  0.18501000  1.0
  C  C98  1  0.44432000  0.71415000  0.91554000  1.0
  C  C99  1  0.55569000  0.28585000  0.08446000  1.0
  C  C100  1  0.38706000  0.65934000  0.99284000  1.0
  C  C101  1  0.61295000  0.34065000  0.00716000  1.0
  C  C102  1  0.35304000  0.57467000  0.97247000  1.0
  C  C103  1  0.64696000  0.42533000  0.02752000  1.0
  C  C104  1  0.37844000  0.54703000  0.87194000  1.0
  C  C105  1  0.62156000  0.45297000  0.12806000  1.0
  C  C106  1  0.29162000  0.39612000  0.87407000  1.0
  C  C107  1  0.70837000  0.60388000  0.12593000  1.0
  C  C108  1  0.04649000  0.53998000  0.90914000  1.0
  C  C109  1  0.95351000  0.46002000  0.09085000  1.0
  C  C110  1  0.14075000  0.45057000  0.93919000  1.0
  C  C111  1  0.85925000  0.54943000  0.06080000  1.0
  C  C112  1  0.09319000  0.41117000  0.03067000  1.0
  C  C113  1  0.90681000  0.58883000  0.96932000  1.0
  C  C114  1  0.21041000  0.85274000  0.67705000  1.0
  C  C115  1  0.78958000  0.14726000  0.32296000  1.0
  C  C116  1  0.08577000  0.75273000  0.68386000  1.0
  C  C117  1  0.91423000  0.24727000  0.31615000  1.0
  C  C118  1  0.03457000  0.67302000  0.67426000  1.0
  C  C119  1  0.96543000  0.32698000  0.32574000  1.0
  C  C120  1  0.88914000  0.69031000  0.72021000  1.0
  C  C121  1  0.11087000  0.30969000  0.27979000  1.0
  C  C122  1  0.79650000  0.78366000  0.77501000  1.0
  C  C123  1  0.20350000  0.21634000  0.22499000  1.0
  C  C124  1  0.84606000  0.86316000  0.78654000  1.0
  C  C125  1  0.15394000  0.13683000  0.21346000  1.0
  C  C126  1  0.99139000  0.84597000  0.73965000  1.0
  C  C127  1  0.00861000  0.15403000  0.26036000  1.0
  C  C128  1  0.02760000  0.00831000  0.78501000  1.0
  C  C129  1  0.97239000  0.99169000  0.21500000  1.0
  C  C130  1  0.08164000  0.91076000  0.93854000  1.0
  C  C131  1  0.91836000  0.08924000  0.06146000  1.0
  C  C132  1  0.01195000  0.00196000  0.89650000  1.0
  C  C133  1  0.98805000  0.99805000  0.10351000  1.0
  C  C134  1  0.92973000  0.09101000  0.95909000  1.0
  C  C135  1  0.07027000  0.90900000  0.04092000  1.0
  C  C136  1  0.34731000  0.81242000  0.25223000  1.0
  C  C137  1  0.65270000  0.18758000  0.74777000  1.0
  C  C138  1  0.48872000  0.87891000  0.15264000  1.0
  C  C139  1  0.51129000  0.12109000  0.84736000  1.0
  C  C140  1  0.58464000  0.90346000  0.07203000  1.0
  C  C141  1  0.41537000  0.09653000  0.92797000  1.0
  C  C142  1  0.64095000  0.97731000  0.08937000  1.0
  C  C143  1  0.35906000  0.02269000  0.91064000  1.0
  C  C144  1  0.60120000  0.02727000  0.18458000  1.0
  C  C145  1  0.39880000  0.97272000  0.81543000  1.0
  C  C146  1  0.50672000  0.00390000  0.26642000  1.0
  C  C147  1  0.49328000  0.99609000  0.73359000  1.0
  C  C148  1  0.45365000  0.92769000  0.24904000  1.0
  C  C149  1  0.54635000  0.07230000  0.75096000  1.0
  C  C150  1  0.31064000  0.89722000  0.41966000  1.0
  C  C151  1  0.68935000  0.10278000  0.58034000  1.0
  C  C152  1  0.05939000  0.89255000  0.48345000  1.0
  C  C153  1  0.94062000  0.10744000  0.51655000  1.0
  C  C154  1  0.14948000  0.95108000  0.45870000  1.0
  C  C155  1  0.85052000  0.04891000  0.54130000  1.0
  C  C156  1  0.08864000  0.05862000  0.47495000  1.0
  C  C157  1  0.91136000  0.94138000  0.52505000  1.0
  N  N158  1  0.44201000  0.55871000  0.70290000  1.0
  N  N159  1  0.55799000  0.44129000  0.29711000  1.0
  N  N160  1  0.35687000  0.46930000  0.82491000  1.0
  N  N161  1  0.64313000  0.53071000  0.17509000  1.0
  N  N162  1  0.22195000  0.76012000  0.64592000  1.0
  N  N163  1  0.77806000  0.23988000  0.35409000  1.0
  N  N164  1  0.07440000  0.90787000  0.73328000  1.0
  N  N165  1  0.92559000  0.09213000  0.26673000  1.0
  N  N166  1  0.41856000  0.80850000  0.15716000  1.0
  N  N167  1  0.58144000  0.19150000  0.84283000  1.0
  N  N168  1  0.36335000  0.88304000  0.31087000  1.0
  N  N169  1  0.63665000  0.11695000  0.68914000  1.0
  O  O170  1  0.44921000  0.22338000  0.42537000  1.0
  O  O171  1  0.55079000  0.77662000  0.57462000  1.0
  O  O172  1  0.65969000  0.47615000  0.49367000  1.0
  O  O173  1  0.34032000  0.52385000  0.50632000  1.0
  O  O174  1  0.72091000  0.33576000  0.58187000  1.0
  O  O175  1  0.27909000  0.66424000  0.41813000  1.0
  O  O176  1  0.41731000  0.30561000  0.57029000  1.0
  O  O177  1  0.58269000  0.69439000  0.42970000  1.0
