# generated using pymatgen
data_CuHC4O3
_symmetry_space_group_name_H-M   'P 1'
_cell_length_a   6.26448000
_cell_length_b   15.20080000
_cell_length_c   15.20879516
_cell_angle_alpha   118.06826851
_cell_angle_beta   97.91743538
_cell_angle_gamma   97.86910000
_symmetry_Int_Tables_number   1
_chemical_formula_structural   CuHC4O3
_chemical_formula_sum   'Cu6 H6 C24 O18'
_cell_volume   1231.56744224
_cell_formula_units_Z   6
loop_
 _symmetry_equiv_pos_site_id
 _symmetry_equiv_pos_as_xyz
  1  'x, y, z'
loop_
 _atom_site_type_symbol
 _atom_site_label
 _atom_site_symmetry_multiplicity
 _atom_site_fract_x
 _atom_site_fract_y
 _atom_site_fract_z
 _atom_site_occupancy
  Cu  Cu0  1  0.16842000  0.30944000  0.73666000  1.0
  Cu  Cu1  1  0.85863000  0.42817000  0.69094000  1.0
  Cu  Cu2  1  0.43035000  0.26302000  0.57279000  1.0
  Cu  Cu3  1  0.83169000  0.69146000  0.26240000  1.0
  Cu  Cu4  1  0.14265000  0.57331000  0.30959000  1.0
  Cu  Cu5  1  0.56805000  0.73649000  0.42777000  1.0
  H  H6  1  0.39951000  0.02381000  0.56750000  1.0
  H  H7  1  0.37461000  0.54486000  0.97624000  1.0
  H  H8  1  0.82890000  0.43059000  0.45466000  1.0
  H  H9  1  0.60235000  0.97671000  0.43081000  1.0
  H  H10  1  0.62528000  0.45562000  0.02439000  1.0
  H  H11  1  0.17005000  0.56837000  0.54485000  1.0
  C  C12  1  0.78369000  0.16976000  0.57271000  1.0
  C  C13  1  0.61327000  0.40399000  0.83088000  1.0
  C  C14  1  0.20953000  0.42637000  0.59613000  1.0
  C  C15  1  0.21676000  0.83044000  0.42641000  1.0
  C  C16  1  0.38663000  0.59678000  0.16964000  1.0
  C  C17  1  0.78951000  0.57255000  0.40316000  1.0
  C  C18  1  0.90175000  0.08535000  0.53418000  1.0
  C  C19  1  0.81554000  0.44958000  0.91538000  1.0
  C  C20  1  0.36586000  0.46498000  0.55031000  1.0
  C  C21  1  0.09948000  0.91505000  0.46540000  1.0
  C  C22  1  0.18438000  0.55078000  0.08524000  1.0
  C  C23  1  0.63304000  0.53401000  0.44912000  1.0
  C  C24  1  0.13223000  0.09959000  0.57291000  1.0
  C  C25  1  0.03191000  0.47332000  0.90075000  1.0
  C  C26  1  0.55772000  0.42623000  0.52613000  1.0
  C  C27  1  0.86854000  0.90063000  0.42734000  1.0
  C  C28  1  0.96829000  0.52661000  0.09986000  1.0
  C  C29  1  0.44154000  0.57300000  0.47374000  1.0
  C  C30  1  0.22401000  0.01288000  0.53778000  1.0
  C  C31  1  0.21036000  0.52583000  0.98735000  1.0
  C  C32  1  0.68374000  0.46071000  0.47390000  1.0
  C  C33  1  0.77751000  0.98739000  0.46100000  1.0
  C  C34  1  0.78955000  0.47450000  0.01324000  1.0
  C  C35  1  0.31508000  0.53815000  0.52564000  1.0
  O  O36  1  0.86114000  0.25013000  0.66106000  1.0
  O  O37  1  0.61040000  0.41303000  0.75100000  1.0
  O  O38  1  0.19737000  0.33723000  0.58689000  1.0
  O  O39  1  0.13995000  0.75103000  0.33734000  1.0
  O  O40  1  0.38995000  0.58771000  0.24957000  1.0
  O  O41  1  0.79974000  0.66104000  0.41106000  1.0
  O  O42  1  0.59654000  0.15747000  0.51781000  1.0
  O  O43  1  0.43909000  0.36051000  0.84275000  1.0
  O  O44  1  0.07928000  0.48180000  0.63972000  1.0
  O  O45  1  0.40239000  0.84190000  0.48188000  1.0
  O  O46  1  0.56027000  0.64044000  0.15760000  1.0
  O  O47  1  0.92197000  0.51793000  0.36069000  1.0
  O  O48  1  0.26996000  0.19109000  0.63765000  1.0
  O  O49  1  0.07595000  0.44375000  0.80863000  1.0
  O  O50  1  0.63172000  0.36349000  0.55581000  1.0
  O  O51  1  0.73223000  0.80814000  0.36531000  1.0
  O  O52  1  0.92377000  0.55561000  0.19184000  1.0
  O  O53  1  0.36785000  0.63737000  0.44656000  1.0
