# generated using pymatgen
data_ScH18(C5O2)3
_symmetry_space_group_name_H-M   'P 1'
_cell_length_a   9.00140000
_cell_length_b   11.38530000
_cell_length_c   17.80858461
_cell_angle_alpha   84.26571446
_cell_angle_beta   75.35856266
_cell_angle_gamma   66.70670000
_symmetry_Int_Tables_number   1
_chemical_formula_structural   ScH18(C5O2)3
_chemical_formula_sum   'Sc4 H72 C60 O24'
_cell_volume   1621.89427175
_cell_formula_units_Z   4
loop_
 _symmetry_equiv_pos_site_id
 _symmetry_equiv_pos_as_xyz
  1  'x, y, z'
loop_
 _atom_site_type_symbol
 _atom_site_label
 _atom_site_symmetry_multiplicity
 _atom_site_fract_x
 _atom_site_fract_y
 _atom_site_fract_z
 _atom_site_occupancy
  Sc  Sc0  1  0.38646000  0.25003000  0.22700000  1.0
  Sc  Sc1  1  0.86352000  0.25003000  0.27286000  1.0
  Sc  Sc2  1  0.61353000  0.74998000  0.77300000  1.0
  Sc  Sc3  1  0.13648000  0.74998000  0.72714000  1.0
  H  H4  1  0.74285000  0.55340000  0.60578000  1.0
  H  H5  1  0.65147000  0.94664000  0.60573000  1.0
  H  H6  1  0.20386000  0.55324000  0.89423000  1.0
  H  H7  1  0.90192000  0.94673000  0.89425000  1.0
  H  H8  1  0.25715000  0.44660000  0.39422000  1.0
  H  H9  1  0.34854000  0.05336000  0.39426000  1.0
  H  H10  1  0.79613000  0.44676000  0.10577000  1.0
  H  H11  1  0.09808000  0.05327000  0.10576000  1.0
  H  H12  1  0.77888000  0.42781000  0.49029000  1.0
  H  H13  1  0.73074000  0.07231000  0.49025000  1.0
  H  H14  1  0.29335000  0.42769000  0.00976000  1.0
  H  H15  1  0.69690000  0.07227000  0.00978000  1.0
  H  H16  1  0.22111000  0.57219000  0.50972000  1.0
  H  H17  1  0.26926000  0.92768000  0.50975000  1.0
  H  H18  1  0.70665000  0.57231000  0.99023000  1.0
  H  H19  1  0.30311000  0.92773000  0.99022000  1.0
  H  H20  1  0.07638000  0.87015000  0.25049000  1.0
  H  H21  1  0.67300000  0.63002000  0.25048000  1.0
  H  H22  1  0.55359000  0.86993000  0.24943000  1.0
  H  H23  1  0.19682000  0.63022000  0.24945000  1.0
  H  H24  1  0.92362000  0.12986000  0.74951000  1.0
  H  H25  1  0.32700000  0.36998000  0.74952000  1.0
  H  H26  1  0.44641000  0.13008000  0.75056000  1.0
  H  H27  1  0.80318000  0.36978000  0.75055000  1.0
  H  H28  1  0.90472000  0.69074000  0.39219000  1.0
  H  H29  1  0.70314000  0.80927000  0.39219000  1.0
  H  H30  1  0.90451000  0.69082000  0.10790000  1.0
  H  H31  1  0.98762000  0.80928000  0.10788000  1.0
  H  H32  1  0.09526000  0.30927000  0.60782000  1.0
  H  H33  1  0.29684000  0.19074000  0.60781000  1.0
  H  H34  1  0.09553000  0.30919000  0.89208000  1.0
  H  H35  1  0.01240000  0.19072000  0.89212000  1.0
  H  H36  1  0.80306000  0.68800000  0.31896000  1.0
  H  H37  1  0.87805000  0.81202000  0.31897000  1.0
  H  H38  1  0.00893000  0.68804000  0.18111000  1.0
  H  H39  1  0.80993000  0.81212000  0.18110000  1.0
  H  H40  1  0.19696000  0.31199000  0.68104000  1.0
  H  H41  1  0.12195000  0.18798000  0.68103000  1.0
  H  H42  1  0.99106000  0.31195000  0.81889000  1.0
  H  H43  1  0.19007000  0.18787000  0.81890000  1.0
  H  H44  1  0.53858000  0.37412000  0.49381000  1.0
  H  H45  1  0.96762000  0.12581000  0.49381000  1.0
  H  H46  1  0.58726000  0.37424000  0.00619000  1.0
  H  H47  1  0.40655000  0.12576000  0.00623000  1.0
  H  H48  1  0.46141000  0.62588000  0.50619000  1.0
  H  H49  1  0.03238000  0.87419000  0.50619000  1.0
  H  H50  1  0.41275000  0.62576000  0.99380000  1.0
  H  H51  1  0.59344000  0.87424000  0.99378000  1.0
  H  H52  1  0.40612000  0.45176000  0.58337000  1.0
  H  H53  1  0.01045000  0.04822000  0.58338000  1.0
  H  H54  1  0.64207000  0.45181000  0.91662000  1.0
  H  H55  1  0.44135000  0.04819000  0.91665000  1.0
  H  H56  1  0.59388000  0.54824000  0.41663000  1.0
  H  H57  1  0.98955000  0.95177000  0.41662000  1.0
  H  H58  1  0.35795000  0.54818000  0.08337000  1.0
  H  H59  1  0.55866000  0.95181000  0.08335000  1.0
  H  H60  1  0.46837000  0.28379000  0.57206000  1.0
  H  H61  1  0.95958000  0.21618000  0.57204000  1.0
  H  H62  1  0.74782000  0.28386000  0.92793000  1.0
  H  H63  1  0.32423000  0.21614000  0.92797000  1.0
  H  H64  1  0.53163000  0.71621000  0.42794000  1.0
  H  H65  1  0.04042000  0.78381000  0.42796000  1.0
  H  H66  1  0.25217000  0.71613000  0.07207000  1.0
  H  H67  1  0.67577000  0.78386000  0.07203000  1.0
  H  H68  1  0.61618000  0.34650000  0.57979000  1.0
  H  H69  1  0.80399000  0.15351000  0.57977000  1.0
  H  H70  1  0.53726000  0.34658000  0.92023000  1.0
  H  H71  1  0.54251000  0.15345000  0.92026000  1.0
  H  H72  1  0.38381000  0.65349000  0.42021000  1.0
  H  H73  1  0.19601000  0.84649000  0.42023000  1.0
  H  H74  1  0.46274000  0.65342000  0.07977000  1.0
  H  H75  1  0.45750000  0.84655000  0.07974000  1.0
  C  C76  1  0.03831000  0.35861000  0.36535000  1.0
  C  C77  1  0.59624000  0.14142000  0.36535000  1.0
  C  C78  1  0.10299000  0.35867000  0.13465000  1.0
  C  C79  1  0.76232000  0.14135000  0.13467000  1.0
  C  C80  1  0.96170000  0.64139000  0.63465000  1.0
  C  C81  1  0.40377000  0.85858000  0.63465000  1.0
  C  C82  1  0.89700000  0.64133000  0.86535000  1.0
  C  C83  1  0.23768000  0.85866000  0.86533000  1.0
  C  C84  1  0.01959000  0.42992000  0.43546000  1.0
  C  C85  1  0.54485000  0.07011000  0.43546000  1.0
  C  C86  1  0.05034000  0.43001000  0.06458000  1.0
  C  C87  1  0.88503000  0.07004000  0.06457000  1.0
  C  C88  1  0.98040000  0.57008000  0.56455000  1.0
  C  C89  1  0.45516000  0.92989000  0.56454000  1.0
  C  C90  1  0.94965000  0.56999000  0.93542000  1.0
  C  C91  1  0.11498000  0.92996000  0.93543000  1.0
  C  C92  1  0.30813000  0.88380000  0.24988000  1.0
  C  C93  1  0.44185000  0.61633000  0.24988000  1.0
  C  C94  1  0.69186000  0.11620000  0.75012000  1.0
  C  C95  1  0.55815000  0.38368000  0.75012000  1.0
  C  C96  1  0.23667000  0.02675000  0.24993000  1.0
  C  C97  1  0.51326000  0.47338000  0.24993000  1.0
  C  C98  1  0.76332000  0.97326000  0.75007000  1.0
  C  C99  1  0.48674000  0.52662000  0.75007000  1.0
  C  C100  1  0.85479000  0.52994000  0.55911000  1.0
  C  C101  1  0.58612000  0.97011000  0.55909000  1.0
  C  C102  1  0.11537000  0.52976000  0.94089000  1.0
  C  C103  1  0.94378000  0.97018000  0.94090000  1.0
  C  C104  1  0.14521000  0.47006000  0.44089000  1.0
  C  C105  1  0.41388000  0.02989000  0.44091000  1.0
  C  C106  1  0.88462000  0.47023000  0.05911000  1.0
  C  C107  1  0.05623000  0.02982000  0.05910000  1.0
  C  C108  1  0.87470000  0.46008000  0.49504000  1.0
  C  C109  1  0.63021000  0.04000000  0.49502000  1.0
  C  C110  1  0.16527000  0.45999000  0.00499000  1.0
  C  C111  1  0.82975000  0.03997000  0.00500000  1.0
  C  C112  1  0.12531000  0.53992000  0.50496000  1.0
  C  C113  1  0.36979000  0.95999000  0.50498000  1.0
  C  C114  1  0.83473000  0.54001000  0.99500000  1.0
  C  C115  1  0.17026000  0.96003000  0.99500000  1.0
  C  C116  1  0.20695000  0.81655000  0.25021000  1.0
  C  C117  1  0.54269000  0.68359000  0.25021000  1.0
  C  C118  1  0.47651000  0.81644000  0.24975000  1.0
  C  C119  1  0.27358000  0.68372000  0.24975000  1.0
  C  C120  1  0.79304000  0.18345000  0.74979000  1.0
  C  C121  1  0.45730000  0.31642000  0.74979000  1.0
  C  C122  1  0.52348000  0.18357000  0.75025000  1.0
  C  C123  1  0.72642000  0.31629000  0.75024000  1.0
  C  C124  1  0.82230000  0.75001000  0.35545000  1.0
  C  C125  1  0.92767000  0.75006000  0.14463000  1.0
  C  C126  1  0.17770000  0.24999000  0.64455000  1.0
  C  C127  1  0.07233000  0.24993000  0.85537000  1.0
  C  C128  1  0.50715000  0.36442000  0.55703000  1.0
  C  C129  1  0.93579000  0.13555000  0.55703000  1.0
  C  C130  1  0.62838000  0.36448000  0.94298000  1.0
  C  C131  1  0.42864000  0.13553000  0.94301000  1.0
  C  C132  1  0.49284000  0.63558000  0.44297000  1.0
  C  C133  1  0.06421000  0.86444000  0.44297000  1.0
  C  C134  1  0.37162000  0.63551000  0.05702000  1.0
  C  C135  1  0.57136000  0.86447000  0.05700000  1.0
  O  O136  1  0.91806000  0.32931000  0.36052000  1.0
  O  O137  1  0.72109000  0.17096000  0.36059000  1.0
  O  O138  1  0.25251000  0.32937000  0.13943000  1.0
  O  O139  1  0.60799000  0.17094000  0.13939000  1.0
  O  O140  1  0.08195000  0.67068000  0.63948000  1.0
  O  O141  1  0.27891000  0.82903000  0.63941000  1.0
  O  O142  1  0.74749000  0.67064000  0.86057000  1.0
  O  O143  1  0.39201000  0.82906000  0.86061000  1.0
  O  O144  1  0.33766000  0.08326000  0.22998000  1.0
  O  O145  1  0.43200000  0.41687000  0.23017000  1.0
  O  O146  1  0.07912000  0.08323000  0.27020000  1.0
  O  O147  1  0.65076000  0.41690000  0.27001000  1.0
  O  O148  1  0.66232000  0.91675000  0.77002000  1.0
  O  O149  1  0.56800000  0.58314000  0.76983000  1.0
  O  O150  1  0.92087000  0.91677000  0.72980000  1.0
  O  O151  1  0.34924000  0.58311000  0.73000000  1.0
  O  O152  1  0.17292000  0.33237000  0.31347000  1.0
  O  O153  1  0.51369000  0.16743000  0.31339000  1.0
  O  O154  1  0.99469000  0.33230000  0.18656000  1.0
  O  O155  1  0.81878000  0.16739000  0.18668000  1.0
  O  O156  1  0.82708000  0.66763000  0.68654000  1.0
  O  O157  1  0.48632000  0.83256000  0.68661000  1.0
  O  O158  1  0.00531000  0.66771000  0.81344000  1.0
  O  O159  1  0.18121000  0.83262000  0.81333000  1.0
