# generated using pymatgen
data_GaH7C4
_symmetry_space_group_name_H-M   'P 1'
_cell_length_a   10.26010000
_cell_length_b   10.26000000
_cell_length_c   15.76040000
_cell_angle_alpha   76.87460000
_cell_angle_beta   76.87430000
_cell_angle_gamma   61.58010000
_symmetry_Int_Tables_number   1
_chemical_formula_structural   GaH7C4
_chemical_formula_sum   'Ga12 H84 C48'
_cell_volume   1407.22532542
_cell_formula_units_Z   12
loop_
 _symmetry_equiv_pos_site_id
 _symmetry_equiv_pos_as_xyz
  1  'x, y, z'
loop_
 _atom_site_type_symbol
 _atom_site_label
 _atom_site_symmetry_multiplicity
 _atom_site_fract_x
 _atom_site_fract_y
 _atom_site_fract_z
 _atom_site_occupancy
  Ga  Ga0  1  0.31375000  0.03179000  0.32359000  1.0
  Ga  Ga1  1  0.96821000  0.68625000  0.17641000  1.0
  Ga  Ga2  1  0.68625000  0.96821000  0.67641000  1.0
  Ga  Ga3  1  0.03179000  0.31376000  0.82359000  1.0
  Ga  Ga4  1  0.36732000  0.11972000  0.15017000  1.0
  Ga  Ga5  1  0.88028000  0.63268000  0.34983000  1.0
  Ga  Ga6  1  0.63268000  0.88028000  0.84983000  1.0
  Ga  Ga7  1  0.11972000  0.36732000  0.65017000  1.0
  Ga  Ga8  1  0.76299000  0.28018000  0.14800000  1.0
  Ga  Ga9  1  0.71982000  0.23701000  0.35201000  1.0
  Ga  Ga10  1  0.23702000  0.71982000  0.85200000  1.0
  Ga  Ga11  1  0.28018000  0.76298000  0.64800000  1.0
  H  H12  1  0.19249000  0.37408000  0.28836000  1.0
  H  H13  1  0.62592000  0.80752000  0.21164000  1.0
  H  H14  1  0.80751000  0.62592000  0.71164000  1.0
  H  H15  1  0.37408000  0.19249000  0.78836000  1.0
  H  H16  1  0.74756000  0.53067000  0.23143000  1.0
  H  H17  1  0.46933000  0.25244000  0.26857000  1.0
  H  H18  1  0.25244000  0.46932000  0.76857000  1.0
  H  H19  1  0.53068000  0.74756000  0.73143000  1.0
  H  H20  1  0.07368000  0.07654000  0.20650000  1.0
  H  H21  1  0.92346000  0.92632000  0.29351000  1.0
  H  H22  1  0.92632000  0.92346000  0.79351000  1.0
  H  H23  1  0.07654000  0.07368000  0.70649000  1.0
  H  H24  1  0.34754000  0.76543000  0.38786000  1.0
  H  H25  1  0.23457000  0.65246000  0.11214000  1.0
  H  H26  1  0.65246000  0.23457000  0.61214000  1.0
  H  H27  1  0.76543000  0.34754000  0.88786000  1.0
  H  H28  1  0.39456000  0.77734000  0.27168000  1.0
  H  H29  1  0.22266000  0.60545000  0.22832000  1.0
  H  H30  1  0.60545000  0.22266000  0.72832000  1.0
  H  H31  1  0.77734000  0.39455000  0.77168000  1.0
  H  H32  1  0.20432000  0.85509000  0.31936000  1.0
  H  H33  1  0.14491000  0.79569000  0.18064000  1.0
  H  H34  1  0.79569000  0.14491000  0.68064000  1.0
  H  H35  1  0.85509000  0.20431000  0.81936000  1.0
  H  H36  1  0.21701000  0.11194000  0.47713000  1.0
  H  H37  1  0.88806000  0.78299000  0.02287000  1.0
  H  H38  1  0.78299000  0.88806000  0.52287000  1.0
  H  H39  1  0.11194000  0.21701000  0.97713000  1.0
  H  H40  1  0.31425000  0.21463000  0.41370000  1.0
  H  H41  1  0.78537000  0.68575000  0.08630000  1.0
  H  H42  1  0.68575000  0.78537000  0.58630000  1.0
  H  H43  1  0.21463000  0.31425000  0.91370000  1.0
  H  H44  1  0.41650000  0.02460000  0.45892000  1.0
  H  H45  1  0.97540000  0.58350000  0.04108000  1.0
  H  H46  1  0.58350000  0.97540000  0.54108000  1.0
  H  H47  1  0.02460000  0.41650000  0.95892000  1.0
  H  H48  1  0.29943000  0.01425000  0.04328000  1.0
  H  H49  1  0.98575000  0.70057000  0.45672000  1.0
  H  H50  1  0.70057000  0.98575000  0.95672000  1.0
  H  H51  1  0.01425000  0.29943000  0.54328000  1.0
  H  H52  1  0.32970000  0.88700000  0.14263000  1.0
  H  H53  1  0.11300000  0.67030000  0.35737000  1.0
  H  H54  1  0.67030000  0.11300000  0.85737000  1.0
  H  H55  1  0.88700000  0.32970000  0.64263000  1.0
  H  H56  1  0.48438000  0.89374000  0.06709000  1.0
  H  H57  1  0.10626000  0.51562000  0.43291000  1.0
  H  H58  1  0.51562000  0.10626000  0.93291000  1.0
  H  H59  1  0.89374000  0.48438000  0.56709000  1.0
  H  H60  1  0.45508000  0.29196000  0.03514000  1.0
  H  H61  1  0.70804000  0.54492000  0.46485000  1.0
  H  H62  1  0.54491000  0.70805000  0.96486000  1.0
  H  H63  1  0.29196000  0.45508000  0.53514000  1.0
  H  H64  1  0.34407000  0.38705000  0.12680000  1.0
  H  H65  1  0.61295000  0.65592000  0.37320000  1.0
  H  H66  1  0.65592000  0.61295000  0.87320000  1.0
  H  H67  1  0.38705000  0.34408000  0.62680000  1.0
  H  H68  1  0.25634000  0.36579000  0.04888000  1.0
  H  H69  1  0.63420000  0.74366000  0.45112000  1.0
  H  H70  1  0.74365000  0.63421000  0.95113000  1.0
  H  H71  1  0.36579000  0.25634000  0.54887000  1.0
  H  H72  1  0.53599000  0.47097000  0.07033000  1.0
  H  H73  1  0.52903000  0.46401000  0.42967000  1.0
  H  H74  1  0.46401000  0.52902000  0.92967000  1.0
  H  H75  1  0.47097000  0.53599000  0.57033000  1.0
  H  H76  1  0.59910000  0.56314000  0.12219000  1.0
  H  H77  1  0.43687000  0.40090000  0.37781000  1.0
  H  H78  1  0.40090000  0.43686000  0.87781000  1.0
  H  H79  1  0.56313000  0.59909000  0.62219000  1.0
  H  H80  1  0.48758000  0.47668000  0.18535000  1.0
  H  H81  1  0.52332000  0.51242000  0.31465000  1.0
  H  H82  1  0.51242000  0.52332000  0.81465000  1.0
  H  H83  1  0.47668000  0.48758000  0.68535000  1.0
  H  H84  1  0.78327000  0.06716000  0.07885000  1.0
  H  H85  1  0.93285000  0.21673000  0.42115000  1.0
  H  H86  1  0.21673000  0.93285000  0.92115000  1.0
  H  H87  1  0.06715000  0.78327000  0.57885000  1.0
  H  H88  1  0.96527000  0.03210000  0.09294000  1.0
  H  H89  1  0.96790000  0.03472000  0.40706000  1.0
  H  H90  1  0.03473000  0.96790000  0.90706000  1.0
  H  H91  1  0.03210000  0.96528000  0.59294000  1.0
  H  H92  1  0.87567000  0.16558000  0.00511000  1.0
  H  H93  1  0.83442000  0.12433000  0.49489000  1.0
  H  H94  1  0.12433000  0.83442000  0.99489000  1.0
  H  H95  1  0.16558000  0.87567000  0.50511000  1.0
  C  C96  1  0.15233000  0.20850000  0.24940000  1.0
  C  C97  1  0.79150000  0.84767000  0.25060000  1.0
  C  C98  1  0.84767000  0.79150000  0.75060000  1.0
  C  C99  1  0.20850000  0.15233000  0.74940000  1.0
  C  C100  1  0.10949000  0.35343000  0.26817000  1.0
  C  C101  1  0.64656000  0.89051000  0.23183000  1.0
  C  C102  1  0.89051000  0.64657000  0.73183000  1.0
  C  C103  1  0.35344000  0.10949000  0.76817000  1.0
  C  C104  1  0.96520000  0.47192000  0.26298000  1.0
  C  C105  1  0.52808000  0.03480000  0.23702000  1.0
  C  C106  1  0.03480000  0.52808000  0.73702000  1.0
  C  C107  1  0.47192000  0.96520000  0.76298000  1.0
  C  C108  1  0.86114000  0.44099000  0.23603000  1.0
  C  C109  1  0.55900000  0.13887000  0.26397000  1.0
  C  C110  1  0.13886000  0.55901000  0.76397000  1.0
  C  C111  1  0.44100000  0.86114000  0.73603000  1.0
  C  C112  1  0.89680000  0.30154000  0.21399000  1.0
  C  C113  1  0.69846000  0.10320000  0.28601000  1.0
  C  C114  1  0.10320000  0.69845000  0.78601000  1.0
  C  C115  1  0.30155000  0.89680000  0.71399000  1.0
  C  C116  1  0.04338000  0.18688000  0.22235000  1.0
  C  C117  1  0.81312000  0.95662000  0.27765000  1.0
  C  C118  1  0.95661000  0.81312000  0.77765000  1.0
  C  C119  1  0.18689000  0.04338000  0.72235000  1.0
  C  C120  1  0.31631000  0.83741000  0.32549000  1.0
  C  C121  1  0.16259000  0.68369000  0.17450000  1.0
  C  C122  1  0.68369000  0.16259000  0.67450000  1.0
  C  C123  1  0.83741000  0.31631000  0.82550000  1.0
  C  C124  1  0.31547000  0.10435000  0.42900000  1.0
  C  C125  1  0.89565000  0.68452000  0.07100000  1.0
  C  C126  1  0.68452000  0.89565000  0.57099000  1.0
  C  C127  1  0.10435000  0.31548000  0.92901000  1.0
  C  C128  1  0.36944000  0.96207000  0.09636000  1.0
  C  C129  1  0.03793000  0.63056000  0.40364000  1.0
  C  C130  1  0.63056000  0.03793000  0.90364000  1.0
  C  C131  1  0.96207000  0.36944000  0.59636000  1.0
  C  C132  1  0.35451000  0.31168000  0.08374000  1.0
  C  C133  1  0.68832000  0.64549000  0.41625000  1.0
  C  C134  1  0.64548000  0.68833000  0.91626000  1.0
  C  C135  1  0.31167000  0.35451000  0.58374000  1.0
  C  C136  1  0.57703000  0.46591000  0.12996000  1.0
  C  C137  1  0.53409000  0.42296000  0.37004000  1.0
  C  C138  1  0.42297000  0.53408000  0.87003000  1.0
  C  C139  1  0.46591000  0.57703000  0.62996000  1.0
  C  C140  1  0.85712000  0.11917000  0.07416000  1.0
  C  C141  1  0.88084000  0.14287000  0.42584000  1.0
  C  C142  1  0.14288000  0.88083000  0.92584000  1.0
  C  C143  1  0.11916000  0.85712000  0.57416000  1.0
