# generated using pymatgen
data_Al2H14C24O11
_symmetry_space_group_name_H-M   'P 1'
_cell_length_a   6.69418000
_cell_length_b   17.14300000
_cell_length_c   19.55920000
_cell_angle_alpha   108.13800000
_cell_angle_beta   89.99970000
_cell_angle_gamma   89.99950000
_symmetry_Int_Tables_number   1
_chemical_formula_structural   Al2H14C24O11
_chemical_formula_sum   'Al4 H28 C48 O22'
_cell_volume   2133.04666947
_cell_formula_units_Z   2
loop_
 _symmetry_equiv_pos_site_id
 _symmetry_equiv_pos_as_xyz
  1  'x, y, z'
loop_
 _atom_site_type_symbol
 _atom_site_label
 _atom_site_symmetry_multiplicity
 _atom_site_fract_x
 _atom_site_fract_y
 _atom_site_fract_z
 _atom_site_occupancy
  Al  Al0  1  0.89930000  0.50211000  0.50159000  1.0
  Al  Al1  1  0.39930000  0.49790000  0.49841000  1.0
  Al  Al2  1  0.36506000  0.99849000  0.99941000  1.0
  Al  Al3  1  0.86506000  0.00152000  0.00059000  1.0
  H  H4  1  0.42597000  0.18938000  0.19006000  1.0
  H  H5  1  0.92597000  0.81060000  0.80994000  1.0
  H  H6  1  0.96710000  0.20065000  0.20132000  1.0
  H  H7  1  0.46709000  0.79936000  0.79868000  1.0
  H  H8  1  0.43908000  0.30177000  0.30491000  1.0
  H  H9  1  0.93907000  0.69822000  0.69509000  1.0
  H  H10  1  0.97897000  0.30302000  0.30138000  1.0
  H  H11  1  0.47895000  0.69697000  0.69862000  1.0
  H  H12  1  0.85912000  0.41509000  0.67486000  1.0
  H  H13  1  0.35911000  0.58492000  0.32514000  1.0
  H  H14  1  0.43422000  0.31387000  0.59774000  1.0
  H  H15  1  0.93420000  0.68613000  0.40226000  1.0
  H  H16  1  0.58607000  0.20639000  0.64341000  1.0
  H  H17  1  0.08606000  0.79360000  0.35659000  1.0
  H  H18  1  0.57501000  0.12245000  0.72580000  1.0
  H  H19  1  0.07501000  0.87755000  0.27420000  1.0
  H  H20  1  0.40780000  0.08526000  0.82525000  1.0
  H  H21  1  0.90780000  0.91475000  0.17475000  1.0
  H  H22  1  0.83369000  0.18737000  0.90304000  1.0
  H  H23  1  0.33369000  0.81264000  0.09696000  1.0
  H  H24  1  0.69090000  0.37805000  0.77478000  1.0
  H  H25  1  0.19090000  0.62195000  0.22522000  1.0
  H  H26  1  0.54671000  0.32608000  0.85866000  1.0
  H  H27  1  0.04672000  0.67392000  0.14133000  1.0
  H  H28  1  0.65550000  0.39216000  0.48033000  1.0
  H  H29  1  0.15550000  0.60784000  0.51968000  1.0
  H  H30  1  0.61030000  0.10640000  0.01145000  1.0
  H  H31  1  0.11031000  0.89360000  0.98856000  1.0
  C  C32  1  0.64851000  0.58239000  0.41925000  1.0
  C  C33  1  0.14852000  0.41761000  0.58075000  1.0
  C  C34  1  0.64567000  0.61335000  0.61134000  1.0
  C  C35  1  0.14568000  0.38665000  0.38866000  1.0
  C  C36  1  0.28397000  0.21431000  0.21508000  1.0
  C  C37  1  0.78396000  0.78568000  0.78492000  1.0
  C  C38  1  0.11565000  0.18020000  0.18045000  1.0
  C  C39  1  0.61566000  0.81980000  0.81955000  1.0
  C  C40  1  0.29164000  0.28096000  0.28253000  1.0
  C  C41  1  0.79163000  0.71903000  0.71747000  1.0
  C  C42  1  0.13139000  0.31964000  0.31990000  1.0
  C  C43  1  0.63137000  0.68036000  0.68010000  1.0
  C  C44  1  0.98234000  0.37456000  0.67760000  1.0
  C  C45  1  0.48233000  0.62544000  0.32240000  1.0
  C  C46  1  0.14695000  0.36886000  0.63212000  1.0
  C  C47  1  0.64694000  0.63115000  0.36788000  1.0
  C  C48  1  0.30734000  0.31700000  0.63347000  1.0
  C  C49  1  0.80732000  0.68300000  0.36653000  1.0
  C  C50  1  0.30319000  0.26809000  0.67920000  1.0
  C  C51  1  0.80318000  0.73191000  0.32080000  1.0
  C  C52  1  0.13740000  0.27486000  0.72683000  1.0
  C  C53  1  0.63740000  0.72514000  0.27317000  1.0
  C  C54  1  0.97620000  0.32964000  0.72654000  1.0
  C  C55  1  0.47620000  0.67036000  0.27346000  1.0
  C  C56  1  0.45991000  0.21120000  0.67984000  1.0
  C  C57  1  0.95991000  0.78879000  0.32016000  1.0
  C  C58  1  0.45368000  0.16475000  0.72523000  1.0
  C  C59  1  0.95368000  0.83525000  0.27476000  1.0
  C  C60  1  0.29080000  0.17130000  0.77441000  1.0
  C  C61  1  0.79081000  0.82871000  0.22559000  1.0
  C  C62  1  0.13116000  0.22688000  0.77443000  1.0
  C  C63  1  0.63117000  0.77313000  0.22557000  1.0
  C  C64  1  0.96613000  0.23330000  0.82230000  1.0
  C  C65  1  0.46614000  0.76671000  0.17770000  1.0
  C  C66  1  0.80839000  0.29028000  0.82152000  1.0
  C  C67  1  0.30840000  0.70972000  0.17848000  1.0
  C  C68  1  0.81357000  0.33628000  0.77546000  1.0
  C  C69  1  0.31357000  0.66373000  0.22453000  1.0
  C  C70  1  0.28452000  0.12593000  0.82295000  1.0
  C  C71  1  0.78452000  0.87407000  0.17705000  1.0
  C  C72  1  0.12037000  0.13170000  0.86850000  1.0
  C  C73  1  0.62037000  0.86830000  0.13150000  1.0
  C  C74  1  0.96079000  0.18415000  0.86760000  1.0
  C  C75  1  0.46080000  0.81585000  0.13240000  1.0
  C  C76  1  0.61741000  0.88690000  0.88858000  1.0
  C  C77  1  0.11741000  0.11310000  0.11142000  1.0
  C  C78  1  0.61687000  0.91747000  0.08052000  1.0
  C  C79  1  0.11687000  0.08254000  0.91948000  1.0
  O  O80  1  0.47822000  0.58565000  0.58245000  1.0
  O  O81  1  0.97823000  0.41436000  0.41754000  1.0
  O  O82  1  0.81789000  0.56777000  0.44243000  1.0
  O  O83  1  0.31791000  0.43225000  0.55758000  1.0
  O  O84  1  0.81812000  0.58884000  0.58585000  1.0
  O  O85  1  0.31813000  0.41115000  0.41415000  1.0
  O  O86  1  0.97925000  0.43989000  0.56356000  1.0
  O  O87  1  0.47924000  0.56011000  0.43643000  1.0
  O  O88  1  0.65092000  0.45133000  0.49268000  1.0
  O  O89  1  0.15092000  0.54867000  0.50731000  1.0
  O  O90  1  0.78551000  0.93913000  0.06232000  1.0
  O  O91  1  0.28551000  0.06087000  0.93768000  1.0
  O  O92  1  0.44559000  0.91163000  0.91503000  1.0
  O  O93  1  0.94558000  0.08837000  0.08498000  1.0
  O  O94  1  0.44665000  0.93299000  0.05854000  1.0
  O  O95  1  0.94666000  0.06701000  0.94146000  1.0
  O  O96  1  0.28572000  0.08596000  0.08354000  1.0
  O  O97  1  0.78573000  0.91405000  0.91645000  1.0
  O  O98  1  0.61377000  0.04875000  0.00753000  1.0
  O  O99  1  0.11377000  0.95125000  0.99247000  1.0
  O  O100  1  0.65557000  0.29354000  0.86869000  1.0
  O  O101  1  0.15558000  0.70646000  0.13130000  1.0
