# generated using pymatgen
data_ZnH22C16I4(NO4)2
_symmetry_space_group_name_H-M   'P 1'
_cell_length_a   8.52585000
_cell_length_b   11.37990000
_cell_length_c   13.66200000
_cell_angle_alpha   90.00000000
_cell_angle_beta   90.00000000
_cell_angle_gamma   99.88050000
_symmetry_Int_Tables_number   1
_chemical_formula_structural   ZnH22C16I4(NO4)2
_chemical_formula_sum   'Zn2 H44 C32 I8 N4 O16'
_cell_volume   1305.87201671
_cell_formula_units_Z   2
loop_
 _symmetry_equiv_pos_site_id
 _symmetry_equiv_pos_as_xyz
  1  'x, y, z'
loop_
 _atom_site_type_symbol
 _atom_site_label
 _atom_site_symmetry_multiplicity
 _atom_site_fract_x
 _atom_site_fract_y
 _atom_site_fract_z
 _atom_site_occupancy
  Zn  Zn0  1  0.00000000  0.50000000  0.50000000  1.0
  Zn  Zn1  1  0.50000000  0.00000000  0.00000000  1.0
  H  H2  1  0.68532000  0.31355000  0.51233000  1.0
  H  H3  1  0.81467000  0.18645000  0.01233000  1.0
  H  H4  1  0.31467000  0.68645000  0.48768000  1.0
  H  H5  1  0.18532000  0.81355000  0.98767000  1.0
  H  H6  1  0.53143000  0.37669000  0.45273000  1.0
  H  H7  1  0.96857000  0.12331000  0.95273000  1.0
  H  H8  1  0.46857000  0.62331000  0.54727000  1.0
  H  H9  1  0.03143000  0.87669000  0.04727000  1.0
  H  H10  1  0.61753000  0.43895000  0.56532000  1.0
  H  H11  1  0.88247000  0.06105000  0.06532000  1.0
  H  H12  1  0.38247000  0.56105000  0.43468000  1.0
  H  H13  1  0.11753000  0.93895000  0.93468000  1.0
  H  H14  1  0.04152000  0.63182000  0.69492000  1.0
  H  H15  1  0.45848000  0.86818000  0.19492000  1.0
  H  H16  1  0.95848000  0.36818000  0.30508000  1.0
  H  H17  1  0.54152000  0.13182000  0.80507000  1.0
  H  H18  1  0.06329000  0.58492000  0.92950000  1.0
  H  H19  1  0.43672000  0.91508000  0.42950000  1.0
  H  H20  1  0.93671000  0.41508000  0.07050000  1.0
  H  H21  1  0.56329000  0.08492000  0.57050000  1.0
  H  H22  1  0.88997000  0.65546000  0.92016000  1.0
  H  H23  1  0.61003000  0.84454000  0.42016000  1.0
  H  H24  1  0.11003000  0.34454000  0.07984000  1.0
  H  H25  1  0.38997000  0.15546000  0.57983000  1.0
  H  H26  1  0.05611000  0.70032000  0.84210000  1.0
  H  H27  1  0.44389000  0.79968000  0.34210000  1.0
  H  H28  1  0.94389000  0.29968000  0.15790000  1.0
  H  H29  1  0.55611000  0.20032000  0.65790000  1.0
  H  H30  1  0.75811000  0.37981000  0.77817000  1.0
  H  H31  1  0.74189000  0.12019000  0.27817000  1.0
  H  H32  1  0.24189000  0.62019000  0.22183000  1.0
  H  H33  1  0.25811000  0.87981000  0.72183000  1.0
  H  H34  1  0.71947000  0.45702000  0.88759000  1.0
  H  H35  1  0.78054000  0.04298000  0.38758000  1.0
  H  H36  1  0.28053000  0.54298000  0.11242000  1.0
  H  H37  1  0.21947000  0.95702000  0.61241000  1.0
  H  H38  1  0.87900000  0.37387000  0.88479000  1.0
  H  H39  1  0.62101000  0.12613000  0.38479000  1.0
  H  H40  1  0.12100000  0.62613000  0.11521000  1.0
  H  H41  1  0.37900000  0.87387000  0.61521000  1.0
  H  H42  1  0.74547000  0.55567000  0.43777000  1.0
  H  H43  1  0.75453000  0.94433000  0.93777000  1.0
  H  H44  1  0.25453000  0.44433000  0.56223000  1.0
  H  H45  1  0.24547000  0.05567000  0.06223000  1.0
  C  C46  1  0.09715000  0.25882000  0.52025000  1.0
  C  C47  1  0.40285000  0.24118000  0.02025000  1.0
  C  C48  1  0.90285000  0.74118000  0.47975000  1.0
  C  C49  1  0.59715000  0.75882000  0.97975000  1.0
  C  C50  1  0.05073000  0.12406000  0.51058000  1.0
  C  C51  1  0.44928000  0.37594000  0.01058000  1.0
  C  C52  1  0.94928000  0.87594000  0.48942000  1.0
  C  C53  1  0.55072000  0.62406000  0.98942000  1.0
  C  C54  1  0.95999000  0.05800000  0.58407000  1.0
  C  C55  1  0.54001000  0.44200000  0.08407000  1.0
  C  C56  1  0.04001000  0.94200000  0.41593000  1.0
  C  C57  1  0.45999000  0.55800000  0.91593000  1.0
  C  C58  1  0.90772000  0.93471000  0.57346000  1.0
  C  C59  1  0.59228000  0.56529000  0.07346000  1.0
  C  C60  1  0.09228000  0.06529000  0.42654000  1.0
  C  C61  1  0.40772000  0.43471000  0.92654000  1.0
  C  C62  1  0.64178000  0.39657000  0.49591000  1.0
  C  C63  1  0.85822000  0.10342000  0.99591000  1.0
  C  C64  1  0.35822000  0.60342000  0.50409000  1.0
  C  C65  1  0.14178000  0.89658000  0.00409000  1.0
  C  C66  1  0.95921000  0.54867000  0.71201000  1.0
  C  C67  1  0.54079000  0.95132000  0.21202000  1.0
  C  C68  1  0.04079000  0.45133000  0.28799000  1.0
  C  C69  1  0.45921000  0.04867000  0.78798000  1.0
  C  C70  1  0.98522000  0.62365000  0.87904000  1.0
  C  C71  1  0.51478000  0.87635000  0.37904000  1.0
  C  C72  1  0.01478000  0.37635000  0.12096000  1.0
  C  C73  1  0.48522000  0.12364000  0.62096000  1.0
  C  C74  1  0.81246000  0.43035000  0.84133000  1.0
  C  C75  1  0.68755000  0.06965000  0.34132000  1.0
  C  C76  1  0.18754000  0.56965000  0.15867000  1.0
  C  C77  1  0.31246000  0.93035000  0.65867000  1.0
  I  I78  1  0.91376000  0.14657000  0.71342000  1.0
  I  I79  1  0.58624000  0.35344000  0.21343000  1.0
  I  I80  1  0.08624000  0.85343000  0.28657000  1.0
  I  I81  1  0.41376000  0.64656000  0.78657000  1.0
  I  I82  1  0.76422000  0.83426000  0.68061000  1.0
  I  I83  1  0.73578000  0.66574000  0.18061000  1.0
  I  I84  1  0.23578000  0.16574000  0.31939000  1.0
  I  I85  1  0.26422000  0.33426000  0.81939000  1.0
  N  N86  1  0.91837000  0.53578000  0.80647000  1.0
  N  N87  1  0.58163000  0.96423000  0.30647000  1.0
  N  N88  1  0.08163000  0.46423000  0.19353000  1.0
  N  N89  1  0.41837000  0.03577000  0.69352000  1.0
  O  O90  1  0.99206000  0.31608000  0.48829000  1.0
  O  O91  1  0.50795000  0.18392000  0.98829000  1.0
  O  O92  1  0.00795000  0.68392000  0.51171000  1.0
  O  O93  1  0.49205000  0.81608000  0.01171000  1.0
  O  O94  1  0.23027000  0.29973000  0.55800000  1.0
  O  O95  1  0.26973000  0.20027000  0.05800000  1.0
  O  O96  1  0.76973000  0.70027000  0.44200000  1.0
  O  O97  1  0.73027000  0.79973000  0.94200000  1.0
  O  O98  1  0.76466000  0.47036000  0.44105000  1.0
  O  O99  1  0.73533000  0.02964000  0.94105000  1.0
  O  O100  1  0.23533000  0.52964000  0.55895000  1.0
  O  O101  1  0.26466000  0.97036000  0.05895000  1.0
  O  O102  1  0.90903000  0.47405000  0.64673000  1.0
  O  O103  1  0.59098000  0.02595000  0.14673000  1.0
  O  O104  1  0.09097000  0.52596000  0.35327000  1.0
  O  O105  1  0.40903000  0.97405000  0.85326000  1.0
