# generated using pymatgen
data_Zn2H21C15O8
_symmetry_space_group_name_H-M   'P 1'
_cell_length_a   17.99550000
_cell_length_b   19.14637790
_cell_length_c   19.66819883
_cell_angle_alpha   64.03409526
_cell_angle_beta   63.83874280
_cell_angle_gamma   62.76054079
_symmetry_Int_Tables_number   1
_chemical_formula_structural   Zn2H21C15O8
_chemical_formula_sum   'Zn8 H84 C60 O32'
_cell_volume   5165.93757238
_cell_formula_units_Z   4
loop_
 _symmetry_equiv_pos_site_id
 _symmetry_equiv_pos_as_xyz
  1  'x, y, z'
loop_
 _atom_site_type_symbol
 _atom_site_label
 _atom_site_symmetry_multiplicity
 _atom_site_fract_x
 _atom_site_fract_y
 _atom_site_fract_z
 _atom_site_occupancy
  Zn  Zn0  1  0.99915000  0.04900000  0.89425000  1.0
  Zn  Zn1  1  0.00256000  0.89097000  0.05198000  1.0
  Zn  Zn2  1  0.83349000  0.05923000  0.04963000  1.0
  Zn  Zn3  1  0.01296000  0.05375000  0.04666000  1.0
  Zn  Zn4  1  0.42416000  0.49976000  0.60435000  1.0
  Zn  Zn5  1  0.43129000  0.64193000  0.43602000  1.0
  Zn  Zn6  1  0.39771000  0.48186000  0.46331000  1.0
  Zn  Zn7  1  0.58527000  0.46992000  0.44907000  1.0
  H  H8  1  0.09052000  0.80969000  0.82594000  1.0
  H  H9  1  0.17166000  0.75814000  0.87401000  1.0
  H  H10  1  0.18821000  0.91741000  0.75062000  1.0
  H  H11  1  0.27120000  0.82109000  0.76500000  1.0
  H  H12  1  0.25387000  0.94716000  0.60686000  1.0
  H  H13  1  0.33787000  0.85068000  0.62160000  1.0
  H  H14  1  0.27844000  0.87725000  0.55716000  1.0
  H  H15  1  0.19830000  0.71882000  0.74962000  1.0
  H  H16  1  0.30533000  0.72250000  0.69526000  1.0
  H  H17  1  0.22013000  0.79056000  0.57614000  1.0
  H  H18  1  0.17692000  0.71126000  0.64706000  1.0
  H  H19  1  0.01113000  0.99979000  0.65466000  1.0
  H  H20  1  0.09810000  0.00759000  0.67004000  1.0
  H  H21  1  0.11496000  0.99535000  0.57961000  1.0
  H  H22  1  0.75603000  0.26252000  0.83103000  1.0
  H  H23  1  0.69080000  0.19989000  0.87100000  1.0
  H  H24  1  0.85655000  0.14914000  0.74361000  1.0
  H  H25  1  0.74927000  0.16107000  0.75416000  1.0
  H  H26  1  0.88100000  0.20534000  0.59785000  1.0
  H  H27  1  0.77075000  0.22001000  0.61316000  1.0
  H  H28  1  0.81164000  0.30346000  0.55568000  1.0
  H  H29  1  0.66336000  0.33792000  0.75822000  1.0
  H  H30  1  0.64800000  0.30109000  0.69922000  1.0
  H  H31  1  0.73879000  0.42062000  0.59143000  1.0
  H  H32  1  0.65359000  0.46366000  0.66695000  1.0
  H  H33  1  0.97468000  0.30272000  0.65703000  1.0
  H  H34  1  0.96609000  0.20959000  0.66432000  1.0
  H  H35  1  0.95471000  0.29540000  0.57916000  1.0
  H  H36  1  0.20858000  0.15725000  0.83144000  1.0
  H  H37  1  0.13663000  0.23663000  0.87576000  1.0
  H  H38  1  0.10138000  0.24444000  0.73522000  1.0
  H  H39  1  0.09538000  0.32585000  0.75931000  1.0
  H  H40  1  0.16120000  0.33237000  0.59858000  1.0
  H  H41  1  0.17900000  0.39602000  0.62954000  1.0
  H  H42  1  0.26814000  0.33800000  0.56736000  1.0
  H  H43  1  0.28489000  0.23042000  0.78155000  1.0
  H  H44  1  0.24397000  0.33764000  0.74000000  1.0
  H  H45  1  0.40133000  0.23492000  0.63639000  1.0
  H  H46  1  0.41557000  0.25137000  0.71127000  1.0
  H  H47  1  0.27214000  0.10252000  0.62614000  1.0
  H  H48  1  0.17807000  0.19457000  0.62591000  1.0
  H  H49  1  0.28149000  0.20008000  0.55816000  1.0
  H  H50  1  0.70407000  0.87597000  0.23415000  1.0
  H  H51  1  0.75404000  0.89555000  0.27962000  1.0
  H  H52  1  0.87648000  0.75410000  0.26996000  1.0
  H  H53  1  0.77605000  0.75556000  0.34587000  1.0
  H  H54  1  0.91343000  0.60975000  0.28231000  1.0
  H  H55  1  0.81680000  0.60972000  0.36411000  1.0
  H  H56  1  0.83592000  0.57314000  0.28729000  1.0
  H  H57  1  0.65790000  0.78520000  0.26503000  1.0
  H  H58  1  0.67406000  0.70355000  0.35117000  1.0
  H  H59  1  0.72993000  0.62159000  0.23739000  1.0
  H  H60  1  0.64125000  0.71003000  0.21224000  1.0
  H  H61  1  0.94274000  0.71957000  0.06464000  1.0
  H  H62  1  0.96646000  0.69058000  0.15478000  1.0
  H  H63  1  0.93822000  0.62315000  0.13850000  1.0
  H  H64  1  0.19397000  0.87269000  0.18386000  1.0
  H  H65  1  0.26383000  0.86546000  0.09016000  1.0
  H  H66  1  0.22695000  0.72770000  0.13434000  1.0
  H  H67  1  0.31073000  0.72818000  0.15765000  1.0
  H  H68  1  0.25496000  0.59252000  0.23582000  1.0
  H  H69  1  0.32209000  0.60964000  0.26697000  1.0
  H  H70  1  0.22822000  0.58292000  0.33729000  1.0
  H  H71  1  0.15822000  0.81205000  0.30368000  1.0
  H  H72  1  0.27267000  0.75889000  0.28272000  1.0
  H  H73  1  0.14682000  0.67091000  0.42001000  1.0
  H  H74  1  0.16969000  0.74561000  0.43050000  1.0
  H  H75  1  0.00994000  0.69550000  0.26486000  1.0
  H  H76  1  0.11921000  0.66163000  0.20113000  1.0
  H  H77  1  0.09304000  0.60872000  0.30384000  1.0
  H  H78  1  0.79870000  0.25259000  0.15302000  1.0
  H  H79  1  0.84538000  0.17803000  0.22865000  1.0
  H  H80  1  0.68697000  0.15606000  0.23738000  1.0
  H  H81  1  0.71000000  0.16043000  0.31366000  1.0
  H  H82  1  0.53244000  0.22714000  0.30663000  1.0
  H  H83  1  0.56244000  0.24396000  0.37145000  1.0
  H  H84  1  0.49976000  0.32850000  0.31055000  1.0
  H  H85  1  0.73386000  0.33706000  0.21405000  1.0
  H  H86  1  0.68978000  0.29878000  0.31770000  1.0
  H  H87  1  0.56481000  0.44055000  0.22732000  1.0
  H  H88  1  0.64517000  0.46073000  0.23747000  1.0
  H  H89  1  0.58596000  0.31226000  0.08177000  1.0
  H  H90  1  0.58817000  0.22438000  0.16834000  1.0
  H  H91  1  0.50468000  0.31963000  0.17534000  1.0
  C  C92  1  0.08609000  0.87546000  0.88996000  1.0
  C  C93  1  0.13955000  0.81847000  0.83807000  1.0
  C  C94  1  0.20418000  0.85183000  0.76010000  1.0
  C  C95  1  0.20731000  0.84174000  0.68444000  1.0
  C  C96  1  0.27253000  0.88192000  0.61318000  1.0
  C  C97  1  0.23745000  0.74975000  0.69289000  1.0
  C  C98  1  0.23206000  0.73376000  0.62482000  1.0
  C  C99  1  0.31417000  0.67129000  0.59025000  1.0
  C  C100  1  0.11340000  0.88521000  0.67828000  1.0
  C  C101  1  0.08208000  0.97785000  0.64389000  1.0
  C  C102  1  0.81678000  0.14112000  0.88843000  1.0
  C  C103  1  0.75757000  0.20178000  0.83699000  1.0
  C  C104  1  0.78854000  0.19093000  0.75489000  1.0
  C  C105  1  0.78319000  0.27166000  0.68453000  1.0
  C  C106  1  0.81400000  0.24916000  0.60816000  1.0
  C  C107  1  0.68812000  0.33070000  0.69902000  1.0
  C  C108  1  0.67643000  0.41730000  0.63744000  1.0
  C  C109  1  0.61102000  0.43839000  0.59729000  1.0
  C  C110  1  0.84333000  0.30960000  0.68296000  1.0
  C  C111  1  0.94093000  0.27715000  0.64378000  1.0
  C  C112  1  0.08209000  0.15443000  0.88447000  1.0
  C  C113  1  0.14303000  0.20474000  0.83787000  1.0
  C  C114  1  0.13559000  0.26286000  0.75579000  1.0
  C  C115  1  0.22560000  0.26646000  0.69187000  1.0
  C  C116  1  0.20788000  0.33669000  0.61717000  1.0
  C  C117  1  0.27993000  0.27896000  0.72557000  1.0
  C  C118  1  0.37459000  0.27603000  0.67264000  1.0
  C  C119  1  0.38224000  0.35966000  0.61952000  1.0
  C  C120  1  0.27022000  0.18162000  0.67761000  1.0
  C  C121  1  0.24869000  0.16845000  0.61883000  1.0
  C  C122  1  0.82446000  0.89765000  0.16177000  1.0
  C  C123  1  0.76747000  0.86004000  0.24159000  1.0
  C  C124  1  0.80634000  0.76856000  0.28117000  1.0
  C  C125  1  0.79372000  0.70786000  0.25758000  1.0
  C  C126  1  0.84316000  0.62004000  0.29959000  1.0
  C  C127  1  0.69516000  0.72017000  0.28599000  1.0
  C  C128  1  0.67154000  0.66941000  0.25984000  1.0
  C  C129  1  0.60882000  0.62788000  0.32898000  1.0
  C  C130  1  0.82908000  0.72816000  0.16651000  1.0
  C  C131  1  0.92519000  0.68845000  0.12847000  1.0
  C  C132  1  0.13283000  0.88941000  0.10553000  1.0
  C  C133  1  0.20977000  0.84500000  0.13859000  1.0
  C  C134  1  0.23927000  0.75126000  0.16897000  1.0
  C  C135  1  0.20058000  0.71108000  0.25921000  1.0
  C  C136  1  0.25377000  0.61869000  0.27621000  1.0
  C  C137  1  0.20804000  0.75089000  0.30810000  1.0
  C  C138  1  0.19486000  0.70230000  0.39655000  1.0
  C  C139  1  0.28004000  0.64156000  0.41334000  1.0
  C  C140  1  0.10279000  0.72632000  0.27664000  1.0
  C  C141  1  0.07966000  0.66989000  0.26009000  1.0
  C  C142  1  0.84615000  0.13469000  0.14561000  1.0
  C  C143  1  0.80137000  0.19131000  0.19673000  1.0
  C  C144  1  0.70886000  0.19153000  0.25178000  1.0
  C  C145  1  0.63954000  0.27874000  0.24841000  1.0
  C  C146  1  0.55331000  0.26941000  0.31246000  1.0
  C  C147  1  0.67327000  0.33107000  0.26163000  1.0
  C  C148  1  0.60816000  0.41782000  0.26319000  1.0
  C  C149  1  0.55418000  0.42536000  0.34557000  1.0
  C  C150  1  0.63068000  0.31599000  0.16401000  1.0
  C  C151  1  0.57429000  0.29129000  0.14595000  1.0
  O  O152  1  0.96136000  0.01121000  0.00991000  1.0
  O  O153  1  0.05878000  0.84160000  0.96438000  1.0
  O  O154  1  0.07080000  0.95242000  0.85493000  1.0
  O  O155  1  0.35983000  0.69784000  0.51918000  1.0
  O  O156  1  0.33172000  0.59700000  0.63502000  1.0
  O  O157  1  0.06362000  0.84595000  0.70360000  1.0
  O  O158  1  0.78077000  0.12739000  0.96319000  1.0
  O  O159  1  0.89778000  0.11113000  0.85315000  1.0
  O  O160  1  0.64268000  0.42439000  0.53019000  1.0
  O  O161  1  0.53012000  0.46638000  0.63393000  1.0
  O  O162  1  0.81315000  0.36337000  0.71512000  1.0
  O  O163  1  0.05495000  0.14159000  0.95925000  1.0
  O  O164  1  0.06641000  0.12521000  0.84674000  1.0
  O  O165  1  0.38711000  0.37909000  0.54703000  1.0
  O  O166  1  0.38242000  0.40456000  0.65198000  1.0
  O  O167  1  0.31979000  0.12475000  0.71506000  1.0
  O  O168  1  0.78583000  0.97008000  0.12446000  1.0
  O  O169  1  0.90554000  0.85607000  0.13977000  1.0
  O  O170  1  0.63920000  0.55019000  0.35817000  1.0
  O  O171  1  0.53091000  0.67465000  0.35432000  1.0
  O  O172  1  0.77965000  0.77684000  0.12602000  1.0
  O  O173  1  0.11158000  0.96757000  0.08295000  1.0
  O  O174  1  0.09730000  0.84806000  0.10079000  1.0
  O  O175  1  0.28402000  0.56684000  0.45327000  1.0
  O  O176  1  0.34255000  0.67019000  0.38605000  1.0
  O  O177  1  0.04488000  0.78266000  0.30326000  1.0
  O  O178  1  0.92889000  0.10114000  0.13234000  1.0
  O  O179  1  0.79926000  0.12769000  0.11716000  1.0
  O  O180  1  0.47126000  0.46029000  0.35972000  1.0
  O  O181  1  0.59573000  0.39791000  0.39568000  1.0
  O  O182  1  0.67095000  0.36263000  0.11180000  1.0
  O  O183  1  0.46007000  0.52415000  0.48932000  1.0
