# generated using pymatgen
data_NdH9C8NO9
_symmetry_space_group_name_H-M   'P 1'
_cell_length_a   7.59312000
_cell_length_b   7.79574000
_cell_length_c   9.68382000
_cell_angle_alpha   101.91500000
_cell_angle_beta   95.91480000
_cell_angle_gamma   99.18650000
_symmetry_Int_Tables_number   1
_chemical_formula_structural   NdH9C8NO9
_chemical_formula_sum   'Nd2 H18 C16 N2 O18'
_cell_volume   548.16335667
_cell_formula_units_Z   2
loop_
 _symmetry_equiv_pos_site_id
 _symmetry_equiv_pos_as_xyz
  1  'x, y, z'
loop_
 _atom_site_type_symbol
 _atom_site_label
 _atom_site_symmetry_multiplicity
 _atom_site_fract_x
 _atom_site_fract_y
 _atom_site_fract_z
 _atom_site_occupancy
  Nd  Nd0  1  0.78823000  0.28145000  0.86095000  1.0
  Nd  Nd1  1  0.21177000  0.71856000  0.13905000  1.0
  H  H2  1  0.55166000  0.58910000  0.90685000  1.0
  H  H3  1  0.44834000  0.41091000  0.09316000  1.0
  H  H4  1  0.74374000  0.66403000  0.00229000  1.0
  H  H5  1  0.25626000  0.33598000  0.99772000  1.0
  H  H6  1  0.52030000  0.45023000  0.69567000  1.0
  H  H7  1  0.47969000  0.54977000  0.30434000  1.0
  H  H8  1  0.48767000  0.24914000  0.61085000  1.0
  H  H9  1  0.51234000  0.75087000  0.38915000  1.0
  H  H10  1  0.40339000  0.10020000  0.76248000  1.0
  H  H11  1  0.59661000  0.89981000  0.23752000  1.0
  H  H12  1  0.40644000  0.07758000  0.92130000  1.0
  H  H13  1  0.59356000  0.92243000  0.07870000  1.0
  H  H14  1  0.31625000  0.53247000  0.53872000  1.0
  H  H15  1  0.68375000  0.46753000  0.46127000  1.0
  H  H16  1  0.18285000  0.32546000  0.30482000  1.0
  H  H17  1  0.81715000  0.67453000  0.69518000  1.0
  H  H18  1  0.90864000  0.09023000  0.29875000  1.0
  H  H19  1  0.09136000  0.90976000  0.70125000  1.0
  C  C20  1  0.11546000  0.41473000  0.65131000  1.0
  C  C21  1  0.88454000  0.58527000  0.34869000  1.0
  C  C22  1  0.19865000  0.42930000  0.53110000  1.0
  C  C23  1  0.80135000  0.57070000  0.46889000  1.0
  C  C24  1  0.12292000  0.31512000  0.40093000  1.0
  C  C25  1  0.87708000  0.68487000  0.59906000  1.0
  C  C26  1  0.97072000  0.18640000  0.39640000  1.0
  C  C27  1  0.02928000  0.81359000  0.60360000  1.0
  C  C28  1  0.89947000  0.17690000  0.52220000  1.0
  C  C29  1  0.10053000  0.82309000  0.47780000  1.0
  C  C30  1  0.18631000  0.53563000  0.79501000  1.0
  C  C31  1  0.81369000  0.46437000  0.20499000  1.0
  C  C32  1  0.74708000  0.03137000  0.53130000  1.0
  C  C33  1  0.25292000  0.96863000  0.46870000  1.0
  C  C34  1  0.91232000  0.96065000  0.02470000  1.0
  C  C35  1  0.08768000  0.03935000  0.97529000  1.0
  N  N36  1  0.96798000  0.29232000  0.64651000  1.0
  N  N37  1  0.03202000  0.70768000  0.35349000  1.0
  O  O38  1  0.07323000  0.54592000  0.88609000  1.0
  O  O39  1  0.92677000  0.45409000  0.11391000  1.0
  O  O40  1  0.34728000  0.61634000  0.81877000  1.0
  O  O41  1  0.65273000  0.38365000  0.18123000  1.0
  O  O42  1  0.70932000  0.02589000  0.65546000  1.0
  O  O43  1  0.29067000  0.97411000  0.34454000  1.0
  O  O44  1  0.67369000  0.92194000  0.41675000  1.0
  O  O45  1  0.32630000  0.07806000  0.58325000  1.0
  O  O46  1  0.77452000  0.02690000  0.99738000  1.0
  O  O47  1  0.22549000  0.97310000  0.00262000  1.0
  O  O48  1  0.92058000  0.83519000  0.08921000  1.0
  O  O49  1  0.07943000  0.16481000  0.91079000  1.0
  O  O50  1  0.67432000  0.56410000  0.92619000  1.0
  O  O51  1  0.32568000  0.43590000  0.07382000  1.0
  O  O52  1  0.58494000  0.35525000  0.65918000  1.0
  O  O53  1  0.41506000  0.64476000  0.34083000  1.0
  O  O54  1  0.47174000  0.14460000  0.85986000  1.0
  O  O55  1  0.52826000  0.85541000  0.14014000  1.0
