# generated using pymatgen
data_GdH5(C3O4)2
_symmetry_space_group_name_H-M   'P 1'
_cell_length_a   5.85582000
_cell_length_b   9.46643000
_cell_length_c   10.25210000
_cell_angle_alpha   88.09430000
_cell_angle_beta   73.67990000
_cell_angle_gamma   77.88590000
_symmetry_Int_Tables_number   1
_chemical_formula_structural   GdH5(C3O4)2
_chemical_formula_sum   'Gd2 H10 C12 O16'
_cell_volume   533.06704693
_cell_formula_units_Z   2
loop_
 _symmetry_equiv_pos_site_id
 _symmetry_equiv_pos_as_xyz
  1  'x, y, z'
loop_
 _atom_site_type_symbol
 _atom_site_label
 _atom_site_symmetry_multiplicity
 _atom_site_fract_x
 _atom_site_fract_y
 _atom_site_fract_z
 _atom_site_occupancy
  Gd  Gd0  1  0.65092000  0.05696000  0.29698000  1.0
  Gd  Gd1  1  0.34909000  0.94304000  0.70301000  1.0
  H  H2  1  0.28984000  0.88588000  0.24456000  1.0
  H  H3  1  0.71014000  0.11412000  0.75545000  1.0
  H  H4  1  0.26909000  0.89033000  0.40007000  1.0
  H  H5  1  0.73090000  0.10968000  0.59993000  1.0
  H  H6  1  0.32798000  0.31245000  0.21361000  1.0
  H  H7  1  0.67203000  0.68755000  0.78639000  1.0
  H  H8  1  0.24324000  0.17593000  0.16582000  1.0
  H  H9  1  0.75675000  0.82407000  0.83418000  1.0
  H  H10  1  0.72672000  0.55623000  0.35067000  1.0
  H  H11  1  0.27328000  0.44378000  0.64933000  1.0
  C  C12  1  0.84710000  0.53287000  0.41627000  1.0
  C  C13  1  0.15289000  0.46713000  0.58373000  1.0
  C  C14  1  0.93368000  0.64337000  0.46101000  1.0
  C  C15  1  0.06631000  0.35664000  0.53899000  1.0
  C  C16  1  0.84825000  0.79243000  0.41535000  1.0
  C  C17  1  0.15173000  0.20757000  0.58466000  1.0
  C  C18  1  0.08892000  0.61007000  0.54563000  1.0
  C  C19  1  0.91108000  0.38993000  0.45437000  1.0
  C  C20  1  0.18910000  0.72298000  0.59653000  1.0
  C  C21  1  0.81090000  0.27702000  0.40347000  1.0
  C  C22  1  0.91050000  0.95787000  0.98426000  1.0
  C  C23  1  0.08955000  0.04211000  0.01571000  1.0
  O  O24  1  0.97073000  0.90373000  0.86368000  1.0
  O  O25  1  0.02928000  0.09627000  0.13630000  1.0
  O  O26  1  0.94790000  0.82933000  0.29646000  1.0
  O  O27  1  0.05210000  0.17067000  0.70353000  1.0
  O  O28  1  0.66007000  0.87530000  0.49185000  1.0
  O  O29  1  0.33992000  0.12470000  0.50815000  1.0
  O  O30  1  0.13301000  0.85476000  0.56063000  1.0
  O  O31  1  0.86698000  0.14524000  0.43937000  1.0
  O  O32  1  0.32452000  0.68961000  0.67484000  1.0
  O  O33  1  0.67547000  0.31039000  0.32516000  1.0
  O  O34  1  0.72249000  0.94900000  0.07715000  1.0
  O  O35  1  0.27756000  0.05097000  0.92284000  1.0
  O  O36  1  0.37854000  0.90192000  0.30829000  1.0
  O  O37  1  0.62145000  0.09808000  0.69172000  1.0
  O  O38  1  0.37540000  0.20923000  0.19341000  1.0
  O  O39  1  0.62459000  0.79077000  0.80660000  1.0
