# generated using pymatgen
data_CuH24C19N3O4
_symmetry_space_group_name_H-M   'P 1'
_cell_length_a   9.33817000
_cell_length_b   15.84420000
_cell_length_c   16.86580000
_cell_angle_alpha   95.53110000
_cell_angle_beta   104.36800000
_cell_angle_gamma   102.45100000
_symmetry_Int_Tables_number   1
_chemical_formula_structural   CuH24C19N3O4
_chemical_formula_sum   'Cu4 H96 C76 N12 O16'
_cell_volume   2330.66655367
_cell_formula_units_Z   4
loop_
 _symmetry_equiv_pos_site_id
 _symmetry_equiv_pos_as_xyz
  1  'x, y, z'
loop_
 _atom_site_type_symbol
 _atom_site_label
 _atom_site_symmetry_multiplicity
 _atom_site_fract_x
 _atom_site_fract_y
 _atom_site_fract_z
 _atom_site_occupancy
  Cu  Cu0  1  0.95668000  0.99441000  0.06616000  1.0
  Cu  Cu1  1  0.04334000  0.00560000  0.93385000  1.0
  Cu  Cu2  1  0.09148000  0.56862000  0.49084000  1.0
  Cu  Cu3  1  0.90852000  0.43139000  0.50916000  1.0
  H  H4  1  0.38952000  0.99179000  0.79945000  1.0
  H  H5  1  0.61051000  0.00822000  0.20055000  1.0
  H  H6  1  0.58168000  0.04524000  0.80649000  1.0
  H  H7  1  0.41834000  0.95477000  0.19351000  1.0
  H  H8  1  0.51159000  0.05100000  0.89584000  1.0
  H  H9  1  0.48843000  0.94901000  0.10416000  1.0
  H  H10  1  0.32857000  0.85615000  0.86542000  1.0
  H  H11  1  0.67145000  0.14387000  0.13458000  1.0
  H  H12  1  0.44875000  0.91582000  0.96194000  1.0
  H  H13  1  0.55127000  0.08419000  0.03807000  1.0
  H  H14  1  0.47914000  0.81487000  0.92221000  1.0
  H  H15  1  0.52088000  0.18515000  0.07779000  1.0
  H  H16  1  0.42186000  0.84827000  0.73940000  1.0
  H  H17  1  0.57816000  0.15174000  0.26061000  1.0
  H  H18  1  0.57428000  0.80499000  0.79004000  1.0
  H  H19  1  0.42574000  0.19502000  0.20997000  1.0
  H  H20  1  0.61459000  0.90030000  0.74381000  1.0
  H  H21  1  0.38542000  0.09970000  0.25619000  1.0
  H  H22  1  0.06637000  0.71148000  0.08828000  1.0
  H  H23  1  0.93364000  0.28852000  0.91172000  1.0
  H  H24  1  0.92228000  0.62087000  0.02574000  1.0
  H  H25  1  0.07772000  0.37913000  0.97426000  1.0
  H  H26  1  0.87226000  0.71158000  0.07303000  1.0
  H  H27  1  0.12774000  0.28842000  0.92697000  1.0
  H  H28  1  0.18730000  0.72902000  0.96529000  1.0
  H  H29  1  0.81270000  0.27098000  0.03470000  1.0
  H  H30  1  0.07044000  0.73452000  0.86635000  1.0
  H  H31  1  0.92955000  0.26549000  0.13364000  1.0
  H  H32  1  0.04322000  0.63508000  0.90847000  1.0
  H  H33  1  0.95676000  0.36492000  0.09153000  1.0
  H  H34  1  0.76036000  0.63559000  0.88342000  1.0
  H  H35  1  0.23963000  0.36442000  0.11658000  1.0
  H  H36  1  0.79035000  0.73863000  0.84809000  1.0
  H  H37  1  0.20965000  0.26138000  0.15191000  1.0
  H  H38  1  0.70928000  0.72500000  0.93248000  1.0
  H  H39  1  0.29072000  0.27501000  0.06752000  1.0
  H  H40  1  0.77584000  0.50537000  0.13807000  1.0
  H  H41  1  0.22414000  0.49461000  0.86193000  1.0
  H  H42  1  0.93609000  0.47815000  0.20223000  1.0
  H  H43  1  0.06390000  0.52184000  0.79777000  1.0
  H  H44  1  0.90254000  0.58319000  0.22309000  1.0
  H  H45  1  0.09745000  0.41680000  0.77691000  1.0
  H  H46  1  0.59437000  0.37508000  0.15788000  1.0
  H  H47  1  0.40562000  0.62490000  0.84212000  1.0
  H  H48  1  0.59033000  0.35264000  0.25906000  1.0
  H  H49  1  0.40967000  0.64735000  0.74094000  1.0
  H  H50  1  0.74646000  0.33983000  0.22060000  1.0
  H  H51  1  0.25354000  0.66015000  0.77940000  1.0
  H  H52  1  0.55402000  0.52592000  0.19738000  1.0
  H  H53  1  0.44596000  0.47407000  0.80262000  1.0
  H  H54  1  0.68361000  0.59898000  0.28511000  1.0
  H  H55  1  0.31638000  0.40100000  0.71490000  1.0
  H  H56  1  0.55576000  0.50399000  0.29934000  1.0
  H  H57  1  0.44424000  0.49599000  0.70066000  1.0
  H  H58  1  0.43147000  0.45532000  0.40980000  1.0
  H  H59  1  0.56851000  0.54467000  0.59019000  1.0
  H  H60  1  0.46745000  0.35001000  0.39453000  1.0
  H  H61  1  0.53255000  0.64998000  0.60547000  1.0
  H  H62  1  0.46716000  0.39743000  0.49422000  1.0
  H  H63  1  0.53283000  0.60257000  0.50577000  1.0
  H  H64  1  0.26506000  0.21347000  0.39854000  1.0
  H  H65  1  0.73492000  0.78652000  0.60146000  1.0
  H  H66  1  0.09051000  0.22569000  0.41794000  1.0
  H  H67  1  0.90948000  0.77431000  0.58206000  1.0
  H  H68  1  0.26281000  0.25914000  0.49888000  1.0
  H  H69  1  0.73718000  0.74085000  0.50112000  1.0
  H  H70  1  0.18590000  0.40305000  0.29244000  1.0
  H  H71  1  0.81408000  0.59693000  0.70756000  1.0
  H  H72  1  0.04402000  0.30904000  0.29567000  1.0
  H  H73  1  0.95597000  0.69095000  0.70434000  1.0
  H  H74  1  0.22008000  0.29697000  0.27892000  1.0
  H  H75  1  0.77990000  0.70301000  0.72108000  1.0
  H  H76  1  0.00099000  0.11539000  0.22604000  1.0
  H  H77  1  0.99901000  0.88462000  0.77396000  1.0
  H  H78  1  0.93638000  0.11035000  0.36278000  1.0
  H  H79  1  0.06362000  0.88966000  0.63722000  1.0
  H  H80  1  0.70755000  0.83834000  0.27619000  1.0
  H  H81  1  0.29246000  0.16166000  0.72380000  1.0
  H  H82  1  0.78685000  0.85374000  0.14458000  1.0
  H  H83  1  0.21317000  0.14627000  0.85542000  1.0
  H  H84  1  0.97183000  0.18728000  0.54133000  1.0
  H  H85  1  0.02816000  0.81272000  0.45867000  1.0
  H  H86  1  0.07033000  0.30856000  0.66153000  1.0
  H  H87  1  0.92966000  0.69144000  0.33846000  1.0
  H  H88  1  0.86796000  0.15684000  0.81006000  1.0
  H  H89  1  0.13203000  0.84316000  0.18994000  1.0
  H  H90  1  0.74466000  0.03283000  0.69256000  1.0
  H  H91  1  0.25533000  0.96717000  0.30744000  1.0
  H  H92  1  0.47308000  0.87426000  0.59947000  1.0
  H  H93  1  0.52692000  0.12574000  0.40053000  1.0
  H  H94  1  0.26524000  0.74235000  0.59909000  1.0
  H  H95  1  0.73476000  0.25765000  0.40091000  1.0
  H  H96  1  0.25083000  0.63406000  0.36380000  1.0
  H  H97  1  0.74917000  0.36594000  0.63620000  1.0
  H  H98  1  0.45916000  0.76086000  0.35410000  1.0
  H  H99  1  0.54084000  0.23914000  0.64590000  1.0
  C  C100  1  0.71938000  0.95208000  0.91300000  1.0
  C  C101  1  0.28065000  0.04793000  0.08701000  1.0
  C  C102  1  0.55238000  0.92367000  0.85919000  1.0
  C  C103  1  0.44764000  0.07635000  0.14081000  1.0
  C  C104  1  0.50701000  0.00863000  0.83928000  1.0
  C  C105  1  0.49302000  0.99139000  0.16073000  1.0
  C  C106  1  0.44666000  0.87478000  0.90530000  1.0
  C  C107  1  0.55337000  0.12524000  0.09470000  1.0
  C  C108  1  0.54085000  0.86597000  0.77819000  1.0
  C  C109  1  0.45917000  0.13404000  0.22181000  1.0
  C  C110  1  0.99019000  0.83526000  0.98373000  1.0
  C  C111  1  0.00982000  0.16475000  0.01627000  1.0
  C  C112  1  0.95513000  0.73448000  0.96447000  1.0
  C  C113  1  0.04487000  0.26553000  0.03553000  1.0
  C  C114  1  0.95391000  0.69259000  0.04249000  1.0
  C  C115  1  0.04609000  0.30741000  0.95751000  1.0
  C  C116  1  0.07090000  0.70686000  0.92351000  1.0
  C  C117  1  0.92909000  0.29315000  0.07648000  1.0
  C  C118  1  0.79372000  0.70691000  0.90332000  1.0
  C  C119  1  0.20628000  0.29310000  0.09668000  1.0
  C  C120  1  0.84380000  0.48468000  0.34716000  1.0
  C  C121  1  0.15621000  0.51531000  0.65284000  1.0
  C  C122  1  0.74660000  0.47622000  0.25673000  1.0
  C  C123  1  0.25339000  0.52378000  0.74326000  1.0
  C  C124  1  0.84677000  0.51341000  0.20233000  1.0
  C  C125  1  0.15322000  0.48658000  0.79766000  1.0
  C  C126  1  0.66454000  0.38011000  0.22184000  1.0
  C  C127  1  0.33545000  0.61988000  0.77816000  1.0
  C  C128  1  0.62785000  0.52972000  0.26025000  1.0
  C  C129  1  0.37214000  0.47026000  0.73976000  1.0
  C  C130  1  0.15801000  0.40442000  0.44831000  1.0
  C  C131  1  0.84199000  0.59558000  0.55168000  1.0
  C  C132  1  0.24036000  0.34669000  0.40654000  1.0
  C  C133  1  0.75963000  0.65330000  0.59346000  1.0
  C  C134  1  0.41141000  0.39000000  0.42762000  1.0
  C  C135  1  0.58859000  0.60999000  0.57238000  1.0
  C  C136  1  0.21303000  0.25575000  0.43207000  1.0
  C  C137  1  0.78696000  0.74425000  0.56793000  1.0
  C  C138  1  0.16757000  0.33869000  0.31266000  1.0
  C  C139  1  0.83242000  0.66131000  0.68734000  1.0
  C  C140  1  0.93711000  0.05535000  0.24040000  1.0
  C  C141  1  0.06290000  0.94466000  0.75960000  1.0
  C  C142  1  0.90123000  0.05252000  0.31551000  1.0
  C  C143  1  0.09878000  0.94749000  0.68449000  1.0
  C  C144  1  0.81574000  0.97382000  0.32901000  1.0
  C  C145  1  0.18427000  0.02618000  0.67099000  1.0
  C  C146  1  0.77342000  0.90042000  0.26723000  1.0
  C  C147  1  0.22659000  0.09958000  0.73277000  1.0
  C  C148  1  0.81599000  0.90896000  0.19447000  1.0
  C  C149  1  0.18402000  0.09104000  0.80553000  1.0
  C  C150  1  0.76581000  0.96948000  0.40542000  1.0
  C  C151  1  0.23419000  0.03052000  0.59458000  1.0
  C  C152  1  0.77952000  0.02936000  0.53582000  1.0
  C  C153  1  0.22047000  0.97064000  0.46418000  1.0
  C  C154  1  0.60752000  0.90068000  0.47458000  1.0
  C  C155  1  0.39249000  0.09932000  0.52541000  1.0
  C  C156  1  0.84854000  0.10057000  0.60731000  1.0
  C  C157  1  0.15145000  0.89942000  0.39269000  1.0
  C  C158  1  0.94511000  0.17842000  0.59969000  1.0
  C  C159  1  0.05488000  0.82158000  0.40031000  1.0
  C  C160  1  0.00189000  0.24553000  0.66754000  1.0
  C  C161  1  0.99810000  0.75447000  0.33246000  1.0
  C  C162  1  0.88467000  0.16259000  0.74875000  1.0
  C  C163  1  0.11532000  0.83741000  0.25125000  1.0
  C  C164  1  0.81762000  0.09275000  0.68381000  1.0
  C  C165  1  0.18237000  0.90725000  0.31619000  1.0
  C  C166  1  0.48208000  0.82667000  0.47662000  1.0
  C  C167  1  0.51792000  0.17333000  0.52337000  1.0
  C  C168  1  0.42612000  0.82227000  0.54622000  1.0
  C  C169  1  0.57388000  0.17773000  0.45378000  1.0
  C  C170  1  0.31156000  0.74978000  0.54610000  1.0
  C  C171  1  0.68843000  0.25022000  0.45390000  1.0
  C  C172  1  0.30407000  0.68881000  0.41447000  1.0
  C  C173  1  0.69592000  0.31119000  0.58553000  1.0
  C  C174  1  0.41846000  0.75862000  0.40916000  1.0
  C  C175  1  0.58154000  0.24138000  0.59084000  1.0
  N  N176  1  0.89441000  0.98515000  0.18072000  1.0
  N  N177  1  0.10560000  0.01485000  0.81928000  1.0
  N  N178  1  0.83210000  0.03580000  0.46868000  1.0
  N  N179  1  0.16790000  0.96420000  0.53133000  1.0
  N  N180  1  0.66666667  0.96329000  0.54160000  1.0
  N  N181  1  0.33333333  0.03671000  0.45840000  1.0
  N  N182  1  0.65415000  0.90005000  0.40542000  1.0
  N  N183  1  0.34586000  0.09995000  0.59458000  1.0
  N  N184  1  0.97376000  0.23865000  0.74128000  1.0
  N  N185  1  0.02623000  0.76135000  0.25872000  1.0
  N  N186  1  0.25225000  0.68412000  0.48179000  1.0
  N  N187  1  0.74775000  0.31588000  0.51820000  1.0
  O  O188  1  0.74332000  0.95854000  0.99117000  1.0
  O  O189  1  0.25670000  0.04147000  0.00883000  1.0
  O  O190  1  0.82033000  0.96986000  0.87418000  1.0
  O  O191  1  0.17969000  0.03015000  0.12582000  1.0
  O  O192  1  0.96148000  0.86793000  0.04825000  1.0
  O  O193  1  0.03852000  0.13207000  0.95175000  1.0
  O  O194  1  0.03669000  0.87767000  0.93076000  1.0
  O  O195  1  0.96332000  0.12234000  0.06925000  1.0
  O  O196  1  0.95906000  0.55007000  0.37347000  1.0
  O  O197  1  0.04094000  0.44993000  0.62652000  1.0
  O  O198  1  0.79847000  0.42739000  0.38934000  1.0
  O  O199  1  0.20154000  0.57261000  0.61066000  1.0
  O  O200  1  0.20522000  0.48676000  0.45303000  1.0
  O  O201  1  0.79479000  0.51324000  0.54696000  1.0
  O  O202  1  0.04450000  0.36500000  0.47100000  1.0
  O  O203  1  0.95550000  0.63500000  0.52899000  1.0
