# generated using pymatgen
data_ZnH15C15N3O5
_symmetry_space_group_name_H-M   'P 1'
_cell_length_a   7.79264000
_cell_length_b   8.98649000
_cell_length_c   11.01740000
_cell_angle_alpha   86.00590000
_cell_angle_beta   79.38800000
_cell_angle_gamma   81.19940000
_symmetry_Int_Tables_number   1
_chemical_formula_structural   ZnH15C15N3O5
_chemical_formula_sum   'Zn2 H30 C30 N6 O10'
_cell_volume   748.72447198
_cell_formula_units_Z   2
loop_
 _symmetry_equiv_pos_site_id
 _symmetry_equiv_pos_as_xyz
  1  'x, y, z'
loop_
 _atom_site_type_symbol
 _atom_site_label
 _atom_site_symmetry_multiplicity
 _atom_site_fract_x
 _atom_site_fract_y
 _atom_site_fract_z
 _atom_site_occupancy
  Zn  Zn0  1  0.37066000  0.38942000  0.42112000  1.0
  Zn  Zn1  1  0.62934000  0.61058000  0.57888000  1.0
  H  H2  1  0.44598000  0.09859000  0.55654000  1.0
  H  H3  1  0.55402000  0.90140000  0.44345000  1.0
  H  H4  1  0.32981000  0.95199000  0.74651000  1.0
  H  H5  1  0.67019000  0.04800000  0.25349000  1.0
  H  H6  1  0.08095000  0.07611000  0.90083000  1.0
  H  H7  1  0.91905000  0.92389000  0.09917000  1.0
  H  H8  1  0.07960000  0.47450000  0.65737000  1.0
  H  H9  1  0.92040000  0.52550000  0.34263000  1.0
  H  H10  1  0.89641000  0.48248000  0.83937000  1.0
  H  H11  1  0.10359000  0.51753000  0.16063000  1.0
  H  H12  1  0.65033000  0.28045000  0.20507000  1.0
  H  H13  1  0.34968000  0.71955000  0.79493000  1.0
  H  H14  1  0.35943000  0.70195000  0.26547000  1.0
  H  H15  1  0.64056000  0.29805000  0.73453000  1.0
  H  H16  1  0.52627000  0.81170000  0.07272000  1.0
  H  H17  1  0.47371000  0.18830000  0.92729000  1.0
  H  H18  1  0.76218000  0.64419000  0.94024000  1.0
  H  H19  1  0.23781000  0.35582000  0.05976000  1.0
  H  H20  1  0.82404000  0.07197000  0.53853000  1.0
  H  H21  1  0.17596000  0.92803000  0.46147000  1.0
  H  H22  1  0.00649000  0.17649000  0.52147000  1.0
  H  H23  1  0.99351000  0.82351000  0.47853000  1.0
  H  H24  1  0.92199000  0.13102000  0.38977000  1.0
  H  H25  1  0.07801000  0.86898000  0.61023000  1.0
  H  H26  1  0.11419000  0.09711000  0.14706000  1.0
  H  H27  1  0.88580000  0.90288000  0.85293000  1.0
  H  H28  1  0.23596000  0.97903000  0.25026000  1.0
  H  H29  1  0.76403000  0.02097000  0.74974000  1.0
  H  H30  1  0.34972000  0.06892000  0.11914000  1.0
  H  H31  1  0.65028000  0.93107000  0.88086000  1.0
  C  C32  1  0.33666000  0.14800000  0.62477000  1.0
  C  C33  1  0.66334000  0.85199000  0.37523000  1.0
  C  C34  1  0.27107000  0.06799000  0.73103000  1.0
  C  C35  1  0.72893000  0.93201000  0.26897000  1.0
  C  C36  1  0.13282000  0.13678000  0.81694000  1.0
  C  C37  1  0.86718000  0.86322000  0.18305000  1.0
  C  C38  1  0.06397000  0.28755000  0.79306000  1.0
  C  C39  1  0.93604000  0.71246000  0.20694000  1.0
  C  C40  1  0.13437000  0.35960000  0.68122000  1.0
  C  C41  1  0.86563000  0.64040000  0.31878000  1.0
  C  C42  1  0.85002000  0.32887000  0.98815000  1.0
  C  C43  1  0.14999000  0.67113000  0.01186000  1.0
  C  C44  1  0.72002000  0.44601000  0.05999000  1.0
  C  C45  1  0.27998000  0.55400000  0.94001000  1.0
  C  C46  1  0.62434000  0.39716000  0.17215000  1.0
  C  C47  1  0.37566000  0.60285000  0.82785000  1.0
  C  C48  1  0.46428000  0.63311000  0.20600000  1.0
  C  C49  1  0.53571000  0.36689000  0.79400000  1.0
  C  C50  1  0.55651000  0.69260000  0.09803000  1.0
  C  C51  1  0.44348000  0.30740000  0.90197000  1.0
  C  C52  1  0.68728000  0.59865000  0.02431000  1.0
  C  C53  1  0.31272000  0.40136000  0.97568000  1.0
  C  C54  1  0.75698000  0.30591000  0.49454000  1.0
  C  C55  1  0.24302000  0.69409000  0.50546000  1.0
  C  C56  1  0.88770000  0.16342000  0.48625000  1.0
  C  C57  1  0.11230000  0.83658000  0.51375000  1.0
  C  C58  1  0.23517000  0.21774000  0.26505000  1.0
  C  C59  1  0.76482000  0.78226000  0.73495000  1.0
  C  C60  1  0.23082000  0.08243000  0.19118000  1.0
  C  C61  1  0.76918000  0.91756000  0.80882000  1.0
  N  N62  1  0.26743000  0.29154000  0.60003000  1.0
  N  N63  1  0.73257000  0.70845000  0.39997000  1.0
  N  N64  1  0.93183000  0.37424000  0.87336000  1.0
  N  N65  1  0.06817000  0.62577000  0.12664000  1.0
  N  N66  1  0.49959000  0.48781000  0.24371000  1.0
  N  N67  1  0.50041000  0.51219000  0.75630000  1.0
  O  O68  1  0.87721000  0.19854000  0.03291000  1.0
  O  O69  1  0.12281000  0.80146000  0.96710000  1.0
  O  O70  1  0.62101000  0.30550000  0.44703000  1.0
  O  O71  1  0.37900000  0.69450000  0.55297000  1.0
  O  O72  1  0.79105000  0.41522000  0.55025000  1.0
  O  O73  1  0.20895000  0.58477000  0.44975000  1.0
  O  O74  1  0.34645000  0.19956000  0.33959000  1.0
  O  O75  1  0.65356000  0.80044000  0.66041000  1.0
  O  O76  1  0.13573000  0.33967000  0.24955000  1.0
  O  O77  1  0.86427000  0.66032000  0.75045000  1.0
