# generated using pymatgen
data_ZnPH4CO4
_symmetry_space_group_name_H-M   'P 1'
_cell_length_a   4.83836000
_cell_length_b   5.70477000
_cell_length_c   15.45460000
_cell_angle_alpha   89.99880000
_cell_angle_beta   89.99970000
_cell_angle_gamma   84.15170000
_symmetry_Int_Tables_number   1
_chemical_formula_structural   ZnPH4CO4
_chemical_formula_sum   'Zn4 P4 H16 C4 O16'
_cell_volume   424.35346589
_cell_formula_units_Z   4
loop_
 _symmetry_equiv_pos_site_id
 _symmetry_equiv_pos_as_xyz
  1  'x, y, z'
loop_
 _atom_site_type_symbol
 _atom_site_label
 _atom_site_symmetry_multiplicity
 _atom_site_fract_x
 _atom_site_fract_y
 _atom_site_fract_z
 _atom_site_occupancy
  Zn  Zn0  1  0.55945000  0.94938000  0.22919000  1.0
  Zn  Zn1  1  0.94056000  0.55062000  0.72919000  1.0
  Zn  Zn2  1  0.44054000  0.05062000  0.77081000  1.0
  Zn  Zn3  1  0.05945000  0.44938000  0.27081000  1.0
  P  P4  1  0.00738000  0.96307000  0.35783000  1.0
  P  P5  1  0.49261000  0.53693000  0.85782000  1.0
  P  P6  1  0.99262000  0.03693000  0.64218000  1.0
  P  P7  1  0.50738000  0.46307000  0.14218000  1.0
  H  H8  1  0.03339000  0.86117000  0.13907000  1.0
  H  H9  1  0.46659000  0.63884000  0.63907000  1.0
  H  H10  1  0.96661000  0.13882000  0.86093000  1.0
  H  H11  1  0.53341000  0.36115000  0.36093000  1.0
  H  H12  1  0.91908000  0.13396000  0.13304000  1.0
  H  H13  1  0.58091000  0.36605000  0.63303000  1.0
  H  H14  1  0.08091000  0.86602000  0.86696000  1.0
  H  H15  1  0.41908000  0.63395000  0.36697000  1.0
  H  H16  1  0.71281000  0.91730000  0.47739000  1.0
  H  H17  1  0.78720000  0.58270000  0.97738000  1.0
  H  H18  1  0.28718000  0.08270000  0.52261000  1.0
  H  H19  1  0.21282000  0.41732000  0.02261000  1.0
  H  H20  1  0.02642000  0.72970000  0.48526000  1.0
  H  H21  1  0.47360000  0.77031000  0.98525000  1.0
  H  H22  1  0.97360000  0.27029000  0.51474000  1.0
  H  H23  1  0.52640000  0.22971000  0.01475000  1.0
  C  C24  1  0.93949000  0.91090000  0.47040000  1.0
  C  C25  1  0.56052000  0.58912000  0.97040000  1.0
  C  C26  1  0.06051000  0.08909000  0.52961000  1.0
  C  C27  1  0.43950000  0.41093000  0.02962000  1.0
  O  O28  1  0.86942000  0.77011000  0.30513000  1.0
  O  O29  1  0.63059000  0.72990000  0.80512000  1.0
  O  O30  1  0.13059000  0.22987000  0.69487000  1.0
  O  O31  1  0.36942000  0.27014000  0.19487000  1.0
  O  O32  1  0.85628000  0.20539000  0.33144000  1.0
  O  O33  1  0.64373000  0.29458000  0.83144000  1.0
  O  O34  1  0.14372000  0.79462000  0.66856000  1.0
  O  O35  1  0.35629000  0.70536000  0.16856000  1.0
  O  O36  1  0.32218000  0.94592000  0.34368000  1.0
  O  O37  1  0.17781000  0.55406000  0.84367000  1.0
  O  O38  1  0.67783000  0.05407000  0.65632000  1.0
  O  O39  1  0.82216000  0.44594000  0.15632000  1.0
  O  O40  1  0.86384000  0.97165000  0.12957000  1.0
  O  O41  1  0.63615000  0.52834000  0.62957000  1.0
  O  O42  1  0.13616000  0.02834000  0.87043000  1.0
  O  O43  1  0.36384000  0.47166000  0.37043000  1.0
