# generated using pymatgen
data_CdH22C34(NO)4
_symmetry_space_group_name_H-M   'P 1'
_cell_length_a   7.89285000
_cell_length_b   13.08010000
_cell_length_c   15.79603577
_cell_angle_alpha   110.08616118
_cell_angle_beta   97.62576099
_cell_angle_gamma   106.31200000
_symmetry_Int_Tables_number   1
_chemical_formula_structural   CdH22C34(NO)4
_chemical_formula_sum   'Cd2 H44 C68 N8 O8'
_cell_volume   1421.63282939
_cell_formula_units_Z   2
loop_
 _symmetry_equiv_pos_site_id
 _symmetry_equiv_pos_as_xyz
  1  'x, y, z'
loop_
 _atom_site_type_symbol
 _atom_site_label
 _atom_site_symmetry_multiplicity
 _atom_site_fract_x
 _atom_site_fract_y
 _atom_site_fract_z
 _atom_site_occupancy
  Cd  Cd0  1  0.16656000  0.89357000  0.24559000  1.0
  Cd  Cd1  1  0.42080000  0.64807000  0.75462000  1.0
  H  H2  1  0.26393000  0.65979000  0.19523000  1.0
  H  H3  1  0.56870000  0.46471000  0.80483000  1.0
  H  H4  1  0.27461000  0.49199000  0.06042000  1.0
  H  H5  1  0.71400000  0.43152000  0.93959000  1.0
  H  H6  1  0.18608000  0.48538000  0.89799000  1.0
  H  H7  1  0.78803000  0.58727000  0.10202000  1.0
  H  H8  1  0.10236000  0.64526000  0.87845000  1.0
  H  H9  1  0.72383000  0.76668000  0.12159000  1.0
  H  H10  1  0.03715000  0.78443000  0.87256000  1.0
  H  H11  1  0.66441000  0.91167000  0.12756000  1.0
  H  H12  1  0.99902000  0.11469000  0.03244000  1.0
  H  H13  1  0.46755000  0.08259000  0.96779000  1.0
  H  H14  1  0.04919000  0.23952000  0.16005000  1.0
  H  H15  1  0.39068000  0.08005000  0.84016000  1.0
  H  H16  1  0.10334000  0.38124000  0.32127000  1.0
  H  H17  1  0.28263000  0.06034000  0.67889000  1.0
  H  H18  1  0.20809000  0.33411000  0.45550000  1.0
  H  H19  1  0.25157000  0.87855000  0.54474000  1.0
  H  H20  1  0.23719000  0.13594000  0.41923000  1.0
  H  H21  1  0.31675000  0.71665000  0.58104000  1.0
  H  H22  1  0.05452000  0.15786000  0.92253000  1.0
  H  H23  1  0.63401000  0.23545000  0.07755000  1.0
  H  H24  1  0.84777000  0.78577000  0.75931000  1.0
  H  H25  1  0.58832000  0.02617000  0.24068000  1.0
  H  H26  1  0.74875000  0.82714000  0.62300000  1.0
  H  H27  1  0.62600000  0.20384000  0.37710000  1.0
  H  H28  1  0.78756000  0.03219000  0.64497000  1.0
  H  H29  1  0.64398000  0.38709000  0.35518000  1.0
  H  H30  1  0.71390000  0.17894000  0.52489000  1.0
  H  H31  1  0.68807000  0.65401000  0.47478000  1.0
  H  H32  1  0.04679000  0.23265000  0.59281000  1.0
  H  H33  1  0.95330000  0.64025000  0.40665000  1.0
  H  H34  1  0.18505000  0.07612000  0.55342000  1.0
  H  H35  1  0.13189000  0.52370000  0.44625000  1.0
  H  H36  1  0.99042000  0.87253000  0.46285000  1.0
  H  H37  1  0.02868000  0.41077000  0.53707000  1.0
  H  H38  1  0.40507000  0.78965000  0.43949000  1.0
  H  H39  1  0.46617000  0.35074000  0.56062000  1.0
  H  H40  1  0.22053000  0.58300000  0.34834000  1.0
  H  H41  1  0.37256000  0.23450000  0.65133000  1.0
  H  H42  1  0.35404000  0.45202000  0.24303000  1.0
  H  H43  1  0.61110000  0.20844000  0.75647000  1.0
  H  H44  1  0.65986000  0.53599000  0.22215000  1.0
  H  H45  1  0.93760000  0.31362000  0.77758000  1.0
  C  C46  1  0.22962000  0.65321000  0.12390000  1.0
  C  C47  1  0.60579000  0.52941000  0.87616000  1.0
  C  C48  1  0.23300000  0.55956000  0.04835000  1.0
  C  C49  1  0.68459000  0.51120000  0.95169000  1.0
  C  C50  1  0.18474000  0.55645000  0.95911000  1.0
  C  C51  1  0.72558000  0.59726000  0.04092000  1.0
  C  C52  1  0.13805000  0.64732000  0.94822000  1.0
  C  C53  1  0.68975000  0.69901000  0.05183000  1.0
  C  C54  1  0.14165000  0.73940000  0.02752000  1.0
  C  C55  1  0.61399000  0.71187000  0.97259000  1.0
  C  C56  1  0.10056000  0.84210000  0.02281000  1.0
  C  C57  1  0.57766000  0.81927000  0.97732000  1.0
  C  C58  1  0.04915000  0.85277000  0.93880000  1.0
  C  C59  1  0.61037000  0.91389000  0.06134000  1.0
  C  C60  1  0.01340000  0.95286000  0.94076000  1.0
  C  C61  1  0.57306000  0.01210000  0.05936000  1.0
  C  C62  1  0.03222000  0.03823000  0.02829000  1.0
  C  C63  1  0.50449000  0.01013000  0.97189000  1.0
  C  C64  1  0.08704000  0.02314000  0.10957000  1.0
  C  C65  1  0.47784000  0.91380000  0.89061000  1.0
  C  C66  1  0.11348000  0.11192000  0.20435000  1.0
  C  C67  1  0.40954000  0.90790000  0.79587000  1.0
  C  C68  1  0.09068000  0.21841000  0.21859000  1.0
  C  C69  1  0.37294000  0.00029000  0.78162000  1.0
  C  C70  1  0.12221000  0.29859000  0.30920000  1.0
  C  C71  1  0.31338000  0.98971000  0.69099000  1.0
  C  C72  1  0.17776000  0.27180000  0.38389000  1.0
  C  C73  1  0.29337000  0.88800000  0.61637000  1.0
  C  C74  1  0.19545000  0.16345000  0.36448000  1.0
  C  C75  1  0.33037000  0.79905000  0.63580000  1.0
  C  C76  1  0.98090000  0.08132000  0.85783000  1.0
  C  C77  1  0.62469000  0.22359000  0.14229000  1.0
  C  C78  1  0.95586000  0.96917000  0.85501000  1.0
  C  C79  1  0.60163000  0.11416000  0.14508000  1.0
  C  C80  1  0.87295000  0.87566000  0.76792000  1.0
  C  C81  1  0.60526000  0.10751000  0.23211000  1.0
  C  C82  1  0.81470000  0.89805000  0.69124000  1.0
  C  C83  1  0.62394000  0.20655000  0.30883000  1.0
  C  C84  1  0.83783000  0.01239000  0.70307000  1.0
  C  C85  1  0.63599000  0.30919000  0.29707000  1.0
  C  C86  1  0.47804000  0.97336000  0.40044000  1.0
  C  C87  1  0.57721000  0.57276000  0.59950000  1.0
  C  C88  1  0.66812000  0.99736000  0.45249000  1.0
  C  C89  1  0.71547000  0.54500000  0.54733000  1.0
  C  C90  1  0.77654000  0.11242000  0.51078000  1.0
  C  C91  1  0.76523000  0.60184000  0.48893000  1.0
  C  C92  1  0.96277000  0.14243000  0.54822000  1.0
  C  C93  1  0.91418000  0.59474000  0.45142000  1.0
  C  C94  1  0.03905000  0.05534000  0.52897000  1.0
  C  C95  1  0.01029000  0.52726000  0.47080000  1.0
  C  C96  1  0.92955000  0.93983000  0.47547000  1.0
  C  C97  1  0.95468000  0.46516000  0.52437000  1.0
  C  C98  1  0.74347000  0.90850000  0.43522000  1.0
  C  C99  1  0.80862000  0.47369000  0.56465000  1.0
  C  C100  1  0.63200000  0.78468000  0.37779000  1.0
  C  C101  1  0.75465000  0.40711000  0.62206000  1.0
  C  C102  1  0.45968000  0.73484000  0.39006000  1.0
  C  C103  1  0.57009000  0.34508000  0.60987000  1.0
  C  C104  1  0.35690000  0.61726000  0.33989000  1.0
  C  C105  1  0.51735000  0.27733000  0.65986000  1.0
  C  C106  1  0.42927000  0.54512000  0.27974000  1.0
  C  C107  1  0.64964000  0.26505000  0.71987000  1.0
  C  C108  1  0.60100000  0.59251000  0.26725000  1.0
  C  C109  1  0.83379000  0.32504000  0.73243000  1.0
  C  C110  1  0.69945000  0.71198000  0.31296000  1.0
  C  C111  1  0.88669000  0.39897000  0.68679000  1.0
  C  C112  1  0.87196000  0.76112000  0.28770000  1.0
  C  C113  1  0.08437000  0.47332000  0.71223000  1.0
  N  N114  1  0.18479000  0.74022000  0.11334000  1.0
  N  N115  1  0.57141000  0.62696000  0.88676000  1.0
  N  N116  1  0.11842000  0.92614000  0.10529000  1.0
  N  N117  1  0.51322000  0.82098000  0.89486000  1.0
  N  N118  1  0.16358000  0.08602000  0.27723000  1.0
  N  N119  1  0.38620000  0.80899000  0.72306000  1.0
  N  N120  1  0.92276000  0.10367000  0.78503000  1.0
  N  N121  1  0.63957000  0.31873000  0.21514000  1.0
  O  O122  1  0.44850000  0.92244000  0.31095000  1.0
  O  O123  1  0.63739000  0.61184000  0.68900000  1.0
  O  O124  1  0.36446000  0.00440000  0.44186000  1.0
  O  O125  1  0.42180000  0.56170000  0.55815000  1.0
  O  O126  1  0.88036000  0.84622000  0.26268000  1.0
  O  O127  1  0.11769000  0.58341000  0.73717000  1.0
  O  O128  1  0.99603000  0.71795000  0.28912000  1.0
  O  O129  1  0.20699000  0.42874000  0.71107000  1.0
