# generated using pymatgen
data_LaH17C18N2O9
_symmetry_space_group_name_H-M   'P 1'
_cell_length_a   10.16700000
_cell_length_b   10.17500000
_cell_length_c   10.71650000
_cell_angle_alpha   89.09150000
_cell_angle_beta   77.49540000
_cell_angle_gamma   65.89660000
_symmetry_Int_Tables_number   1
_chemical_formula_structural   LaH17C18N2O9
_chemical_formula_sum   'La2 H34 C36 N4 O18'
_cell_volume   984.66768881
_cell_formula_units_Z   2
loop_
 _symmetry_equiv_pos_site_id
 _symmetry_equiv_pos_as_xyz
  1  'x, y, z'
loop_
 _atom_site_type_symbol
 _atom_site_label
 _atom_site_symmetry_multiplicity
 _atom_site_fract_x
 _atom_site_fract_y
 _atom_site_fract_z
 _atom_site_occupancy
  La  La0  1  0.20576000  0.02959000  0.00415000  1.0
  La  La1  1  0.79424000  0.97040000  0.99585000  1.0
  H  H2  1  0.84475000  0.52592000  0.96865000  1.0
  H  H3  1  0.15525000  0.47408000  0.03135000  1.0
  H  H4  1  0.42622000  0.66602000  0.86054000  1.0
  H  H5  1  0.57379000  0.33398000  0.13946000  1.0
  H  H6  1  0.73374000  0.22002000  0.78807000  1.0
  H  H7  1  0.26626000  0.77998000  0.21193000  1.0
  H  H8  1  0.68715000  0.44418000  0.57182000  1.0
  H  H9  1  0.31285000  0.55582000  0.42818000  1.0
  H  H10  1  0.78390000  0.31514000  0.35387000  1.0
  H  H11  1  0.21611000  0.68486000  0.64613000  1.0
  H  H12  1  0.49088000  0.10101000  0.45374000  1.0
  H  H13  1  0.50912000  0.89900000  0.54626000  1.0
  H  H14  1  0.34085000  0.28303000  0.78023000  1.0
  H  H15  1  0.65915000  0.71697000  0.21977000  1.0
  H  H16  1  0.35575000  0.14028000  0.69191000  1.0
  H  H17  1  0.64425000  0.85972000  0.30809000  1.0
  H  H18  1  0.97451000  0.32138000  0.12682000  1.0
  H  H19  1  0.02549000  0.67861000  0.87318000  1.0
  H  H20  1  0.89881000  0.21553000  0.17662000  1.0
  H  H21  1  0.10119000  0.78446000  0.82338000  1.0
  H  H22  1  0.16333000  0.95430000  0.41015000  1.0
  H  H23  1  0.83666000  0.04570000  0.58986000  1.0
  H  H24  1  0.26577000  0.23049000  0.26335000  1.0
  H  H25  1  0.73423000  0.76951000  0.73665000  1.0
  H  H26  1  0.25262000  0.30660000  0.41778000  1.0
  H  H27  1  0.74737000  0.69340000  0.58223000  1.0
  H  H28  1  0.09271000  0.36319000  0.35040000  1.0
  H  H29  1  0.90728000  0.63681000  0.64960000  1.0
  H  H30  1  0.97392000  0.26702000  0.56712000  1.0
  H  H31  1  0.02608000  0.73299000  0.43288000  1.0
  H  H32  1  0.14789000  0.21512000  0.61033000  1.0
  H  H33  1  0.85211000  0.78488000  0.38968000  1.0
  H  H34  1  0.08003000  0.08225000  0.58975000  1.0
  H  H35  1  0.91997000  0.91776000  0.41025000  1.0
  C  C36  1  0.94361000  0.23817000  0.89622000  1.0
  C  C37  1  0.05639000  0.76182000  0.10378000  1.0
  C  C38  1  0.80429000  0.35975000  0.88037000  1.0
  C  C39  1  0.19571000  0.64025000  0.11962000  1.0
  C  C40  1  0.76841000  0.50154000  0.92598000  1.0
  C  C41  1  0.23159000  0.49845000  0.07402000  1.0
  C  C42  1  0.63129000  0.61153000  0.92068000  1.0
  C  C43  1  0.36871000  0.38847000  0.07933000  1.0
  C  C44  1  0.58602000  0.76349000  0.97368000  1.0
  C  C45  1  0.41398000  0.23650000  0.02633000  1.0
  C  C46  1  0.53363000  0.58165000  0.86398000  1.0
  C  C47  1  0.46637000  0.41834000  0.13602000  1.0
  C  C48  1  0.57498000  0.44262000  0.81239000  1.0
  C  C49  1  0.42502000  0.55738000  0.18760000  1.0
  C  C50  1  0.70735000  0.33000000  0.82302000  1.0
  C  C51  1  0.29265000  0.67000000  0.17698000  1.0
  C  C52  1  0.53668000  0.34472000  0.63340000  1.0
  C  C53  1  0.46332000  0.65528000  0.36660000  1.0
  C  C54  1  0.64621000  0.36752000  0.54508000  1.0
  C  C55  1  0.35378000  0.63248000  0.45491000  1.0
  C  C56  1  0.70022000  0.29507000  0.42329000  1.0
  C  C57  1  0.29978000  0.70494000  0.57671000  1.0
  C  C58  1  0.64473000  0.19757000  0.39141000  1.0
  C  C59  1  0.35528000  0.80243000  0.60859000  1.0
  C  C60  1  0.69835000  0.12028000  0.26191000  1.0
  C  C61  1  0.30165000  0.87972000  0.73809000  1.0
  C  C62  1  0.53393000  0.17572000  0.48096000  1.0
  C  C63  1  0.46607000  0.82428000  0.51904000  1.0
  C  C64  1  0.47510000  0.25059000  0.60311000  1.0
  C  C65  1  0.52490000  0.74942000  0.39689000  1.0
  C  C66  1  0.19125000  0.03360000  0.35109000  1.0
  C  C67  1  0.80875000  0.96640000  0.64891000  1.0
  C  C68  1  0.19499000  0.27123000  0.35909000  1.0
  C  C69  1  0.80501000  0.72878000  0.64091000  1.0
  C  C70  1  0.08681000  0.18146000  0.55415000  1.0
  C  C71  1  0.91319000  0.81854000  0.44585000  1.0
  N  N72  1  0.35978000  0.23932000  0.68998000  1.0
  N  N73  1  0.64022000  0.76068000  0.31002000  1.0
  N  N74  1  0.16184000  0.15554000  0.41891000  1.0
  N  N75  1  0.83815000  0.84446000  0.58109000  1.0
  O  O76  1  0.94796000  0.10977000  0.90327000  1.0
  O  O77  1  0.05204000  0.89022000  0.09673000  1.0
  O  O78  1  0.05285000  0.26402000  0.90641000  1.0
  O  O79  1  0.94715000  0.73599000  0.09359000  1.0
  O  O80  1  0.45046000  0.84938000  0.99140000  1.0
  O  O81  1  0.54954000  0.15062000  0.00860000  1.0
  O  O82  1  0.68655000  0.79665000  0.99722000  1.0
  O  O83  1  0.31345000  0.20334000  0.00279000  1.0
  O  O84  1  0.47734000  0.41592000  0.75480000  1.0
  O  O85  1  0.52266000  0.58408000  0.24520000  1.0
  O  O86  1  0.77526000  0.16065000  0.17005000  1.0
  O  O87  1  0.22474000  0.83935000  0.82996000  1.0
  O  O88  1  0.66538000  0.01644000  0.23871000  1.0
  O  O89  1  0.33462000  0.98356000  0.76129000  1.0
  O  O90  1  0.99077000  0.23360000  0.17100000  1.0
  O  O91  1  0.00923000  0.76640000  0.82901000  1.0
  O  O92  1  0.24699000  0.00539000  0.23328000  1.0
  O  O93  1  0.75302000  0.99460000  0.76672000  1.0
