# generated using pymatgen
data_H8PbC12(NO3)2
_symmetry_space_group_name_H-M   'P 1'
_cell_length_a   7.58301000
_cell_length_b   20.29890000
_cell_length_c   21.52360000
_cell_angle_alpha   89.99980000
_cell_angle_beta   89.99960000
_cell_angle_gamma   89.99940000
_symmetry_Int_Tables_number   1
_chemical_formula_structural   H8PbC12(NO3)2
_chemical_formula_sum   'H64 Pb8 C96 N16 O48'
_cell_volume   3313.05804761
_cell_formula_units_Z   8
loop_
 _symmetry_equiv_pos_site_id
 _symmetry_equiv_pos_as_xyz
  1  'x, y, z'
loop_
 _atom_site_type_symbol
 _atom_site_label
 _atom_site_symmetry_multiplicity
 _atom_site_fract_x
 _atom_site_fract_y
 _atom_site_fract_z
 _atom_site_occupancy
  H  H0  1  0.00270000  0.11982000  0.35277000  1.0
  H  H1  1  0.00268000  0.38019000  0.14723000  1.0
  H  H2  1  0.49732000  0.88018000  0.85276000  1.0
  H  H3  1  0.49732000  0.61983000  0.64723000  1.0
  H  H4  1  0.99730000  0.88018000  0.64724000  1.0
  H  H5  1  0.99729000  0.61982000  0.85277000  1.0
  H  H6  1  0.50268000  0.11982000  0.14723000  1.0
  H  H7  1  0.50271000  0.38017000  0.35276000  1.0
  H  H8  1  0.02273000  0.10780000  0.23422000  1.0
  H  H9  1  0.02271000  0.39220000  0.26578000  1.0
  H  H10  1  0.47728000  0.89220000  0.73421000  1.0
  H  H11  1  0.47728000  0.60781000  0.76578000  1.0
  H  H12  1  0.97727000  0.89219000  0.76579000  1.0
  H  H13  1  0.97727000  0.60780000  0.73422000  1.0
  H  H14  1  0.52271000  0.10781000  0.26578000  1.0
  H  H15  1  0.52274000  0.39219000  0.23421000  1.0
  H  H16  1  0.25378000  0.91719000  0.26300000  1.0
  H  H17  1  0.25379000  0.58280000  0.23701000  1.0
  H  H18  1  0.24620000  0.08280000  0.76299000  1.0
  H  H19  1  0.24621000  0.41721000  0.73701000  1.0
  H  H20  1  0.74621000  0.08280000  0.73701000  1.0
  H  H21  1  0.74622000  0.41720000  0.76300000  1.0
  H  H22  1  0.75380000  0.91720000  0.23701000  1.0
  H  H23  1  0.75377000  0.58280000  0.26299000  1.0
  H  H24  1  0.21589000  0.93524000  0.38034000  1.0
  H  H25  1  0.21588000  0.56477000  0.11967000  1.0
  H  H26  1  0.28411000  0.06476000  0.88033000  1.0
  H  H27  1  0.28412000  0.43524000  0.61967000  1.0
  H  H28  1  0.78411000  0.06476000  0.61967000  1.0
  H  H29  1  0.78411000  0.43524000  0.88034000  1.0
  H  H30  1  0.71590000  0.93524000  0.11967000  1.0
  H  H31  1  0.71587000  0.56476000  0.38033000  1.0
  H  H32  1  0.48402000  0.27372000  0.59621000  1.0
  H  H33  1  0.48402000  0.22628000  0.90379000  1.0
  H  H34  1  0.01596000  0.72628000  0.09619000  1.0
  H  H35  1  0.01596000  0.77373000  0.40381000  1.0
  H  H36  1  0.51598000  0.72628000  0.40379000  1.0
  H  H37  1  0.51598000  0.77372000  0.09621000  1.0
  H  H38  1  0.98403000  0.27373000  0.90380000  1.0
  H  H39  1  0.98402000  0.22628000  0.59621000  1.0
  H  H40  1  0.32069000  0.23973000  0.40789000  1.0
  H  H41  1  0.32069000  0.26027000  0.09211000  1.0
  H  H42  1  0.17935000  0.76028000  0.90788000  1.0
  H  H43  1  0.17934000  0.73972000  0.59212000  1.0
  H  H44  1  0.67930000  0.76027000  0.59211000  1.0
  H  H45  1  0.67930000  0.73973000  0.90789000  1.0
  H  H46  1  0.82066000  0.23973000  0.09211000  1.0
  H  H47  1  0.82068000  0.26027000  0.40789000  1.0
  H  H48  1  0.53380000  0.14917000  0.60634000  1.0
  H  H49  1  0.53380000  0.35083000  0.89366000  1.0
  H  H50  1  0.96621000  0.85083000  0.10633000  1.0
  H  H51  1  0.96621000  0.64918000  0.39367000  1.0
  H  H52  1  0.46620000  0.85083000  0.39366000  1.0
  H  H53  1  0.46619000  0.64917000  0.10634000  1.0
  H  H54  1  0.03381000  0.14918000  0.89367000  1.0
  H  H55  1  0.03380000  0.35083000  0.60634000  1.0
  H  H56  1  0.38993000  0.11751000  0.42378000  1.0
  H  H57  1  0.38991000  0.38249000  0.07622000  1.0
  H  H58  1  0.11013000  0.88250000  0.92378000  1.0
  H  H59  1  0.11012000  0.61750000  0.57622000  1.0
  H  H60  1  0.61006000  0.88249000  0.57622000  1.0
  H  H61  1  0.61006000  0.61751000  0.92378000  1.0
  H  H62  1  0.88988000  0.11751000  0.07622000  1.0
  H  H63  1  0.88992000  0.38249000  0.42378000  1.0
  Pb  Pb64  1  0.76214000  0.02101000  0.46221000  1.0
  Pb  Pb65  1  0.76213000  0.47898000  0.03778000  1.0
  Pb  Pb66  1  0.73786000  0.97898000  0.96222000  1.0
  Pb  Pb67  1  0.73787000  0.52102000  0.53778000  1.0
  Pb  Pb68  1  0.23786000  0.97898000  0.53779000  1.0
  Pb  Pb69  1  0.23786000  0.52102000  0.96221000  1.0
  Pb  Pb70  1  0.26213000  0.02102000  0.03779000  1.0
  Pb  Pb71  1  0.26214000  0.47898000  0.46221000  1.0
  C  C72  1  0.05929000  0.07751000  0.32888000  1.0
  C  C73  1  0.05928000  0.42250000  0.17112000  1.0
  C  C74  1  0.44072000  0.92249000  0.82887000  1.0
  C  C75  1  0.44072000  0.57751000  0.67113000  1.0
  C  C76  1  0.94071000  0.92249000  0.67113000  1.0
  C  C77  1  0.94071000  0.57751000  0.82887000  1.0
  C  C78  1  0.55928000  0.07751000  0.17112000  1.0
  C  C79  1  0.55930000  0.42248000  0.32887000  1.0
  C  C80  1  0.14072000  0.01146000  0.24029000  1.0
  C  C81  1  0.14072000  0.48854000  0.25971000  1.0
  C  C82  1  0.35927000  0.98854000  0.74029000  1.0
  C  C83  1  0.35929000  0.51147000  0.75971000  1.0
  C  C84  1  0.85928000  0.98854000  0.75971000  1.0
  C  C85  1  0.85927000  0.51146000  0.74029000  1.0
  C  C86  1  0.64073000  0.01147000  0.25971000  1.0
  C  C87  1  0.64072000  0.48853000  0.24029000  1.0
  C  C88  1  0.06996000  0.06934000  0.26532000  1.0
  C  C89  1  0.06996000  0.43066000  0.23468000  1.0
  C  C90  1  0.43004000  0.93066000  0.76531000  1.0
  C  C91  1  0.43005000  0.56935000  0.73468000  1.0
  C  C92  1  0.93003000  0.93065000  0.73469000  1.0
  C  C93  1  0.93003000  0.56934000  0.76532000  1.0
  C  C94  1  0.56995000  0.06934000  0.23468000  1.0
  C  C95  1  0.56997000  0.43065000  0.26531000  1.0
  C  C96  1  0.19722000  0.96248000  0.28143000  1.0
  C  C97  1  0.19721000  0.53752000  0.21858000  1.0
  C  C98  1  0.30278000  0.03752000  0.78142000  1.0
  C  C99  1  0.30280000  0.46249000  0.71858000  1.0
  C  C100  1  0.80279000  0.03752000  0.71858000  1.0
  C  C101  1  0.80279000  0.46249000  0.78142000  1.0
  C  C102  1  0.69722000  0.96249000  0.21858000  1.0
  C  C103  1  0.69721000  0.53751000  0.28142000  1.0
  C  C104  1  0.18281000  0.97139000  0.34487000  1.0
  C  C105  1  0.18281000  0.52861000  0.15513000  1.0
  C  C106  1  0.31718000  0.02861000  0.84487000  1.0
  C  C107  1  0.31720000  0.47140000  0.65513000  1.0
  C  C108  1  0.81719000  0.02861000  0.65513000  1.0
  C  C109  1  0.81719000  0.47139000  0.84487000  1.0
  C  C110  1  0.68281000  0.97139000  0.15513000  1.0
  C  C111  1  0.68280000  0.52861000  0.34487000  1.0
  C  C112  1  0.39937000  0.26540000  0.50100000  1.0
  C  C113  1  0.39937000  0.23459000  0.99900000  1.0
  C  C114  1  0.10064000  0.73460000  0.00098000  1.0
  C  C115  1  0.10064000  0.76540000  0.49903000  1.0
  C  C116  1  0.60063000  0.73459000  0.49900000  1.0
  C  C117  1  0.60063000  0.76540000  0.00100000  1.0
  C  C118  1  0.89936000  0.26541000  0.99901000  1.0
  C  C119  1  0.89937000  0.23459000  0.50099000  1.0
  C  C120  1  0.45897000  0.24016000  0.55772000  1.0
  C  C121  1  0.45897000  0.25984000  0.94228000  1.0
  C  C122  1  0.04101000  0.75984000  0.05770000  1.0
  C  C123  1  0.04101000  0.74016000  0.44230000  1.0
  C  C124  1  0.54103000  0.75984000  0.44228000  1.0
  C  C125  1  0.54103000  0.74016000  0.05772000  1.0
  C  C126  1  0.95898000  0.24016000  0.94229000  1.0
  C  C127  1  0.95898000  0.25984000  0.55772000  1.0
  C  C128  1  0.36922000  0.22129000  0.45220000  1.0
  C  C129  1  0.36921000  0.27870000  0.04779000  1.0
  C  C130  1  0.13080000  0.77871000  0.95219000  1.0
  C  C131  1  0.13079000  0.72129000  0.54781000  1.0
  C  C132  1  0.63078000  0.77870000  0.54780000  1.0
  C  C133  1  0.63078000  0.72130000  0.95220000  1.0
  C  C134  1  0.86920000  0.22130000  0.04780000  1.0
  C  C135  1  0.86921000  0.27870000  0.45220000  1.0
  C  C136  1  0.36539000  0.33810000  0.49322000  1.0
  C  C137  1  0.36539000  0.16190000  0.00678000  1.0
  C  C138  1  0.13461000  0.66190000  0.99320000  1.0
  C  C139  1  0.13462000  0.83810000  0.50680000  1.0
  C  C140  1  0.63462000  0.66190000  0.50678000  1.0
  C  C141  1  0.63462000  0.83810000  0.99322000  1.0
  C  C142  1  0.86539000  0.33810000  0.00679000  1.0
  C  C143  1  0.86539000  0.16190000  0.49321000  1.0
  C  C144  1  0.16133000  0.00361000  0.17113000  1.0
  C  C145  1  0.16133000  0.49638000  0.32888000  1.0
  C  C146  1  0.33867000  0.99638000  0.67112000  1.0
  C  C147  1  0.33867000  0.50362000  0.82888000  1.0
  C  C148  1  0.83866000  0.99639000  0.82888000  1.0
  C  C149  1  0.83867000  0.50362000  0.67112000  1.0
  C  C150  1  0.66133000  0.00362000  0.32888000  1.0
  C  C151  1  0.66133000  0.49638000  0.17112000  1.0
  C  C152  1  0.48803000  0.17336000  0.56434000  1.0
  C  C153  1  0.48803000  0.32664000  0.93566000  1.0
  C  C154  1  0.01196000  0.82663000  0.06433000  1.0
  C  C155  1  0.01196000  0.67337000  0.43567000  1.0
  C  C156  1  0.51196000  0.82663000  0.43566000  1.0
  C  C157  1  0.51195000  0.67337000  0.06434000  1.0
  C  C158  1  0.98804000  0.17337000  0.93567000  1.0
  C  C159  1  0.98805000  0.32663000  0.56433000  1.0
  C  C160  1  0.40239000  0.15486000  0.45972000  1.0
  C  C161  1  0.40238000  0.34513000  0.04028000  1.0
  C  C162  1  0.09766000  0.84514000  0.95972000  1.0
  C  C163  1  0.09765000  0.65486000  0.54029000  1.0
  C  C164  1  0.59761000  0.84513000  0.54028000  1.0
  C  C165  1  0.59760000  0.65486000  0.95972000  1.0
  C  C166  1  0.90236000  0.15487000  0.04028000  1.0
  C  C167  1  0.90239000  0.34513000  0.45972000  1.0
  N  N168  1  0.46182000  0.13196000  0.51537000  1.0
  N  N169  1  0.46181000  0.36803000  0.98463000  1.0
  N  N170  1  0.03821000  0.86804000  0.01537000  1.0
  N  N171  1  0.03821000  0.63197000  0.48463000  1.0
  N  N172  1  0.53817000  0.86803000  0.48463000  1.0
  N  N173  1  0.53817000  0.63197000  0.01537000  1.0
  N  N174  1  0.96181000  0.13197000  0.98463000  1.0
  N  N175  1  0.96182000  0.36803000  0.51537000  1.0
  N  N176  1  0.11625000  0.02879000  0.36777000  1.0
  N  N177  1  0.11624000  0.47122000  0.13224000  1.0
  N  N178  1  0.38376000  0.97121000  0.86776000  1.0
  N  N179  1  0.38377000  0.52880000  0.63224000  1.0
  N  N180  1  0.88375000  0.97121000  0.63224000  1.0
  N  N181  1  0.88375000  0.52879000  0.86776000  1.0
  N  N182  1  0.61624000  0.02879000  0.13224000  1.0
  N  N183  1  0.61624000  0.47120000  0.36776000  1.0
  O  O184  1  0.39437000  0.37574000  0.53890000  1.0
  O  O185  1  0.39437000  0.12426000  0.96110000  1.0
  O  O186  1  0.10561000  0.62426000  0.03889000  1.0
  O  O187  1  0.10563000  0.87574000  0.46112000  1.0
  O  O188  1  0.60565000  0.62426000  0.46110000  1.0
  O  O189  1  0.60566000  0.87574000  0.03890000  1.0
  O  O190  1  0.89436000  0.37574000  0.96111000  1.0
  O  O191  1  0.89437000  0.12426000  0.53890000  1.0
  O  O192  1  0.49902000  0.06865000  0.52201000  1.0
  O  O193  1  0.49900000  0.43135000  0.97799000  1.0
  O  O194  1  0.00100000  0.93135000  0.02201000  1.0
  O  O195  1  0.00101000  0.56865000  0.47799000  1.0
  O  O196  1  0.50097000  0.93135000  0.47799000  1.0
  O  O197  1  0.50096000  0.56865000  0.02201000  1.0
  O  O198  1  0.99901000  0.06865000  0.97799000  1.0
  O  O199  1  0.99902000  0.43135000  0.52201000  1.0
  O  O200  1  0.30458000  0.35631000  0.44042000  1.0
  O  O201  1  0.30457000  0.14369000  0.05958000  1.0
  O  O202  1  0.19541000  0.64369000  0.94041000  1.0
  O  O203  1  0.19542000  0.85631000  0.55960000  1.0
  O  O204  1  0.69545000  0.64369000  0.55957000  1.0
  O  O205  1  0.69543000  0.85631000  0.94042000  1.0
  O  O206  1  0.80457000  0.35631000  0.05959000  1.0
  O  O207  1  0.80458000  0.14369000  0.44042000  1.0
  O  O208  1  0.10244000  0.03772000  0.42826000  1.0
  O  O209  1  0.10242000  0.46229000  0.07174000  1.0
  O  O210  1  0.39756000  0.96228000  0.92825000  1.0
  O  O211  1  0.39757000  0.53773000  0.57174000  1.0
  O  O212  1  0.89755000  0.96227000  0.57175000  1.0
  O  O213  1  0.89756000  0.53772000  0.92826000  1.0
  O  O214  1  0.60244000  0.03772000  0.07174000  1.0
  O  O215  1  0.60244000  0.46227000  0.42825000  1.0
  O  O216  1  0.25460000  0.95627000  0.15130000  1.0
  O  O217  1  0.25462000  0.54372000  0.34870000  1.0
  O  O218  1  0.24536000  0.04372000  0.65130000  1.0
  O  O219  1  0.24537000  0.45628000  0.84870000  1.0
  O  O220  1  0.74539000  0.04373000  0.84870000  1.0
  O  O221  1  0.74539000  0.45627000  0.65130000  1.0
  O  O222  1  0.75462000  0.95628000  0.34870000  1.0
  O  O223  1  0.75461000  0.54372000  0.15130000  1.0
  O  O224  1  0.08831000  0.04747000  0.13683000  1.0
  O  O225  1  0.08829000  0.45253000  0.36317000  1.0
  O  O226  1  0.41172000  0.95254000  0.63683000  1.0
  O  O227  1  0.41170000  0.54747000  0.86317000  1.0
  O  O228  1  0.91168000  0.95253000  0.86317000  1.0
  O  O229  1  0.91170000  0.54747000  0.63683000  1.0
  O  O230  1  0.58831000  0.04748000  0.36317000  1.0
  O  O231  1  0.58831000  0.45253000  0.13683000  1.0
