# generated using pymatgen
data_ZnH9C16BrNO5
_symmetry_space_group_name_H-M   'P 1'
_cell_length_a   9.71448000
_cell_length_b   11.04390000
_cell_length_c   17.71140000
_cell_angle_alpha   89.21740000
_cell_angle_beta   89.02540000
_cell_angle_gamma   88.11650000
_symmetry_Int_Tables_number   1
_chemical_formula_structural   ZnH9C16BrNO5
_chemical_formula_sum   'Zn2 H18 C32 Br2 N2 O10'
_cell_volume   1898.71623687
_cell_formula_units_Z   2
loop_
 _symmetry_equiv_pos_site_id
 _symmetry_equiv_pos_as_xyz
  1  'x, y, z'
loop_
 _atom_site_type_symbol
 _atom_site_label
 _atom_site_symmetry_multiplicity
 _atom_site_fract_x
 _atom_site_fract_y
 _atom_site_fract_z
 _atom_site_occupancy
  Zn  Zn0  1  0.36621000  0.50302000  0.50017000  1.0
  Zn  Zn1  1  0.64718000  0.49543000  0.49676000  1.0
  H  H2  1  0.71945000  0.09988000  0.47967000  1.0
  H  H3  1  0.18377000  0.14286000  0.55122000  1.0
  H  H4  1  0.17262000  0.12030000  0.45187000  1.0
  H  H5  1  0.18171000  0.91935000  0.57393000  1.0
  H  H6  1  0.16119000  0.89523000  0.47486000  1.0
  H  H7  1  0.89181000  0.37946000  0.40576000  1.0
  H  H8  1  0.15165000  0.37791000  0.41415000  1.0
  H  H9  1  0.11374000  0.74545000  0.59140000  1.0
  H  H10  1  0.85240000  0.62381000  0.65559000  1.0
  H  H11  1  0.30890000  0.43020000  0.26964000  1.0
  H  H12  1  0.85179000  0.74378000  0.58658000  1.0
  H  H13  1  0.70480000  0.54877000  0.10705000  1.0
  H  H14  1  0.31100000  0.37724000  0.73080000  1.0
  H  H15  1  0.73537000  0.47211000  0.73919000  1.0
  H  H16  1  0.72600000  0.45684000  0.88024000  1.0
  H  H17  1  0.71225000  0.87557000  0.49080000  1.0
  H  H18  1  0.30221000  0.36193000  0.07425000  1.0
  H  H19  1  0.20842000  0.33398000  0.84545000  1.0
  C  C20  1  0.49320000  0.73483000  0.51136000  1.0
  C  C21  1  0.50911000  0.46136000  0.11063000  1.0
  C  C22  1  0.50878000  0.43539000  0.03296000  1.0
  C  C23  1  0.50625000  0.41589000  0.96518000  1.0
  C  C24  1  0.39654000  0.38204000  0.84268000  1.0
  C  C25  1  0.40183000  0.39312000  0.76424000  1.0
  C  C26  1  0.52241000  0.42887000  0.72705000  1.0
  C  C27  1  0.64107000  0.44763000  0.76884000  1.0
  C  C28  1  0.63583000  0.43861000  0.84693000  1.0
  C  C29  1  0.51281000  0.40938000  0.88576000  1.0
  C  C30  1  0.37326000  0.94353000  0.50720000  1.0
  C  C31  1  0.52267000  0.45385000  0.64377000  1.0
  C  C32  1  0.49250000  0.86975000  0.50528000  1.0
  C  C33  1  0.61714000  0.93042000  0.49411000  1.0
  C  C34  1  0.62115000  0.05598000  0.48680000  1.0
  C  C35  1  0.49985000  0.12966000  0.48819000  1.0
  C  C36  1  0.37704000  0.06925000  0.49761000  1.0
  C  C37  1  0.22202000  0.08717000  0.50390000  1.0
  C  C38  1  0.21760000  0.94540000  0.51693000  1.0
  C  C39  1  0.92609000  0.56623000  0.54285000  1.0
  C  C40  1  0.94268000  0.43358000  0.44738000  1.0
  C  C41  1  0.08645000  0.43310000  0.45172000  1.0
  C  C42  1  0.50441000  0.26427000  0.48352000  1.0
  C  C43  1  0.06905000  0.56559000  0.54705000  1.0
  C  C44  1  0.06609000  0.66043000  0.60782000  1.0
  C  C45  1  0.90321000  0.65829000  0.60430000  1.0
  C  C46  1  0.50549000  0.52055000  0.35124000  1.0
  C  C47  1  0.39548000  0.42937000  0.15717000  1.0
  C  C48  1  0.39593000  0.45526000  0.23389000  1.0
  C  C49  1  0.50753000  0.51071000  0.26673000  1.0
  C  C50  1  0.61875000  0.54499000  0.21981000  1.0
  C  C51  1  0.61914000  0.52120000  0.14307000  1.0
  Br  Br52  1  0.14420000  0.61393000  0.70520000  1.0
  Br  Br53  1  0.77112000  0.63181000  0.25545000  1.0
  N  N54  1  0.85934000  0.50114000  0.49364000  1.0
  N  N55  1  0.15289000  0.50035000  0.50236000  1.0
  O  O56  1  0.37747000  0.68458000  0.52158000  1.0
  O  O57  1  0.60967000  0.67923000  0.50460000  1.0
  O  O58  1  0.40799000  0.44939000  0.61012000  1.0
  O  O59  1  0.63744000  0.48034000  0.61273000  1.0
  O  O60  1  0.38989000  0.32190000  0.47348000  1.0
  O  O61  1  0.62104000  0.31148000  0.49182000  1.0
  O  O62  1  0.38962000  0.53923000  0.38448000  1.0
  O  O63  1  0.62078000  0.50348000  0.38325000  1.0
  O  O64  1  0.28570000  0.37310000  0.12856000  1.0
  O  O65  1  0.28031000  0.34898000  0.88153000  1.0
