# generated using pymatgen
data_ZnPH13C11N2O5
_symmetry_space_group_name_H-M   'P 1'
_cell_length_a   5.14759000
_cell_length_b   9.22700000
_cell_length_c   13.74960000
_cell_angle_alpha   99.90920000
_cell_angle_beta   90.00000000
_cell_angle_gamma   89.99970000
_symmetry_Int_Tables_number   1
_chemical_formula_structural   ZnPH13C11N2O5
_chemical_formula_sum   'Zn2 P2 H26 C22 N4 O10'
_cell_volume   643.31960596
_cell_formula_units_Z   2
loop_
 _symmetry_equiv_pos_site_id
 _symmetry_equiv_pos_as_xyz
  1  'x, y, z'
loop_
 _atom_site_type_symbol
 _atom_site_label
 _atom_site_symmetry_multiplicity
 _atom_site_fract_x
 _atom_site_fract_y
 _atom_site_fract_z
 _atom_site_occupancy
  Zn  Zn0  1  0.04807000  0.66547000  0.09040000  1.0
  Zn  Zn1  1  0.54808000  0.33452000  0.90960000  1.0
  P  P2  1  0.54610000  0.49394000  0.13190000  1.0
  P  P3  1  0.04610000  0.50605000  0.86810000  1.0
  H  H4  1  0.39474000  0.10557000  0.12476000  1.0
  H  H5  1  0.89475000  0.89442000  0.87524000  1.0
  H  H6  1  0.06048000  0.38649000  0.45120000  1.0
  H  H7  1  0.56049000  0.61352000  0.54881000  1.0
  H  H8  1  0.56779000  0.95838000  0.23943000  1.0
  H  H9  1  0.06782000  0.04161000  0.76057000  1.0
  H  H10  1  0.80758000  0.96623000  0.39984000  1.0
  H  H11  1  0.30760000  0.03377000  0.60016000  1.0
  H  H12  1  0.14679000  0.17191000  0.00128000  1.0
  H  H13  1  0.64679000  0.82809000  0.99872000  1.0
  H  H14  1  0.16850000  0.31453000  0.25284000  1.0
  H  H15  1  0.66853000  0.68547000  0.74716000  1.0
  H  H16  1  0.94555000  0.17793000  0.27156000  1.0
  H  H17  1  0.44557000  0.82207000  0.72845000  1.0
  H  H18  1  0.14885000  0.32320000  0.09163000  1.0
  H  H19  1  0.64886000  0.67679000  0.90837000  1.0
  H  H20  1  0.56011000  0.34143000  0.69612000  1.0
  H  H21  1  0.06008000  0.65857000  0.30387000  1.0
  H  H22  1  0.63604000  0.46063000  0.22239000  1.0
  H  H23  1  0.13604000  0.53937000  0.77761000  1.0
  H  H24  1  0.88224000  0.22008000  0.07247000  1.0
  H  H25  1  0.38224000  0.77993000  0.92753000  1.0
  H  H26  1  0.80337000  0.13704000  0.59442000  1.0
  H  H27  1  0.30336000  0.86296000  0.40557000  1.0
  H  H28  1  0.18872000  0.46202000  0.62500000  1.0
  H  H29  1  0.68870000  0.53799000  0.37500000  1.0
  C  C30  1  0.05009000  0.97192000  0.11643000  1.0
  C  C31  1  0.55012000  0.02808000  0.88357000  1.0
  C  C32  1  0.18684000  0.12100000  0.14112000  1.0
  C  C33  1  0.68685000  0.87900000  0.85889000  1.0
  C  C34  1  0.14776000  0.19465000  0.24906000  1.0
  C  C35  1  0.64778000  0.80535000  0.75094000  1.0
  C  C36  1  0.33597000  0.14670000  0.32038000  1.0
  C  C37  1  0.83599000  0.85330000  0.67962000  1.0
  C  C38  1  0.35735000  0.21602000  0.42214000  1.0
  C  C39  1  0.85736000  0.78399000  0.57786000  1.0
  C  C40  1  0.22124000  0.33091000  0.48103000  1.0
  C  C41  1  0.72123000  0.66909000  0.51897000  1.0
  C  C42  1  0.29456000  0.37308000  0.57916000  1.0
  C  C43  1  0.79456000  0.62692000  0.42084000  1.0
  C  C44  1  0.50237000  0.30355000  0.61971000  1.0
  C  C45  1  0.00236000  0.69646000  0.38029000  1.0
  C  C46  1  0.64065000  0.18881000  0.56322000  1.0
  C  C47  1  0.14063000  0.81119000  0.43677000  1.0
  C  C48  1  0.56547000  0.14549000  0.46458000  1.0
  C  C49  1  0.06547000  0.85451000  0.53541000  1.0
  C  C50  1  0.52445000  0.03829000  0.30501000  1.0
  C  C51  1  0.02447000  0.96171000  0.69499000  1.0
  N  N52  1  0.08322000  0.21536000  0.07255000  1.0
  N  N53  1  0.58322000  0.78464000  0.92745000  1.0
  N  N54  1  0.66211000  0.03800000  0.39145000  1.0
  N  N55  1  0.16212000  0.96201000  0.60855000  1.0
  O  O56  1  0.18056000  0.86295000  0.13787000  1.0
  O  O57  1  0.68058000  0.13705000  0.86214000  1.0
  O  O58  1  0.67899000  0.63453000  0.11267000  1.0
  O  O59  1  0.17899000  0.36547000  0.88733000  1.0
  O  O60  1  0.60936000  0.35554000  0.05521000  1.0
  O  O61  1  0.10936000  0.64445000  0.94479000  1.0
  O  O62  1  0.24836000  0.51389000  0.14315000  1.0
  O  O63  1  0.74837000  0.48611000  0.85685000  1.0
  O  O64  1  0.82726000  0.96727000  0.07917000  1.0
  O  O65  1  0.32727000  0.03273000  0.92083000  1.0
