# generated using pymatgen
data_AlH24C45(O2F)3
_symmetry_space_group_name_H-M   'P 1'
_cell_length_a   3.95954000
_cell_length_b   23.59300000
_cell_length_c   23.60323014
_cell_angle_alpha   60.03079499
_cell_angle_beta   89.91549041
_cell_angle_gamma   87.73160000
_symmetry_Int_Tables_number   1
_chemical_formula_structural   AlH24C45(O2F)3
_chemical_formula_sum   'Al1 H24 C45 O6 F3'
_cell_volume   1908.21435653
_cell_formula_units_Z   1
loop_
 _symmetry_equiv_pos_site_id
 _symmetry_equiv_pos_as_xyz
  1  'x, y, z'
loop_
 _atom_site_type_symbol
 _atom_site_label
 _atom_site_symmetry_multiplicity
 _atom_site_fract_x
 _atom_site_fract_y
 _atom_site_fract_z
 _atom_site_occupancy
  Al  Al0  1  0.97265000  0.00043000  0.50004000  1.0
  H  H1  1  0.25773000  0.99014000  0.67953000  1.0
  H  H2  1  0.27443000  0.93445000  0.79983000  1.0
  H  H3  1  0.16697000  0.87864000  0.89418000  1.0
  H  H4  1  0.16616000  0.81958000  0.01348000  1.0
  H  H5  1  0.75163000  0.92873000  0.26709000  1.0
  H  H6  1  0.75031000  0.87984000  0.22142000  1.0
  H  H7  1  0.75183000  0.81909000  0.16349000  1.0
  H  H8  1  0.47844000  0.78839000  0.10554000  1.0
  H  H9  1  0.21933000  0.83814000  0.48319000  1.0
  H  H10  1  0.22172000  0.77405000  0.42719000  1.0
  H  H11  1  0.22371000  0.72504000  0.38039000  1.0
  H  H12  1  0.21454000  0.66593000  0.32066000  1.0
  H  H13  1  0.67720000  0.30206000  0.43403000  1.0
  H  H14  1  0.75695000  0.39428000  0.37941000  1.0
  H  H15  1  0.76873000  0.51300000  0.31907000  1.0
  H  H16  1  0.47821000  0.60601000  0.28746000  1.0
  H  H17  1  0.18801000  0.18314000  0.33276000  1.0
  H  H18  1  0.20148000  0.30323000  0.26810000  1.0
  H  H19  1  0.15848000  0.40024000  0.22354000  1.0
  H  H20  1  0.17223000  0.51927000  0.16359000  1.0
  H  H21  1  0.70031000  0.76007000  0.80444000  1.0
  H  H22  1  0.81212000  0.72456000  0.89860000  1.0
  H  H23  1  0.80325000  0.66536000  0.01778000  1.0
  H  H24  1  0.47850000  0.60656000  0.10512000  1.0
  C  C25  1  0.48420000  0.94678000  0.60086000  1.0
  C  C26  1  0.44964000  0.10136000  0.45262000  1.0
  C  C27  1  0.48426000  0.95317000  0.44653000  1.0
  C  C28  1  0.35964000  0.93988000  0.70798000  1.0
  C  C29  1  0.36691000  0.90786000  0.77584000  1.0
  C  C30  1  0.31498000  0.83258000  0.92045000  1.0
  C  C31  1  0.31422000  0.79910000  0.98840000  1.0
  C  C32  1  0.63441000  0.94089000  0.34791000  1.0
  C  C33  1  0.63295000  0.90641000  0.31457000  1.0
  C  C34  1  0.62872000  0.83314000  0.24407000  1.0
  C  C35  1  0.62758000  0.79880000  0.21048000  1.0
  C  C36  1  0.48742000  0.90956000  0.67367000  1.0
  C  C37  1  0.48929000  0.84224000  0.81332000  1.0
  C  C38  1  0.48875000  0.80677000  0.88566000  1.0
  C  C39  1  0.48379000  0.73769000  0.02514000  1.0
  C  C40  1  0.48010000  0.70161000  0.09722000  1.0
  C  C41  1  0.47875000  0.73507000  0.13232000  1.0
  C  C42  1  0.33961000  0.85664000  0.43601000  1.0
  C  C43  1  0.34266000  0.82080000  0.40397000  1.0
  C  C44  1  0.34318000  0.74650000  0.33294000  1.0
  C  C45  1  0.34018000  0.71227000  0.29919000  1.0
  C  C46  1  0.57382000  0.21051000  0.44348000  1.0
  C  C47  1  0.57294000  0.27827000  0.40905000  1.0
  C  C48  1  0.62064000  0.42076000  0.33266000  1.0
  C  C49  1  0.62710000  0.48858000  0.29847000  1.0
  C  C50  1  0.48839000  0.91764000  0.40929000  1.0
  C  C51  1  0.48813000  0.84498000  0.34195000  1.0
  C  C52  1  0.48680000  0.80811000  0.30637000  1.0
  C  C53  1  0.48229000  0.73752000  0.23704000  1.0
  C  C54  1  0.47949000  0.70146000  0.20091000  1.0
  C  C55  1  0.47820000  0.63289000  0.23418000  1.0
  C  C56  1  0.29956000  0.21025000  0.35370000  1.0
  C  C57  1  0.30674000  0.27810000  0.31771000  1.0
  C  C58  1  0.29912000  0.42394000  0.24496000  1.0
  C  C59  1  0.30709000  0.49185000  0.21052000  1.0
  C  C60  1  0.61397000  0.84479000  0.71142000  1.0
  C  C61  1  0.61000000  0.81114000  0.77922000  1.0
  C  C62  1  0.66125000  0.74550000  0.92283000  1.0
  C  C63  1  0.65722000  0.71166000  0.99072000  1.0
  C  C64  1  0.43959000  0.17420000  0.41732000  1.0
  C  C65  1  0.44460000  0.31402000  0.34450000  1.0
  C  C66  1  0.45474000  0.38632000  0.30720000  1.0
  C  C67  1  0.47009000  0.52589000  0.23654000  1.0
  C  C68  1  0.47595000  0.59797000  0.20050000  1.0
  C  C69  1  0.47842000  0.63304000  0.13199000  1.0
  O  O70  1  0.71168000  0.99394000  0.43549000  1.0
  O  O71  1  0.72452000  0.93549000  0.57147000  1.0
  O  O72  1  0.69100000  0.07097000  0.49374000  1.0
  O  O73  1  0.25278000  0.93915000  0.48866000  1.0
  O  O74  1  0.21922000  0.07409000  0.43821000  1.0
  O  O75  1  0.24050000  0.98906000  0.57279000  1.0
  F  F76  1  0.70306000  0.17989000  0.50553000  1.0
  F  F77  1  0.73423000  0.81139000  0.68200000  1.0
  F  F78  1  0.77797000  0.99998000  0.31754000  1.0
