# generated using pymatgen
data_Mo2H26C24N4O7
_symmetry_space_group_name_H-M   'P 1'
_cell_length_a   5.95642000
_cell_length_b   7.04113000
_cell_length_c   14.36100000
_cell_angle_alpha   77.80670000
_cell_angle_beta   84.44730000
_cell_angle_gamma   88.91650000
_symmetry_Int_Tables_number   1
_chemical_formula_structural   Mo2H26C24N4O7
_chemical_formula_sum   'Mo2 H26 C24 N4 O7'
_cell_volume   585.94860641
_cell_formula_units_Z   1
loop_
 _symmetry_equiv_pos_site_id
 _symmetry_equiv_pos_as_xyz
  1  'x, y, z'
loop_
 _atom_site_type_symbol
 _atom_site_label
 _atom_site_symmetry_multiplicity
 _atom_site_fract_x
 _atom_site_fract_y
 _atom_site_fract_z
 _atom_site_occupancy
  Mo  Mo0  1  0.78801000  0.38000000  0.97847000  1.0
  Mo  Mo1  1  0.21200000  0.62000000  0.02153000  1.0
  H  H2  1  0.64738000  0.74834000  0.88802000  1.0
  H  H3  1  0.35262000  0.25166000  0.11198000  1.0
  H  H4  1  0.93070000  0.77101000  0.87007000  1.0
  H  H5  1  0.06931000  0.22898000  0.12992000  1.0
  H  H6  1  0.43899000  0.60350000  0.77700000  1.0
  H  H7  1  0.56100000  0.39650000  0.22300000  1.0
  H  H8  1  0.71929000  0.96820000  0.12402000  1.0
  H  H9  1  0.28071000  0.03180000  0.87598000  1.0
  H  H10  1  0.51301000  0.79483000  0.14506000  1.0
  H  H11  1  0.48700000  0.20517000  0.85494000  1.0
  H  H12  1  0.78301000  0.72841000  0.12284000  1.0
  H  H13  1  0.21700000  0.27159000  0.87716000  1.0
  H  H14  1  0.04132000  0.68644000  0.25076000  1.0
  H  H15  1  0.95869000  0.31357000  0.74924000  1.0
  H  H16  1  0.39677000  0.86413000  0.46206000  1.0
  H  H17  1  0.60323000  0.13586000  0.53794000  1.0
  H  H18  1  0.07275000  0.64556000  0.42477000  1.0
  H  H19  1  0.92725000  0.35444000  0.57523000  1.0
  H  H20  1  0.09458000  0.83863000  0.54332000  1.0
  H  H21  1  0.90542000  0.16136000  0.45668000  1.0
  H  H22  1  0.36305000  0.89920000  0.28933000  1.0
  H  H23  1  0.63696000  0.10080000  0.71067000  1.0
  H  H24  1  0.41493000  0.61788000  0.60463000  1.0
  H  H25  1  0.58507000  0.38212000  0.39537000  1.0
  H  H26  1  0.12104000  0.81886000  0.71552000  1.0
  H  H27  1  0.87895000  0.18113000  0.28449000  1.0
  C  C28  1  0.58304000  0.65374000  0.72527000  1.0
  C  C29  1  0.41695000  0.34626000  0.27473000  1.0
  C  C30  1  0.73599000  0.74995000  0.45699000  1.0
  C  C31  1  0.26401000  0.25005000  0.54300000  1.0
  C  C32  1  0.70013000  0.79357000  0.26029000  1.0
  C  C33  1  0.29987000  0.20643000  0.73971000  1.0
  C  C34  1  0.90023000  0.72394000  0.29782000  1.0
  C  C35  1  0.09977000  0.27607000  0.70218000  1.0
  C  C36  1  0.75311000  0.73089000  0.56048000  1.0
  C  C37  1  0.24688000  0.26910000  0.43952000  1.0
  C  C38  1  0.53684000  0.82037000  0.41675000  1.0
  C  C39  1  0.46316000  0.17963000  0.58325000  1.0
  C  C40  1  0.78120000  0.70988000  0.75774000  1.0
  C  C41  1  0.21879000  0.29012000  0.24226000  1.0
  C  C42  1  0.91716000  0.70295000  0.39564000  1.0
  C  C43  1  0.08284000  0.29706000  0.60436000  1.0
  C  C44  1  0.95156000  0.78300000  0.59435000  1.0
  C  C45  1  0.04844000  0.21699000  0.40565000  1.0
  C  C46  1  0.51801000  0.84248000  0.31930000  1.0
  C  C47  1  0.48199000  0.15752000  0.68070000  1.0
  C  C48  1  0.56956000  0.66462000  0.62819000  1.0
  C  C49  1  0.43044000  0.33538000  0.37181000  1.0
  C  C50  1  0.96676000  0.77292000  0.69138000  1.0
  C  C51  1  0.03324000  0.22707000  0.30862000  1.0
  N  N52  1  0.79232000  0.70013000  0.85650000  1.0
  N  N53  1  0.20767000  0.29987000  0.14350000  1.0
  N  N54  1  0.67972000  0.82174000  0.15837000  1.0
  N  N55  1  0.32028000  0.17826000  0.84163000  1.0
  O  O56  1  0.76542000  0.19591000  0.08375000  1.0
  O  O57  1  0.23459000  0.80409000  0.91625000  1.0
  O  O58  1  0.72768000  0.26413000  0.88732000  1.0
  O  O59  1  0.27232000  0.73587000  0.11268000  1.0
  O  O60  1  0.90089000  0.59880000  0.05163000  1.0
  O  O61  1  0.09911000  0.40121000  0.94837000  1.0
  O  O62  1  0.50000000  0.50000000  0.00000000  1.0
