# generated using pymatgen
data_ZnH20C34N5O4
_symmetry_space_group_name_H-M   'P 1'
_cell_length_a   11.00720000
_cell_length_b   18.21200000
_cell_length_c   19.62250000
_cell_angle_alpha   89.99970000
_cell_angle_beta   89.88170000
_cell_angle_gamma   89.99950000
_symmetry_Int_Tables_number   1
_chemical_formula_structural   ZnH20C34N5O4
_chemical_formula_sum   'Zn2 H40 C68 N10 O8'
_cell_volume   3933.57931297
_cell_formula_units_Z   2
loop_
 _symmetry_equiv_pos_site_id
 _symmetry_equiv_pos_as_xyz
  1  'x, y, z'
loop_
 _atom_site_type_symbol
 _atom_site_label
 _atom_site_symmetry_multiplicity
 _atom_site_fract_x
 _atom_site_fract_y
 _atom_site_fract_z
 _atom_site_occupancy
  Zn  Zn0  1  0.50000000  0.42394000  0.50000000  1.0
  Zn  Zn1  1  0.50000000  0.57158000  0.50000000  1.0
  H  H2  1  0.92224000  0.75084000  0.45329000  1.0
  H  H3  1  0.08269000  0.25186000  0.45627000  1.0
  H  H4  1  0.07775000  0.75084000  0.54671000  1.0
  H  H5  1  0.91732000  0.25186000  0.54373000  1.0
  H  H6  1  0.54409000  0.61036000  0.28501000  1.0
  H  H7  1  0.55005000  0.38200000  0.71846000  1.0
  H  H8  1  0.45592000  0.61036000  0.71499000  1.0
  H  H9  1  0.44993000  0.38201000  0.28153000  1.0
  H  H10  1  0.54424000  0.61330000  0.15740000  1.0
  H  H11  1  0.55428000  0.38419000  0.84585000  1.0
  H  H12  1  0.45577000  0.61330000  0.84260000  1.0
  H  H13  1  0.44570000  0.38420000  0.15414000  1.0
  H  H14  1  0.55080000  0.30676000  0.39853000  1.0
  H  H15  1  0.67033000  0.68888000  0.54469000  1.0
  H  H16  1  0.44921000  0.30676000  0.60147000  1.0
  H  H17  1  0.32967000  0.68888000  0.45531000  1.0
  H  H18  1  0.68085000  0.06533000  0.45696000  1.0
  H  H19  1  0.31866000  0.93046000  0.54250000  1.0
  H  H20  1  0.31912000  0.06533000  0.54305000  1.0
  H  H21  1  0.68132000  0.93047000  0.45750000  1.0
  H  H22  1  0.88825000  0.29215000  0.66428000  1.0
  H  H23  1  0.91758000  0.38645000  0.67986000  1.0
  H  H24  1  0.77564000  0.34798000  0.70381000  1.0
  H  H25  1  0.75051000  0.42119000  0.59920000  1.0
  H  H26  1  0.72134000  0.32878000  0.58105000  1.0
  H  H27  1  0.07704000  0.58862000  0.67297000  1.0
  H  H28  1  0.17870000  0.52367000  0.63692000  1.0
  H  H29  1  0.23231000  0.58764000  0.69769000  1.0
  H  H30  1  0.29319000  0.62331000  0.57887000  1.0
  H  H31  1  0.20306000  0.69133000  0.61821000  1.0
  H  H32  1  0.22435000  0.34799000  0.29617000  1.0
  H  H33  1  0.11173000  0.29217000  0.33571000  1.0
  H  H34  1  0.08243000  0.38647000  0.32013000  1.0
  H  H35  1  0.24951000  0.42119000  0.40079000  1.0
  H  H36  1  0.27866000  0.32877000  0.41894000  1.0
  H  H37  1  0.92296000  0.58862000  0.32702000  1.0
  H  H38  1  0.82130000  0.52367000  0.36308000  1.0
  H  H39  1  0.76770000  0.58764000  0.30231000  1.0
  H  H40  1  0.70681000  0.62330000  0.42112000  1.0
  H  H41  1  0.79694000  0.69132000  0.38178000  1.0
  C  C42  1  0.49867000  0.49465000  0.63336000  1.0
  C  C43  1  0.50132000  0.49465000  0.36664000  1.0
  C  C44  1  0.49829000  0.49597000  0.29037000  1.0
  C  C45  1  0.50171000  0.49597000  0.70962000  1.0
  C  C46  1  0.38868000  0.49965000  0.03504000  1.0
  C  C47  1  0.61133000  0.49963000  0.96496000  1.0
  C  C48  1  0.39126000  0.50026000  0.96280000  1.0
  C  C49  1  0.60875000  0.50026000  0.03720000  1.0
  C  C50  1  0.50260000  0.49971000  0.92734000  1.0
  C  C51  1  0.49740000  0.49972000  0.07266000  1.0
  C  C52  1  0.52927000  0.27365000  0.44327000  1.0
  C  C53  1  0.59510000  0.72188000  0.52535000  1.0
  C  C54  1  0.47073000  0.27365000  0.55674000  1.0
  C  C55  1  0.40489000  0.72187000  0.47465000  1.0
  C  C56  1  0.53034000  0.19668000  0.44105000  1.0
  C  C57  1  0.59832000  0.79883000  0.52673000  1.0
  C  C58  1  0.46965000  0.19668000  0.55896000  1.0
  C  C59  1  0.40167000  0.79882000  0.47327000  1.0
  C  C60  1  0.49999000  0.15580000  0.50000000  1.0
  C  C61  1  0.49999000  0.83981000  0.50000000  1.0
  C  C62  1  0.60124000  0.03598000  0.47564000  1.0
  C  C63  1  0.39818000  0.95974000  0.52361000  1.0
  C  C64  1  0.39874000  0.03599000  0.52437000  1.0
  C  C65  1  0.60180000  0.95974000  0.47639000  1.0
  C  C66  1  0.49999000  0.92070000  0.50000000  1.0
  C  C67  1  0.49999000  0.07493000  0.50000000  1.0
  C  C68  1  0.73629000  0.50118000  0.50097000  1.0
  C  C69  1  0.26372000  0.50118000  0.49903000  1.0
  C  C70  1  0.89130000  0.36821000  0.54019000  1.0
  C  C71  1  0.10835000  0.63517000  0.54046000  1.0
  C  C72  1  0.10871000  0.36821000  0.45981000  1.0
  C  C73  1  0.89165000  0.63517000  0.45954000  1.0
  C  C74  1  0.95013000  0.30381000  0.52279000  1.0
  C  C75  1  0.04878000  0.69910000  0.52376000  1.0
  C  C76  1  0.04989000  0.30381000  0.47720000  1.0
  C  C77  1  0.95121000  0.69910000  0.47624000  1.0
  C  C78  1  0.06210000  0.43527000  0.48832000  1.0
  C  C79  1  0.93689000  0.56780000  0.48992000  1.0
  C  C80  1  0.93791000  0.43527000  0.51167000  1.0
  C  C81  1  0.06311000  0.56780000  0.51007000  1.0
  C  C82  1  0.12775000  0.50182000  0.49862000  1.0
  C  C83  1  0.87225000  0.50181000  0.50138000  1.0
  C  C84  1  0.52367000  0.56127000  0.25551000  1.0
  C  C85  1  0.52992000  0.43230000  0.74629000  1.0
  C  C86  1  0.47633000  0.56127000  0.74449000  1.0
  C  C87  1  0.47006000  0.43231000  0.25370000  1.0
  C  C88  1  0.52335000  0.56269000  0.18468000  1.0
  C  C89  1  0.53224000  0.43367000  0.81715000  1.0
  C  C90  1  0.47665000  0.56268000  0.81532000  1.0
  C  C91  1  0.46774000  0.43368000  0.18285000  1.0
  C  C92  1  0.49553000  0.49880000  0.14812000  1.0
  C  C93  1  0.50447000  0.49879000  0.85187000  1.0
  C  C94  1  0.79412000  0.36752000  0.59464000  1.0
  C  C95  1  0.84705000  0.34710000  0.66453000  1.0
  C  C96  1  0.20122000  0.63527000  0.59716000  1.0
  C  C97  1  0.17036000  0.58073000  0.65438000  1.0
  C  C98  1  0.20589000  0.36752000  0.40535000  1.0
  C  C99  1  0.15295000  0.34712000  0.33546000  1.0
  C  C100  1  0.79878000  0.63527000  0.40284000  1.0
  C  C101  1  0.82964000  0.58073000  0.34562000  1.0
  C  C102  1  0.27529000  0.49952000  0.07034000  1.0
  C  C103  1  0.72473000  0.49950000  0.92966000  1.0
  C  C104  1  0.28052000  0.50043000  0.92514000  1.0
  C  C105  1  0.71948000  0.50042000  0.07485000  1.0
  C  C106  1  0.55817000  0.16181000  0.37777000  1.0
  C  C107  1  0.70090000  0.83339000  0.55748000  1.0
  C  C108  1  0.44180000  0.16181000  0.62223000  1.0
  C  C109  1  0.29909000  0.83339000  0.44252000  1.0
  N  N110  1  0.50000000  0.31046000  0.50000000  1.0
  N  N111  1  0.50000000  0.68506000  0.50000000  1.0
  N  N112  1  0.18265000  0.49948000  0.09949000  1.0
  N  N113  1  0.81735000  0.49945000  0.90050000  1.0
  N  N114  1  0.19042000  0.50055000  0.89381000  1.0
  N  N115  1  0.80958000  0.50054000  0.10620000  1.0
  N  N116  1  0.58059000  0.13517000  0.32508000  1.0
  N  N117  1  0.78593000  0.85974000  0.58323000  1.0
  N  N118  1  0.41938000  0.13517000  0.67492000  1.0
  N  N119  1  0.21406000  0.85974000  0.41677000  1.0
  O  O120  1  0.52191000  0.43362000  0.60414000  1.0
  O  O121  1  0.52629000  0.55462000  0.39678000  1.0
  O  O122  1  0.47809000  0.43362000  0.39586000  1.0
  O  O123  1  0.47371000  0.55462000  0.60322000  1.0
  O  O124  1  0.68213000  0.44289000  0.48163000  1.0
  O  O125  1  0.31843000  0.55954000  0.47960000  1.0
  O  O126  1  0.31787000  0.44289000  0.51836000  1.0
  O  O127  1  0.68157000  0.55954000  0.52039000  1.0
