# generated using pymatgen
data_ZnH8C12(SN2)2
_symmetry_space_group_name_H-M   'P 1'
_cell_length_a   4.64196000
_cell_length_b   9.31035000
_cell_length_c   16.82380000
_cell_angle_alpha   84.08250000
_cell_angle_beta   83.08640000
_cell_angle_gamma   76.99270000
_symmetry_Int_Tables_number   1
_chemical_formula_structural   ZnH8C12(SN2)2
_chemical_formula_sum   'Zn2 H16 C24 S4 N8'
_cell_volume   701.11361018
_cell_formula_units_Z   2
loop_
 _symmetry_equiv_pos_site_id
 _symmetry_equiv_pos_as_xyz
  1  'x, y, z'
loop_
 _atom_site_type_symbol
 _atom_site_label
 _atom_site_symmetry_multiplicity
 _atom_site_fract_x
 _atom_site_fract_y
 _atom_site_fract_z
 _atom_site_occupancy
  Zn  Zn0  1  0.68593000  0.25090000  0.75099000  1.0
  Zn  Zn1  1  0.31409000  0.74910000  0.24901000  1.0
  H  H2  1  0.67690000  0.45230000  0.29508000  1.0
  H  H3  1  0.42486000  0.05137000  0.19930000  1.0
  H  H4  1  0.32310000  0.54769000  0.70492000  1.0
  H  H5  1  0.57514000  0.94863000  0.80071000  1.0
  H  H6  1  0.98950000  0.33457000  0.40072000  1.0
  H  H7  1  0.71550000  0.17061000  0.09188000  1.0
  H  H8  1  0.01052000  0.66543000  0.59927000  1.0
  H  H9  1  0.28446000  0.82940000  0.90812000  1.0
  H  H10  1  0.75250000  0.75250000  0.51178000  1.0
  H  H11  1  0.01972000  0.74246000  0.99321000  1.0
  H  H12  1  0.24752000  0.24750000  0.48822000  1.0
  H  H13  1  0.98029000  0.25756000  0.00679000  1.0
  H  H14  1  0.44795000  0.85227000  0.40088000  1.0
  H  H15  1  0.70504000  0.64306000  0.10356000  1.0
  H  H16  1  0.55205000  0.14771000  0.59912000  1.0
  H  H17  1  0.29498000  0.35695000  0.89643000  1.0
  C  C18  1  0.70090000  0.51534000  0.34417000  1.0
  C  C19  1  0.55978000  0.98686000  0.15225000  1.0
  C  C20  1  0.29908000  0.48465000  0.65584000  1.0
  C  C21  1  0.44022000  0.01314000  0.84775000  1.0
  C  C22  1  0.87806000  0.45009000  0.40452000  1.0
  C  C23  1  0.72752000  0.05267000  0.09133000  1.0
  C  C24  1  0.12194000  0.54990000  0.59548000  1.0
  C  C25  1  0.27245000  0.94735000  0.90867000  1.0
  C  C26  1  0.90609000  0.53263000  0.46736000  1.0
  C  C27  1  0.90524000  0.96732000  0.03219000  1.0
  C  C28  1  0.09390000  0.46735000  0.53265000  1.0
  C  C29  1  0.09474000  0.03270000  0.96781000  1.0
  C  C30  1  0.74607000  0.68009000  0.46558000  1.0
  C  C31  1  0.89417000  0.81699000  0.03695000  1.0
  C  C32  1  0.25393000  0.31989000  0.53442000  1.0
  C  C33  1  0.10583000  0.18303000  0.96304000  1.0
  C  C34  1  0.57274000  0.73791000  0.40344000  1.0
  C  C35  1  0.71741000  0.75930000  0.09880000  1.0
  C  C36  1  0.42724000  0.26208000  0.59657000  1.0
  C  C37  1  0.28259000  0.24071000  0.90119000  1.0
  C  C38  1  0.83663000  0.52182000  0.81756000  1.0
  C  C39  1  0.15404000  0.98908000  0.68072000  1.0
  C  C40  1  0.16338000  0.47819000  0.18244000  1.0
  C  C41  1  0.84596000  0.01092000  0.31928000  1.0
  S  S42  1  0.93358000  0.66106000  0.84667000  1.0
  S  S43  1  0.39797000  0.85694000  0.64265000  1.0
  S  S44  1  0.06640000  0.33895000  0.15334000  1.0
  S  S45  1  0.60206000  0.14306000  0.35735000  1.0
  N  N46  1  0.55204000  0.65749000  0.34296000  1.0
  N  N47  1  0.55522000  0.84211000  0.15638000  1.0
  N  N48  1  0.44794000  0.34249000  0.65704000  1.0
  N  N49  1  0.44478000  0.15789000  0.84362000  1.0
  N  N50  1  0.77438000  0.41670000  0.79514000  1.0
  N  N51  1  0.97968000  0.08879000  0.70965000  1.0
  N  N52  1  0.22565000  0.58329000  0.20486000  1.0
  N  N53  1  0.02033000  0.91120000  0.29035000  1.0
