# generated using pymatgen
data_Zn3H20C48(IO3)4
_symmetry_space_group_name_H-M   'P 1'
_cell_length_a   28.92590000
_cell_length_b   31.23196341
_cell_length_c   31.25694987
_cell_angle_alpha   77.65973266
_cell_angle_beta   62.44370723
_cell_angle_gamma   62.48680960
_symmetry_Int_Tables_number   1
_chemical_formula_structural   Zn3H20C48(IO3)4
_chemical_formula_sum   'Zn6 H40 C96 I8 O24'
_cell_volume   22203.23021060
_cell_formula_units_Z   2
loop_
 _symmetry_equiv_pos_site_id
 _symmetry_equiv_pos_as_xyz
  1  'x, y, z'
loop_
 _atom_site_type_symbol
 _atom_site_label
 _atom_site_symmetry_multiplicity
 _atom_site_fract_x
 _atom_site_fract_y
 _atom_site_fract_z
 _atom_site_occupancy
  Zn  Zn0  1  0.53207000  0.46711000  0.46709000  1.0
  Zn  Zn1  1  0.45607000  0.99951000  0.99999000  1.0
  Zn  Zn2  1  0.54391000  0.00050000  0.00002000  1.0
  Zn  Zn3  1  0.00087000  0.53290000  0.46712000  1.0
  Zn  Zn4  1  0.46793000  0.53289000  0.53290000  1.0
  Zn  Zn5  1  0.99912000  0.46711000  0.53288000  1.0
  H  H6  1  0.43603000  0.09871000  0.88247000  1.0
  H  H7  1  0.31848000  0.09869000  0.11756000  1.0
  H  H8  1  0.43641000  0.88242000  0.09903000  1.0
  H  H9  1  0.53555000  0.88218000  0.90106000  1.0
  H  H10  1  0.56411000  0.90119000  0.11741000  1.0
  H  H11  1  0.46442000  0.11790000  0.09888000  1.0
  H  H12  1  0.56349000  0.11766000  0.90105000  1.0
  H  H13  1  0.68153000  0.90123000  0.88254000  1.0
  H  H14  1  0.43653000  0.16168000  0.81815000  1.0
  H  H15  1  0.25459000  0.16163000  0.18190000  1.0
  H  H16  1  0.43694000  0.81812000  0.16200000  1.0
  H  H17  1  0.59912000  0.81795000  0.83802000  1.0
  H  H18  1  0.56362000  0.83822000  0.18173000  1.0
  H  H19  1  0.40085000  0.18213000  0.16192000  1.0
  H  H20  1  0.56291000  0.18200000  0.83812000  1.0
  H  H21  1  0.74542000  0.83828000  0.81821000  1.0
  H  H22  1  0.59173000  0.19071000  0.75386000  1.0
  H  H23  1  0.21683000  0.24609000  0.19092000  1.0
  H  H24  1  0.40825000  0.80939000  0.24625000  1.0
  H  H25  1  0.78311000  0.75381000  0.80916000  1.0
  H  H26  1  0.59227000  0.75378000  0.19070000  1.0
  H  H27  1  0.34559000  0.19079000  0.24612000  1.0
  H  H28  1  0.40775000  0.24613000  0.80918000  1.0
  H  H29  1  0.65445000  0.80930000  0.75383000  1.0
  H  H30  1  0.46591000  0.38170000  0.72441000  1.0
  H  H31  1  0.15220000  0.27544000  0.38185000  1.0
  H  H32  1  0.53395000  0.61835000  0.27560000  1.0
  H  H33  1  0.84788000  0.72455000  0.61816000  1.0
  H  H34  1  0.46623000  0.72451000  0.38184000  1.0
  H  H35  1  0.19031000  0.38173000  0.27564000  1.0
  H  H36  1  0.53396000  0.27547000  0.61814000  1.0
  H  H37  1  0.80962000  0.61829000  0.72435000  1.0
  H  H38  1  0.46541000  0.44546000  0.66068000  1.0
  H  H39  1  0.08900000  0.33924000  0.44555000  1.0
  H  H40  1  0.53446000  0.55457000  0.33932000  1.0
  H  H41  1  0.91107000  0.66075000  0.55446000  1.0
  H  H42  1  0.46562000  0.66069000  0.44552000  1.0
  H  H43  1  0.12594000  0.44551000  0.33936000  1.0
  H  H44  1  0.53454000  0.33928000  0.55445000  1.0
  H  H45  1  0.87399000  0.55451000  0.66063000  1.0
  C  C46  1  0.49997000  0.43415000  0.56583000  1.0
  C  C47  1  0.23122000  0.24736000  0.21707000  1.0
  C  C48  1  0.82481000  0.67541000  0.67529000  1.0
  C  C49  1  0.49993000  0.32455000  0.67530000  1.0
  C  C50  1  0.17518000  0.32459000  0.32471000  1.0
  C  C51  1  0.50009000  0.67546000  0.32469000  1.0
  C  C52  1  0.43356000  0.06645000  0.06639000  1.0
  C  C53  1  0.50001000  0.93361000  0.06638000  1.0
  C  C54  1  0.56644000  0.93355000  0.93362000  1.0
  C  C55  1  0.49999000  0.06639000  0.93361000  1.0
  C  C56  1  0.44876000  0.78317000  0.24747000  1.0
  C  C57  1  0.59013000  0.50004000  0.50009000  1.0
  C  C58  1  0.09021000  0.50009000  0.50005000  1.0
  C  C59  1  0.40987000  0.49995000  0.49992000  1.0
  C  C60  1  0.90980000  0.49990000  0.49995000  1.0
  C  C61  1  0.76876000  0.75259000  0.78297000  1.0
  C  C62  1  0.64031000  0.49948000  0.49961000  1.0
  C  C63  1  0.13976000  0.49960000  0.50077000  1.0
  C  C64  1  0.35967000  0.50052000  0.50040000  1.0
  C  C65  1  0.86024000  0.50040000  0.49922000  1.0
  C  C66  1  0.68263000  0.49972000  0.49966000  1.0
  C  C67  1  0.55172000  0.75260000  0.21693000  1.0
  C  C68  1  0.18221000  0.49965000  0.50076000  1.0
  C  C69  1  0.31737000  0.50027000  0.50034000  1.0
  C  C70  1  0.81780000  0.50034000  0.49924000  1.0
  C  C71  1  0.72884000  0.49996000  0.49956000  1.0
  C  C72  1  0.22847000  0.49980000  0.50063000  1.0
  C  C73  1  0.27115000  0.50004000  0.50044000  1.0
  C  C74  1  0.30380000  0.21693000  0.24742000  1.0
  C  C75  1  0.77153000  0.50019000  0.49937000  1.0
  C  C76  1  0.46355000  0.11728000  0.87247000  1.0
  C  C77  1  0.33599000  0.11727000  0.12757000  1.0
  C  C78  1  0.46405000  0.87239000  0.11744000  1.0
  C  C79  1  0.58159000  0.87225000  0.88261000  1.0
  C  C80  1  0.53651000  0.88268000  0.12747000  1.0
  C  C81  1  0.44831000  0.24735000  0.78301000  1.0
  C  C82  1  0.41839000  0.12779000  0.11737000  1.0
  C  C83  1  0.53589000  0.12766000  0.88261000  1.0
  C  C84  1  0.66402000  0.88268000  0.87249000  1.0
  C  C85  1  0.69623000  0.78311000  0.75255000  1.0
  C  C86  1  0.46368000  0.15268000  0.83689000  1.0
  C  C87  1  0.30048000  0.15267000  0.16317000  1.0
  C  C88  1  0.46419000  0.83684000  0.15285000  1.0
  C  C89  1  0.61716000  0.83674000  0.84716000  1.0
  C  C90  1  0.53640000  0.84727000  0.16304000  1.0
  C  C91  1  0.38282000  0.16331000  0.15280000  1.0
  C  C92  1  0.53574000  0.16322000  0.84722000  1.0
  C  C93  1  0.69952000  0.84728000  0.83690000  1.0
  C  C94  1  0.55124000  0.21688000  0.75258000  1.0
  C  C95  1  0.49969000  0.17623000  0.82378000  1.0
  C  C96  1  0.32336000  0.17624000  0.17629000  1.0
  C  C97  1  0.50031000  0.82378000  0.17623000  1.0
  C  C98  1  0.67664000  0.82376000  0.82372000  1.0
  C  C99  1  0.49975000  0.10444000  0.89556000  1.0
  C  C100  1  0.39525000  0.10451000  0.10444000  1.0
  C  C101  1  0.50026000  0.89555000  0.10442000  1.0
  C  C102  1  0.60474000  0.89549000  0.89558000  1.0
  C  C103  1  0.06567000  0.43415000  0.43419000  1.0
  C  C104  1  0.55093000  0.25251000  0.71706000  1.0
  C  C105  1  0.19603000  0.28285000  0.25273000  1.0
  C  C106  1  0.44908000  0.74755000  0.28300000  1.0
  C  C107  1  0.80394000  0.71710000  0.74731000  1.0
  C  C108  1  0.55124000  0.71711000  0.25261000  1.0
  C  C109  1  0.50003000  0.56585000  0.43415000  1.0
  C  C110  1  0.26799000  0.25261000  0.28290000  1.0
  C  C111  1  0.44879000  0.28282000  0.74731000  1.0
  C  C112  1  0.73203000  0.74744000  0.71706000  1.0
  C  C113  1  0.93432000  0.56585000  0.56582000  1.0
  C  C114  1  0.49988000  0.28667000  0.71318000  1.0
  C  C115  1  0.21303000  0.28672000  0.28683000  1.0
  C  C116  1  0.50014000  0.71334000  0.28682000  1.0
  C  C117  1  0.78696000  0.71328000  0.71317000  1.0
  C  C118  1  0.49974000  0.21388000  0.78606000  1.0
  C  C119  1  0.28570000  0.21389000  0.21401000  1.0
  C  C120  1  0.50027000  0.78613000  0.21394000  1.0
  C  C121  1  0.71428000  0.78611000  0.78601000  1.0
  C  C122  1  0.48072000  0.37252000  0.68716000  1.0
  C  C123  1  0.14650000  0.31273000  0.37265000  1.0
  C  C124  1  0.51921000  0.62751000  0.31284000  1.0
  C  C125  1  0.85353000  0.68727000  0.62736000  1.0
  C  C126  1  0.48095000  0.68727000  0.37263000  1.0
  C  C127  1  0.16781000  0.37256000  0.31287000  1.0
  C  C128  1  0.51917000  0.31272000  0.62735000  1.0
  C  C129  1  0.83213000  0.62746000  0.68713000  1.0
  C  C130  1  0.48045000  0.40811000  0.65176000  1.0
  C  C131  1  0.11119000  0.34817000  0.40821000  1.0
  C  C132  1  0.51947000  0.59191000  0.34824000  1.0
  C  C133  1  0.88884000  0.65183000  0.59179000  1.0
  C  C134  1  0.48062000  0.65182000  0.40818000  1.0
  C  C135  1  0.13206000  0.40816000  0.34826000  1.0
  C  C136  1  0.51947000  0.34817000  0.59180000  1.0
  C  C137  1  0.86790000  0.59186000  0.65173000  1.0
  C  C138  1  0.49997000  0.39612000  0.60382000  1.0
  C  C139  1  0.10362000  0.39613000  0.39618000  1.0
  C  C140  1  0.50004000  0.60389000  0.39616000  1.0
  C  C141  1  0.89639000  0.60387000  0.60381000  1.0
  I  I142  1  0.63069000  0.25429000  0.66895000  1.0
  I  I143  1  0.11441000  0.33089000  0.25468000  1.0
  I  I144  1  0.36931000  0.74583000  0.33120000  1.0
  I  I145  1  0.88549000  0.66901000  0.74542000  1.0
  I  I146  1  0.63098000  0.66889000  0.25435000  1.0
  I  I147  1  0.29973000  0.25443000  0.33095000  1.0
  I  I148  1  0.36911000  0.33090000  0.74541000  1.0
  I  I149  1  0.70030000  0.74567000  0.66899000  1.0
  O  O150  1  0.52759000  0.42017000  0.52178000  1.0
  O  O151  1  0.05209000  0.47822000  0.42020000  1.0
  O  O152  1  0.47245000  0.57983000  0.47821000  1.0
  O  O153  1  0.94789000  0.52179000  0.57980000  1.0
  O  O154  1  0.52760000  0.52179000  0.42015000  1.0
  O  O155  1  0.04927000  0.42015000  0.47824000  1.0
  O  O156  1  0.47235000  0.47821000  0.57985000  1.0
  O  O157  1  0.95072000  0.57985000  0.52177000  1.0
  O  O158  1  0.59871000  0.47112000  0.47108000  1.0
  O  O159  1  0.07154000  0.52955000  0.47046000  1.0
  O  O160  1  0.54184000  0.52955000  0.52959000  1.0
  O  O161  1  0.06979000  0.47112000  0.52896000  1.0
  O  O162  1  0.45814000  0.47043000  0.47044000  1.0
  O  O163  1  0.92845000  0.47045000  0.52954000  1.0
  O  O164  1  0.40128000  0.52891000  0.52890000  1.0
  O  O165  1  0.93020000  0.52888000  0.47105000  1.0
  O  O166  1  0.48773000  0.05236000  0.05109000  1.0
  O  O167  1  0.53862000  0.94938000  0.05180000  1.0
  O  O168  1  0.59048000  0.94936000  0.94816000  1.0
  O  O169  1  0.53888000  0.05228000  0.94891000  1.0
  O  O170  1  0.40951000  0.05065000  0.05184000  1.0
  O  O171  1  0.46137000  0.05062000  0.94818000  1.0
  O  O172  1  0.51225000  0.94765000  0.94892000  1.0
  O  O173  1  0.46110000  0.94772000  0.05110000  1.0
