# generated using pymatgen
data_CuH10C16N5O2
_symmetry_space_group_name_H-M   'P 1'
_cell_length_a   5.57903000
_cell_length_b   11.31730000
_cell_length_c   11.65200000
_cell_angle_alpha   108.09500000
_cell_angle_beta   91.59250000
_cell_angle_gamma   95.57380000
_symmetry_Int_Tables_number   1
_chemical_formula_structural   CuH10C16N5O2
_chemical_formula_sum   'Cu2 H20 C32 N10 O4'
_cell_volume   694.70259002
_cell_formula_units_Z   2
loop_
 _symmetry_equiv_pos_site_id
 _symmetry_equiv_pos_as_xyz
  1  'x, y, z'
loop_
 _atom_site_type_symbol
 _atom_site_label
 _atom_site_symmetry_multiplicity
 _atom_site_fract_x
 _atom_site_fract_y
 _atom_site_fract_z
 _atom_site_occupancy
  Cu  Cu0  1  0.90174000  0.95119000  0.80908000  1.0
  Cu  Cu1  1  0.09830000  0.04880000  0.19089000  1.0
  H  H2  1  0.88985000  0.49942000  0.79781000  1.0
  H  H3  1  0.11004000  0.50060000  0.20227000  1.0
  H  H4  1  0.39778000  0.86147000  0.65451000  1.0
  H  H5  1  0.60227000  0.13852000  0.34545000  1.0
  H  H6  1  0.32983000  0.12292000  0.97183000  1.0
  H  H7  1  0.67021000  0.87707000  0.02814000  1.0
  H  H8  1  0.23199000  0.19303000  0.57324000  1.0
  H  H9  1  0.76800000  0.80698000  0.42677000  1.0
  H  H10  1  0.12834000  0.96523000  0.55594000  1.0
  H  H11  1  0.87170000  0.03477000  0.44403000  1.0
  H  H12  1  0.52458000  0.39295000  0.66729000  1.0
  H  H13  1  0.47532000  0.60708000  0.33278000  1.0
  H  H14  1  0.24257000  0.48693000  0.93535000  1.0
  H  H15  1  0.75735000  0.51309000  0.06471000  1.0
  H  H16  1  0.46986000  0.35114000  0.02763000  1.0
  H  H17  1  0.53013000  0.64886000  0.97238000  1.0
  H  H18  1  0.35144000  0.63758000  0.68911000  1.0
  H  H19  1  0.64859000  0.36241000  0.31087000  1.0
  H  H20  1  0.90124000  0.55824000  0.43288000  1.0
  H  H21  1  0.09879000  0.44175000  0.56711000  1.0
  C  C22  1  0.79279000  0.72963000  0.63650000  1.0
  C  C23  1  0.20724000  0.27036000  0.36348000  1.0
  C  C24  1  0.69980000  0.14253000  0.74128000  1.0
  C  C25  1  0.30020000  0.85747000  0.25872000  1.0
  C  C26  1  0.64232000  0.60978000  0.56807000  1.0
  C  C27  1  0.35771000  0.39021000  0.43191000  1.0
  C  C28  1  0.83548000  0.39993000  0.78114000  1.0
  C  C29  1  0.16444000  0.60009000  0.21893000  1.0
  C  C30  1  0.41520000  0.57786000  0.60576000  1.0
  C  C31  1  0.58483000  0.42213000  0.39422000  1.0
  C  C32  1  0.44234000  0.95953000  0.66235000  1.0
  C  C33  1  0.55769000  0.04046000  0.33762000  1.0
  C  C34  1  0.91134000  0.20376000  0.81616000  1.0
  C  C35  1  0.08864000  0.79624000  0.18385000  1.0
  C  C36  1  0.23420000  0.18516000  0.93655000  1.0
  C  C37  1  0.76582000  0.81483000  0.06344000  1.0
  C  C38  1  0.72580000  0.53136000  0.46186000  1.0
  C  C39  1  0.27423000  0.46863000  0.53812000  1.0
  C  C40  1  0.55812000  0.21082000  0.68766000  1.0
  C  C41  1  0.44185000  0.78919000  0.31236000  1.0
  C  C42  1  0.34703000  0.14526000  0.61775000  1.0
  C  C43  1  0.65296000  0.85474000  0.38225000  1.0
  C  C44  1  0.29009000  0.02029000  0.60651000  1.0
  C  C45  1  0.70994000  0.97971000  0.39347000  1.0
  C  C46  1  0.97967000  0.33292000  0.83765000  1.0
  C  C47  1  0.02028000  0.66709000  0.16239000  1.0
  C  C48  1  0.63363000  0.34091000  0.70904000  1.0
  C  C49  1  0.36629000  0.65911000  0.29102000  1.0
  C  C50  1  0.18653000  0.38735000  0.91566000  1.0
  C  C51  1  0.81341000  0.61266000  0.08438000  1.0
  C  C52  1  0.31109000  0.31364000  0.96586000  1.0
  C  C53  1  0.68891000  0.68636000  0.03415000  1.0
  N  N54  1  0.64363000  0.01903000  0.72719000  1.0
  N  N55  1  0.35640000  0.98097000  0.27278000  1.0
  N  N56  1  0.03904000  0.13213000  0.86388000  1.0
  N  N57  1  0.96098000  0.86787000  0.13611000  1.0
  N  N58  1  0.82681000  0.09610000  0.10965000  1.0
  N  N59  1  0.17322000  0.90389000  0.89032000  1.0
  N  N60  1  0.81787000  0.20369000  0.11572000  1.0
  N  N61  1  0.18214000  0.79629000  0.88426000  1.0
  N  N62  1  0.80357000  0.30698000  0.11849000  1.0
  N  N63  1  0.19642000  0.69300000  0.88150000  1.0
  O  O64  1  0.73633000  0.78165000  0.74707000  1.0
  O  O65  1  0.26370000  0.21835000  0.25291000  1.0
  O  O66  1  0.95536000  0.77546000  0.58555000  1.0
  O  O67  1  0.04468000  0.22453000  0.41443000  1.0
