# generated using pymatgen
data_CoH28(C13N5)2
_symmetry_space_group_name_H-M   'P 1'
_cell_length_a   6.81962000
_cell_length_b   10.34730000
_cell_length_c   10.38220000
_cell_angle_alpha   75.49500000
_cell_angle_beta   72.04200000
_cell_angle_gamma   72.73490000
_symmetry_Int_Tables_number   1
_chemical_formula_structural   CoH28(C13N5)2
_chemical_formula_sum   'Co1 H28 C26 N10'
_cell_volume   655.25513356
_cell_formula_units_Z   1
loop_
 _symmetry_equiv_pos_site_id
 _symmetry_equiv_pos_as_xyz
  1  'x, y, z'
loop_
 _atom_site_type_symbol
 _atom_site_label
 _atom_site_symmetry_multiplicity
 _atom_site_fract_x
 _atom_site_fract_y
 _atom_site_fract_z
 _atom_site_occupancy
  Co  Co0  1  0.00000000  0.00000000  0.00000000  1.0
  H  H1  1  0.93587000  0.06299000  0.72484000  1.0
  H  H2  1  0.07429000  0.27440000  0.92501000  1.0
  H  H3  1  0.06414000  0.93701000  0.27515000  1.0
  H  H4  1  0.92571000  0.72559000  0.07499000  1.0
  H  H5  1  0.12093000  0.16212000  0.48847000  1.0
  H  H6  1  0.88905000  0.50984000  0.82863000  1.0
  H  H7  1  0.87908000  0.83788000  0.51153000  1.0
  H  H8  1  0.11095000  0.49016000  0.17137000  1.0
  H  H9  1  0.64694000  0.12715000  0.65265000  1.0
  H  H10  1  0.34901000  0.34513000  0.89122000  1.0
  H  H11  1  0.35306000  0.87286000  0.34735000  1.0
  H  H12  1  0.65099000  0.65487000  0.10878000  1.0
  H  H13  1  0.44469000  0.03067000  0.87788000  1.0
  H  H14  1  0.55132000  0.12103000  0.98425000  1.0
  H  H15  1  0.55530000  0.96934000  0.12212000  1.0
  H  H16  1  0.44868000  0.87896000  0.01575000  1.0
  H  H17  1  0.52179000  0.15798000  0.33550000  1.0
  H  H18  1  0.48465000  0.66168000  0.84501000  1.0
  H  H19  1  0.47821000  0.84202000  0.66450000  1.0
  H  H20  1  0.51534000  0.33832000  0.15499000  1.0
  H  H21  1  0.68168000  0.20989000  0.40897000  1.0
  H  H22  1  0.32055000  0.58624000  0.79898000  1.0
  H  H23  1  0.31832000  0.79011000  0.59103000  1.0
  H  H24  1  0.67944000  0.41376000  0.20102000  1.0
  H  H25  1  0.23887000  0.37523000  0.37526000  1.0
  H  H26  1  0.76113000  0.62477000  0.62475000  1.0
  H  H27  1  0.41449000  0.43451000  0.42922000  1.0
  H  H28  1  0.58552000  0.56548000  0.57078000  1.0
  C  C29  1  0.09415000  0.07911000  0.70313000  1.0
  C  C30  1  0.91326000  0.29564000  0.91491000  1.0
  C  C31  1  0.90586000  0.92089000  0.29686000  1.0
  C  C32  1  0.08674000  0.70436000  0.08509000  1.0
  C  C33  1  0.19795000  0.13474000  0.57290000  1.0
  C  C34  1  0.80948000  0.42530000  0.86062000  1.0
  C  C35  1  0.80205000  0.86526000  0.42709000  1.0
  C  C36  1  0.19052000  0.57470000  0.13938000  1.0
  C  C37  1  0.40114000  0.15569000  0.54989000  1.0
  C  C38  1  0.60252000  0.44754000  0.84757000  1.0
  C  C39  1  0.59887000  0.84430000  0.45011000  1.0
  C  C40  1  0.39748000  0.55246000  0.15243000  1.0
  C  C41  1  0.48927000  0.11500000  0.66276000  1.0
  C  C42  1  0.51073000  0.33491000  0.89519000  1.0
  C  C43  1  0.51072000  0.88500000  0.33724000  1.0
  C  C44  1  0.48927000  0.66508000  0.10482000  1.0
  C  C45  1  0.37639000  0.05961000  0.79039000  1.0
  C  C46  1  0.62381000  0.20793000  0.94884000  1.0
  C  C47  1  0.62361000  0.94040000  0.20961000  1.0
  C  C48  1  0.37619000  0.79207000  0.05116000  1.0
  C  C49  1  0.51634000  0.21769000  0.41124000  1.0
  C  C50  1  0.48680000  0.58535000  0.78706000  1.0
  C  C51  1  0.48366000  0.78231000  0.58877000  1.0
  C  C52  1  0.51319000  0.41465000  0.21294000  1.0
  C  C53  1  0.40749000  0.36744000  0.36413000  1.0
  C  C54  1  0.59250000  0.63257000  0.63587000  1.0
  N  N55  1  0.80389000  0.91373000  0.91520000  1.0
  N  N56  1  0.19611000  0.08628000  0.08480000  1.0
  N  N57  1  0.87099000  0.83353000  0.83706000  1.0
  N  N58  1  0.12901000  0.16647000  0.16294000  1.0
  N  N59  1  0.93493000  0.75488000  0.76002000  1.0
  N  N60  1  0.06506000  0.24512000  0.23999000  1.0
  N  N61  1  0.17924000  0.04273000  0.81288000  1.0
  N  N62  1  0.82466000  0.18594000  0.95739000  1.0
  N  N63  1  0.82076000  0.95726000  0.18713000  1.0
  N  N64  1  0.17533000  0.81405000  0.04261000  1.0
