# generated using pymatgen
data_Ag2H2C7N6O5
_symmetry_space_group_name_H-M   'P 1'
_cell_length_a   8.75524000
_cell_length_b   8.75526000
_cell_length_c   8.90139854
_cell_angle_alpha   108.28870416
_cell_angle_beta   117.36759393
_cell_angle_gamma   102.33200000
_symmetry_Int_Tables_number   1
_chemical_formula_structural   Ag2H2C7N6O5
_chemical_formula_sum   'Ag4 H4 C14 N12 O10'
_cell_volume   520.97716240
_cell_formula_units_Z   2
loop_
 _symmetry_equiv_pos_site_id
 _symmetry_equiv_pos_as_xyz
  1  'x, y, z'
loop_
 _atom_site_type_symbol
 _atom_site_label
 _atom_site_symmetry_multiplicity
 _atom_site_fract_x
 _atom_site_fract_y
 _atom_site_fract_z
 _atom_site_occupancy
  Ag  Ag0  1  0.81550000  0.90062000  0.54554000  1.0
  Ag  Ag1  1  0.85508000  0.26995000  0.95446000  1.0
  Ag  Ag2  1  0.18451000  0.09938000  0.45446000  1.0
  Ag  Ag3  1  0.14491000  0.73004000  0.04553000  1.0
  H  H4  1  0.19276000  0.44064000  0.44267000  1.0
  H  H5  1  0.49797000  0.75009000  0.05733000  1.0
  H  H6  1  0.80724000  0.55936000  0.55733000  1.0
  H  H7  1  0.50203000  0.24991000  0.94267000  1.0
  C  C8  1  0.32892000  0.57892000  0.75000000  1.0
  C  C9  1  0.67108000  0.42108000  0.25000000  1.0
  C  C10  1  0.30913000  0.55666000  0.57883000  1.0
  C  C11  1  0.47782000  0.73030000  0.92117000  1.0
  C  C12  1  0.69087000  0.44334000  0.42117000  1.0
  C  C13  1  0.52217000  0.26970000  0.07883000  1.0
  C  C14  1  0.43311000  0.68386000  0.57678000  1.0
  C  C15  1  0.60707000  0.85632000  0.92322000  1.0
  C  C16  1  0.56690000  0.31615000  0.42323000  1.0
  C  C17  1  0.39292000  0.14367000  0.07678000  1.0
  C  C18  1  0.59395000  0.84395000  0.75000000  1.0
  C  C19  1  0.40605000  0.15605000  0.25000000  1.0
  C  C20  1  0.19637000  0.44637000  0.75000000  1.0
  C  C21  1  0.80363000  0.55363000  0.25000000  1.0
  N  N22  1  0.39566000  0.64369000  0.39031000  1.0
  N  N23  1  0.75338000  0.00535000  0.10969000  1.0
  N  N24  1  0.60435000  0.35631000  0.60969000  1.0
  N  N25  1  0.24661000  0.99465000  0.89031000  1.0
  N  N26  1  0.13428000  0.26942000  0.65220000  1.0
  N  N27  1  0.11722000  0.48207000  0.84779000  1.0
  N  N28  1  0.86572000  0.73057000  0.34779000  1.0
  N  N29  1  0.88278000  0.51793000  0.15221000  1.0
  N  N30  1  0.01525000  0.19702000  0.69154000  1.0
  N  N31  1  0.00548000  0.32370000  0.80845000  1.0
  N  N32  1  0.98475000  0.80298000  0.30846000  1.0
  N  N33  1  0.99452000  0.67630000  0.19155000  1.0
  O  O34  1  0.71005000  0.96005000  0.75000000  1.0
  O  O35  1  0.28995000  0.03995000  0.25000000  1.0
  O  O36  1  0.29141000  0.48751000  0.25725000  1.0
  O  O37  1  0.73025000  0.03416000  0.24275000  1.0
  O  O38  1  0.70859000  0.51250000  0.74275000  1.0
  O  O39  1  0.26974000  0.96583000  0.75725000  1.0
  O  O40  1  0.46752000  0.76639000  0.36502000  1.0
  O  O41  1  0.90137000  0.10250000  0.13498000  1.0
  O  O42  1  0.53248000  0.23361000  0.63498000  1.0
  O  O43  1  0.09863000  0.89750000  0.86502000  1.0
