# generated using pymatgen
data_ZnH6(C3N2)2
_symmetry_space_group_name_H-M   'P 1'
_cell_length_a   9.72261000
_cell_length_b   23.65940000
_cell_length_c   41.72020000
_cell_angle_alpha   90.00010000
_cell_angle_beta   89.99980000
_cell_angle_gamma   90.00000000
_symmetry_Int_Tables_number   1
_chemical_formula_structural   ZnH6(C3N2)2
_chemical_formula_sum   'Zn24 H144 C144 N96'
_cell_volume   9596.94429225
_cell_formula_units_Z   24
loop_
 _symmetry_equiv_pos_site_id
 _symmetry_equiv_pos_as_xyz
  1  'x, y, z'
loop_
 _atom_site_type_symbol
 _atom_site_label
 _atom_site_symmetry_multiplicity
 _atom_site_fract_x
 _atom_site_fract_y
 _atom_site_fract_z
 _atom_site_occupancy
  Zn  Zn0  1  0.79741000  0.50258000  0.91666000  1.0
  Zn  Zn1  1  0.70259000  0.49742000  0.41666000  1.0
  Zn  Zn2  1  0.29741000  0.99742000  0.58334000  1.0
  Zn  Zn3  1  0.20259000  0.00258000  0.08334000  1.0
  Zn  Zn4  1  0.20260000  0.49742000  0.08334000  1.0
  Zn  Zn5  1  0.29741000  0.50258000  0.58334000  1.0
  Zn  Zn6  1  0.70259000  0.00258000  0.41666000  1.0
  Zn  Zn7  1  0.79740000  0.99742000  0.91666000  1.0
  Zn  Zn8  1  0.70024000  0.37576000  0.03916000  1.0
  Zn  Zn9  1  0.79976000  0.62424000  0.53916000  1.0
  Zn  Zn10  1  0.20024000  0.12424000  0.46084000  1.0
  Zn  Zn11  1  0.29976000  0.87576000  0.96084000  1.0
  Zn  Zn12  1  0.29976000  0.62424000  0.96084000  1.0
  Zn  Zn13  1  0.20024000  0.37576000  0.46084000  1.0
  Zn  Zn14  1  0.79976000  0.87576000  0.53916000  1.0
  Zn  Zn15  1  0.70024000  0.12424000  0.03916000  1.0
  Zn  Zn16  1  0.79531000  0.37645000  0.79186000  1.0
  Zn  Zn17  1  0.70468000  0.62355000  0.29186000  1.0
  Zn  Zn18  1  0.29532000  0.12355000  0.70814000  1.0
  Zn  Zn19  1  0.20468000  0.87645000  0.20814000  1.0
  Zn  Zn20  1  0.20468000  0.62355000  0.20814000  1.0
  Zn  Zn21  1  0.29531000  0.37645000  0.70814000  1.0
  Zn  Zn22  1  0.70468000  0.87645000  0.29186000  1.0
  Zn  Zn23  1  0.79532000  0.12355000  0.79186000  1.0
  H  H24  1  0.79929000  0.47586000  0.99259000  1.0
  H  H25  1  0.70070000  0.52414000  0.49259000  1.0
  H  H26  1  0.29930000  0.02414000  0.50741000  1.0
  H  H27  1  0.20070000  0.97586000  0.00741000  1.0
  H  H28  1  0.20070000  0.52414000  0.00741000  1.0
  H  H29  1  0.29930000  0.47586000  0.50741000  1.0
  H  H30  1  0.70070000  0.97586000  0.49259000  1.0
  H  H31  1  0.79930000  0.02414000  0.99259000  1.0
  H  H32  1  0.62834000  0.31685000  0.97088000  1.0
  H  H33  1  0.87166000  0.68315000  0.47088000  1.0
  H  H34  1  0.12833000  0.18314000  0.52912000  1.0
  H  H35  1  0.37166000  0.81685000  0.02912000  1.0
  H  H36  1  0.37166000  0.68315000  0.02912000  1.0
  H  H37  1  0.12834000  0.31686000  0.52912000  1.0
  H  H38  1  0.87166000  0.81685000  0.47088000  1.0
  H  H39  1  0.62834000  0.18315000  0.97088000  1.0
  H  H40  1  0.67075000  0.37630000  0.91441000  1.0
  H  H41  1  0.82926000  0.62370000  0.41441000  1.0
  H  H42  1  0.17074000  0.12369000  0.58559000  1.0
  H  H43  1  0.32926000  0.87631000  0.08559000  1.0
  H  H44  1  0.32926000  0.62369000  0.08559000  1.0
  H  H45  1  0.17075000  0.37631000  0.58559000  1.0
  H  H46  1  0.82926000  0.87630000  0.41441000  1.0
  H  H47  1  0.67074000  0.12370000  0.91441000  1.0
  H  H48  1  0.87727000  0.40677000  0.86482000  1.0
  H  H49  1  0.62273000  0.59323000  0.36482000  1.0
  H  H50  1  0.37727000  0.09323000  0.63518000  1.0
  H  H51  1  0.12273000  0.90677000  0.13518000  1.0
  H  H52  1  0.12273000  0.59323000  0.13518000  1.0
  H  H53  1  0.37727000  0.40677000  0.63518000  1.0
  H  H54  1  0.62273000  0.90677000  0.36482000  1.0
  H  H55  1  0.87727000  0.09323000  0.86482000  1.0
  H  H56  1  0.59504000  0.48322000  0.80171000  1.0
  H  H57  1  0.90496000  0.51678000  0.30170000  1.0
  H  H58  1  0.09504000  0.01678000  0.69829000  1.0
  H  H59  1  0.40496000  0.98322000  0.19830000  1.0
  H  H60  1  0.40496000  0.51678000  0.19830000  1.0
  H  H61  1  0.09504000  0.48322000  0.69829000  1.0
  H  H62  1  0.90496000  0.98322000  0.30171000  1.0
  H  H63  1  0.59504000  0.01678000  0.80170000  1.0
  H  H64  1  0.59765000  0.54242000  0.85942000  1.0
  H  H65  1  0.90235000  0.45758000  0.35942000  1.0
  H  H66  1  0.09765000  0.95758000  0.64058000  1.0
  H  H67  1  0.40235000  0.04242000  0.14058000  1.0
  H  H68  1  0.40235000  0.45758000  0.14058000  1.0
  H  H69  1  0.09765000  0.54242000  0.64058000  1.0
  H  H70  1  0.90235000  0.04242000  0.35942000  1.0
  H  H71  1  0.59765000  0.95758000  0.85942000  1.0
  H  H72  1  0.52182000  0.52586000  0.95462000  1.0
  H  H73  1  0.97818000  0.47414000  0.45462000  1.0
  H  H74  1  0.02182000  0.97414000  0.54538000  1.0
  H  H75  1  0.47818000  0.02586000  0.04538000  1.0
  H  H76  1  0.47818000  0.47414000  0.04538000  1.0
  H  H77  1  0.02182000  0.52586000  0.54538000  1.0
  H  H78  1  0.97818000  0.02586000  0.45462000  1.0
  H  H79  1  0.52182000  0.97414000  0.95462000  1.0
  H  H80  1  0.54564000  0.69649000  0.92630000  1.0
  H  H81  1  0.95436000  0.30351000  0.42630000  1.0
  H  H82  1  0.04564000  0.80351000  0.57371000  1.0
  H  H83  1  0.45436000  0.19649000  0.07371000  1.0
  H  H84  1  0.45436000  0.30351000  0.07370000  1.0
  H  H85  1  0.04564000  0.69649000  0.57371000  1.0
  H  H86  1  0.95436000  0.19649000  0.42629000  1.0
  H  H87  1  0.54564000  0.80351000  0.92630000  1.0
  H  H88  1  0.78152000  0.64003000  0.90634000  1.0
  H  H89  1  0.71847000  0.35997000  0.40634000  1.0
  H  H90  1  0.28153000  0.85997000  0.59366000  1.0
  H  H91  1  0.21847000  0.14003000  0.09366000  1.0
  H  H92  1  0.21847000  0.35997000  0.09366000  1.0
  H  H93  1  0.28153000  0.64003000  0.59366000  1.0
  H  H94  1  0.71847000  0.14003000  0.40634000  1.0
  H  H95  1  0.78153000  0.85997000  0.90634000  1.0
  H  H96  1  0.00820000  0.42607000  0.03746000  1.0
  H  H97  1  0.49180000  0.57393000  0.53746000  1.0
  H  H98  1  0.50820000  0.07393000  0.46254000  1.0
  H  H99  1  0.99180000  0.92607000  0.96254000  1.0
  H  H100  1  0.99179000  0.57393000  0.96254000  1.0
  H  H101  1  0.50820000  0.42607000  0.46254000  1.0
  H  H102  1  0.49180000  0.92607000  0.53746000  1.0
  H  H103  1  0.00820000  0.07393000  0.03746000  1.0
  H  H104  1  0.91681000  0.50942000  0.12412000  1.0
  H  H105  1  0.58318000  0.49058000  0.62412000  1.0
  H  H106  1  0.41681000  0.99058000  0.37588000  1.0
  H  H107  1  0.08319000  0.00942000  0.87588000  1.0
  H  H108  1  0.08318000  0.49058000  0.87588000  1.0
  H  H109  1  0.41682000  0.50942000  0.37588000  1.0
  H  H110  1  0.58319000  0.00942000  0.62412000  1.0
  H  H111  1  0.91681000  0.99058000  0.12412000  1.0
  H  H112  1  0.68265000  0.45434000  0.10212000  1.0
  H  H113  1  0.81735000  0.54566000  0.60212000  1.0
  H  H114  1  0.18265000  0.04566000  0.39788000  1.0
  H  H115  1  0.31735000  0.95434000  0.89788000  1.0
  H  H116  1  0.31735000  0.54566000  0.89788000  1.0
  H  H117  1  0.18265000  0.45434000  0.39788000  1.0
  H  H118  1  0.81735000  0.95434000  0.60212000  1.0
  H  H119  1  0.68265000  0.04566000  0.10212000  1.0
  H  H120  1  0.51016000  0.33160000  0.76096000  1.0
  H  H121  1  0.98984000  0.66840000  0.26096000  1.0
  H  H122  1  0.01016000  0.16840000  0.73904000  1.0
  H  H123  1  0.48984000  0.83160000  0.23904000  1.0
  H  H124  1  0.48984000  0.66840000  0.23904000  1.0
  H  H125  1  0.01016000  0.33160000  0.73904000  1.0
  H  H126  1  0.98983000  0.83160000  0.26096000  1.0
  H  H127  1  0.51016000  0.16840000  0.76096000  1.0
  H  H128  1  0.54622000  0.46283000  0.69320000  1.0
  H  H129  1  0.95378000  0.53717000  0.19320000  1.0
  H  H130  1  0.04622000  0.03717000  0.80680000  1.0
  H  H131  1  0.45378000  0.96283000  0.30680000  1.0
  H  H132  1  0.45378000  0.53717000  0.30680000  1.0
  H  H133  1  0.04622000  0.46283000  0.80680000  1.0
  H  H134  1  0.95378000  0.96283000  0.19320000  1.0
  H  H135  1  0.54622000  0.03717000  0.69320000  1.0
  H  H136  1  0.77865000  0.46157000  0.73217000  1.0
  H  H137  1  0.72135000  0.53843000  0.23217000  1.0
  H  H138  1  0.27866000  0.03843000  0.76784000  1.0
  H  H139  1  0.22135000  0.96157000  0.26783000  1.0
  H  H140  1  0.22135000  0.53843000  0.26783000  1.0
  H  H141  1  0.27865000  0.46157000  0.76783000  1.0
  H  H142  1  0.72134000  0.96157000  0.23216000  1.0
  H  H143  1  0.77865000  0.03843000  0.73217000  1.0
  H  H144  1  0.62303000  0.25000000  0.01902000  1.0
  H  H145  1  0.87697000  0.75000000  0.51902000  1.0
  H  H146  1  0.12303000  0.25000000  0.48098000  1.0
  H  H147  1  0.37697000  0.75000000  0.98098000  1.0
  H  H148  1  0.92104000  0.30886000  0.08413000  1.0
  H  H149  1  0.57897000  0.69114000  0.58413000  1.0
  H  H150  1  0.42103000  0.19114000  0.41587000  1.0
  H  H151  1  0.07896000  0.80886000  0.91587000  1.0
  H  H152  1  0.07896000  0.69114000  0.91587000  1.0
  H  H153  1  0.42103000  0.30886000  0.41587000  1.0
  H  H154  1  0.57897000  0.80886000  0.58413000  1.0
  H  H155  1  0.92104000  0.19114000  0.08413000  1.0
  H  H156  1  0.82414000  0.25000000  0.76526000  1.0
  H  H157  1  0.67586000  0.75000000  0.26526000  1.0
  H  H158  1  0.32414000  0.25000000  0.73474000  1.0
  H  H159  1  0.17586000  0.75000000  0.23474000  1.0
  H  H160  1  0.70427000  0.30873000  0.85634000  1.0
  H  H161  1  0.79572000  0.69127000  0.35634000  1.0
  H  H162  1  0.20427000  0.19127000  0.64366000  1.0
  H  H163  1  0.29573000  0.80873000  0.14366000  1.0
  H  H164  1  0.29574000  0.69127000  0.14366000  1.0
  H  H165  1  0.20427000  0.30873000  0.64366000  1.0
  H  H166  1  0.79572000  0.80873000  0.35634000  1.0
  H  H167  1  0.70427000  0.19127000  0.85634000  1.0
  C  C168  1  0.75877000  0.44052000  0.97891000  1.0
  C  C169  1  0.74124000  0.55948000  0.47891000  1.0
  C  C170  1  0.25877000  0.05948000  0.52109000  1.0
  C  C171  1  0.24123000  0.94052000  0.02109000  1.0
  C  C172  1  0.24123000  0.55948000  0.02109000  1.0
  C  C173  1  0.25877000  0.44052000  0.52109000  1.0
  C  C174  1  0.74123000  0.94052000  0.47891000  1.0
  C  C175  1  0.75877000  0.05948000  0.97891000  1.0
  C  C176  1  0.67043000  0.35879000  0.96712000  1.0
  C  C177  1  0.82958000  0.64121000  0.46712000  1.0
  C  C178  1  0.17042000  0.14121000  0.53288000  1.0
  C  C179  1  0.32958000  0.85879000  0.03288000  1.0
  C  C180  1  0.32958000  0.64121000  0.03288000  1.0
  C  C181  1  0.17042000  0.35879000  0.53288000  1.0
  C  C182  1  0.82958000  0.85879000  0.46712000  1.0
  C  C183  1  0.67042000  0.14121000  0.96712000  1.0
  C  C184  1  0.69185000  0.38814000  0.93904000  1.0
  C  C185  1  0.80815000  0.61186000  0.43904000  1.0
  C  C186  1  0.19185000  0.11186000  0.56096000  1.0
  C  C187  1  0.30815000  0.88814000  0.06096000  1.0
  C  C188  1  0.30815000  0.61186000  0.06096000  1.0
  C  C189  1  0.19185000  0.38814000  0.56096000  1.0
  C  C190  1  0.80815000  0.88814000  0.43904000  1.0
  C  C191  1  0.69185000  0.11186000  0.93904000  1.0
  C  C192  1  0.80040000  0.43575000  0.85548000  1.0
  C  C193  1  0.69961000  0.56425000  0.35548000  1.0
  C  C194  1  0.30040000  0.06425000  0.64452000  1.0
  C  C195  1  0.19961000  0.93575000  0.14452000  1.0
  C  C196  1  0.19961000  0.56425000  0.14452000  1.0
  C  C197  1  0.30039000  0.43575000  0.64452000  1.0
  C  C198  1  0.69961000  0.93575000  0.35548000  1.0
  C  C199  1  0.80039000  0.06425000  0.85548000  1.0
  C  C200  1  0.65379000  0.47603000  0.82344000  1.0
  C  C201  1  0.84620000  0.52398000  0.32344000  1.0
  C  C202  1  0.15380000  0.02398000  0.67656000  1.0
  C  C203  1  0.34620000  0.97602000  0.17656000  1.0
  C  C204  1  0.34620000  0.52397000  0.17656000  1.0
  C  C205  1  0.15379000  0.47602000  0.67656000  1.0
  C  C206  1  0.84620000  0.97602000  0.32344000  1.0
  C  C207  1  0.65380000  0.02398000  0.82344000  1.0
  C  C208  1  0.65508000  0.50531000  0.85201000  1.0
  C  C209  1  0.84492000  0.49469000  0.35201000  1.0
  C  C210  1  0.15509000  0.99469000  0.64799000  1.0
  C  C211  1  0.34492000  0.00531000  0.14799000  1.0
  C  C212  1  0.34492000  0.49469000  0.14799000  1.0
  C  C213  1  0.15508000  0.50531000  0.64799000  1.0
  C  C214  1  0.84492000  0.00531000  0.35201000  1.0
  C  C215  1  0.65508000  0.99469000  0.85201000  1.0
  C  C216  1  0.56036000  0.56490000  0.94425000  1.0
  C  C217  1  0.93964000  0.43511000  0.44425000  1.0
  C  C218  1  0.06036000  0.93510000  0.55575000  1.0
  C  C219  1  0.43964000  0.06490000  0.05575000  1.0
  C  C220  1  0.43964000  0.43511000  0.05575000  1.0
  C  C221  1  0.06036000  0.56490000  0.55575000  1.0
  C  C222  1  0.93964000  0.06490000  0.44425000  1.0
  C  C223  1  0.56036000  0.93511000  0.94425000  1.0
  C  C224  1  0.57574000  0.65266000  0.92932000  1.0
  C  C225  1  0.92425000  0.34734000  0.42932000  1.0
  C  C226  1  0.07575000  0.84734000  0.57068000  1.0
  C  C227  1  0.42425000  0.15266000  0.07068000  1.0
  C  C228  1  0.42425000  0.34734000  0.07068000  1.0
  C  C229  1  0.07575000  0.65266000  0.57068000  1.0
  C  C230  1  0.92425000  0.15266000  0.42932000  1.0
  C  C231  1  0.57574000  0.84734000  0.92932000  1.0
  C  C232  1  0.69240000  0.62461000  0.91932000  1.0
  C  C233  1  0.80760000  0.37538000  0.41932000  1.0
  C  C234  1  0.19241000  0.87538000  0.58068000  1.0
  C  C235  1  0.30760000  0.12462000  0.08068000  1.0
  C  C236  1  0.30760000  0.37539000  0.08068000  1.0
  C  C237  1  0.19241000  0.62462000  0.58068000  1.0
  C  C238  1  0.80759000  0.12462000  0.41932000  1.0
  C  C239  1  0.69240000  0.87539000  0.91932000  1.0
  C  C240  1  0.95103000  0.44168000  0.05801000  1.0
  C  C241  1  0.54897000  0.55832000  0.55801000  1.0
  C  C242  1  0.45103000  0.05832000  0.44199000  1.0
  C  C243  1  0.04897000  0.94168000  0.94199000  1.0
  C  C244  1  0.04897000  0.55832000  0.94199000  1.0
  C  C245  1  0.45103000  0.44168000  0.44199000  1.0
  C  C246  1  0.54897000  0.94168000  0.55801000  1.0
  C  C247  1  0.95103000  0.05832000  0.05801000  1.0
  C  C248  1  0.90120000  0.48419000  0.10272000  1.0
  C  C249  1  0.59880000  0.51581000  0.60271000  1.0
  C  C250  1  0.40120000  0.01581000  0.39729000  1.0
  C  C251  1  0.09880000  0.98419000  0.89728000  1.0
  C  C252  1  0.09879000  0.51581000  0.89728000  1.0
  C  C253  1  0.40120000  0.48419000  0.39729000  1.0
  C  C254  1  0.59880000  0.98419000  0.60271000  1.0
  C  C255  1  0.90120000  0.01581000  0.10271000  1.0
  C  C256  1  0.78511000  0.45675000  0.09190000  1.0
  C  C257  1  0.71489000  0.54325000  0.59190000  1.0
  C  C258  1  0.28511000  0.04325000  0.40810000  1.0
  C  C259  1  0.21489000  0.95675000  0.90810000  1.0
  C  C260  1  0.21489000  0.54325000  0.90810000  1.0
  C  C261  1  0.28511000  0.45675000  0.40810000  1.0
  C  C262  1  0.71489000  0.95675000  0.59190000  1.0
  C  C263  1  0.78511000  0.04325000  0.09190000  1.0
  C  C264  1  0.55171000  0.36712000  0.74760000  1.0
  C  C265  1  0.94829000  0.63288000  0.24760000  1.0
  C  C266  1  0.05171000  0.13288000  0.75240000  1.0
  C  C267  1  0.44828000  0.86712000  0.25240000  1.0
  C  C268  1  0.44829000  0.63288000  0.25240000  1.0
  C  C269  1  0.05171000  0.36712000  0.75240000  1.0
  C  C270  1  0.94828000  0.86712000  0.24760000  1.0
  C  C271  1  0.55171000  0.13288000  0.74760000  1.0
  C  C272  1  0.57336000  0.43515000  0.71295000  1.0
  C  C273  1  0.92664000  0.56485000  0.21295000  1.0
  C  C274  1  0.07336000  0.06485000  0.78705000  1.0
  C  C275  1  0.42664000  0.93515000  0.28705000  1.0
  C  C276  1  0.42664000  0.56485000  0.28705000  1.0
  C  C277  1  0.07336000  0.43515000  0.78705000  1.0
  C  C278  1  0.92664000  0.93515000  0.21295000  1.0
  C  C279  1  0.57336000  0.06485000  0.71295000  1.0
  C  C280  1  0.68816000  0.43473000  0.73233000  1.0
  C  C281  1  0.81184000  0.56527000  0.23233000  1.0
  C  C282  1  0.18817000  0.06527000  0.76767000  1.0
  C  C283  1  0.31184000  0.93473000  0.26767000  1.0
  C  C284  1  0.31184000  0.56527000  0.26767000  1.0
  C  C285  1  0.18816000  0.43473000  0.76767000  1.0
  C  C286  1  0.81183000  0.93473000  0.23233000  1.0
  C  C287  1  0.68816000  0.06527000  0.73233000  1.0
  C  C288  1  0.70486000  0.25000000  0.03674000  1.0
  C  C289  1  0.79515000  0.75000000  0.53674000  1.0
  C  C290  1  0.20486000  0.25000000  0.46326000  1.0
  C  C291  1  0.29515000  0.75000000  0.96326000  1.0
  C  C292  1  0.85922000  0.27915000  0.07051000  1.0
  C  C293  1  0.64079000  0.72085000  0.57051000  1.0
  C  C294  1  0.35922000  0.22085000  0.42949000  1.0
  C  C295  1  0.14078000  0.77915000  0.92949000  1.0
  C  C296  1  0.14078000  0.72085000  0.92949000  1.0
  C  C297  1  0.35922000  0.27915000  0.42949000  1.0
  C  C298  1  0.64079000  0.77915000  0.57051000  1.0
  C  C299  1  0.85922000  0.22085000  0.07051000  1.0
  C  C300  1  0.79192000  0.25000000  0.79019000  1.0
  C  C301  1  0.70808000  0.75000000  0.29019000  1.0
  C  C302  1  0.29192000  0.25000000  0.70981000  1.0
  C  C303  1  0.20808000  0.75000000  0.20981000  1.0
  C  C304  1  0.72978000  0.27913000  0.83739000  1.0
  C  C305  1  0.77022000  0.72087000  0.33739000  1.0
  C  C306  1  0.22978000  0.22087000  0.66261000  1.0
  C  C307  1  0.27023000  0.77913000  0.16261000  1.0
  C  C308  1  0.27023000  0.72087000  0.16260000  1.0
  C  C309  1  0.22978000  0.27913000  0.66261000  1.0
  C  C310  1  0.77022000  0.77913000  0.33739000  1.0
  C  C311  1  0.72978000  0.22087000  0.83739000  1.0
  N  N312  1  0.74819000  0.43997000  0.94671000  1.0
  N  N313  1  0.75181000  0.56003000  0.44671000  1.0
  N  N314  1  0.24819000  0.06003000  0.55329000  1.0
  N  N315  1  0.25181000  0.93997000  0.05329000  1.0
  N  N316  1  0.25181000  0.56003000  0.05329000  1.0
  N  N317  1  0.24819000  0.43997000  0.55328000  1.0
  N  N318  1  0.75181000  0.93997000  0.44671000  1.0
  N  N319  1  0.74819000  0.06004000  0.94671000  1.0
  N  N320  1  0.71300000  0.39229000  0.99234000  1.0
  N  N321  1  0.78700000  0.60771000  0.49234000  1.0
  N  N322  1  0.21300000  0.10771000  0.50766000  1.0
  N  N323  1  0.28700000  0.89229000  0.00766000  1.0
  N  N324  1  0.28700000  0.60771000  0.00766000  1.0
  N  N325  1  0.21300000  0.39229000  0.50766000  1.0
  N  N326  1  0.78700000  0.89229000  0.49234000  1.0
  N  N327  1  0.71300000  0.10771000  0.99234000  1.0
  N  N328  1  0.74840000  0.47947000  0.87221000  1.0
  N  N329  1  0.75160000  0.52053000  0.37221000  1.0
  N  N330  1  0.24840000  0.02053000  0.62779000  1.0
  N  N331  1  0.25161000  0.97947000  0.12779000  1.0
  N  N332  1  0.25161000  0.52053000  0.12779000  1.0
  N  N333  1  0.24839000  0.47947000  0.62779000  1.0
  N  N334  1  0.75160000  0.97947000  0.37221000  1.0
  N  N335  1  0.74839000  0.02053000  0.87221000  1.0
  N  N336  1  0.74622000  0.43193000  0.82586000  1.0
  N  N337  1  0.75378000  0.56807000  0.32586000  1.0
  N  N338  1  0.24622000  0.06807000  0.67414000  1.0
  N  N339  1  0.25378000  0.93193000  0.17414000  1.0
  N  N340  1  0.25378000  0.56807000  0.17414000  1.0
  N  N341  1  0.24622000  0.43193000  0.67414000  1.0
  N  N342  1  0.75378000  0.93193000  0.32586000  1.0
  N  N343  1  0.74622000  0.06807000  0.82586000  1.0
  N  N344  1  0.68174000  0.56889000  0.92887000  1.0
  N  N345  1  0.81826000  0.43111000  0.42887000  1.0
  N  N346  1  0.18174000  0.93111000  0.57113000  1.0
  N  N347  1  0.31826000  0.06889000  0.07113000  1.0
  N  N348  1  0.31826000  0.43111000  0.07113000  1.0
  N  N349  1  0.18174000  0.56889000  0.57113000  1.0
  N  N350  1  0.81826000  0.06889000  0.42887000  1.0
  N  N351  1  0.68174000  0.93111000  0.92887000  1.0
  N  N352  1  0.49250000  0.61445000  0.94513000  1.0
  N  N353  1  0.00750000  0.38555000  0.44513000  1.0
  N  N354  1  0.99251000  0.88554000  0.55488000  1.0
  N  N355  1  0.50750000  0.11446000  0.05488000  1.0
  N  N356  1  0.50750000  0.38555000  0.05487000  1.0
  N  N357  1  0.99250000  0.61446000  0.55488000  1.0
  N  N358  1  0.00750000  0.11446000  0.44512000  1.0
  N  N359  1  0.49250000  0.88555000  0.94513000  1.0
  N  N360  1  0.81758000  0.42990000  0.06349000  1.0
  N  N361  1  0.68242000  0.57010000  0.56349000  1.0
  N  N362  1  0.31758000  0.07010000  0.43651000  1.0
  N  N363  1  0.18242000  0.92990000  0.93651000  1.0
  N  N364  1  0.18242000  0.57010000  0.93651000  1.0
  N  N365  1  0.31758000  0.42990000  0.43651000  1.0
  N  N366  1  0.68242000  0.92990000  0.56349000  1.0
  N  N367  1  0.81758000  0.07010000  0.06349000  1.0
  N  N368  1  0.00598000  0.47442000  0.08109000  1.0
  N  N369  1  0.49402000  0.52558000  0.58109000  1.0
  N  N370  1  0.50598000  0.02558000  0.41891000  1.0
  N  N371  1  0.99402000  0.97442000  0.91891000  1.0
  N  N372  1  0.99402000  0.52558000  0.91891000  1.0
  N  N373  1  0.50598000  0.47442000  0.41892000  1.0
  N  N374  1  0.49402000  0.97442000  0.58109000  1.0
  N  N375  1  0.00598000  0.02558000  0.08109000  1.0
  N  N376  1  0.67360000  0.39139000  0.75425000  1.0
  N  N377  1  0.82640000  0.60861000  0.25425000  1.0
  N  N378  1  0.17361000  0.10861000  0.74575000  1.0
  N  N379  1  0.32639000  0.89139000  0.24575000  1.0
  N  N380  1  0.32640000  0.60861000  0.24575000  1.0
  N  N381  1  0.17360000  0.39139000  0.74575000  1.0
  N  N382  1  0.82639000  0.89139000  0.25425000  1.0
  N  N383  1  0.67360000  0.10861000  0.75425000  1.0
  N  N384  1  0.48731000  0.39204000  0.72278000  1.0
  N  N385  1  0.01269000  0.60796000  0.22278000  1.0
  N  N386  1  0.98731000  0.10796000  0.77722000  1.0
  N  N387  1  0.51269000  0.89204000  0.27722000  1.0
  N  N388  1  0.51270000  0.60796000  0.27722000  1.0
  N  N389  1  0.98730000  0.39204000  0.77722000  1.0
  N  N390  1  0.01269000  0.89204000  0.22278000  1.0
  N  N391  1  0.48731000  0.10796000  0.72278000  1.0
  N  N392  1  0.76085000  0.29730000  0.04898000  1.0
  N  N393  1  0.73916000  0.70270000  0.54898000  1.0
  N  N394  1  0.26085000  0.20270000  0.45102000  1.0
  N  N395  1  0.23915000  0.79730000  0.95102000  1.0
  N  N396  1  0.23915000  0.70270000  0.95102000  1.0
  N  N397  1  0.26085000  0.29730000  0.45102000  1.0
  N  N398  1  0.73916000  0.79730000  0.54898000  1.0
  N  N399  1  0.76085000  0.20270000  0.04898000  1.0
  N  N400  1  0.76934000  0.29734000  0.80732000  1.0
  N  N401  1  0.73066000  0.70266000  0.30732000  1.0
  N  N402  1  0.26934000  0.20266000  0.69268000  1.0
  N  N403  1  0.23066000  0.79734000  0.19268000  1.0
  N  N404  1  0.23066000  0.70266000  0.19268000  1.0
  N  N405  1  0.26934000  0.29734000  0.69268000  1.0
  N  N406  1  0.73066000  0.79734000  0.30732000  1.0
  N  N407  1  0.76934000  0.20266000  0.80732000  1.0
