# generated using pymatgen
data_NdP2H8C3NO7
_symmetry_space_group_name_H-M   'P 1'
_cell_length_a   8.17017000
_cell_length_b   10.03250000
_cell_length_c   10.41020000
_cell_angle_alpha   89.99990000
_cell_angle_beta   89.99990000
_cell_angle_gamma   95.99530000
_symmetry_Int_Tables_number   1
_chemical_formula_structural   NdP2H8C3NO7
_chemical_formula_sum   'Nd4 P8 H32 C12 N4 O28'
_cell_volume   848.62813622
_cell_formula_units_Z   4
loop_
 _symmetry_equiv_pos_site_id
 _symmetry_equiv_pos_as_xyz
  1  'x, y, z'
loop_
 _atom_site_type_symbol
 _atom_site_label
 _atom_site_symmetry_multiplicity
 _atom_site_fract_x
 _atom_site_fract_y
 _atom_site_fract_z
 _atom_site_occupancy
  Nd  Nd0  1  0.77250000  0.88945000  0.87019000  1.0
  Nd  Nd1  1  0.22750000  0.61055000  0.37019000  1.0
  Nd  Nd2  1  0.22750000  0.11055000  0.12980000  1.0
  Nd  Nd3  1  0.77250000  0.38944000  0.62981000  1.0
  P  P4  1  0.93649000  0.21971000  0.89905000  1.0
  P  P5  1  0.06351000  0.28029000  0.39905000  1.0
  P  P6  1  0.06351000  0.78029000  0.10095000  1.0
  P  P7  1  0.93649000  0.71970000  0.60095000  1.0
  P  P8  1  0.55753000  0.18379000  0.88650000  1.0
  P  P9  1  0.44248000  0.31621000  0.38651000  1.0
  P  P10  1  0.44247000  0.81621000  0.11350000  1.0
  P  P11  1  0.55752000  0.68378000  0.61349000  1.0
  H  H12  1  0.63673000  0.04126000  0.09214000  1.0
  H  H13  1  0.36327000  0.45874000  0.59214000  1.0
  H  H14  1  0.36327000  0.95874000  0.90786000  1.0
  H  H15  1  0.63673000  0.54126000  0.40786000  1.0
  H  H16  1  0.68686000  0.64351000  0.10398000  1.0
  H  H17  1  0.31314000  0.85649000  0.60398000  1.0
  H  H18  1  0.31314000  0.35649000  0.89602000  1.0
  H  H19  1  0.68686000  0.14351000  0.39602000  1.0
  H  H20  1  0.83503000  0.57508000  0.18570000  1.0
  H  H21  1  0.16498000  0.92491000  0.68570000  1.0
  H  H22  1  0.16498000  0.42491000  0.81430000  1.0
  H  H23  1  0.83503000  0.07508000  0.31430000  1.0
  H  H24  1  0.63163000  0.51992000  0.20968000  1.0
  H  H25  1  0.36837000  0.98008000  0.70968000  1.0
  H  H26  1  0.36837000  0.48008000  0.79032000  1.0
  H  H27  1  0.63163000  0.01992000  0.29032000  1.0
  H  H28  1  0.62877000  0.28818000  0.15371000  1.0
  H  H29  1  0.37123000  0.21182000  0.65371000  1.0
  H  H30  1  0.37123000  0.71182000  0.84629000  1.0
  H  H31  1  0.62878000  0.78818000  0.34629000  1.0
  H  H32  1  0.84852000  0.31277000  0.15314000  1.0
  H  H33  1  0.15148000  0.18723000  0.65314000  1.0
  H  H34  1  0.15148000  0.68723000  0.84686000  1.0
  H  H35  1  0.84853000  0.81277000  0.34687000  1.0
  H  H36  1  0.83970000  0.48693000  0.97991000  1.0
  H  H37  1  0.16030000  0.01307000  0.47991000  1.0
  H  H38  1  0.16030000  0.51307000  0.02009000  1.0
  H  H39  1  0.83971000  0.98693000  0.52009000  1.0
  H  H40  1  0.62244000  0.45710000  0.97577000  1.0
  H  H41  1  0.37756000  0.04290000  0.47577000  1.0
  H  H42  1  0.37757000  0.54290000  0.02423000  1.0
  H  H43  1  0.62244000  0.95710000  0.52423000  1.0
  C  C44  1  0.74162000  0.20210000  0.99215000  1.0
  C  C45  1  0.25838000  0.29790000  0.49215000  1.0
  C  C46  1  0.25838000  0.79790000  0.00785000  1.0
  C  C47  1  0.74162000  0.70210000  0.50785000  1.0
  C  C48  1  0.73779000  0.31329000  0.09307000  1.0
  C  C49  1  0.26221000  0.18671000  0.59307000  1.0
  C  C50  1  0.26221000  0.68671000  0.90693000  1.0
  C  C51  1  0.73779000  0.81329000  0.40693000  1.0
  C  C52  1  0.73082000  0.45311000  0.03725000  1.0
  C  C53  1  0.26918000  0.04689000  0.53725000  1.0
  C  C54  1  0.26918000  0.54689000  0.96275000  1.0
  C  C55  1  0.73082000  0.95311000  0.46275000  1.0
  N  N56  1  0.72010000  0.55334000  0.14218000  1.0
  N  N57  1  0.27990000  0.94666000  0.64218000  1.0
  N  N58  1  0.27990000  0.44666000  0.85782000  1.0
  N  N59  1  0.72010000  0.05334000  0.35782000  1.0
  O  O60  1  0.93353000  0.08778000  0.82412000  1.0
  O  O61  1  0.06647000  0.41222000  0.32412000  1.0
  O  O62  1  0.06647000  0.91222000  0.17588000  1.0
  O  O63  1  0.93353000  0.58778000  0.67588000  1.0
  O  O64  1  0.07207000  0.23769000  0.00120000  1.0
  O  O65  1  0.92793000  0.26231000  0.50120000  1.0
  O  O66  1  0.92793000  0.76231000  0.99880000  1.0
  O  O67  1  0.07207000  0.73769000  0.49880000  1.0
  O  O68  1  0.94360000  0.34217000  0.80980000  1.0
  O  O69  1  0.05640000  0.15783000  0.30979000  1.0
  O  O70  1  0.05640000  0.65783000  0.19020000  1.0
  O  O71  1  0.94360000  0.84217000  0.69021000  1.0
  O  O72  1  0.74838000  0.07272000  0.05545000  1.0
  O  O73  1  0.25162000  0.42728000  0.55545000  1.0
  O  O74  1  0.25162000  0.92728000  0.94455000  1.0
  O  O75  1  0.74838000  0.57272000  0.44455000  1.0
  O  O76  1  0.53715000  0.03422000  0.84387000  1.0
  O  O77  1  0.46285000  0.46577000  0.34387000  1.0
  O  O78  1  0.46285000  0.96578000  0.15613000  1.0
  O  O79  1  0.53715000  0.53423000  0.65613000  1.0
  O  O80  1  0.40964000  0.21777000  0.96681000  1.0
  O  O81  1  0.59036000  0.28223000  0.46681000  1.0
  O  O82  1  0.59036000  0.78223000  0.03319000  1.0
  O  O83  1  0.40964000  0.71776000  0.53319000  1.0
  O  O84  1  0.58696000  0.27940000  0.77289000  1.0
  O  O85  1  0.41304000  0.22059000  0.27289000  1.0
  O  O86  1  0.41304000  0.72060000  0.22711000  1.0
  O  O87  1  0.58696000  0.77941000  0.72711000  1.0
