# generated using pymatgen
data_CuH8C6N2O7
_symmetry_space_group_name_H-M   'P 1'
_cell_length_a   7.31091000
_cell_length_b   8.15988000
_cell_length_c   9.64319425
_cell_angle_alpha   64.97369926
_cell_angle_beta   79.82233402
_cell_angle_gamma   65.31890000
_symmetry_Int_Tables_number   1
_chemical_formula_structural   CuH8C6N2O7
_chemical_formula_sum   'Cu2 H16 C12 N4 O14'
_cell_volume   473.64561636
_cell_formula_units_Z   2
loop_
 _symmetry_equiv_pos_site_id
 _symmetry_equiv_pos_as_xyz
  1  'x, y, z'
loop_
 _atom_site_type_symbol
 _atom_site_label
 _atom_site_symmetry_multiplicity
 _atom_site_fract_x
 _atom_site_fract_y
 _atom_site_fract_z
 _atom_site_occupancy
  Cu  Cu0  1  0.55279000  0.77852000  0.25658000  1.0
  Cu  Cu1  1  0.05285000  0.03505000  0.74337000  1.0
  H  H2  1  0.64644000  0.75936000  0.97811000  1.0
  H  H3  1  0.14643000  0.73738000  0.02186000  1.0
  H  H4  1  0.83133000  0.68746000  0.09443000  1.0
  H  H5  1  0.33130000  0.78188000  0.90554000  1.0
  H  H6  1  0.50398000  0.11046000  0.05955000  1.0
  H  H7  1  0.00408000  0.16993000  0.94044000  1.0
  H  H8  1  0.70482000  0.04817000  0.14655000  1.0
  H  H9  1  0.20492000  0.19474000  0.85339000  1.0
  H  H10  1  0.03648000  0.65966000  0.27497000  1.0
  H  H11  1  0.53650000  0.93468000  0.72510000  1.0
  H  H12  1  0.08468000  0.48484000  0.22273000  1.0
  H  H13  1  0.58468000  0.70765000  0.77728000  1.0
  H  H14  1  0.51105000  0.11470000  0.37680000  1.0
  H  H15  1  0.01099000  0.49147000  0.62328000  1.0
  H  H16  1  0.53357000  0.43949000  0.19509000  1.0
  H  H17  1  0.03382000  0.63449000  0.80497000  1.0
  C  C18  1  0.57405000  0.60069000  0.57568000  1.0
  C  C19  1  0.07404000  0.17622000  0.42430000  1.0
  C  C20  1  0.55748000  0.45612000  0.52640000  1.0
  C  C21  1  0.05761000  0.98234000  0.47357000  1.0
  C  C22  1  0.55332000  0.27377000  0.62629000  1.0
  C  C23  1  0.05335000  0.89989000  0.37371000  1.0
  C  C24  1  0.52453000  0.21311000  0.41981000  1.0
  C  C25  1  0.02448000  0.63287000  0.58028000  1.0
  C  C26  1  0.53374000  0.39303000  0.31871000  1.0
  C  C27  1  0.03387000  0.71166000  0.68134000  1.0
  C  C28  1  0.57800000  0.19094000  0.79838000  1.0
  C  C29  1  0.07806000  0.98913000  0.20163000  1.0
  N  N30  1  0.54741000  0.51255000  0.37428000  1.0
  N  N31  1  0.04756000  0.88673000  0.62570000  1.0
  N  N32  1  0.53450000  0.15483000  0.57158000  1.0
  N  N33  1  0.03445000  0.72626000  0.42848000  1.0
  O  O34  1  0.60483000  0.54955000  0.71402000  1.0
  O  O35  1  0.10480000  0.26349000  0.28589000  1.0
  O  O36  1  0.55484000  0.76892000  0.46802000  1.0
  O  O37  1  0.05471000  0.23687000  0.53194000  1.0
  O  O38  1  0.75473000  0.08534000  0.84854000  1.0
  O  O39  1  0.25476000  0.93370000  0.15145000  1.0
  O  O40  1  0.41949000  0.22048000  0.87887000  1.0
  O  O41  1  0.91953000  0.09923000  0.12113000  1.0
  O  O42  1  0.69523000  0.69110000  0.08713000  1.0
  O  O43  1  0.19522000  0.77812000  0.91281000  1.0
  O  O44  1  0.56923000  0.04028000  0.16409000  1.0
  O  O45  1  0.06934000  0.20427000  0.83588000  1.0
  O  O46  1  0.04725000  0.63111000  0.18186000  1.0
  O  O47  1  0.54721000  0.81303000  0.81818000  1.0
