# generated using pymatgen
data_MnH6C7(N2O)2
_symmetry_space_group_name_H-M   'P 1'
_cell_length_a   7.87605000
_cell_length_b   9.17662000
_cell_length_c   11.04510000
_cell_angle_alpha   90.00060000
_cell_angle_beta   90.00010000
_cell_angle_gamma   77.01400000
_symmetry_Int_Tables_number   1
_chemical_formula_structural   MnH6C7(N2O)2
_chemical_formula_sum   'Mn4 H24 C28 N16 O8'
_cell_volume   777.87404954
_cell_formula_units_Z   4
loop_
 _symmetry_equiv_pos_site_id
 _symmetry_equiv_pos_as_xyz
  1  'x, y, z'
loop_
 _atom_site_type_symbol
 _atom_site_label
 _atom_site_symmetry_multiplicity
 _atom_site_fract_x
 _atom_site_fract_y
 _atom_site_fract_z
 _atom_site_occupancy
  Mn  Mn0  1  0.62345000  0.51291000  0.12913000  1.0
  Mn  Mn1  1  0.87655000  0.48709000  0.62913000  1.0
  Mn  Mn2  1  0.37655000  0.48709000  0.87088000  1.0
  Mn  Mn3  1  0.12345000  0.51291000  0.37087000  1.0
  H  H4  1  0.80487000  0.33021000  0.95403000  1.0
  H  H5  1  0.69511000  0.66979000  0.45403000  1.0
  H  H6  1  0.19511000  0.66979000  0.04597000  1.0
  H  H7  1  0.30489000  0.33021000  0.54597000  1.0
  H  H8  1  0.94317000  0.35627000  0.06330000  1.0
  H  H9  1  0.55682000  0.64373000  0.56331000  1.0
  H  H10  1  0.05682000  0.64373000  0.93669000  1.0
  H  H11  1  0.44318000  0.35627000  0.43669000  1.0
  H  H12  1  0.69838000  0.86136000  0.00354000  1.0
  H  H13  1  0.80161000  0.13863000  0.50354000  1.0
  H  H14  1  0.30162000  0.13863000  0.99647000  1.0
  H  H15  1  0.19838000  0.86137000  0.49646000  1.0
  H  H16  1  0.67875000  0.12488000  0.93917000  1.0
  H  H17  1  0.82124000  0.87512000  0.43917000  1.0
  H  H18  1  0.32124000  0.87512000  0.06083000  1.0
  H  H19  1  0.17876000  0.12488000  0.56083000  1.0
  H  H20  1  0.01149000  0.18449000  0.23627000  1.0
  H  H21  1  0.48850000  0.81552000  0.73627000  1.0
  H  H22  1  0.98850000  0.81551000  0.76372000  1.0
  H  H23  1  0.51150000  0.18449000  0.26372000  1.0
  H  H24  1  0.01752000  0.92749000  0.30555000  1.0
  H  H25  1  0.48248000  0.07252000  0.80556000  1.0
  H  H26  1  0.98248000  0.07251000  0.69445000  1.0
  H  H27  1  0.51752000  0.92748000  0.19444000  1.0
  C  C28  1  0.86697000  0.72182000  0.20076000  1.0
  C  C29  1  0.63304000  0.27818000  0.70076000  1.0
  C  C30  1  0.13303000  0.27818000  0.79924000  1.0
  C  C31  1  0.36697000  0.72182000  0.29924000  1.0
  C  C32  1  0.85919000  0.87659000  0.15953000  1.0
  C  C33  1  0.64081000  0.12341000  0.65953000  1.0
  C  C34  1  0.14081000  0.12341000  0.84047000  1.0
  C  C35  1  0.35919000  0.87659000  0.34047000  1.0
  C  C36  1  0.76474000  0.93322000  0.05521000  1.0
  C  C37  1  0.73525000  0.06678000  0.55521000  1.0
  C  C38  1  0.23526000  0.06678000  0.94479000  1.0
  C  C39  1  0.26474000  0.93322000  0.44479000  1.0
  C  C40  1  0.75345000  0.07975000  0.01905000  1.0
  C  C41  1  0.74654000  0.92025000  0.51905000  1.0
  C  C42  1  0.24655000  0.92025000  0.98095000  1.0
  C  C43  1  0.25345000  0.07975000  0.48094000  1.0
  C  C44  1  0.84251000  0.17127000  0.08364000  1.0
  C  C45  1  0.65748000  0.82873000  0.58364000  1.0
  C  C46  1  0.15749000  0.82873000  0.91636000  1.0
  C  C47  1  0.34251000  0.17127000  0.41636000  1.0
  C  C48  1  0.93817000  0.11563000  0.18733000  1.0
  C  C49  1  0.56182000  0.88438000  0.68733000  1.0
  C  C50  1  0.06183000  0.88438000  0.81267000  1.0
  C  C51  1  0.43817000  0.11562000  0.31266000  1.0
  C  C52  1  0.94347000  0.97060000  0.22522000  1.0
  C  C53  1  0.55652000  0.02941000  0.72523000  1.0
  C  C54  1  0.05653000  0.02940000  0.77478000  1.0
  C  C55  1  0.44347000  0.97059000  0.27477000  1.0
  N  N56  1  0.83190000  0.32008000  0.04463000  1.0
  N  N57  1  0.66809000  0.67992000  0.54464000  1.0
  N  N58  1  0.16810000  0.67992000  0.95536000  1.0
  N  N59  1  0.33190000  0.32008000  0.45536000  1.0
  N  N60  1  0.57625000  0.60681000  0.92984000  1.0
  N  N61  1  0.92374000  0.39319000  0.42983000  1.0
  N  N62  1  0.42375000  0.39319000  0.07016000  1.0
  N  N63  1  0.07626000  0.60681000  0.57017000  1.0
  N  N64  1  0.70198000  0.60086000  0.86823000  1.0
  N  N65  1  0.79802000  0.39914000  0.36823000  1.0
  N  N66  1  0.29802000  0.39914000  0.13177000  1.0
  N  N67  1  0.20198000  0.60086000  0.63177000  1.0
  N  N68  1  0.82701000  0.59451000  0.80803000  1.0
  N  N69  1  0.67298000  0.40549000  0.30802000  1.0
  N  N70  1  0.17299000  0.40549000  0.19197000  1.0
  N  N71  1  0.32702000  0.59450000  0.69198000  1.0
  O  O72  1  0.81615000  0.63131000  0.12843000  1.0
  O  O73  1  0.68385000  0.36869000  0.62842000  1.0
  O  O74  1  0.18386000  0.36869000  0.87158000  1.0
  O  O75  1  0.31615000  0.63131000  0.37158000  1.0
  O  O76  1  0.92435000  0.68456000  0.30800000  1.0
  O  O77  1  0.57568000  0.31544000  0.80801000  1.0
  O  O78  1  0.07566000  0.31544000  0.69200000  1.0
  O  O79  1  0.42433000  0.68456000  0.19200000  1.0
