# generated using pymatgen
data_ErP4H20Ru2(CO5)4
_symmetry_space_group_name_H-M   'P 1'
_cell_length_a   9.45444000
_cell_length_b   9.45697000
_cell_length_c   15.45100000
_cell_angle_alpha   92.88790000
_cell_angle_beta   92.88870000
_cell_angle_gamma   99.03600000
_symmetry_Int_Tables_number   1
_chemical_formula_structural   ErP4H20Ru2(CO5)4
_chemical_formula_sum   'Er2 P8 H40 Ru4 C8 O40'
_cell_volume   1360.21929410
_cell_formula_units_Z   2
loop_
 _symmetry_equiv_pos_site_id
 _symmetry_equiv_pos_as_xyz
  1  'x, y, z'
loop_
 _atom_site_type_symbol
 _atom_site_label
 _atom_site_symmetry_multiplicity
 _atom_site_fract_x
 _atom_site_fract_y
 _atom_site_fract_z
 _atom_site_occupancy
  Er  Er0  1  0.99231000  0.00757000  0.74995000  1.0
  Er  Er1  1  0.00769000  0.99243000  0.25004000  1.0
  P  P2  1  0.05980000  0.34444000  0.64196000  1.0
  P  P3  1  0.65549000  0.94015000  0.85800000  1.0
  P  P4  1  0.94020000  0.65555000  0.35804000  1.0
  P  P5  1  0.34451000  0.05988000  0.14199000  1.0
  P  P6  1  0.99498000  0.65053000  0.65956000  1.0
  P  P7  1  0.34938000  0.00502000  0.84046000  1.0
  P  P8  1  0.00502000  0.34947000  0.34044000  1.0
  P  P9  1  0.65063000  0.99500000  0.15953000  1.0
  H  H10  1  0.82324000  0.44075000  0.72288000  1.0
  H  H11  1  0.55914000  0.17666000  0.77711000  1.0
  H  H12  1  0.17677000  0.55923000  0.27713000  1.0
  H  H13  1  0.44086000  0.82335000  0.22289000  1.0
  H  H14  1  0.41956000  0.68934000  0.53680000  1.0
  H  H15  1  0.31056000  0.58048000  0.96333000  1.0
  H  H16  1  0.58033000  0.31070000  0.46323000  1.0
  H  H17  1  0.68945000  0.41951000  0.03674000  1.0
  H  H18  1  0.39960000  0.52370000  0.54089000  1.0
  H  H19  1  0.47623000  0.60054000  0.95911000  1.0
  H  H20  1  0.60053000  0.47633000  0.45898000  1.0
  H  H21  1  0.52378000  0.39935000  0.04102000  1.0
  H  H22  1  0.82991000  0.13962000  0.61932000  1.0
  H  H23  1  0.86039000  0.16996000  0.88065000  1.0
  H  H24  1  0.17009000  0.86037000  0.38068000  1.0
  H  H25  1  0.13964000  0.83004000  0.11936000  1.0
  H  H26  1  0.71295000  0.07459000  0.68311000  1.0
  H  H27  1  0.92539000  0.28688000  0.81684000  1.0
  H  H28  1  0.28705000  0.92541000  0.31690000  1.0
  H  H29  1  0.07464000  0.71311000  0.18317000  1.0
  H  H30  1  0.11959000  0.89822000  0.91338000  1.0
  H  H31  1  0.10172000  0.88027000  0.58660000  1.0
  H  H32  1  0.88041000  0.10174000  0.08660000  1.0
  H  H33  1  0.89826000  0.11972000  0.41339000  1.0
  H  H34  1  0.94927000  0.86753000  0.91419000  1.0
  H  H35  1  0.13223000  0.05053000  0.58567000  1.0
  H  H36  1  0.05072000  0.13237000  0.08575000  1.0
  H  H37  1  0.86774000  0.94945000  0.41431000  1.0
  H  H38  1  0.17026000  0.43872000  0.82281000  1.0
  H  H39  1  0.56112000  0.82974000  0.67719000  1.0
  H  H40  1  0.82975000  0.56128000  0.17719000  1.0
  H  H41  1  0.43888000  0.17028000  0.32281000  1.0
  H  H42  1  0.14154000  0.62344000  0.82844000  1.0
  H  H43  1  0.37634000  0.85847000  0.67157000  1.0
  H  H44  1  0.85847000  0.37655000  0.17156000  1.0
  H  H45  1  0.62367000  0.14154000  0.32843000  1.0
  H  H46  1  0.25814000  0.56332000  0.75258000  1.0
  H  H47  1  0.43649000  0.74190000  0.74744000  1.0
  H  H48  1  0.74187000  0.43667000  0.24742000  1.0
  H  H49  1  0.56352000  0.25811000  0.25256000  1.0
  Ru  Ru50  1  0.12226000  0.54244000  0.49755000  1.0
  Ru  Ru51  1  0.45752000  0.87778000  0.00246000  1.0
  Ru  Ru52  1  0.87774000  0.45755000  0.50245000  1.0
  Ru  Ru53  1  0.54247000  0.12222000  0.99753000  1.0
  C  C54  1  0.03315000  0.49429000  0.71839000  1.0
  C  C55  1  0.50560000  0.96683000  0.78159000  1.0
  C  C56  1  0.96685000  0.50570000  0.28161000  1.0
  C  C57  1  0.49441000  0.03320000  0.21840000  1.0
  C  C58  1  0.15870000  0.53252000  0.78536000  1.0
  C  C59  1  0.46729000  0.84130000  0.71463000  1.0
  C  C60  1  0.84131000  0.46747000  0.21463000  1.0
  C  C61  1  0.53271000  0.15872000  0.28537000  1.0
  O  O62  1  0.18138000  0.39953000  0.58197000  1.0
  O  O63  1  0.60040000  0.81863000  0.91801000  1.0
  O  O64  1  0.81862000  0.60045000  0.41803000  1.0
  O  O65  1  0.39960000  0.18140000  0.08199000  1.0
  O  O66  1  0.91329000  0.30506000  0.58611000  1.0
  O  O67  1  0.69497000  0.08661000  0.91385000  1.0
  O  O68  1  0.08670000  0.69493000  0.41389000  1.0
  O  O69  1  0.30504000  0.91342000  0.08614000  1.0
  O  O70  1  0.09052000  0.22139000  0.69393000  1.0
  O  O71  1  0.77851000  0.90938000  0.80598000  1.0
  O  O72  1  0.90948000  0.77860000  0.30606000  1.0
  O  O73  1  0.22148000  0.09062000  0.19401000  1.0
  O  O74  1  0.12090000  0.69160000  0.59833000  1.0
  O  O75  1  0.30830000  0.87915000  0.90170000  1.0
  O  O76  1  0.87909000  0.30840000  0.40167000  1.0
  O  O77  1  0.69170000  0.12088000  0.09830000  1.0
  O  O78  1  0.85252000  0.59451000  0.60431000  1.0
  O  O79  1  0.40543000  0.14743000  0.89570000  1.0
  O  O80  1  0.14748000  0.40548000  0.39569000  1.0
  O  O81  1  0.59457000  0.85260000  0.10430000  1.0
  O  O82  1  0.98200000  0.77051000  0.72471000  1.0
  O  O83  1  0.22937000  0.01802000  0.77531000  1.0
  O  O84  1  0.01800000  0.22949000  0.27529000  1.0
  O  O85  1  0.77063000  0.98198000  0.22468000  1.0
  O  O86  1  0.90541000  0.44469000  0.76467000  1.0
  O  O87  1  0.55521000  0.09454000  0.73530000  1.0
  O  O88  1  0.09461000  0.55530000  0.23534000  1.0
  O  O89  1  0.44480000  0.90549000  0.26468000  1.0
  O  O90  1  0.38314000  0.60012000  0.50291000  1.0
  O  O91  1  0.39986000  0.61693000  0.99716000  1.0
  O  O92  1  0.61678000  0.39997000  0.49706000  1.0
  O  O93  1  0.60013000  0.38311000  0.00292000  1.0
  O  O94  1  0.80176000  0.05766000  0.65565000  1.0
  O  O95  1  0.94232000  0.19808000  0.84427000  1.0
  O  O96  1  0.19824000  0.94235000  0.34436000  1.0
  O  O97  1  0.05772000  0.80192000  0.15575000  1.0
  O  O98  1  0.03040000  0.93561000  0.89805000  1.0
  O  O99  1  0.06426000  0.96940000  0.60191000  1.0
  O  O100  1  0.96959000  0.06434000  0.10193000  1.0
  O  O101  1  0.93572000  0.03058000  0.39808000  1.0
