# generated using pymatgen
data_CoH4C8(N2O)2
_symmetry_space_group_name_H-M   'P 1'
_cell_length_a   4.94517000
_cell_length_b   10.27140000
_cell_length_c   16.97000000
_cell_angle_alpha   89.99990000
_cell_angle_beta   90.00000000
_cell_angle_gamma   98.97280000
_symmetry_Int_Tables_number   1
_chemical_formula_structural   CoH4C8(N2O)2
_chemical_formula_sum   'Co4 H16 C32 N16 O8'
_cell_volume   851.42273358
_cell_formula_units_Z   4
loop_
 _symmetry_equiv_pos_site_id
 _symmetry_equiv_pos_as_xyz
  1  'x, y, z'
loop_
 _atom_site_type_symbol
 _atom_site_label
 _atom_site_symmetry_multiplicity
 _atom_site_fract_x
 _atom_site_fract_y
 _atom_site_fract_z
 _atom_site_occupancy
  Co  Co0  1  0.70819000  0.64638000  0.34377000  1.0
  Co  Co1  1  0.29181000  0.85362000  0.84377000  1.0
  Co  Co2  1  0.29181000  0.35362000  0.65623000  1.0
  Co  Co3  1  0.70819000  0.14638000  0.15623000  1.0
  H  H4  1  0.11511000  0.71159000  0.22222000  1.0
  H  H5  1  0.88489000  0.78841000  0.72222000  1.0
  H  H6  1  0.88489000  0.28841000  0.77778000  1.0
  H  H7  1  0.11511000  0.21159000  0.27778000  1.0
  H  H8  1  0.28598000  0.61266000  0.10405000  1.0
  H  H9  1  0.71402000  0.88734000  0.60405000  1.0
  H  H10  1  0.71402000  0.38734000  0.89595000  1.0
  H  H11  1  0.28598000  0.11266000  0.39595000  1.0
  H  H12  1  0.13331000  0.67029000  0.97034000  1.0
  H  H13  1  0.86669000  0.82971000  0.47034000  1.0
  H  H14  1  0.86669000  0.32971000  0.02966000  1.0
  H  H15  1  0.13331000  0.17029000  0.52966000  1.0
  H  H16  1  0.61003000  0.91985000  0.07503000  1.0
  H  H17  1  0.38997000  0.58016000  0.57503000  1.0
  H  H18  1  0.38997000  0.08016000  0.92497000  1.0
  H  H19  1  0.61003000  0.41984000  0.42497000  1.0
  C  C20  1  0.73042000  0.87777000  0.22614000  1.0
  C  C21  1  0.26958000  0.62223000  0.72613000  1.0
  C  C22  1  0.26958000  0.12223000  0.77387000  1.0
  C  C23  1  0.73043000  0.37777000  0.27387000  1.0
  C  C24  1  0.85197000  0.82421000  0.15727000  1.0
  C  C25  1  0.14803000  0.67579000  0.65727000  1.0
  C  C26  1  0.14803000  0.17579000  0.84273000  1.0
  C  C27  1  0.85197000  0.32421000  0.34273000  1.0
  C  C28  1  0.04284000  0.73682000  0.16431000  1.0
  C  C29  1  0.95716000  0.76318000  0.66431000  1.0
  C  C30  1  0.95716000  0.26318000  0.83569000  1.0
  C  C31  1  0.04284000  0.23682000  0.33569000  1.0
  C  C32  1  0.14129000  0.68160000  0.09717000  1.0
  C  C33  1  0.85871000  0.81840000  0.59717000  1.0
  C  C34  1  0.85871000  0.31840000  0.90283000  1.0
  C  C35  1  0.14129000  0.18160000  0.40283000  1.0
  C  C36  1  0.05766000  0.71526000  0.02238000  1.0
  C  C37  1  0.94234000  0.78474000  0.52238000  1.0
  C  C38  1  0.94233000  0.28474000  0.97762000  1.0
  C  C39  1  0.05767000  0.21526000  0.47762000  1.0
  C  C40  1  0.76642000  0.85687000  0.08215000  1.0
  C  C41  1  0.23358000  0.64313000  0.58215000  1.0
  C  C42  1  0.23358000  0.14313000  0.91785000  1.0
  C  C43  1  0.76643000  0.35687000  0.41785000  1.0
  C  C44  1  0.87265000  0.80485000  0.01471000  1.0
  C  C45  1  0.12735000  0.69515000  0.51471000  1.0
  C  C46  1  0.12735000  0.19515000  0.98529000  1.0
  C  C47  1  0.87265000  0.30485000  0.48529000  1.0
  C  C48  1  0.76951000  0.83942000  0.93642000  1.0
  C  C49  1  0.23049000  0.66058000  0.43642000  1.0
  C  C50  1  0.23048000  0.16058000  0.06358000  1.0
  C  C51  1  0.76951000  0.33942000  0.56358000  1.0
  N  N52  1  0.64727000  0.99690000  0.22922000  1.0
  N  N53  1  0.35273000  0.50310000  0.72922000  1.0
  N  N54  1  0.35273000  0.00310000  0.77078000  1.0
  N  N55  1  0.64727000  0.49690000  0.27078000  1.0
  N  N56  1  0.53309000  0.00742000  0.30109000  1.0
  N  N57  1  0.46691000  0.49258000  0.80109000  1.0
  N  N58  1  0.46691000  0.99258000  0.69891000  1.0
  N  N59  1  0.53309000  0.50742000  0.19891000  1.0
  N  N60  1  0.66797000  0.81686000  0.29560000  1.0
  N  N61  1  0.33203000  0.68314000  0.79560000  1.0
  N  N62  1  0.33203000  0.18314000  0.70440000  1.0
  N  N63  1  0.66797000  0.31686000  0.20440000  1.0
  N  N64  1  0.54580000  0.90045000  0.34089000  1.0
  N  N65  1  0.45420000  0.59955000  0.84089000  1.0
  N  N66  1  0.45420000  0.09955000  0.65911000  1.0
  N  N67  1  0.54580000  0.40045000  0.15911000  1.0
  O  O68  1  0.52595000  0.86741000  0.93506000  1.0
  O  O69  1  0.47405000  0.63259000  0.43506000  1.0
  O  O70  1  0.47405000  0.13259000  0.06494000  1.0
  O  O71  1  0.52595000  0.36741000  0.56494000  1.0
  O  O72  1  0.91140000  0.84010000  0.87360000  1.0
  O  O73  1  0.08860000  0.65990000  0.37360000  1.0
  O  O74  1  0.08860000  0.15990000  0.12640000  1.0
  O  O75  1  0.91140000  0.34010000  0.62640000  1.0
