# generated using pymatgen
data_CuH8C14N2O5
_symmetry_space_group_name_H-M   'P 1'
_cell_length_a   8.10999000
_cell_length_b   10.60420000
_cell_length_c   17.73230000
_cell_angle_alpha   90.00000000
_cell_angle_beta   102.40100000
_cell_angle_gamma   89.99990000
_symmetry_Int_Tables_number   1
_chemical_formula_structural   CuH8C14N2O5
_chemical_formula_sum   'Cu4 H32 C56 N8 O20'
_cell_volume   1489.39706399
_cell_formula_units_Z   4
loop_
 _symmetry_equiv_pos_site_id
 _symmetry_equiv_pos_as_xyz
  1  'x, y, z'
loop_
 _atom_site_type_symbol
 _atom_site_label
 _atom_site_symmetry_multiplicity
 _atom_site_fract_x
 _atom_site_fract_y
 _atom_site_fract_z
 _atom_site_occupancy
  Cu  Cu0  1  0.81285000  0.44473000  0.93284000  1.0
  Cu  Cu1  1  0.68715000  0.94473000  0.56716000  1.0
  Cu  Cu2  1  0.18715000  0.55527000  0.06715000  1.0
  Cu  Cu3  1  0.31285000  0.05527000  0.43285000  1.0
  H  H4  1  0.80963000  0.55572000  0.70573000  1.0
  H  H5  1  0.69037000  0.05572000  0.79427000  1.0
  H  H6  1  0.19037000  0.44428000  0.29428000  1.0
  H  H7  1  0.30963000  0.94428000  0.20572000  1.0
  H  H8  1  0.52557000  0.20955000  0.67300000  1.0
  H  H9  1  0.97443000  0.70955000  0.82700000  1.0
  H  H10  1  0.47443000  0.79045000  0.32701000  1.0
  H  H11  1  0.02557000  0.29045000  0.17300000  1.0
  H  H12  1  0.63925000  0.40459000  0.47632000  1.0
  H  H13  1  0.86075000  0.90459000  0.02368000  1.0
  H  H14  1  0.36075000  0.59540000  0.52368000  1.0
  H  H15  1  0.13924000  0.09541000  0.97632000  1.0
  H  H16  1  0.84726000  0.66666667  0.60159000  1.0
  H  H17  1  0.65274000  0.16673000  0.89841000  1.0
  H  H18  1  0.15274000  0.33328000  0.39841000  1.0
  H  H19  1  0.34726000  0.83327000  0.10159000  1.0
  H  H20  1  0.06858000  0.76217000  0.60172000  1.0
  H  H21  1  0.43142000  0.26217000  0.89828000  1.0
  H  H22  1  0.93142000  0.23783000  0.39828000  1.0
  H  H23  1  0.56858000  0.73783000  0.10172000  1.0
  H  H24  1  0.87560000  0.71137000  0.35690000  1.0
  H  H25  1  0.62440000  0.21136000  0.14310000  1.0
  H  H26  1  0.12440000  0.28864000  0.64310000  1.0
  H  H27  1  0.37560000  0.78864000  0.85690000  1.0
  H  H28  1  0.24432000  0.93837000  0.56999000  1.0
  H  H29  1  0.25568000  0.43837000  0.93001000  1.0
  H  H30  1  0.75569000  0.06163000  0.43001000  1.0
  H  H31  1  0.74431000  0.56163000  0.06999000  1.0
  H  H32  1  0.06239000  0.89244000  0.33492000  1.0
  H  H33  1  0.43761000  0.39244000  0.16508000  1.0
  H  H34  1  0.93761000  0.10756000  0.66508000  1.0
  H  H35  1  0.56239000  0.60756000  0.83492000  1.0
  C  C36  1  0.68411000  0.37127000  0.78372000  1.0
  C  C37  1  0.81589000  0.87127000  0.71628000  1.0
  C  C38  1  0.31590000  0.62873000  0.21628000  1.0
  C  C39  1  0.18411000  0.12873000  0.28372000  1.0
  C  C40  1  0.66884000  0.38185000  0.69805000  1.0
  C  C41  1  0.83116000  0.88185000  0.80195000  1.0
  C  C42  1  0.33116000  0.61815000  0.30196000  1.0
  C  C43  1  0.16884000  0.11815000  0.19805000  1.0
  C  C44  1  0.74311000  0.48322000  0.66730000  1.0
  C  C45  1  0.75689000  0.98322000  0.83270000  1.0
  C  C46  1  0.25689000  0.51678000  0.33271000  1.0
  C  C47  1  0.24311000  0.01678000  0.16730000  1.0
  C  C48  1  0.58253000  0.28899000  0.64924000  1.0
  C  C49  1  0.91747000  0.78899000  0.85076000  1.0
  C  C50  1  0.41747000  0.71101000  0.35076000  1.0
  C  C51  1  0.08253000  0.21101000  0.14924000  1.0
  C  C52  1  0.73452000  0.49216000  0.58753000  1.0
  C  C53  1  0.76548000  0.99216000  0.91247000  1.0
  C  C54  1  0.26548000  0.50784000  0.41248000  1.0
  C  C55  1  0.23452000  0.00784000  0.08753000  1.0
  C  C56  1  0.57230000  0.29915000  0.56972000  1.0
  C  C57  1  0.92770000  0.79914000  0.93028000  1.0
  C  C58  1  0.42770000  0.70085000  0.43028000  1.0
  C  C59  1  0.07230000  0.20086000  0.06972000  1.0
  C  C60  1  0.64761000  0.39938000  0.53814000  1.0
  C  C61  1  0.85239000  0.89938000  0.96186000  1.0
  C  C62  1  0.35239000  0.60062000  0.46186000  1.0
  C  C63  1  0.14762000  0.10062000  0.03814000  1.0
  C  C64  1  0.48057000  0.20273000  0.51751000  1.0
  C  C65  1  0.01943000  0.70273000  0.98249000  1.0
  C  C66  1  0.51943000  0.79727000  0.48250000  1.0
  C  C67  1  0.98057000  0.29727000  0.01750000  1.0
  C  C68  1  0.85346000  0.60855000  0.49089000  1.0
  C  C69  1  0.64654000  0.10855000  0.00910000  1.0
  C  C70  1  0.14654000  0.39146000  0.50911000  1.0
  C  C71  1  0.35346000  0.89145000  0.99089000  1.0
  C  C72  1  0.95554000  0.72333000  0.48080000  1.0
  C  C73  1  0.54446000  0.22333000  0.01920000  1.0
  C  C74  1  0.04446000  0.27667000  0.51920000  1.0
  C  C75  1  0.45553000  0.77666000  0.98080000  1.0
  C  C76  1  0.05987000  0.78797000  0.54160000  1.0
  C  C77  1  0.44013000  0.28797000  0.95840000  1.0
  C  C78  1  0.94014000  0.21203000  0.45841000  1.0
  C  C79  1  0.55986000  0.71203000  0.04159000  1.0
  C  C80  1  0.95412000  0.76160000  0.40510000  1.0
  C  C81  1  0.54588000  0.26159000  0.09490000  1.0
  C  C82  1  0.04588000  0.23841000  0.59490000  1.0
  C  C83  1  0.45411000  0.73841000  0.90510000  1.0
  C  C84  1  0.15898000  0.88662000  0.52477000  1.0
  C  C85  1  0.34102000  0.38662000  0.97523000  1.0
  C  C86  1  0.84102000  0.11338000  0.47523000  1.0
  C  C87  1  0.65897000  0.61338000  0.02476000  1.0
  C  C88  1  0.05619000  0.86071000  0.39261000  1.0
  C  C89  1  0.44381000  0.36071000  0.10739000  1.0
  C  C90  1  0.94381000  0.13929000  0.60739000  1.0
  C  C91  1  0.55618000  0.63929000  0.89261000  1.0
  N  N92  1  0.15778000  0.92200000  0.45167000  1.0
  N  N93  1  0.34222000  0.42200000  0.04833000  1.0
  N  N94  1  0.84222000  0.07800000  0.54833000  1.0
  N  N95  1  0.65778000  0.57800000  0.95167000  1.0
  N  N96  1  0.81522000  0.59535000  0.56171000  1.0
  N  N97  1  0.68478000  0.09535000  0.93829000  1.0
  N  N98  1  0.18478000  0.40465000  0.43829000  1.0
  N  N99  1  0.31522000  0.90465000  0.06171000  1.0
  O  O100  1  0.76831000  0.46272000  0.82308000  1.0
  O  O101  1  0.73169000  0.96272000  0.67692000  1.0
  O  O102  1  0.23169000  0.53728000  0.17692000  1.0
  O  O103  1  0.26831000  0.03728000  0.32308000  1.0
  O  O104  1  0.40853000  0.10814000  0.54381000  1.0
  O  O105  1  0.09147000  0.60813000  0.95619000  1.0
  O  O106  1  0.59147000  0.89186000  0.45620000  1.0
  O  O107  1  0.90853000  0.39186000  0.04380000  1.0
  O  O108  1  0.61857000  0.28072000  0.81208000  1.0
  O  O109  1  0.88143000  0.78072000  0.68792000  1.0
  O  O110  1  0.38144000  0.71928000  0.18792000  1.0
  O  O111  1  0.11856000  0.21928000  0.31208000  1.0
  O  O112  1  0.46680000  0.20762000  0.44416000  1.0
  O  O113  1  0.03320000  0.70762000  0.05584000  1.0
  O  O114  1  0.53320000  0.79238000  0.55584000  1.0
  O  O115  1  0.96680000  0.29238000  0.94416000  1.0
  O  O116  1  0.81288000  0.53320000  0.43659000  1.0
  O  O117  1  0.68712000  0.03320000  0.06341000  1.0
  O  O118  1  0.18712000  0.46679000  0.56342000  1.0
  O  O119  1  0.31288000  0.96680000  0.93658000  1.0
