# generated using pymatgen
data_DyPH15C21NO11
_symmetry_space_group_name_H-M   'P 1'
_cell_length_a   11.57270000
_cell_length_b   14.97090000
_cell_length_c   17.45140000
_cell_angle_alpha   89.99990000
_cell_angle_beta   90.00000000
_cell_angle_gamma   91.32370000
_symmetry_Int_Tables_number   1
_chemical_formula_structural   DyPH15C21NO11
_chemical_formula_sum   'Dy4 P4 H60 C84 N4 O44'
_cell_volume   3022.71336242
_cell_formula_units_Z   4
loop_
 _symmetry_equiv_pos_site_id
 _symmetry_equiv_pos_as_xyz
  1  'x, y, z'
loop_
 _atom_site_type_symbol
 _atom_site_label
 _atom_site_symmetry_multiplicity
 _atom_site_fract_x
 _atom_site_fract_y
 _atom_site_fract_z
 _atom_site_occupancy
  Dy  Dy0  1  0.92253000  0.90567000  0.92541000  1.0
  Dy  Dy1  1  0.57747000  0.59433000  0.42541000  1.0
  Dy  Dy2  1  0.07747000  0.09433000  0.07459000  1.0
  Dy  Dy3  1  0.42253000  0.40567000  0.57459000  1.0
  P  P4  1  0.66557000  0.74962000  0.92270000  1.0
  P  P5  1  0.83443000  0.75038000  0.42270000  1.0
  P  P6  1  0.33443000  0.25038000  0.07730000  1.0
  P  P7  1  0.16557000  0.24962000  0.57731000  1.0
  H  H8  1  0.89237000  0.36306000  0.17164000  1.0
  H  H9  1  0.60762000  0.13694000  0.67164000  1.0
  H  H10  1  0.10763000  0.63694000  0.82836000  1.0
  H  H11  1  0.39237000  0.86306000  0.32836000  1.0
  H  H12  1  0.81449000  0.00574000  0.77785000  1.0
  H  H13  1  0.68551000  0.49426000  0.27785000  1.0
  H  H14  1  0.18551000  0.99426000  0.22215000  1.0
  H  H15  1  0.31449000  0.50574000  0.72215000  1.0
  H  H16  1  0.74337000  0.99516000  0.85388000  1.0
  H  H17  1  0.75663000  0.50484000  0.35388000  1.0
  H  H18  1  0.25663000  0.00484000  0.14612000  1.0
  H  H19  1  0.24337000  0.49516000  0.64612000  1.0
  H  H20  1  0.59929000  0.88915000  0.02298000  1.0
  H  H21  1  0.90071000  0.61085000  0.52298000  1.0
  H  H22  1  0.40071000  0.11085000  0.97702000  1.0
  H  H23  1  0.09929000  0.38915000  0.47702000  1.0
  H  H24  1  0.41017000  0.95960000  0.04994000  1.0
  H  H25  1  0.08982000  0.54040000  0.54994000  1.0
  H  H26  1  0.58983000  0.04040000  0.95006000  1.0
  H  H27  1  0.91018000  0.45960000  0.45006000  1.0
  H  H28  1  0.23879000  0.77213000  0.89940000  1.0
  H  H29  1  0.26121000  0.72786000  0.39940000  1.0
  H  H30  1  0.76121000  0.22786000  0.10060000  1.0
  H  H31  1  0.73879000  0.27214000  0.60060000  1.0
  H  H32  1  0.42594000  0.70173000  0.87031000  1.0
  H  H33  1  0.07406000  0.79827000  0.37031000  1.0
  H  H34  1  0.57406000  0.29827000  0.12969000  1.0
  H  H35  1  0.92594000  0.20173000  0.62969000  1.0
  H  H36  1  0.53322000  0.66534000  0.04925000  1.0
  H  H37  1  0.96678000  0.83467000  0.54925000  1.0
  H  H38  1  0.46678000  0.33467000  0.95075000  1.0
  H  H39  1  0.03322000  0.16533000  0.45075000  1.0
  H  H40  1  0.58253000  0.54409000  0.14065000  1.0
  H  H41  1  0.91748000  0.95591000  0.64065000  1.0
  H  H42  1  0.41747000  0.45591000  0.85935000  1.0
  H  H43  1  0.08252000  0.04409000  0.35935000  1.0
  H  H44  1  0.91676000  0.52270000  0.03514000  1.0
  H  H45  1  0.58324000  0.97730000  0.53514000  1.0
  H  H46  1  0.08324000  0.47730000  0.96486000  1.0
  H  H47  1  0.41676000  0.02270000  0.46486000  1.0
  H  H48  1  0.87010000  0.64440000  0.94417000  1.0
  H  H49  1  0.62990000  0.85560000  0.44418000  1.0
  H  H50  1  0.12990000  0.35560000  0.05582000  1.0
  H  H51  1  0.37010000  0.14440000  0.55582000  1.0
  H  H52  1  0.71181000  0.82427000  0.77560000  1.0
  H  H53  1  0.78819000  0.67573000  0.27560000  1.0
  H  H54  1  0.28819000  0.17573000  0.22440000  1.0
  H  H55  1  0.21181000  0.32427000  0.72440000  1.0
  H  H56  1  0.66814000  0.76804000  0.64259000  1.0
  H  H57  1  0.83186000  0.73196000  0.14259000  1.0
  H  H58  1  0.33186000  0.23196000  0.35741000  1.0
  H  H59  1  0.16814000  0.26804000  0.85741000  1.0
  H  H60  1  0.55230000  0.51552000  0.73508000  1.0
  H  H61  1  0.94770000  0.98448000  0.23508000  1.0
  H  H62  1  0.44770000  0.48448000  0.26492000  1.0
  H  H63  1  0.05230000  0.01552000  0.76492000  1.0
  H  H64  1  0.59573000  0.56950000  0.86758000  1.0
  H  H65  1  0.90427000  0.93050000  0.36758000  1.0
  H  H66  1  0.40427000  0.43050000  0.13241000  1.0
  H  H67  1  0.09573000  0.06950000  0.63242000  1.0
  C  C68  1  0.52449000  0.79056000  0.94574000  1.0
  C  C69  1  0.97551000  0.70944000  0.44574000  1.0
  C  C70  1  0.47551000  0.20944000  0.05426000  1.0
  C  C71  1  0.02449000  0.29056000  0.55426000  1.0
  C  C72  1  0.51979000  0.86263000  0.99711000  1.0
  C  C73  1  0.98021000  0.63737000  0.49711000  1.0
  C  C74  1  0.48021000  0.13737000  0.00289000  1.0
  C  C75  1  0.01979000  0.36263000  0.50289000  1.0
  C  C76  1  0.41437000  0.90203000  0.01196000  1.0
  C  C77  1  0.08562000  0.59797000  0.51196000  1.0
  C  C78  1  0.58563000  0.09797000  0.98804000  1.0
  C  C79  1  0.91437000  0.40203000  0.48804000  1.0
  C  C80  1  0.31323000  0.87006000  0.97615000  1.0
  C  C81  1  0.18677000  0.62994000  0.47615000  1.0
  C  C82  1  0.68677000  0.12994000  0.02385000  1.0
  C  C83  1  0.81323000  0.37006000  0.52385000  1.0
  C  C84  1  0.31800000  0.79655000  0.92665000  1.0
  C  C85  1  0.18200000  0.70344000  0.42666000  1.0
  C  C86  1  0.68200000  0.20345000  0.07335000  1.0
  C  C87  1  0.81800000  0.29655000  0.57335000  1.0
  C  C88  1  0.42315000  0.75699000  0.91096000  1.0
  C  C89  1  0.07685000  0.74301000  0.41096000  1.0
  C  C90  1  0.57686000  0.24301000  0.08904000  1.0
  C  C91  1  0.92314000  0.25699000  0.58904000  1.0
  C  C92  1  0.20083000  0.91654000  0.98773000  1.0
  C  C93  1  0.29917000  0.58346000  0.48773000  1.0
  C  C94  1  0.79917000  0.08346000  0.01227000  1.0
  C  C95  1  0.70083000  0.41654000  0.51227000  1.0
  C  C96  1  0.69776000  0.66182000  0.99019000  1.0
  C  C97  1  0.80224000  0.83818000  0.49020000  1.0
  C  C98  1  0.30224000  0.33818000  0.00980000  1.0
  C  C99  1  0.19776000  0.16182000  0.50981000  1.0
  C  C100  1  0.61713000  0.63395000  0.04582000  1.0
  C  C101  1  0.88287000  0.86605000  0.54583000  1.0
  C  C102  1  0.38287000  0.36605000  0.95417000  1.0
  C  C103  1  0.11713000  0.13395000  0.45418000  1.0
  C  C104  1  0.64428000  0.56607000  0.09700000  1.0
  C  C105  1  0.85573000  0.93393000  0.59700000  1.0
  C  C106  1  0.35572000  0.43393000  0.90300000  1.0
  C  C107  1  0.14427000  0.06607000  0.40301000  1.0
  C  C108  1  0.75187000  0.52535000  0.09272000  1.0
  C  C109  1  0.74813000  0.97465000  0.59272000  1.0
  C  C110  1  0.24813000  0.47465000  0.90728000  1.0
  C  C111  1  0.25186000  0.02535000  0.40728000  1.0
  C  C112  1  0.83292000  0.55406000  0.03752000  1.0
  C  C113  1  0.66708000  0.94594000  0.53753000  1.0
  C  C114  1  0.16708000  0.44594000  0.96248000  1.0
  C  C115  1  0.33292000  0.05406000  0.46248000  1.0
  C  C116  1  0.80642000  0.62197000  0.98647000  1.0
  C  C117  1  0.69358000  0.87803000  0.48647000  1.0
  C  C118  1  0.19358000  0.37803000  0.01353000  1.0
  C  C119  1  0.30642000  0.12197000  0.51353000  1.0
  C  C120  1  0.77721000  0.45139000  0.14707000  1.0
  C  C121  1  0.72279000  0.04861000  0.64707000  1.0
  C  C122  1  0.22279000  0.54861000  0.85293000  1.0
  C  C123  1  0.27721000  0.95139000  0.35293000  1.0
  C  C124  1  0.65361000  0.70069000  0.82915000  1.0
  C  C125  1  0.84639000  0.79931000  0.32915000  1.0
  C  C126  1  0.34639000  0.29931000  0.17085000  1.0
  C  C127  1  0.15361000  0.20069000  0.67085000  1.0
  C  C128  1  0.67646000  0.75689000  0.76617000  1.0
  C  C129  1  0.82354000  0.74311000  0.26617000  1.0
  C  C130  1  0.32354000  0.24311000  0.23383000  1.0
  C  C131  1  0.17646000  0.25689000  0.73383000  1.0
  C  C132  1  0.65231000  0.72596000  0.69263000  1.0
  C  C133  1  0.84769000  0.77404000  0.19263000  1.0
  C  C134  1  0.34769000  0.27404000  0.30737000  1.0
  C  C135  1  0.15231000  0.22596000  0.80737000  1.0
  C  C136  1  0.60458000  0.63996000  0.68194000  1.0
  C  C137  1  0.89542000  0.86004000  0.18194000  1.0
  C  C138  1  0.39542000  0.36004000  0.31806000  1.0
  C  C139  1  0.10458000  0.13996000  0.81806000  1.0
  C  C140  1  0.58616000  0.58304000  0.74469000  1.0
  C  C141  1  0.91384000  0.91696000  0.24469000  1.0
  C  C142  1  0.41385000  0.41696000  0.25531000  1.0
  C  C143  1  0.08616000  0.08304000  0.75531000  1.0
  C  C144  1  0.61086000  0.61325000  0.81840000  1.0
  C  C145  1  0.88915000  0.88675000  0.31840000  1.0
  C  C146  1  0.38915000  0.38675000  0.18160000  1.0
  C  C147  1  0.11085000  0.11325000  0.68160000  1.0
  C  C148  1  0.57213000  0.60935000  0.60323000  1.0
  C  C149  1  0.92787000  0.89065000  0.10323000  1.0
  C  C150  1  0.42787000  0.39065000  0.39677000  1.0
  C  C151  1  0.07213000  0.10935000  0.89677000  1.0
  N  N152  1  0.02016000  0.77890000  0.81796000  1.0
  N  N153  1  0.47984000  0.72110000  0.31796000  1.0
  N  N154  1  0.97984000  0.22110000  0.18204000  1.0
  N  N155  1  0.52016000  0.27890000  0.68204000  1.0
  O  O156  1  0.75248000  0.82605000  0.92327000  1.0
  O  O157  1  0.74752000  0.67395000  0.42327000  1.0
  O  O158  1  0.24752000  0.17395000  0.07673000  1.0
  O  O159  1  0.25248000  0.32605000  0.57673000  1.0
  O  O160  1  0.20472000  0.99031000  0.02441000  1.0
  O  O161  1  0.29528000  0.50969000  0.52440000  1.0
  O  O162  1  0.79528000  0.00969000  0.97560000  1.0
  O  O163  1  0.70472000  0.49031000  0.47560000  1.0
  O  O164  1  0.11107000  0.87972000  0.95924000  1.0
  O  O165  1  0.38893000  0.62028000  0.45924000  1.0
  O  O166  1  0.88893000  0.12028000  0.04075000  1.0
  O  O167  1  0.61107000  0.37972000  0.54076000  1.0
  O  O168  1  0.70926000  0.42685000  0.19824000  1.0
  O  O169  1  0.79073000  0.07315000  0.69825000  1.0
  O  O170  1  0.29074000  0.57314000  0.80176000  1.0
  O  O171  1  0.20926000  0.92685000  0.30176000  1.0
  O  O172  1  0.87859000  0.41413000  0.13462000  1.0
  O  O173  1  0.62141000  0.08587000  0.63462000  1.0
  O  O174  1  0.12141000  0.58587000  0.86538000  1.0
  O  O175  1  0.37859000  0.91413000  0.36538000  1.0
  O  O176  1  0.60004000  0.65831000  0.54656000  1.0
  O  O177  1  0.89995000  0.84169000  0.04656000  1.0
  O  O178  1  0.39995000  0.34169000  0.45344000  1.0
  O  O179  1  0.10004000  0.15831000  0.95344000  1.0
  O  O180  1  0.51800000  0.53475000  0.59648000  1.0
  O  O181  1  0.98200000  0.96525000  0.09648000  1.0
  O  O182  1  0.48200000  0.46525000  0.40352000  1.0
  O  O183  1  0.01800000  0.03475000  0.90352000  1.0
  O  O184  1  0.97177000  0.75181000  0.87962000  1.0
  O  O185  1  0.52823000  0.74819000  0.37962000  1.0
  O  O186  1  0.02823000  0.24819000  0.12038000  1.0
  O  O187  1  0.47177000  0.25181000  0.62038000  1.0
  O  O188  1  0.00900000  0.86085000  0.80002000  1.0
  O  O189  1  0.49099000  0.63915000  0.30002000  1.0
  O  O190  1  0.99099000  0.13915000  0.19998000  1.0
  O  O191  1  0.50901000  0.36085000  0.69998000  1.0
  O  O192  1  0.07788000  0.72727000  0.77707000  1.0
  O  O193  1  0.42212000  0.77273000  0.27707000  1.0
  O  O194  1  0.92212000  0.27273000  0.22293000  1.0
  O  O195  1  0.57788000  0.22727000  0.72293000  1.0
  O  O196  1  0.80004000  0.96533000  0.82202000  1.0
  O  O197  1  0.69996000  0.53467000  0.32201000  1.0
  O  O198  1  0.19996000  0.03467000  0.17798000  1.0
  O  O199  1  0.30004000  0.46533000  0.67798000  1.0
