# generated using pymatgen
data_CdH16C17N2O5
_symmetry_space_group_name_H-M   'P 1'
_cell_length_a   8.21213000
_cell_length_b   8.39539000
_cell_length_c   12.24180000
_cell_angle_alpha   101.35800000
_cell_angle_beta   99.58740000
_cell_angle_gamma   101.15400000
_symmetry_Int_Tables_number   1
_chemical_formula_structural   CdH16C17N2O5
_chemical_formula_sum   'Cd2 H32 C34 N4 O10'
_cell_volume   793.25302451
_cell_formula_units_Z   2
loop_
 _symmetry_equiv_pos_site_id
 _symmetry_equiv_pos_as_xyz
  1  'x, y, z'
loop_
 _atom_site_type_symbol
 _atom_site_label
 _atom_site_symmetry_multiplicity
 _atom_site_fract_x
 _atom_site_fract_y
 _atom_site_fract_z
 _atom_site_occupancy
  Cd  Cd0  1  0.87000000  0.87166000  0.78261000  1.0
  Cd  Cd1  1  0.13000000  0.12834000  0.21739000  1.0
  H  H2  1  0.53877000  0.18586000  0.99605000  1.0
  H  H3  1  0.46123000  0.81414000  0.00395000  1.0
  H  H4  1  0.40223000  0.10277000  0.86217000  1.0
  H  H5  1  0.59777000  0.89723000  0.13783000  1.0
  H  H6  1  0.61787000  0.93915000  0.56690000  1.0
  H  H7  1  0.38213000  0.06084000  0.43310000  1.0
  H  H8  1  0.05301000  0.67913000  0.26899000  1.0
  H  H9  1  0.94700000  0.32088000  0.73101000  1.0
  H  H10  1  0.45396000  0.63762000  0.78859000  1.0
  H  H11  1  0.54604000  0.36238000  0.21141000  1.0
  H  H12  1  0.79869000  0.80248000  0.25660000  1.0
  H  H13  1  0.20131000  0.19752000  0.74340000  1.0
  H  H14  1  0.22045000  0.74980000  0.86849000  1.0
  H  H15  1  0.77954000  0.25020000  0.13151000  1.0
  H  H16  1  0.58397000  0.91489000  0.35481000  1.0
  H  H17  1  0.41604000  0.08511000  0.64519000  1.0
  H  H18  1  0.28280000  0.59560000  0.38434000  1.0
  H  H19  1  0.71720000  0.40440000  0.61566000  1.0
  H  H20  1  0.43850000  0.58674000  0.58053000  1.0
  H  H21  1  0.56150000  0.41326000  0.41947000  1.0
  H  H22  1  0.06363000  0.17481000  0.94466000  1.0
  H  H23  1  0.93637000  0.82519000  0.05534000  1.0
  H  H24  1  0.17130000  0.04428000  0.93848000  1.0
  H  H25  1  0.82870000  0.95572000  0.06152000  1.0
  H  H26  1  0.55605000  0.31816000  0.77933000  1.0
  H  H27  1  0.44395000  0.68184000  0.22067000  1.0
  H  H28  1  0.76265000  0.49193000  0.02071000  1.0
  H  H29  1  0.23736000  0.50808000  0.97929000  1.0
  H  H30  1  0.47490000  0.40865000  0.89466000  1.0
  H  H31  1  0.52510000  0.59135000  0.10534000  1.0
  H  H32  1  0.84356000  0.36926000  0.92152000  1.0
  H  H33  1  0.15644000  0.63074000  0.07848000  1.0
  C  C34  1  0.53300000  0.17130000  0.90440000  1.0
  C  C35  1  0.46700000  0.82870000  0.09560000  1.0
  C  C36  1  0.80536000  0.59341000  0.87897000  1.0
  C  C37  1  0.19464000  0.40659000  0.12103000  1.0
  C  C38  1  0.64943000  0.06105000  0.86684000  1.0
  C  C39  1  0.35057000  0.93895000  0.13315000  1.0
  C  C40  1  0.74836000  0.44503000  0.92823000  1.0
  C  C41  1  0.25164000  0.55497000  0.07177000  1.0
  C  C42  1  0.70492000  0.88824000  0.51946000  1.0
  C  C43  1  0.29509000  0.11175000  0.48054000  1.0
  C  C44  1  0.57029000  0.33942000  0.87202000  1.0
  C  C45  1  0.42971000  0.66059000  0.12798000  1.0
  C  C46  1  0.06249000  0.69396000  0.36046000  1.0
  C  C47  1  0.93752000  0.30604000  0.63953000  1.0
  C  C48  1  0.93769000  0.76147000  0.41096000  1.0
  C  C49  1  0.06231000  0.23853000  0.58904000  1.0
  C  C50  1  0.94574000  0.78124000  0.52991000  1.0
  C  C51  1  0.05426000  0.21876000  0.47009000  1.0
  C  C52  1  0.08379000  0.73779000  0.59881000  1.0
  C  C53  1  0.91621000  0.26221000  0.40119000  1.0
  C  C54  1  0.34883000  0.66334000  0.73321000  1.0
  C  C55  1  0.65117000  0.33666000  0.26679000  1.0
  C  C56  1  0.80479000  0.81147000  0.34746000  1.0
  C  C57  1  0.19521000  0.18854000  0.65254000  1.0
  C  C58  1  0.22099000  0.72688000  0.77765000  1.0
  C  C59  1  0.77901000  0.27311000  0.22235000  1.0
  C  C60  1  0.20632000  0.67263000  0.54563000  1.0
  C  C61  1  0.79368000  0.32737000  0.45437000  1.0
  C  C62  1  0.68797000  0.87504000  0.40166000  1.0
  C  C63  1  0.31203000  0.12495000  0.59834000  1.0
  C  C64  1  0.19098000  0.64969000  0.42499000  1.0
  C  C65  1  0.80902000  0.35031000  0.57501000  1.0
  C  C66  1  0.34072000  0.63590000  0.61713000  1.0
  C  C67  1  0.65928000  0.36410000  0.38287000  1.0
  N  N68  1  0.82953000  0.84274000  0.58133000  1.0
  N  N69  1  0.17047000  0.15726000  0.41867000  1.0
  N  N70  1  0.09340000  0.76331000  0.71247000  1.0
  N  N71  1  0.90660000  0.23668000  0.28753000  1.0
  O  O72  1  0.71804000  0.60523000  0.78555000  1.0
  O  O73  1  0.28196000  0.39477000  0.21444000  1.0
  O  O74  1  0.72069000  0.98745000  0.93592000  1.0
  O  O75  1  0.27932000  0.01256000  0.06408000  1.0
  O  O76  1  0.94128000  0.70215000  0.93225000  1.0
  O  O77  1  0.05872000  0.29786000  0.06775000  1.0
  O  O78  1  0.09717000  0.09154000  0.88711000  1.0
  O  O79  1  0.90283000  0.90846000  0.11289000  1.0
  O  O80  1  0.67177000  0.04392000  0.76459000  1.0
  O  O81  1  0.32822000  0.95608000  0.23541000  1.0
