# generated using pymatgen
data_Ni2H34C48N4O11
_symmetry_space_group_name_H-M   'P 1'
_cell_length_a   13.52930000
_cell_length_b   13.53080000
_cell_length_c   15.64453210
_cell_angle_alpha   110.82575886
_cell_angle_beta   110.22980201
_cell_angle_gamma   100.90300000
_symmetry_Int_Tables_number   1
_chemical_formula_structural   Ni2H34C48N4O11
_chemical_formula_sum   'Ni4 H68 C96 N8 O22'
_cell_volume   2347.28107287
_cell_formula_units_Z   2
loop_
 _symmetry_equiv_pos_site_id
 _symmetry_equiv_pos_as_xyz
  1  'x, y, z'
loop_
 _atom_site_type_symbol
 _atom_site_label
 _atom_site_symmetry_multiplicity
 _atom_site_fract_x
 _atom_site_fract_y
 _atom_site_fract_z
 _atom_site_occupancy
  Ni  Ni0  1  0.51143000  0.42257000  0.71824000  1.0
  Ni  Ni1  1  0.70429000  0.29322000  0.78179000  1.0
  Ni  Ni2  1  0.48821000  0.57745000  0.28157000  1.0
  Ni  Ni3  1  0.29593000  0.70661000  0.21840000  1.0
  H  H4  1  0.46777000  0.22059000  0.68398000  1.0
  H  H5  1  0.53661000  0.28384000  0.81611000  1.0
  H  H6  1  0.53240000  0.77940000  0.31612000  1.0
  H  H7  1  0.46331000  0.71625000  0.18382000  1.0
  H  H8  1  0.54804000  0.65341000  0.85892000  1.0
  H  H9  1  0.79452000  0.18914000  0.64121000  1.0
  H  H10  1  0.45182000  0.34651000  0.14097000  1.0
  H  H11  1  0.20551000  0.81084000  0.35890000  1.0
  H  H12  1  0.58897000  0.84612000  0.86933000  1.0
  H  H13  1  0.97680000  0.21967000  0.63078000  1.0
  H  H14  1  0.41098000  0.15382000  0.13062000  1.0
  H  H15  1  0.02320000  0.78035000  0.36927000  1.0
  H  H16  1  0.51005000  0.68750000  0.54820000  1.0
  H  H17  1  0.13933000  0.46199000  0.95186000  1.0
  H  H18  1  0.48999000  0.31253000  0.45177000  1.0
  H  H19  1  0.86073000  0.53810000  0.04819000  1.0
  H  H20  1  0.46461000  0.50186000  0.55173000  1.0
  H  H21  1  0.95020000  0.41300000  0.94838000  1.0
  H  H22  1  0.53530000  0.49813000  0.44816000  1.0
  H  H23  1  0.04990000  0.58702000  0.05173000  1.0
  H  H24  1  0.72635000  0.97104000  0.86981000  1.0
  H  H25  1  0.10117000  0.35645000  0.63017000  1.0
  H  H26  1  0.27366000  0.02887000  0.13017000  1.0
  H  H27  1  0.89875000  0.64359000  0.36986000  1.0
  H  H28  1  0.78009000  0.16471000  0.88440000  1.0
  H  H29  1  0.28022000  0.39564000  0.61549000  1.0
  H  H30  1  0.21994000  0.83521000  0.11564000  1.0
  H  H31  1  0.71965000  0.60433000  0.38445000  1.0
  H  H32  1  0.52743000  0.06095000  0.59544000  1.0
  H  H33  1  0.46559000  0.43203000  0.90445000  1.0
  H  H34  1  0.47261000  0.93909000  0.40461000  1.0
  H  H35  1  0.53440000  0.56795000  0.09548000  1.0
  H  H36  1  0.46804000  0.86002000  0.56352000  1.0
  H  H37  1  0.29662000  0.40455000  0.93644000  1.0
  H  H38  1  0.53196000  0.14001000  0.43648000  1.0
  H  H39  1  0.70341000  0.59546000  0.06356000  1.0
  H  H40  1  0.20441000  0.99075000  0.40895000  1.0
  H  H41  1  0.58174000  0.29543000  0.09109000  1.0
  H  H42  1  0.79562000  0.00929000  0.59104000  1.0
  H  H43  1  0.41831000  0.70462000  0.90894000  1.0
  H  H44  1  0.06377000  0.89922000  0.22457000  1.0
  H  H45  1  0.67466000  0.33923000  0.27547000  1.0
  H  H46  1  0.93625000  0.10081000  0.77543000  1.0
  H  H47  1  0.32538000  0.66078000  0.72455000  1.0
  H  H48  1  0.14320000  0.22192000  0.22282000  1.0
  H  H49  1  0.99908000  0.42043000  0.27713000  1.0
  H  H50  1  0.85677000  0.77809000  0.77713000  1.0
  H  H51  1  0.00098000  0.57959000  0.72292000  1.0
  H  H52  1  0.28199000  0.31186000  0.40844000  1.0
  H  H53  1  0.90333000  0.37353000  0.09152000  1.0
  H  H54  1  0.71799000  0.68817000  0.59150000  1.0
  H  H55  1  0.09674000  0.62650000  0.90853000  1.0
  H  H56  1  0.06567000  0.84763000  0.98466000  1.0
  H  H57  1  0.86296000  0.58093000  0.51535000  1.0
  H  H58  1  0.93434000  0.15235000  0.01537000  1.0
  H  H59  1  0.13701000  0.41905000  0.48463000  1.0
  H  H60  1  0.93720000  0.64315000  0.88408000  1.0
  H  H61  1  0.75923000  0.55309000  0.61604000  1.0
  H  H62  1  0.06283000  0.35683000  0.11599000  1.0
  H  H63  1  0.24068000  0.44687000  0.38389000  1.0
  H  H64  1  0.70905000  0.72532000  0.00726000  1.0
  H  H65  1  0.71801000  0.20171000  0.49277000  1.0
  H  H66  1  0.29097000  0.27466000  0.99277000  1.0
  H  H67  1  0.28194000  0.79826000  0.50720000  1.0
  H  H68  1  0.83934000  0.92762000  0.11247000  1.0
  H  H69  1  0.81504000  0.22680000  0.38755000  1.0
  H  H70  1  0.16065000  0.07236000  0.88753000  1.0
  H  H71  1  0.18494000  0.77318000  0.61245000  1.0
  C  C72  1  0.53900000  0.66576000  0.79203000  1.0
  C  C73  1  0.87376000  0.24701000  0.70809000  1.0
  C  C74  1  0.46087000  0.33418000  0.20787000  1.0
  C  C75  1  0.12628000  0.75299000  0.29200000  1.0
  C  C76  1  0.56334000  0.77253000  0.79710000  1.0
  C  C77  1  0.97548000  0.26629000  0.70303000  1.0
  C  C78  1  0.43661000  0.22742000  0.20284000  1.0
  C  C79  1  0.02454000  0.73373000  0.29703000  1.0
  C  C80  1  0.55473000  0.78444000  0.70949000  1.0
  C  C81  1  0.07501000  0.34533000  0.79060000  1.0
  C  C82  1  0.44524000  0.21554000  0.29047000  1.0
  C  C83  1  0.92500000  0.65470000  0.20945000  1.0
  C  C84  1  0.51669000  0.68497000  0.61873000  1.0
  C  C85  1  0.06627000  0.39806000  0.88134000  1.0
  C  C86  1  0.48329000  0.31502000  0.38121000  1.0
  C  C87  1  0.93379000  0.60199000  0.11873000  1.0
  C  C88  1  0.49330000  0.58100000  0.62015000  1.0
  C  C89  1  0.96088000  0.37323000  0.87994000  1.0
  C  C90  1  0.50663000  0.41898000  0.37976000  1.0
  C  C91  1  0.03920000  0.62680000  0.12015000  1.0
  C  C92  1  0.58868000  0.89850000  0.71663000  1.0
  C  C93  1  0.18192000  0.37209000  0.78338000  1.0
  C  C94  1  0.41133000  0.10148000  0.28336000  1.0
  C  C95  1  0.81807000  0.62793000  0.21664000  1.0
  C  C96  1  0.67846000  0.98682000  0.80719000  1.0
  C  C97  1  0.17962000  0.37124000  0.69278000  1.0
  C  C98  1  0.32157000  0.01312000  0.19280000  1.0
  C  C99  1  0.82031000  0.62878000  0.30722000  1.0
  C  C100  1  0.70987000  0.09470000  0.81578000  1.0
  C  C101  1  0.27888000  0.39404000  0.68412000  1.0
  C  C102  1  0.29017000  0.90524000  0.18424000  1.0
  C  C103  1  0.72102000  0.60593000  0.31583000  1.0
  C  C104  1  0.57006000  0.03642000  0.65343000  1.0
  C  C105  1  0.38306000  0.41667000  0.84648000  1.0
  C  C106  1  0.42998000  0.96359000  0.34661000  1.0
  C  C107  1  0.61691000  0.58331000  0.15347000  1.0
  C  C108  1  0.53608000  0.92476000  0.63727000  1.0
  C  C109  1  0.28757000  0.39885000  0.86269000  1.0
  C  C110  1  0.46393000  0.07524000  0.36273000  1.0
  C  C111  1  0.71243000  0.60115000  0.13730000  1.0
  C  C112  1  0.34400000  0.21025000  0.52800000  1.0
  C  C113  1  0.68215000  0.31590000  0.97194000  1.0
  C  C114  1  0.65599000  0.78977000  0.47195000  1.0
  C  C115  1  0.31790000  0.68415000  0.02811000  1.0
  C  C116  1  0.25285000  0.15675000  0.42001000  1.0
  C  C117  1  0.73662000  0.33267000  0.07991000  1.0
  C  C118  1  0.74715000  0.84328000  0.57995000  1.0
  C  C119  1  0.26344000  0.66736000  0.92013000  1.0
  C  C120  1  0.18933000  0.04089000  0.36790000  1.0
  C  C121  1  0.67293000  0.32133000  0.13208000  1.0
  C  C122  1  0.81069000  0.95914000  0.63208000  1.0
  C  C123  1  0.32712000  0.67870000  0.86795000  1.0
  C  C124  1  0.11089000  0.98985000  0.26519000  1.0
  C  C125  1  0.72465000  0.34568000  0.23482000  1.0
  C  C126  1  0.88912000  0.01017000  0.73480000  1.0
  C  C127  1  0.27539000  0.65434000  0.76520000  1.0
  C  C128  1  0.09671000  0.05561000  0.21322000  1.0
  C  C129  1  0.84237000  0.38343000  0.28677000  1.0
  C  C130  1  0.90328000  0.94441000  0.78675000  1.0
  C  C131  1  0.15767000  0.61658000  0.71326000  1.0
  C  C132  1  0.15593000  0.17245000  0.26485000  1.0
  C  C133  1  0.90756000  0.39109000  0.23511000  1.0
  C  C134  1  0.84405000  0.82757000  0.73511000  1.0
  C  C135  1  0.09248000  0.60893000  0.76492000  1.0
  C  C136  1  0.23292000  0.22172000  0.36750000  1.0
  C  C137  1  0.85412000  0.36536000  0.13244000  1.0
  C  C138  1  0.76706000  0.77831000  0.63245000  1.0
  C  C139  1  0.14593000  0.63468000  0.86760000  1.0
  C  C140  1  0.96010000  0.89725000  0.05536000  1.0
  C  C141  1  0.84188000  0.40465000  0.44466000  1.0
  C  C142  1  0.03989000  0.10273000  0.94465000  1.0
  C  C143  1  0.15811000  0.59533000  0.55534000  1.0
  C  C144  1  0.98867000  0.81921000  0.99088000  1.0
  C  C145  1  0.82839000  0.49773000  0.50918000  1.0
  C  C146  1  0.01135000  0.18077000  0.00917000  1.0
  C  C147  1  0.17156000  0.50224000  0.49079000  1.0
  C  C148  1  0.91686000  0.70642000  0.93432000  1.0
  C  C149  1  0.77221000  0.48248000  0.56577000  1.0
  C  C150  1  0.08319000  0.29355000  0.06576000  1.0
  C  C151  1  0.22771000  0.51749000  0.43417000  1.0
  C  C152  1  0.81643000  0.67169000  0.94060000  1.0
  C  C153  1  0.73114000  0.37580000  0.55951000  1.0
  C  C154  1  0.18361000  0.32828000  0.05947000  1.0
  C  C155  1  0.26877000  0.62417000  0.44043000  1.0
  C  C156  1  0.78795000  0.75215000  0.00361000  1.0
  C  C157  1  0.74853000  0.28428000  0.49647000  1.0
  C  C158  1  0.21206000  0.24782000  0.99643000  1.0
  C  C159  1  0.25139000  0.71568000  0.50348000  1.0
  C  C160  1  0.85983000  0.86471000  0.06192000  1.0
  C  C161  1  0.80274000  0.29786000  0.43813000  1.0
  C  C162  1  0.14017000  0.13526000  0.93810000  1.0
  C  C163  1  0.19723000  0.70211000  0.56186000  1.0
  C  C164  1  0.74070000  0.54944000  0.88144000  1.0
  C  C165  1  0.66802000  0.35930000  0.61867000  1.0
  C  C166  1  0.25929000  0.45053000  0.11848000  1.0
  C  C167  1  0.33203000  0.64074000  0.38140000  1.0
  N  N168  1  0.50624000  0.57102000  0.70549000  1.0
  N  N169  1  0.86554000  0.30080000  0.79462000  1.0
  N  N170  1  0.49360000  0.42894000  0.29439000  1.0
  N  N171  1  0.13454000  0.69916000  0.20550000  1.0
  N  N172  1  0.65511000  0.12061000  0.74160000  1.0
  N  N173  1  0.37901000  0.41353000  0.75830000  1.0
  N  N174  1  0.34494000  0.87937000  0.25845000  1.0
  N  N175  1  0.62090000  0.58644000  0.24163000  1.0
  O  O176  1  0.39713000  0.31712000  0.56610000  1.0
  O  O177  1  0.75096000  0.33103000  0.93390000  1.0
  O  O178  1  0.60282000  0.68293000  0.43386000  1.0
  O  O179  1  0.24911000  0.66896000  0.06615000  1.0
  O  O180  1  0.36374000  0.14979000  0.57334000  1.0
  O  O181  1  0.57632000  0.29030000  0.92658000  1.0
  O  O182  1  0.63626000  0.85022000  0.42658000  1.0
  O  O183  1  0.42373000  0.70980000  0.07351000  1.0
  O  O184  1  0.02990000  0.01050000  0.10923000  1.0
  O  O185  1  0.90124000  0.42053000  0.39074000  1.0
  O  O186  1  0.97005000  0.98950000  0.89074000  1.0
  O  O187  1  0.09878000  0.57945000  0.60928000  1.0
  O  O188  1  0.64006000  0.52805000  0.87204000  1.0
  O  O189  1  0.65597000  0.26806000  0.62805000  1.0
  O  O190  1  0.35989000  0.47201000  0.12778000  1.0
  O  O191  1  0.34424000  0.73204000  0.37210000  1.0
  O  O192  1  0.78254000  0.47766000  0.84661000  1.0
  O  O193  1  0.63110000  0.43601000  0.65350000  1.0
  O  O194  1  0.21741000  0.52235000  0.15323000  1.0
  O  O195  1  0.36904000  0.56408000  0.34663000  1.0
  O  O196  1  0.53450000  0.28455000  0.75005000  1.0
  O  O197  1  0.46561000  0.71555000  0.24996000  1.0
