# generated using pymatgen
data_Zn4H12C28S2Cl2O13
_symmetry_space_group_name_H-M   'P 1'
_cell_length_a   18.54150000
_cell_length_b   19.70960000
_cell_length_c   32.75180000
_cell_angle_alpha   85.98200000
_cell_angle_beta   73.64260000
_cell_angle_gamma   62.09210000
_symmetry_Int_Tables_number   1
_chemical_formula_structural   Zn4H12C28S2Cl2O13
_chemical_formula_sum   'Zn16 H48 C112 S8 Cl8 O52'
_cell_volume   10121.95428998
_cell_formula_units_Z   4
loop_
 _symmetry_equiv_pos_site_id
 _symmetry_equiv_pos_as_xyz
  1  'x, y, z'
loop_
 _atom_site_type_symbol
 _atom_site_label
 _atom_site_symmetry_multiplicity
 _atom_site_fract_x
 _atom_site_fract_y
 _atom_site_fract_z
 _atom_site_occupancy
  Zn  Zn0  1  0.87311000  0.55618000  0.51908000  1.0
  Zn  Zn1  1  0.03968000  0.48179000  0.43843000  1.0
  Zn  Zn2  1  0.04261000  0.39941000  0.52441000  1.0
  Zn  Zn3  1  0.04605000  0.56120000  0.51744000  1.0
  Zn  Zn4  1  0.62572000  0.19104000  0.73231000  1.0
  Zn  Zn5  1  0.46288000  0.35088000  0.72633000  1.0
  Zn  Zn6  1  0.45700000  0.26468000  0.81248000  1.0
  Zn  Zn7  1  0.45462000  0.19203000  0.72878000  1.0
  Zn  Zn8  1  0.46178000  0.76459000  0.31274000  1.0
  Zn  Zn9  1  0.45541000  0.68984000  0.23100000  1.0
  Zn  Zn10  1  0.62533000  0.69493000  0.22984000  1.0
  Zn  Zn11  1  0.45664000  0.85154000  0.22624000  1.0
  Zn  Zn12  1  0.03786000  0.89885000  0.02373000  1.0
  Zn  Zn13  1  0.04872000  0.05801000  0.01915000  1.0
  Zn  Zn14  1  0.87609000  0.05860000  0.01962000  1.0
  Zn  Zn15  1  0.03804000  0.98493000  0.93735000  1.0
  H  H16  1  0.69408000  0.78381000  0.59455000  1.0
  H  H17  1  0.80509000  0.96526000  0.65533000  1.0
  H  H18  1  0.18746000  0.27365000  0.35049000  1.0
  H  H19  1  0.31289000  0.97336000  0.40169000  1.0
  H  H20  1  0.81026000  0.24370000  0.65399000  1.0
  H  H21  1  0.54440000  0.48582000  0.61969000  1.0
  H  H22  1  0.54984000  0.52632000  0.66501000  1.0
  H  H23  1  0.65114000  0.56933000  0.61678000  1.0
  H  H24  1  0.64562000  0.52912000  0.57142000  1.0
  H  H25  1  0.29283000  0.60376000  0.29543000  1.0
  H  H26  1  0.34962000  0.67244000  0.43490000  1.0
  H  H27  1  0.25925000  0.76077000  0.43219000  1.0
  H  H28  1  0.16214000  0.71043000  0.47723000  1.0
  H  H29  1  0.25226000  0.62212000  0.48001000  1.0
  H  H30  1  0.80910000  0.60364000  0.29555000  1.0
  H  H31  1  0.54801000  0.76121000  0.43116000  1.0
  H  H32  1  0.54273000  0.67299000  0.43359000  1.0
  H  H33  1  0.64333000  0.62281000  0.47969000  1.0
  H  H34  1  0.64878000  0.71093000  0.47708000  1.0
  H  H35  1  0.30812000  0.45723000  0.64661000  1.0
  H  H36  1  0.32882000  0.18031000  0.62960000  1.0
  H  H37  1  0.23818000  0.22082000  0.67498000  1.0
  H  H38  1  0.14256000  0.27434000  0.62632000  1.0
  H  H39  1  0.23331000  0.23374000  0.58106000  1.0
  H  H40  1  0.31218000  0.58937000  0.78686000  1.0
  H  H41  1  0.18803000  0.66023000  0.96302000  1.0
  H  H42  1  0.69069000  0.14759000  0.95533000  1.0
  H  H43  1  0.95484000  0.07791000  0.81618000  1.0
  H  H44  1  0.94986000  0.98952000  0.81882000  1.0
  H  H45  1  0.84786000  0.03983000  0.77352000  1.0
  H  H46  1  0.85270000  0.12822000  0.77098000  1.0
  H  H47  1  0.19217000  0.05183000  0.84525000  1.0
  H  H48  1  0.17160000  0.21608000  0.97520000  1.0
  H  H49  1  0.26255000  0.12799000  0.97753000  1.0
  H  H50  1  0.35764000  0.17437000  0.92626000  1.0
  H  H51  1  0.26670000  0.26231000  0.92398000  1.0
  H  H52  1  0.57755000  0.46745000  0.15599000  1.0
  H  H53  1  0.92871000  0.28247000  0.09403000  1.0
  H  H54  1  0.19197000  0.79463000  0.10317000  1.0
  H  H55  1  0.26205000  0.03125000  0.07504000  1.0
  H  H56  1  0.17117000  0.07149000  0.12036000  1.0
  H  H57  1  0.26634000  0.01786000  0.16903000  1.0
  H  H58  1  0.35728000  0.97776000  0.12381000  1.0
  H  H59  1  0.69092000  0.00667000  0.09621000  1.0
  H  H60  1  0.94985000  0.72282000  0.08536000  1.0
  H  H61  1  0.95473000  0.76317000  0.13092000  1.0
  H  H62  1  0.85241000  0.72087000  0.17870000  1.0
  H  H63  1  0.84772000  0.68023000  0.13325000  1.0
  C  C64  1  0.86292000  0.56712000  0.43077000  1.0
  C  C65  1  0.12536000  0.31348000  0.43998000  1.0
  C  C66  1  0.86477000  0.42858000  0.56875000  1.0
  C  C67  1  0.13944000  0.43532000  0.56812000  1.0
  C  C68  1  0.87371000  0.68458000  0.56074000  1.0
  C  C69  1  0.13771000  0.56804000  0.42989000  1.0
  C  C70  1  0.63823000  0.31884000  0.68172000  1.0
  C  C71  1  0.37611000  0.43441000  0.81134000  1.0
  C  C72  1  0.63411000  0.18156000  0.82071000  1.0
  C  C73  1  0.36107000  0.18007000  0.81688000  1.0
  C  C74  1  0.62564000  0.06517000  0.68838000  1.0
  C  C75  1  0.36290000  0.31931000  0.68080000  1.0
  C  C76  1  0.36334000  0.68097000  0.31979000  1.0
  C  C77  1  0.62596000  0.56564000  0.18858000  1.0
  C  C78  1  0.63713000  0.68213000  0.31916000  1.0
  C  C79  1  0.63393000  0.82201000  0.18040000  1.0
  C  C80  1  0.37515000  0.93390000  0.31191000  1.0
  C  C81  1  0.36162000  0.81596000  0.18110000  1.0
  C  C82  1  0.13816000  0.93180000  0.06854000  1.0
  C  C83  1  0.87920000  0.18462000  0.06155000  1.0
  C  C84  1  0.86274000  0.93079000  0.06899000  1.0
  C  C85  1  0.86262000  0.06903000  0.93098000  1.0
  C  C86  1  0.12232000  0.81532000  0.93854000  1.0
  C  C87  1  0.13825000  0.06879000  0.93127000  1.0
  C  C88  1  0.73718000  0.80227000  0.60061000  1.0
  C  C89  1  0.76200000  0.94688000  0.64919000  1.0
  C  C90  1  0.82474000  0.75913000  0.58589000  1.0
  C  C91  1  0.67443000  0.99027000  0.66368000  1.0
  C  C92  1  0.78496000  0.87854000  0.62613000  1.0
  C  C93  1  0.71420000  0.87074000  0.62357000  1.0
  C  C94  1  0.20115000  0.22649000  0.37133000  1.0
  C  C95  1  0.29922000  0.02053000  0.38088000  1.0
  C  C96  1  0.17451000  0.23860000  0.41534000  1.0
  C  C97  1  0.32591000  0.00848000  0.33685000  1.0
  C  C98  1  0.25380000  0.09987000  0.39352000  1.0
  C  C99  1  0.24660000  0.14715000  0.35873000  1.0
  C  C100  1  0.69551000  0.34661000  0.65300000  1.0
  C  C101  1  0.81053000  0.39749000  0.59740000  1.0
  C  C102  1  0.66596000  0.41833000  0.63610000  1.0
  C  C103  1  0.84028000  0.32424000  0.61485000  1.0
  C  C104  1  0.72195000  0.44203000  0.60939000  1.0
  C  C105  1  0.78425000  0.30026000  0.64157000  1.0
  C  C106  1  0.58754000  0.49229000  0.63435000  1.0
  C  C107  1  0.65086000  0.51934000  0.60412000  1.0
  C  C108  1  0.30598000  0.65273000  0.34788000  1.0
  C  C109  1  0.19404000  0.59598000  0.40037000  1.0
  C  C110  1  0.27987000  0.66368000  0.39224000  1.0
  C  C111  1  0.22034000  0.58563000  0.35499000  1.0
  C  C112  1  0.22601000  0.63604000  0.41710000  1.0
  C  C113  1  0.27458000  0.61305000  0.32999000  1.0
  C  C114  1  0.28574000  0.69784000  0.43044000  1.0
  C  C115  1  0.22485000  0.66639000  0.45869000  1.0
  C  C116  1  0.69421000  0.65313000  0.34748000  1.0
  C  C117  1  0.80877000  0.59560000  0.40091000  1.0
  C  C118  1  0.66442000  0.66386000  0.39182000  1.0
  C  C119  1  0.83885000  0.58531000  0.35550000  1.0
  C  C120  1  0.72017000  0.63594000  0.41714000  1.0
  C  C121  1  0.78295000  0.61313000  0.33007000  1.0
  C  C122  1  0.58577000  0.69829000  0.42958000  1.0
  C  C123  1  0.64877000  0.66680000  0.45839000  1.0
  C  C124  1  0.30566000  0.34885000  0.65260000  1.0
  C  C125  1  0.19601000  0.40926000  0.59681000  1.0
  C  C126  1  0.27189000  0.30684000  0.63971000  1.0
  C  C127  1  0.23065000  0.45193000  0.61023000  1.0
  C  C128  1  0.21914000  0.33657000  0.61288000  1.0
  C  C129  1  0.28334000  0.42232000  0.63722000  1.0
  C  C130  1  0.26778000  0.23168000  0.64285000  1.0
  C  C131  1  0.20799000  0.26513000  0.61245000  1.0
  C  C132  1  0.29917000  0.58120000  0.82082000  1.0
  C  C133  1  0.20093000  0.66848000  0.92907000  1.0
  C  C134  1  0.32698000  0.50891000  0.83645000  1.0
  C  C135  1  0.17250000  0.74080000  0.91346000  1.0
  C  C136  1  0.24700000  0.61032000  0.89540000  1.0
  C  C137  1  0.25320000  0.63937000  0.85449000  1.0
  C  C138  1  0.80492000  0.09752000  0.90297000  1.0
  C  C139  1  0.68878000  0.15436000  0.85034000  1.0
  C  C140  1  0.83386000  0.08658000  0.85863000  1.0
  C  C141  1  0.65966000  0.16513000  0.89573000  1.0
  C  C142  1  0.77734000  0.11431000  0.83370000  1.0
  C  C143  1  0.71622000  0.13765000  0.92079000  1.0
  C  C144  1  0.91188000  0.05244000  0.82054000  1.0
  C  C145  1  0.84802000  0.08388000  0.79219000  1.0
  C  C146  1  0.19500000  0.09682000  0.90242000  1.0
  C  C147  1  0.30417000  0.15056000  0.84424000  1.0
  C  C148  1  0.22851000  0.13745000  0.91697000  1.0
  C  C149  1  0.26954000  0.10910000  0.82959000  1.0
  C  C150  1  0.28096000  0.16299000  0.88863000  1.0
  C  C151  1  0.21706000  0.08332000  0.85796000  1.0
  C  C152  1  0.23264000  0.17059000  0.95608000  1.0
  C  C153  1  0.29216000  0.19957000  0.92402000  1.0
  C  C154  1  0.64527000  0.44831000  0.14950000  1.0
  C  C155  1  0.86095000  0.30184000  0.10050000  1.0
  C  C156  1  0.67647000  0.49102000  0.16358000  1.0
  C  C157  1  0.82952000  0.25928000  0.08643000  1.0
  C  C158  1  0.79399000  0.37077000  0.12342000  1.0
  C  C159  1  0.71232000  0.37954000  0.12649000  1.0
  C  C160  1  0.19495000  0.90272000  0.09695000  1.0
  C  C161  1  0.30448000  0.84237000  0.15275000  1.0
  C  C162  1  0.22844000  0.94489000  0.10997000  1.0
  C  C163  1  0.26976000  0.79971000  0.13940000  1.0
  C  C164  1  0.28103000  0.91520000  0.13686000  1.0
  C  C165  1  0.21707000  0.82936000  0.11243000  1.0
  C  C166  1  0.23228000  0.02021000  0.10707000  1.0
  C  C167  1  0.29191000  0.98670000  0.13755000  1.0
  C  C168  1  0.80505000  0.90303000  0.09724000  1.0
  C  C169  1  0.68871000  0.85274000  0.15197000  1.0
  C  C170  1  0.83388000  0.83111000  0.11392000  1.0
  C  C171  1  0.65971000  0.92614000  0.13470000  1.0
  C  C172  1  0.77725000  0.80770000  0.14027000  1.0
  C  C173  1  0.71636000  0.94991000  0.10844000  1.0
  C  C174  1  0.91182000  0.75696000  0.11596000  1.0
  C  C175  1  0.84784000  0.73032000  0.14588000  1.0
  S  S176  1  0.87949000  0.80115000  0.59984000  1.0
  S  S177  1  0.61966000  0.94841000  0.64957000  1.0
  S  S178  1  0.20429000  0.15417000  0.44164000  1.0
  S  S179  1  0.29616000  0.09296000  0.31062000  1.0
  S  S180  1  0.29789000  0.51107000  0.89186000  1.0
  S  S181  1  0.20166000  0.73861000  0.85804000  1.0
  S  S182  1  0.78700000  0.44810000  0.14900000  1.0
  S  S183  1  0.71904000  0.30243000  0.10091000  1.0
  Cl  Cl184  1  0.94718000  0.25862000  0.60489000  1.0
  Cl  Cl185  1  0.18661000  0.54040000  0.32685000  1.0
  Cl  Cl186  1  0.94576000  0.53903000  0.32770000  1.0
  Cl  Cl187  1  0.21138000  0.54326000  0.59450000  1.0
  Cl  Cl188  1  0.55290000  0.21245000  0.92389000  1.0
  Cl  Cl189  1  0.28799000  0.08767000  0.77604000  1.0
  Cl  Cl190  1  0.28801000  0.70892000  0.15557000  1.0
  Cl  Cl191  1  0.55300000  0.99214000  0.14439000  1.0
  O  O192  1  0.99823000  0.50066000  0.50078000  1.0
  O  O193  1  0.82340000  0.58484000  0.47054000  1.0
  O  O194  1  0.10345000  0.37280000  0.41847000  1.0
  O  O195  1  0.94496000  0.38707000  0.55894000  1.0
  O  O196  1  0.94279000  0.52764000  0.41489000  1.0
  O  O197  1  0.82465000  0.49579000  0.55642000  1.0
  O  O198  1  0.10891000  0.31257000  0.48063000  1.0
  O  O199  1  0.11698000  0.38669000  0.55981000  1.0
  O  O200  1  0.95467000  0.65710000  0.55014000  1.0
  O  O201  1  0.11803000  0.50192000  0.55432000  1.0
  O  O202  1  0.83180000  0.65430000  0.55184000  1.0
  O  O203  1  0.11843000  0.52352000  0.41437000  1.0
  O  O204  1  0.11386000  0.59119000  0.46929000  1.0
  O  O205  1  0.50086000  0.24966000  0.74989000  1.0
  O  O206  1  0.67319000  0.25188000  0.69495000  1.0
  O  O207  1  0.39795000  0.43626000  0.77080000  1.0
  O  O208  1  0.55395000  0.21875000  0.83650000  1.0
  O  O209  1  0.55858000  0.36522000  0.69053000  1.0
  O  O210  1  0.67406000  0.16456000  0.78094000  1.0
  O  O211  1  0.39242000  0.37441000  0.83249000  1.0
  O  O212  1  0.38094000  0.21965000  0.83672000  1.0
  O  O213  1  0.54466000  0.09542000  0.69658000  1.0
  O  O214  1  0.38563000  0.16401000  0.77686000  1.0
  O  O215  1  0.66759000  0.09336000  0.69934000  1.0
  O  O216  1  0.38778000  0.36437000  0.69109000  1.0
  O  O217  1  0.38224000  0.25100000  0.69211000  1.0
  O  O218  1  0.50045000  0.75042000  0.25023000  1.0
  O  O219  1  0.38697000  0.71856000  0.33842000  1.0
  O  O220  1  0.54523000  0.59259000  0.19928000  1.0
  O  O221  1  0.67238000  0.66903000  0.27902000  1.0
  O  O222  1  0.38383000  0.66528000  0.27971000  1.0
  O  O223  1  0.55743000  0.71788000  0.33789000  1.0
  O  O224  1  0.66738000  0.59675000  0.19738000  1.0
  O  O225  1  0.67389000  0.75439000  0.19230000  1.0
  O  O226  1  0.39209000  0.93595000  0.27131000  1.0
  O  O227  1  0.55371000  0.86381000  0.19057000  1.0
  O  O228  1  0.39660000  0.87393000  0.33300000  1.0
  O  O229  1  0.38829000  0.74717000  0.19203000  1.0
  O  O230  1  0.37971000  0.86610000  0.19192000  1.0
  O  O231  1  0.00073000  0.00004000  0.99991000  1.0
  O  O232  1  0.11239000  0.88696000  0.05892000  1.0
  O  O233  1  0.96014000  0.15540000  0.05167000  1.0
  O  O234  1  0.82797000  0.99869000  0.05681000  1.0
  O  O235  1  0.12020000  0.99943000  0.05636000  1.0
  O  O236  1  0.94232000  0.88388000  0.05937000  1.0
  O  O237  1  0.83651000  0.15558000  0.05199000  1.0
  O  O238  1  0.82785000  0.08454000  0.97106000  1.0
  O  O239  1  0.10262000  0.87534000  0.91730000  1.0
  O  O240  1  0.94221000  0.03136000  0.91225000  1.0
  O  O241  1  0.10282000  0.81361000  0.97911000  1.0
  O  O242  1  0.12009000  0.08471000  0.97119000  1.0
  O  O243  1  0.11268000  0.03167000  0.91373000  1.0
