# generated using pymatgen
data_YH6C9(ClO3)3
_symmetry_space_group_name_H-M   'P 1'
_cell_length_a   9.13736000
_cell_length_b   10.06660000
_cell_length_c   10.81350000
_cell_angle_alpha   65.53020000
_cell_angle_beta   67.63850000
_cell_angle_gamma   70.94080000
_symmetry_Int_Tables_number   1
_chemical_formula_structural   YH6C9(ClO3)3
_chemical_formula_sum   'Y2 H12 C18 Cl6 O18'
_cell_volume   820.19204284
_cell_formula_units_Z   2
loop_
 _symmetry_equiv_pos_site_id
 _symmetry_equiv_pos_as_xyz
  1  'x, y, z'
loop_
 _atom_site_type_symbol
 _atom_site_label
 _atom_site_symmetry_multiplicity
 _atom_site_fract_x
 _atom_site_fract_y
 _atom_site_fract_z
 _atom_site_occupancy
  Y  Y0  1  0.26090000  0.35516000  0.31225000  1.0
  Y  Y1  1  0.73910000  0.64484000  0.68775000  1.0
  H  H2  1  0.94116000  0.57589000  0.36631000  1.0
  H  H3  1  0.05882000  0.42416000  0.63370000  1.0
  H  H4  1  0.06515000  0.64358000  0.37086000  1.0
  H  H5  1  0.93488000  0.35648000  0.62907000  1.0
  H  H6  1  0.48917000  0.32916000  0.01741000  1.0
  H  H7  1  0.51066000  0.67073000  0.98258000  1.0
  H  H8  1  0.43950000  0.17614000  0.12404000  1.0
  H  H9  1  0.56044000  0.82374000  0.87608000  1.0
  H  H10  1  0.60334000  0.19684000  0.32901000  1.0
  H  H11  1  0.39670000  0.80320000  0.67091000  1.0
  H  H12  1  0.48963000  0.08359000  0.38792000  1.0
  H  H13  1  0.51042000  0.91641000  0.61216000  1.0
  C  C14  1  0.02547000  0.12421000  0.51614000  1.0
  C  C15  1  0.97448000  0.87583000  0.48391000  1.0
  C  C16  1  0.15187000  0.04451000  0.41458000  1.0
  C  C17  1  0.84810000  0.95550000  0.58549000  1.0
  C  C18  1  0.88124000  0.07375000  0.59968000  1.0
  C  C19  1  0.11873000  0.92628000  0.40038000  1.0
  C  C20  1  0.37458000  0.43315000  0.51973000  1.0
  C  C21  1  0.62543000  0.56685000  0.48024000  1.0
  C  C22  1  0.47764000  0.50729000  0.37074000  1.0
  C  C23  1  0.52237000  0.49273000  0.62922000  1.0
  C  C24  1  0.40445000  0.42386000  0.64165000  1.0
  C  C25  1  0.59557000  0.57614000  0.35831000  1.0
  C  C26  1  0.12018000  0.52808000  0.03960000  1.0
  C  C27  1  0.87987000  0.47191000  0.96037000  1.0
  C  C28  1  0.03274000  0.39711000  0.12744000  1.0
  C  C29  1  0.96731000  0.60288000  0.87255000  1.0
  C  C30  1  0.07196000  0.63255000  0.92052000  1.0
  C  C31  1  0.92811000  0.36744000  0.07945000  1.0
  Cl  Cl32  1  0.74393000  0.15830000  0.71984000  1.0
  Cl  Cl33  1  0.25607000  0.84171000  0.28023000  1.0
  Cl  Cl34  1  0.29436000  0.32620000  0.80580000  1.0
  Cl  Cl35  1  0.70566000  0.67378000  0.19418000  1.0
  Cl  Cl36  1  0.15000000  0.79310000  0.82522000  1.0
  Cl  Cl37  1  0.85007000  0.20687000  0.17473000  1.0
  O  O38  1  0.06247000  0.23485000  0.51718000  1.0
  O  O39  1  0.93748000  0.76519000  0.48284000  1.0
  O  O40  1  0.28179000  0.09403000  0.34817000  1.0
  O  O41  1  0.71821000  0.90596000  0.65193000  1.0
  O  O42  1  0.26181000  0.38359000  0.52262000  1.0
  O  O43  1  0.73819000  0.61642000  0.47736000  1.0
  O  O44  1  0.44573000  0.50152000  0.26844000  1.0
  O  O45  1  0.55424000  0.49851000  0.73153000  1.0
  O  O46  1  0.23019000  0.52958000  0.08252000  1.0
  O  O47  1  0.76985000  0.47041000  0.91746000  1.0
  O  O48  1  0.06339000  0.32053000  0.24474000  1.0
  O  O49  1  0.93664000  0.67946000  0.75525000  1.0
  O  O50  1  0.05913000  0.56812000  0.33788000  1.0
  O  O51  1  0.94085000  0.43192000  0.66208000  1.0
  O  O52  1  0.46209000  0.26758000  0.11719000  1.0
  O  O53  1  0.53785000  0.73235000  0.88282000  1.0
  O  O54  1  0.49922000  0.17337000  0.39633000  1.0
  O  O55  1  0.50082000  0.82670000  0.60361000  1.0
