# generated using pymatgen
data_AlH5C9ClO6
_symmetry_space_group_name_H-M   'P 1'
_cell_length_a   6.68665000
_cell_length_b   8.91753000
_cell_length_c   15.31410974
_cell_angle_alpha   94.79911858
_cell_angle_beta   102.30366003
_cell_angle_gamma   105.84690000
_symmetry_Int_Tables_number   1
_chemical_formula_structural   AlH5C9ClO6
_chemical_formula_sum   'Al2 H10 C18 Cl2 O12'
_cell_volume   848.44398802
_cell_formula_units_Z   2
loop_
 _symmetry_equiv_pos_site_id
 _symmetry_equiv_pos_as_xyz
  1  'x, y, z'
loop_
 _atom_site_type_symbol
 _atom_site_label
 _atom_site_symmetry_multiplicity
 _atom_site_fract_x
 _atom_site_fract_y
 _atom_site_fract_z
 _atom_site_occupancy
  Al  Al0  1  0.99996000  0.49997000  0.49999000  1.0
  Al  Al1  1  0.49999000  0.50001000  0.50000000  1.0
  H  H2  1  0.14939000  0.32139000  0.42545000  1.0
  H  H3  1  0.85057000  0.67863000  0.57454000  1.0
  H  H4  1  0.76757000  0.44957000  0.93240000  1.0
  H  H5  1  0.23260000  0.55063000  0.06761000  1.0
  H  H6  1  0.91798000  0.47544000  0.22621000  1.0
  H  H7  1  0.83869000  0.46514000  0.06236000  1.0
  H  H8  1  0.08200000  0.52447000  0.77382000  1.0
  H  H9  1  0.16131000  0.53474000  0.93767000  1.0
  H  H10  1  0.66271000  0.44106000  0.69868000  1.0
  H  H11  1  0.33733000  0.55903000  0.30132000  1.0
  C  C12  1  0.67043000  0.51094000  0.33840000  1.0
  C  C13  1  0.64795000  0.21759000  0.48758000  1.0
  C  C14  1  0.32954000  0.48904000  0.66159000  1.0
  C  C15  1  0.35198000  0.78239000  0.51241000  1.0
  C  C16  1  0.42274000  0.95897000  0.51874000  1.0
  C  C17  1  0.57724000  0.04102000  0.48124000  1.0
  C  C18  1  0.37766000  0.48544000  0.75924000  1.0
  C  C19  1  0.62235000  0.51454000  0.24078000  1.0
  C  C20  1  0.57185000  0.46250000  0.80626000  1.0
  C  C21  1  0.61628000  0.46788000  0.90021000  1.0
  C  C22  1  0.42823000  0.53757000  0.19373000  1.0
  C  C23  1  0.38384000  0.53221000  0.09979000  1.0
  C  C24  1  0.76701000  0.49007000  0.19055000  1.0
  C  C25  1  0.72139000  0.48511000  0.09782000  1.0
  C  C26  1  0.23296000  0.50987000  0.80945000  1.0
  C  C27  1  0.27862000  0.51487000  0.90218000  1.0
  C  C28  1  0.47371000  0.49561000  0.95007000  1.0
  C  C29  1  0.52635000  0.50440000  0.04994000  1.0
  Cl  Cl30  1  0.28886000  0.04983000  0.57957000  1.0
  Cl  Cl31  1  0.71111000  0.95019000  0.42042000  1.0
  O  O32  1  0.84432000  0.48664000  0.37745000  1.0
  O  O33  1  0.50257000  0.28550000  0.47724000  1.0
  O  O34  1  0.47307000  0.47039000  0.61982000  1.0
  O  O35  1  0.15213000  0.71667000  0.49878000  1.0
  O  O36  1  0.15562000  0.51329000  0.62255000  1.0
  O  O37  1  0.49731000  0.71447000  0.52275000  1.0
  O  O38  1  0.52696000  0.52962000  0.38018000  1.0
  O  O39  1  0.84778000  0.28329000  0.50123000  1.0
  O  O40  1  0.20298000  0.43030000  0.45480000  1.0
  O  O41  1  0.79700000  0.56970000  0.54521000  1.0
  O  O42  1  0.71945000  0.43603000  0.76397000  1.0
  O  O43  1  0.28062000  0.56411000  0.23600000  1.0
