# generated using pymatgen
data_Cd3H14C12(NO4)4
_symmetry_space_group_name_H-M   'P 1'
_cell_length_a   9.49111000
_cell_length_b   9.49115000
_cell_length_c   12.33130000
_cell_angle_alpha   89.16810000
_cell_angle_beta   89.17030000
_cell_angle_gamma   68.47710000
_symmetry_Int_Tables_number   1
_chemical_formula_structural   Cd3H14C12(NO4)4
_chemical_formula_sum   'Cd6 H28 C24 N8 O32'
_cell_volume   1033.20710698
_cell_formula_units_Z   2
loop_
 _symmetry_equiv_pos_site_id
 _symmetry_equiv_pos_as_xyz
  1  'x, y, z'
loop_
 _atom_site_type_symbol
 _atom_site_label
 _atom_site_symmetry_multiplicity
 _atom_site_fract_x
 _atom_site_fract_y
 _atom_site_fract_z
 _atom_site_occupancy
  Cd  Cd0  1  0.93119000  0.81308000  0.41493000  1.0
  Cd  Cd1  1  0.18693000  0.06880000  0.08507000  1.0
  Cd  Cd2  1  0.06880000  0.18693000  0.58506000  1.0
  Cd  Cd3  1  0.81307000  0.93120000  0.91493000  1.0
  Cd  Cd4  1  0.50000000  0.00000000  0.50000000  1.0
  Cd  Cd5  1  0.00000000  0.50000000  0.00000000  1.0
  H  H6  1  0.48725000  0.52826000  0.64047000  1.0
  H  H7  1  0.47174000  0.51275000  0.85953000  1.0
  H  H8  1  0.51274000  0.47174000  0.35952000  1.0
  H  H9  1  0.52827000  0.48725000  0.14047000  1.0
  H  H10  1  0.07034000  0.58785000  0.58821000  1.0
  H  H11  1  0.41215000  0.92966000  0.91179000  1.0
  H  H12  1  0.92966000  0.41215000  0.41179000  1.0
  H  H13  1  0.58785000  0.07033000  0.08821000  1.0
  H  H14  1  0.89033000  0.66048000  0.60944000  1.0
  H  H15  1  0.33951000  0.10967000  0.89055000  1.0
  H  H16  1  0.10967000  0.33952000  0.39055000  1.0
  H  H17  1  0.66049000  0.89032000  0.10945000  1.0
  H  H18  1  0.70174000  0.04057000  0.29776000  1.0
  H  H19  1  0.95945000  0.29825000  0.20224000  1.0
  H  H20  1  0.29825000  0.95944000  0.70224000  1.0
  H  H21  1  0.04055000  0.70175000  0.79776000  1.0
  H  H22  1  0.82548000  0.97240000  0.20865000  1.0
  H  H23  1  0.02760000  0.17450000  0.29135000  1.0
  H  H24  1  0.17451000  0.02760000  0.79136000  1.0
  H  H25  1  0.97239000  0.82550000  0.70864000  1.0
  H  H26  1  0.47316000  0.04112000  0.26762000  1.0
  H  H27  1  0.95888000  0.52685000  0.23238000  1.0
  H  H28  1  0.52684000  0.95888000  0.73238000  1.0
  H  H29  1  0.04112000  0.47315000  0.76762000  1.0
  H  H30  1  0.43578000  0.20700000  0.31614000  1.0
  H  H31  1  0.79301000  0.56421000  0.18385000  1.0
  H  H32  1  0.56421000  0.79301000  0.68386000  1.0
  H  H33  1  0.20699000  0.43579000  0.81615000  1.0
  C  C34  1  0.75547000  0.12621000  0.56542000  1.0
  C  C35  1  0.87381000  0.24452000  0.93459000  1.0
  C  C36  1  0.24452000  0.87380000  0.43459000  1.0
  C  C37  1  0.12619000  0.75547000  0.06541000  1.0
  C  C38  1  0.50819000  0.30619000  0.58456000  1.0
  C  C39  1  0.69381000  0.49181000  0.91544000  1.0
  C  C40  1  0.49181000  0.69381000  0.41544000  1.0
  C  C41  1  0.30619000  0.50819000  0.08456000  1.0
  C  C42  1  0.33848000  0.33804000  0.58184000  1.0
  C  C43  1  0.66196000  0.66152000  0.91816000  1.0
  C  C44  1  0.66153000  0.66196000  0.41816000  1.0
  C  C45  1  0.33805000  0.33847000  0.08184000  1.0
  C  C46  1  0.56353000  0.41569000  0.61820000  1.0
  C  C47  1  0.58431000  0.43647000  0.88180000  1.0
  C  C48  1  0.43647000  0.58431000  0.38180000  1.0
  C  C49  1  0.41570000  0.56352000  0.11820000  1.0
  C  C50  1  0.72076000  0.37098000  0.62349000  1.0
  C  C51  1  0.62902000  0.27924000  0.87651000  1.0
  C  C52  1  0.27924000  0.62902000  0.37651000  1.0
  C  C53  1  0.37098000  0.72076000  0.12349000  1.0
  C  C54  1  0.79861000  0.47552000  0.66206000  1.0
  C  C55  1  0.52448000  0.20139000  0.83795000  1.0
  C  C56  1  0.20139000  0.52448000  0.33794000  1.0
  C  C57  1  0.47552000  0.79861000  0.16205000  1.0
  N  N58  1  0.60134000  0.16708000  0.55717000  1.0
  N  N59  1  0.83292000  0.39867000  0.94284000  1.0
  N  N60  1  0.39867000  0.83292000  0.44284000  1.0
  N  N61  1  0.16708000  0.60133000  0.05716000  1.0
  N  N62  1  0.81362000  0.23126000  0.59756000  1.0
  N  N63  1  0.76874000  0.18638000  0.90244000  1.0
  N  N64  1  0.18638000  0.76874000  0.40244000  1.0
  N  N65  1  0.23126000  0.81362000  0.09755000  1.0
  O  O66  1  0.84293000  0.99207000  0.54752000  1.0
  O  O67  1  0.00793000  0.15709000  0.95248000  1.0
  O  O68  1  0.15708000  0.00793000  0.45248000  1.0
  O  O69  1  0.99207000  0.84291000  0.04752000  1.0
  O  O70  1  0.30091000  0.22283000  0.56629000  1.0
  O  O71  1  0.77717000  0.69909000  0.93371000  1.0
  O  O72  1  0.69910000  0.77718000  0.43371000  1.0
  O  O73  1  0.22283000  0.30090000  0.06629000  1.0
  O  O74  1  0.25177000  0.47188000  0.59642000  1.0
  O  O75  1  0.52811000  0.74823000  0.90359000  1.0
  O  O76  1  0.74823000  0.52812000  0.40360000  1.0
  O  O77  1  0.47189000  0.25177000  0.09641000  1.0
  O  O78  1  0.72411000  0.61560000  0.66734000  1.0
  O  O79  1  0.38440000  0.27589000  0.83266000  1.0
  O  O80  1  0.27589000  0.38441000  0.33265000  1.0
  O  O81  1  0.61560000  0.72410000  0.16734000  1.0
  O  O82  1  0.93915000  0.41176000  0.68553000  1.0
  O  O83  1  0.58823000  0.06086000  0.81447000  1.0
  O  O84  1  0.06085000  0.58824000  0.31447000  1.0
  O  O85  1  0.41177000  0.93914000  0.18553000  1.0
  O  O86  1  0.97813000  0.68178000  0.58104000  1.0
  O  O87  1  0.31821000  0.02187000  0.91896000  1.0
  O  O88  1  0.02187000  0.31822000  0.41896000  1.0
  O  O89  1  0.68179000  0.97813000  0.08105000  1.0
  O  O90  1  0.81336000  0.99253000  0.28691000  1.0
  O  O91  1  0.00747000  0.18664000  0.21309000  1.0
  O  O92  1  0.18663000  0.00747000  0.71309000  1.0
  O  O93  1  0.99252000  0.81337000  0.78691000  1.0
  O  O94  1  0.50622000  0.10044000  0.32192000  1.0
  O  O95  1  0.89956000  0.49377000  0.17808000  1.0
  O  O96  1  0.49377000  0.89956000  0.67808000  1.0
  O  O97  1  0.10044000  0.50623000  0.82192000  1.0
