# generated using pymatgen
data_AlH5C12O5
_symmetry_space_group_name_H-M   'P 1'
_cell_length_a   6.69829000
_cell_length_b   17.87070000
_cell_length_c   19.69500000
_cell_angle_alpha   104.44800000
_cell_angle_beta   90.00000000
_cell_angle_gamma   89.99970000
_symmetry_Int_Tables_number   1
_chemical_formula_structural   AlH5C12O5
_chemical_formula_sum   'Al4 H20 C48 O20'
_cell_volume   2282.99432057
_cell_formula_units_Z   4
loop_
 _symmetry_equiv_pos_site_id
 _symmetry_equiv_pos_as_xyz
  1  'x, y, z'
loop_
 _atom_site_type_symbol
 _atom_site_label
 _atom_site_symmetry_multiplicity
 _atom_site_fract_x
 _atom_site_fract_y
 _atom_site_fract_z
 _atom_site_occupancy
  Al  Al0  1  0.24159000  0.74952000  0.74918000  1.0
  Al  Al1  1  0.75841000  0.25049000  0.25082000  1.0
  Al  Al2  1  0.74159000  0.75048000  0.75082000  1.0
  Al  Al3  1  0.25841000  0.24952000  0.24918000  1.0
  H  H4  1  0.29568000  0.34272000  0.07585000  1.0
  H  H5  1  0.70431000  0.65728000  0.92416000  1.0
  H  H6  1  0.79568000  0.15728000  0.42415000  1.0
  H  H7  1  0.20432000  0.84272000  0.57585000  1.0
  H  H8  1  0.55297000  0.53188000  0.10694000  1.0
  H  H9  1  0.44703000  0.46812000  0.89306000  1.0
  H  H10  1  0.05297000  0.96812000  0.39306000  1.0
  H  H11  1  0.94703000  0.03188000  0.60694000  1.0
  H  H12  1  0.54825000  0.61526000  0.02396000  1.0
  H  H13  1  0.45175000  0.38475000  0.97604000  1.0
  H  H14  1  0.04825000  0.88475000  0.47604000  1.0
  H  H15  1  0.95175000  0.11525000  0.52396000  1.0
  H  H16  1  0.71646000  0.42830000  0.15191000  1.0
  H  H17  1  0.28354000  0.57171000  0.84809000  1.0
  H  H18  1  0.21645000  0.07170000  0.34809000  1.0
  H  H19  1  0.78355000  0.92830000  0.65191000  1.0
  H  H20  1  0.49298000  0.64846000  0.72907000  1.0
  H  H21  1  0.50702000  0.35154000  0.27094000  1.0
  H  H22  1  0.99298000  0.85154000  0.77094000  1.0
  H  H23  1  0.00703000  0.14846000  0.22906000  1.0
  C  C24  1  0.49052000  0.85478000  0.85538000  1.0
  C  C25  1  0.50949000  0.14522000  0.14462000  1.0
  C  C26  1  0.99050000  0.64522000  0.64462000  1.0
  C  C27  1  0.00949000  0.35478000  0.35538000  1.0
  C  C28  1  0.49157000  0.83155000  0.66886000  1.0
  C  C29  1  0.50844000  0.16844000  0.33114000  1.0
  C  C30  1  0.99154000  0.66845000  0.83114000  1.0
  C  C31  1  0.00845000  0.33156000  0.16886000  1.0
  C  C32  1  0.16862000  0.38011000  0.07324000  1.0
  C  C33  1  0.83137000  0.61989000  0.92676000  1.0
  C  C34  1  0.66861000  0.11989000  0.42676000  1.0
  C  C35  1  0.33139000  0.88011000  0.57324000  1.0
  C  C36  1  0.00626000  0.38115000  0.11820000  1.0
  C  C37  1  0.99374000  0.61885000  0.88180000  1.0
  C  C38  1  0.50626000  0.11885000  0.38180000  1.0
  C  C39  1  0.49374000  0.88115000  0.61820000  1.0
  C  C40  1  0.84175000  0.42900000  0.11669000  1.0
  C  C41  1  0.15825000  0.57100000  0.88331000  1.0
  C  C42  1  0.34174000  0.07100000  0.38331000  1.0
  C  C43  1  0.65826000  0.92900000  0.61669000  1.0
  C  C44  1  0.83851000  0.47834000  0.07138000  1.0
  C  C45  1  0.16149000  0.52166000  0.92862000  1.0
  C  C46  1  0.33851000  0.02166000  0.42862000  1.0
  C  C47  1  0.66149000  0.97834000  0.57138000  1.0
  C  C48  1  0.00141000  0.47606000  0.02387000  1.0
  C  C49  1  0.99859000  0.52394000  0.97613000  1.0
  C  C50  1  0.50141000  0.02394000  0.47613000  1.0
  C  C51  1  0.49859000  0.97606000  0.52387000  1.0
  C  C52  1  0.16693000  0.42549000  0.02445000  1.0
  C  C53  1  0.83307000  0.57451000  0.97555000  1.0
  C  C54  1  0.66693000  0.07451000  0.47555000  1.0
  C  C55  1  0.33307000  0.92549000  0.52445000  1.0
  C  C56  1  0.67677000  0.53067000  0.07064000  1.0
  C  C57  1  0.32323000  0.46933000  0.92936000  1.0
  C  C58  1  0.17677000  0.96932000  0.42936000  1.0
  C  C59  1  0.82323000  0.03068000  0.57064000  1.0
  C  C60  1  0.67411000  0.57671000  0.02478000  1.0
  C  C61  1  0.32589000  0.42329000  0.97522000  1.0
  C  C62  1  0.17412000  0.92329000  0.47522000  1.0
  C  C63  1  0.82588000  0.07671000  0.52478000  1.0
  C  C64  1  0.00965000  0.41712000  0.41819000  1.0
  C  C65  1  0.99034000  0.58288000  0.58181000  1.0
  C  C66  1  0.50966000  0.08288000  0.08181000  1.0
  C  C67  1  0.49034000  0.91712000  0.91819000  1.0
  C  C68  1  0.00340000  0.47055000  0.47087000  1.0
  C  C69  1  0.99660000  0.52944000  0.52912000  1.0
  C  C70  1  0.50340000  0.02944000  0.02912000  1.0
  C  C71  1  0.49660000  0.97055000  0.97087000  1.0
  O  O72  1  0.66022000  0.81475000  0.69122000  1.0
  O  O73  1  0.33978000  0.18525000  0.30878000  1.0
  O  O74  1  0.16021000  0.68525000  0.80877000  1.0
  O  O75  1  0.83979000  0.31475000  0.19123000  1.0
  O  O76  1  0.32112000  0.83081000  0.82969000  1.0
  O  O77  1  0.67889000  0.16918000  0.17031000  1.0
  O  O78  1  0.82113000  0.66918000  0.67031000  1.0
  O  O79  1  0.17888000  0.33082000  0.32969000  1.0
  O  O80  1  0.32149000  0.81090000  0.68684000  1.0
  O  O81  1  0.67851000  0.18910000  0.31316000  1.0
  O  O82  1  0.82149000  0.68910000  0.81317000  1.0
  O  O83  1  0.17852000  0.31090000  0.18683000  1.0
  O  O84  1  0.16151000  0.66940000  0.66841000  1.0
  O  O85  1  0.83848000  0.33060000  0.33159000  1.0
  O  O86  1  0.66150000  0.83061000  0.83159000  1.0
  O  O87  1  0.33850000  0.16940000  0.16841000  1.0
  O  O88  1  0.49203000  0.70429000  0.74451000  1.0
  O  O89  1  0.50797000  0.29571000  0.25549000  1.0
  O  O90  1  0.99203000  0.79571000  0.75549000  1.0
  O  O91  1  0.00797000  0.20429000  0.24451000  1.0
