# generated using pymatgen
data_LiH6C6N5
_symmetry_space_group_name_H-M   'P 1'
_cell_length_a   5.32057000
_cell_length_b   7.60527000
_cell_length_c   10.74580000
_cell_angle_alpha   90.00750000
_cell_angle_beta   89.99230000
_cell_angle_gamma   89.97670000
_symmetry_Int_Tables_number   1
_chemical_formula_structural   LiH6C6N5
_chemical_formula_sum   'Li2 H12 C12 N10'
_cell_volume   434.82199862
_cell_formula_units_Z   2
loop_
 _symmetry_equiv_pos_site_id
 _symmetry_equiv_pos_as_xyz
  1  'x, y, z'
loop_
 _atom_site_type_symbol
 _atom_site_label
 _atom_site_symmetry_multiplicity
 _atom_site_fract_x
 _atom_site_fract_y
 _atom_site_fract_z
 _atom_site_occupancy
  Li  Li0  1  0.11909000  0.75000000  0.25000000  1.0
  Li  Li1  1  0.88090000  0.25002000  0.75001000  1.0
  H  H2  1  0.93034000  0.75008000  0.47752000  1.0
  H  H3  1  0.93033000  0.75012000  0.02247000  1.0
  H  H4  1  0.06967000  0.24997000  0.52249000  1.0
  H  H5  1  0.06967000  0.24987000  0.97753000  1.0
  H  H6  1  0.76449000  0.86774000  0.59599000  1.0
  H  H7  1  0.76468000  0.63249000  0.90394000  1.0
  H  H8  1  0.23539000  0.36758000  0.40398000  1.0
  H  H9  1  0.23547000  0.13223000  0.09600000  1.0
  H  H10  1  0.23548000  0.13231000  0.40400000  1.0
  H  H11  1  0.23541000  0.36751000  0.09603000  1.0
  H  H12  1  0.76459000  0.63247000  0.59602000  1.0
  H  H13  1  0.76454000  0.86776000  0.90400000  1.0
  C  C14  1  0.80964000  0.10133000  0.25001000  1.0
  C  C15  1  0.80980000  0.39872000  0.25000000  1.0
  C  C16  1  0.19024000  0.60128000  0.75001000  1.0
  C  C17  1  0.19027000  0.89868000  0.75000000  1.0
  C  C18  1  0.53944000  0.75003000  0.46040000  1.0
  C  C19  1  0.53944000  0.75004000  0.03958000  1.0
  C  C20  1  0.46057000  0.24998000  0.53959000  1.0
  C  C21  1  0.46056000  0.24987000  0.96040000  1.0
  C  C22  1  0.76209000  0.75008000  0.53675000  1.0
  C  C23  1  0.76218000  0.75012000  0.96322000  1.0
  C  C24  1  0.23790000  0.24997000  0.46326000  1.0
  C  C25  1  0.23785000  0.24986000  0.03677000  1.0
  N  N26  1  0.68950000  0.25006000  0.25000000  1.0
  N  N27  1  0.31050000  0.74997000  0.75000000  1.0
  N  N28  1  0.90682000  0.96206000  0.25001000  1.0
  N  N29  1  0.90712000  0.53792000  0.25001000  1.0
  N  N30  1  0.09296000  0.46206000  0.75001000  1.0
  N  N31  1  0.09303000  0.03794000  0.75000000  1.0
  N  N32  1  0.35922000  0.74997000  0.39913000  1.0
  N  N33  1  0.35921000  0.74996000  0.10086000  1.0
  N  N34  1  0.64078000  0.25001000  0.60086000  1.0
  N  N35  1  0.64081000  0.24995000  0.89913000  1.0
