# generated using pymatgen
data_CdH8C6(N7O2)2
_symmetry_space_group_name_H-M   'P 1'
_cell_length_a   7.87964000
_cell_length_b   9.06463000
_cell_length_c   9.37883000
_cell_angle_alpha   89.99990000
_cell_angle_beta   90.00000000
_cell_angle_gamma   93.22380000
_symmetry_Int_Tables_number   1
_chemical_formula_structural   CdH8C6(N7O2)2
_chemical_formula_sum   'Cd2 H16 C12 N28 O8'
_cell_volume   668.83239848
_cell_formula_units_Z   2
loop_
 _symmetry_equiv_pos_site_id
 _symmetry_equiv_pos_as_xyz
  1  'x, y, z'
loop_
 _atom_site_type_symbol
 _atom_site_label
 _atom_site_symmetry_multiplicity
 _atom_site_fract_x
 _atom_site_fract_y
 _atom_site_fract_z
 _atom_site_occupancy
  Cd  Cd0  1  0.50000000  0.50000000  0.50000000  1.0
  Cd  Cd1  1  0.50000000  0.00000000  0.00000000  1.0
  H  H2  1  0.14737000  0.40723000  0.50808000  1.0
  H  H3  1  0.85263000  0.09277000  0.00808000  1.0
  H  H4  1  0.85263000  0.59277000  0.49192000  1.0
  H  H5  1  0.14737000  0.90723000  0.99192000  1.0
  H  H6  1  0.15192000  0.57642000  0.46851000  1.0
  H  H7  1  0.84808000  0.92358000  0.96851000  1.0
  H  H8  1  0.84808000  0.42358000  0.53149000  1.0
  H  H9  1  0.15192000  0.07642000  0.03149000  1.0
  H  H10  1  0.72020000  0.44824000  0.88279000  1.0
  H  H11  1  0.27981000  0.05176000  0.38279000  1.0
  H  H12  1  0.27981000  0.55176000  0.11721000  1.0
  H  H13  1  0.72019000  0.94824000  0.61721000  1.0
  H  H14  1  0.82855000  0.59092000  0.78690000  1.0
  H  H15  1  0.17145000  0.90908000  0.28690000  1.0
  H  H16  1  0.17145000  0.40908000  0.21310000  1.0
  H  H17  1  0.82855000  0.09092000  0.71310000  1.0
  C  C18  1  0.66224000  0.42221000  0.16647000  1.0
  C  C19  1  0.33776000  0.07779000  0.66647000  1.0
  C  C20  1  0.33776000  0.57779000  0.83353000  1.0
  C  C21  1  0.66224000  0.92221000  0.33353000  1.0
  C  C22  1  0.77877000  0.54908000  0.14569000  1.0
  C  C23  1  0.22123000  0.95092000  0.64569000  1.0
  C  C24  1  0.22124000  0.45092000  0.85431000  1.0
  C  C25  1  0.77877000  0.04908000  0.35431000  1.0
  C  C26  1  0.83081000  0.60855000  0.00759000  1.0
  C  C27  1  0.16919000  0.89145000  0.50759000  1.0
  C  C28  1  0.16919000  0.39145000  0.99241000  1.0
  C  C29  1  0.83081000  0.10855000  0.49241000  1.0
  N  N30  1  0.56984000  0.38095000  0.28335000  1.0
  N  N31  1  0.43016000  0.11905000  0.78335000  1.0
  N  N32  1  0.43016000  0.61905000  0.71665000  1.0
  N  N33  1  0.56984000  0.88095000  0.21665000  1.0
  N  N34  1  0.48289000  0.25524000  0.24733000  1.0
  N  N35  1  0.51711000  0.24476000  0.74733000  1.0
  N  N36  1  0.51711000  0.74476000  0.75267000  1.0
  N  N37  1  0.48289000  0.75524000  0.25267000  1.0
  N  N38  1  0.52139000  0.22452000  0.11391000  1.0
  N  N39  1  0.47861000  0.27548000  0.61391000  1.0
  N  N40  1  0.47861000  0.77548000  0.88609000  1.0
  N  N41  1  0.52139000  0.72452000  0.38609000  1.0
  N  N42  1  0.63251000  0.32615000  0.05958000  1.0
  N  N43  1  0.36749000  0.17385000  0.55958000  1.0
  N  N44  1  0.36749000  0.67385000  0.94041000  1.0
  N  N45  1  0.63251000  0.82615000  0.44042000  1.0
  N  N46  1  0.85011000  0.63084000  0.24675000  1.0
  N  N47  1  0.14989000  0.86916000  0.74675000  1.0
  N  N48  1  0.14989000  0.36916000  0.75325000  1.0
  N  N49  1  0.85011000  0.13084000  0.25325000  1.0
  N  N50  1  0.92634000  0.73244000  0.02957000  1.0
  N  N51  1  0.07365000  0.76756000  0.52957000  1.0
  N  N52  1  0.07366000  0.26756000  0.97043000  1.0
  N  N53  1  0.92635000  0.23244000  0.47043000  1.0
  N  N54  1  0.78913000  0.54712000  0.88180000  1.0
  N  N55  1  0.21087000  0.95288000  0.38180000  1.0
  N  N56  1  0.21087000  0.45288000  0.11820000  1.0
  N  N57  1  0.78913000  0.04712000  0.61820000  1.0
  O  O58  1  0.94100000  0.74403000  0.18031000  1.0
  O  O59  1  0.05899000  0.75597000  0.68032000  1.0
  O  O60  1  0.05900000  0.25597000  0.81968000  1.0
  O  O61  1  0.94100000  0.24403000  0.31968000  1.0
  O  O62  1  0.20048000  0.48142000  0.44312000  1.0
  O  O63  1  0.79952000  0.01858000  0.94312000  1.0
  O  O64  1  0.79952000  0.51858000  0.55688000  1.0
  O  O65  1  0.20048000  0.98142000  0.05688000  1.0
