# generated using pymatgen
data_CdH24C24(N7O3)2
_symmetry_space_group_name_H-M   'P 1'
_cell_length_a   8.31373000
_cell_length_b   8.55403000
_cell_length_c   21.19000000
_cell_angle_alpha   90.00000000
_cell_angle_beta   90.00000000
_cell_angle_gamma   106.07600000
_symmetry_Int_Tables_number   1
_chemical_formula_structural   CdH24C24(N7O3)2
_chemical_formula_sum   'Cd2 H48 C48 N28 O12'
_cell_volume   1448.01706423
_cell_formula_units_Z   2
loop_
 _symmetry_equiv_pos_site_id
 _symmetry_equiv_pos_as_xyz
  1  'x, y, z'
loop_
 _atom_site_type_symbol
 _atom_site_label
 _atom_site_symmetry_multiplicity
 _atom_site_fract_x
 _atom_site_fract_y
 _atom_site_fract_z
 _atom_site_occupancy
  Cd  Cd0  1  0.00000000  0.50000000  0.50000000  1.0
  Cd  Cd1  1  0.00000000  0.00000000  0.00000000  1.0
  H  H2  1  0.20969000  0.88590000  0.43931000  1.0
  H  H3  1  0.20970000  0.38591000  0.06069000  1.0
  H  H4  1  0.79031000  0.11410000  0.56069000  1.0
  H  H5  1  0.79030000  0.61409000  0.93931000  1.0
  H  H6  1  0.68835000  0.68084000  0.44450000  1.0
  H  H7  1  0.68835000  0.18084000  0.05550000  1.0
  H  H8  1  0.31166000  0.31916000  0.55550000  1.0
  H  H9  1  0.31165000  0.81916000  0.94450000  1.0
  H  H10  1  0.79919000  0.13191000  0.39174000  1.0
  H  H11  1  0.79919000  0.63192000  0.10826000  1.0
  H  H12  1  0.20081000  0.86809000  0.60826000  1.0
  H  H13  1  0.20081000  0.36808000  0.89174000  1.0
  H  H14  1  0.64705000  0.01067000  0.44451000  1.0
  H  H15  1  0.64705000  0.51068000  0.05549000  1.0
  H  H16  1  0.35295000  0.98932000  0.55549000  1.0
  H  H17  1  0.35295000  0.48933000  0.94451000  1.0
  H  H18  1  0.42771000  0.77446000  0.40766000  1.0
  H  H19  1  0.42771000  0.27447000  0.09234000  1.0
  H  H20  1  0.57229000  0.22553000  0.59233000  1.0
  H  H21  1  0.57229000  0.72553000  0.90766000  1.0
  H  H22  1  0.24733000  0.64262000  0.31862000  1.0
  H  H23  1  0.24734000  0.14263000  0.18137000  1.0
  H  H24  1  0.75266000  0.35738000  0.68137000  1.0
  H  H25  1  0.75266000  0.85737000  0.81863000  1.0
  H  H26  1  0.58990000  0.94293000  0.18702000  1.0
  H  H27  1  0.58990000  0.44292000  0.31299000  1.0
  H  H28  1  0.41010000  0.05708000  0.81298000  1.0
  H  H29  1  0.41010000  0.55707000  0.68702000  1.0
  H  H30  1  0.77335000  0.07663000  0.27607000  1.0
  H  H31  1  0.77335000  0.57663000  0.22393000  1.0
  H  H32  1  0.22665000  0.92337000  0.72393000  1.0
  H  H33  1  0.22665000  0.42337000  0.77607000  1.0
  H  H34  1  0.37717000  0.67398000  0.15429000  1.0
  H  H35  1  0.37717000  0.17398000  0.34571000  1.0
  H  H36  1  0.62282000  0.32603000  0.84571000  1.0
  H  H37  1  0.62283000  0.82602000  0.65429000  1.0
  H  H38  1  0.21738000  0.57963000  0.20915000  1.0
  H  H39  1  0.21738000  0.07962000  0.29085000  1.0
  H  H40  1  0.78262000  0.42038000  0.79085000  1.0
  H  H41  1  0.78262000  0.92037000  0.70915000  1.0
  H  H42  1  0.28565000  0.82545000  0.07189000  1.0
  H  H43  1  0.28565000  0.32545000  0.42811000  1.0
  H  H44  1  0.71435000  0.17455000  0.92811000  1.0
  H  H45  1  0.71435000  0.67454000  0.57189000  1.0
  H  H46  1  0.88567000  0.93772000  0.16628000  1.0
  H  H47  1  0.88567000  0.43772000  0.33372000  1.0
  H  H48  1  0.11433000  0.06229000  0.83372000  1.0
  H  H49  1  0.11434000  0.56228000  0.66628000  1.0
  C  C50  1  0.07626000  0.87105000  0.43561000  1.0
  C  C51  1  0.07626000  0.37105000  0.06439000  1.0
  C  C52  1  0.92374000  0.12895000  0.56439000  1.0
  C  C53  1  0.92374000  0.62895000  0.93561000  1.0
  C  C54  1  0.81232000  0.76363000  0.43934000  1.0
  C  C55  1  0.81232000  0.26363000  0.06067000  1.0
  C  C56  1  0.18769000  0.23637000  0.56067000  1.0
  C  C57  1  0.18768000  0.73637000  0.93933000  1.0
  C  C58  1  0.72336000  0.00830000  0.40245000  1.0
  C  C59  1  0.72337000  0.50830000  0.09755000  1.0
  C  C60  1  0.27663000  0.99170000  0.59755000  1.0
  C  C61  1  0.27663000  0.49170000  0.90245000  1.0
  C  C62  1  0.61322000  0.93305000  0.34771000  1.0
  C  C63  1  0.61323000  0.43305000  0.15229000  1.0
  C  C64  1  0.38678000  0.06695000  0.65229000  1.0
  C  C65  1  0.38677000  0.56695000  0.84771000  1.0
  C  C66  1  0.46447000  0.81156000  0.35932000  1.0
  C  C67  1  0.46447000  0.31156000  0.14069000  1.0
  C  C68  1  0.53553000  0.18844000  0.64069000  1.0
  C  C69  1  0.53552000  0.68843000  0.85931000  1.0
  C  C70  1  0.36304000  0.73706000  0.30938000  1.0
  C  C71  1  0.36305000  0.23706000  0.19063000  1.0
  C  C72  1  0.63695000  0.26294000  0.69063000  1.0
  C  C73  1  0.63695000  0.76294000  0.80938000  1.0
  C  C74  1  0.40829000  0.78275000  0.24717000  1.0
  C  C75  1  0.40829000  0.28275000  0.25283000  1.0
  C  C76  1  0.59171000  0.21725000  0.75283000  1.0
  C  C77  1  0.59171000  0.71725000  0.74717000  1.0
  C  C78  1  0.55572000  0.90645000  0.23558000  1.0
  C  C79  1  0.55572000  0.40645000  0.26443000  1.0
  C  C80  1  0.44428000  0.09355000  0.76442000  1.0
  C  C81  1  0.44428000  0.59355000  0.73558000  1.0
  C  C82  1  0.65800000  0.98096000  0.28546000  1.0
  C  C83  1  0.65800000  0.48096000  0.21454000  1.0
  C  C84  1  0.34200000  0.01904000  0.71454000  1.0
  C  C85  1  0.34200000  0.51904000  0.78546000  1.0
  C  C86  1  0.30031000  0.69679000  0.19349000  1.0
  C  C87  1  0.30031000  0.19679000  0.30651000  1.0
  C  C88  1  0.69969000  0.30322000  0.80651000  1.0
  C  C89  1  0.69969000  0.80321000  0.69349000  1.0
  C  C90  1  0.19611000  0.84268000  0.10662000  1.0
  C  C91  1  0.19611000  0.34268000  0.39338000  1.0
  C  C92  1  0.80389000  0.15732000  0.89338000  1.0
  C  C93  1  0.80390000  0.65732000  0.60662000  1.0
  C  C94  1  0.99443000  0.89526000  0.15627000  1.0
  C  C95  1  0.99443000  0.39525000  0.34373000  1.0
  C  C96  1  0.00557000  0.10475000  0.84373000  1.0
  C  C97  1  0.00557000  0.60474000  0.65627000  1.0
  N  N98  1  0.95749000  0.73001000  0.45062000  1.0
  N  N99  1  0.95750000  0.23002000  0.04938000  1.0
  N  N100  1  0.04251000  0.26999000  0.54938000  1.0
  N  N101  1  0.04250000  0.76999000  0.95062000  1.0
  N  N102  1  0.84385000  0.91756000  0.41886000  1.0
  N  N103  1  0.84385000  0.41756000  0.08115000  1.0
  N  N104  1  0.15615000  0.08244000  0.58114000  1.0
  N  N105  1  0.15615000  0.58243000  0.91886000  1.0
  N  N106  1  0.01192000  0.98812000  0.41584000  1.0
  N  N107  1  0.01192000  0.48813000  0.08417000  1.0
  N  N108  1  0.98808000  0.01188000  0.58416000  1.0
  N  N109  1  0.98808000  0.51187000  0.91583000  1.0
  N  N110  1  0.19465000  0.79098000  0.16633000  1.0
  N  N111  1  0.19465000  0.29098000  0.33367000  1.0
  N  N112  1  0.80535000  0.20902000  0.83367000  1.0
  N  N113  1  0.80536000  0.70901000  0.66633000  1.0
  N  N114  1  0.06601000  0.82246000  0.19908000  1.0
  N  N115  1  0.06602000  0.32246000  0.30092000  1.0
  N  N116  1  0.93399000  0.17754000  0.80092000  1.0
  N  N117  1  0.93399000  0.67754000  0.69908000  1.0
  N  N118  1  0.07040000  0.91012000  0.09843000  1.0
  N  N119  1  0.07041000  0.41012000  0.40157000  1.0
  N  N120  1  0.92960000  0.08988000  0.90157000  1.0
  N  N121  1  0.92960000  0.58988000  0.59843000  1.0
  N  N122  1  0.60208000  0.31536000  0.46146000  1.0
  N  N123  1  0.60208000  0.81537000  0.03854000  1.0
  N  N124  1  0.39792000  0.68463000  0.53854000  1.0
  N  N125  1  0.39792000  0.18464000  0.96146000  1.0
  O  O126  1  0.71144000  0.33208000  0.50567000  1.0
  O  O127  1  0.71144000  0.83208000  0.99433000  1.0
  O  O128  1  0.28856000  0.66792000  0.49433000  1.0
  O  O129  1  0.28856000  0.16792000  0.00567000  1.0
  O  O130  1  0.63258000  0.40784000  0.41414000  1.0
  O  O131  1  0.63258000  0.90784000  0.08586000  1.0
  O  O132  1  0.36742000  0.59216000  0.58586000  1.0
  O  O133  1  0.36742000  0.09216000  0.91414000  1.0
  O  O134  1  0.46539000  0.20572000  0.46689000  1.0
  O  O135  1  0.46540000  0.70572000  0.03311000  1.0
  O  O136  1  0.53461000  0.79428000  0.53311000  1.0
  O  O137  1  0.53461000  0.29428000  0.96689000  1.0
