# generated using pymatgen
data_Ni3H48C74S3(NO5)4
_symmetry_space_group_name_H-M   'P 1'
_cell_length_a   13.95450000
_cell_length_b   14.58830000
_cell_length_c   21.36810000
_cell_angle_alpha   89.84920000
_cell_angle_beta   85.16870000
_cell_angle_gamma   62.61600000
_symmetry_Int_Tables_number   1
_chemical_formula_structural   Ni3H48C74S3(NO5)4
_chemical_formula_sum   'Ni6 H96 C148 S6 N8 O40'
_cell_volume   3845.58731321
_cell_formula_units_Z   2
loop_
 _symmetry_equiv_pos_site_id
 _symmetry_equiv_pos_as_xyz
  1  'x, y, z'
loop_
 _atom_site_type_symbol
 _atom_site_label
 _atom_site_symmetry_multiplicity
 _atom_site_fract_x
 _atom_site_fract_y
 _atom_site_fract_z
 _atom_site_occupancy
  Ni  Ni0  1  0.78829000  0.04194000  0.10006000  1.0
  Ni  Ni1  1  0.72255000  0.21275000  0.22996000  1.0
  Ni  Ni2  1  0.56677000  0.26756000  0.38805000  1.0
  Ni  Ni3  1  0.21171000  0.95806000  0.89994000  1.0
  Ni  Ni4  1  0.27745000  0.78725000  0.77004000  1.0
  Ni  Ni5  1  0.43323000  0.73244000  0.61194000  1.0
  H  H6  1  0.10854000  0.44703000  0.81080000  1.0
  H  H7  1  0.22081000  0.55000000  0.64605000  1.0
  H  H8  1  0.33471000  0.22263000  0.67004000  1.0
  H  H9  1  0.07375000  0.18565000  0.89840000  1.0
  H  H10  1  0.06704000  0.33174000  0.83697000  1.0
  H  H11  1  0.37682000  0.11791000  0.74055000  1.0
  H  H12  1  0.36589000  0.98033000  0.80317000  1.0
  H  H13  1  0.45987000  0.17480000  0.46771000  1.0
  H  H14  1  0.35558000  0.20765000  0.57219000  1.0
  H  H15  1  0.35980000  0.50209000  0.58203000  1.0
  H  H16  1  0.45927000  0.45792000  0.47528000  1.0
  H  H17  1  0.04241000  0.72101000  0.85010000  1.0
  H  H18  1  0.70272000  0.84798000  0.82147000  1.0
  H  H19  1  0.94648000  0.60396000  0.69717000  1.0
  H  H20  1  0.47132000  0.89017000  0.68438000  1.0
  H  H21  1  0.62062000  0.89541000  0.73537000  1.0
  H  H22  1  0.80631000  0.56689000  0.69314000  1.0
  H  H23  1  0.64986000  0.57686000  0.64035000  1.0
  H  H24  1  0.96810000  0.93521000  0.00535000  1.0
  H  H25  1  0.00888000  0.83293000  0.90759000  1.0
  H  H26  1  0.66684000  0.92195000  0.91028000  1.0
  H  H27  1  0.64077000  0.02136000  0.00998000  1.0
  H  H28  1  0.43137000  0.59864000  0.37698000  1.0
  H  H29  1  0.36812000  0.78428000  0.35065000  1.0
  H  H30  1  0.54138000  0.68638000  0.16681000  1.0
  H  H31  1  0.60343000  0.50020000  0.19419000  1.0
  H  H32  1  0.19073000  0.02566000  0.29660000  1.0
  H  H33  1  0.00295000  0.08428000  0.26312000  1.0
  H  H34  1  0.13811000  0.86606000  0.10564000  1.0
  H  H35  1  0.32479000  0.80913000  0.13715000  1.0
  H  H36  1  0.70195000  0.92342000  0.41907000  1.0
  H  H37  1  0.84586000  0.73744000  0.40811000  1.0
  H  H38  1  0.02986000  0.82046000  0.26794000  1.0
  H  H39  1  0.88425000  0.00491000  0.27848000  1.0
  H  H40  1  0.03590000  0.58764000  0.46345000  1.0
  H  H41  1  0.11251000  0.62034000  0.55849000  1.0
  H  H42  1  0.28892000  0.74244000  0.44257000  1.0
  H  H43  1  0.21155000  0.71221000  0.34655000  1.0
  H  H44  1  0.78007000  0.43248000  0.13246000  1.0
  H  H45  1  0.82827000  0.54975000  0.06520000  1.0
  H  H46  1  0.88130000  0.35237000  0.90248000  1.0
  H  H47  1  0.83657000  0.23404000  0.97113000  1.0
  H  H48  1  0.71423000  0.73338000  0.98318000  1.0
  H  H49  1  0.52572000  0.84324000  0.95274000  1.0
  H  H50  1  0.58517000  0.63262000  0.79727000  1.0
  H  H51  1  0.77464000  0.52160000  0.82668000  1.0
  H  H52  1  0.84351000  0.29003000  0.25402000  1.0
  H  H53  1  0.80965000  0.25718000  0.31845000  1.0
  H  H54  1  0.89146000  0.55297000  0.18920000  1.0
  H  H55  1  0.77919000  0.45000000  0.35395000  1.0
  H  H56  1  0.66529000  0.77737000  0.32996000  1.0
  H  H57  1  0.92626000  0.81435000  0.10160000  1.0
  H  H58  1  0.93296000  0.66826000  0.16304000  1.0
  H  H59  1  0.62317000  0.88209000  0.25945000  1.0
  H  H60  1  0.63411000  0.01967000  0.19683000  1.0
  H  H61  1  0.54013000  0.82520000  0.53229000  1.0
  H  H62  1  0.64442000  0.79235000  0.42781000  1.0
  H  H63  1  0.64020000  0.49790000  0.41797000  1.0
  H  H64  1  0.54072000  0.54208000  0.52472000  1.0
  H  H65  1  0.95759000  0.27899000  0.14989000  1.0
  H  H66  1  0.29728000  0.15202000  0.17853000  1.0
  H  H67  1  0.05352000  0.39604000  0.30284000  1.0
  H  H68  1  0.52868000  0.10983000  0.31562000  1.0
  H  H69  1  0.37938000  0.10459000  0.26463000  1.0
  H  H70  1  0.19369000  0.43310000  0.30686000  1.0
  H  H71  1  0.35014000  0.42314000  0.35965000  1.0
  H  H72  1  0.03190000  0.06479000  0.99465000  1.0
  H  H73  1  0.99112000  0.16707000  0.09241000  1.0
  H  H74  1  0.33316000  0.07805000  0.08972000  1.0
  H  H75  1  0.35923000  0.97864000  0.99002000  1.0
  H  H76  1  0.56863000  0.40136000  0.62302000  1.0
  H  H77  1  0.63188000  0.21573000  0.64935000  1.0
  H  H78  1  0.45862000  0.31363000  0.83319000  1.0
  H  H79  1  0.39657000  0.49980000  0.80581000  1.0
  H  H80  1  0.80927000  0.97435000  0.70340000  1.0
  H  H81  1  0.99704000  0.91572000  0.73688000  1.0
  H  H82  1  0.86188000  0.13394000  0.89436000  1.0
  H  H83  1  0.67520000  0.19087000  0.86286000  1.0
  H  H84  1  0.29805000  0.07658000  0.58093000  1.0
  H  H85  1  0.15414000  0.26255000  0.59188000  1.0
  H  H86  1  0.97013000  0.17954000  0.73206000  1.0
  H  H87  1  0.11575000  0.99509000  0.72152000  1.0
  H  H88  1  0.96410000  0.41236000  0.53655000  1.0
  H  H89  1  0.88749000  0.37965000  0.44151000  1.0
  H  H90  1  0.71109000  0.25755000  0.55743000  1.0
  H  H91  1  0.78846000  0.28778000  0.65344000  1.0
  H  H92  1  0.21993000  0.56752000  0.86754000  1.0
  H  H93  1  0.17173000  0.45025000  0.93480000  1.0
  H  H94  1  0.11870000  0.64763000  0.09752000  1.0
  H  H95  1  0.16343000  0.76596000  0.02887000  1.0
  H  H96  1  0.28577000  0.26662000  0.01682000  1.0
  H  H97  1  0.47428000  0.15677000  0.04726000  1.0
  H  H98  1  0.41483000  0.36738000  0.20273000  1.0
  H  H99  1  0.22536000  0.47841000  0.17332000  1.0
  H  H100  1  0.15649000  0.70997000  0.74598000  1.0
  H  H101  1  0.19035000  0.74282000  0.68155000  1.0
  C  C102  1  0.22163000  0.32361000  0.74431000  1.0
  C  C103  1  0.15849000  0.42675000  0.76605000  1.0
  C  C104  1  0.16218000  0.50470000  0.72998000  1.0
  C  C105  1  0.22318000  0.48478000  0.67226000  1.0
  C  C106  1  0.28505000  0.38201000  0.64956000  1.0
  C  C107  1  0.28497000  0.30260000  0.68655000  1.0
  C  C108  1  0.13888000  0.17415000  0.86246000  1.0
  C  C109  1  0.13614000  0.25566000  0.82783000  1.0
  C  C110  1  0.22149000  0.23869000  0.78191000  1.0
  C  C111  1  0.30598000  0.13733000  0.77370000  1.0
  C  C112  1  0.30189000  0.05964000  0.80957000  1.0
  C  C113  1  0.43435000  0.24699000  0.49452000  1.0
  C  C114  1  0.37693000  0.26592000  0.55329000  1.0
  C  C115  1  0.34691000  0.35900000  0.58716000  1.0
  C  C116  1  0.37765000  0.42937000  0.55824000  1.0
  C  C117  1  0.43457000  0.40497000  0.49910000  1.0
  C  C118  1  0.00270000  0.66007000  0.77223000  1.0
  C  C119  1  0.97609000  0.72609000  0.82464000  1.0
  C  C120  1  0.86784000  0.79508000  0.84357000  1.0
  C  C121  1  0.78776000  0.79563000  0.80799000  1.0
  C  C122  1  0.81466000  0.72749000  0.75569000  1.0
  C  C123  1  0.92368000  0.65742000  0.73770000  1.0
  C  C124  1  0.54679000  0.81987000  0.68720000  1.0
  C  C125  1  0.63069000  0.82180000  0.71668000  1.0
  C  C126  1  0.72706000  0.73012000  0.72046000  1.0
  C  C127  1  0.73434000  0.64076000  0.69134000  1.0
  C  C128  1  0.64695000  0.64553000  0.66236000  1.0
  C  C129  1  0.90358000  0.92955000  0.98323000  1.0
  C  C130  1  0.92549000  0.87124000  0.92814000  1.0
  C  C131  1  0.84241000  0.86286000  0.90015000  1.0
  C  C132  1  0.73701000  0.92103000  0.92956000  1.0
  C  C133  1  0.72105000  0.97735000  0.98524000  1.0
  C  C134  1  0.55967000  0.42710000  0.30271000  1.0
  C  C135  1  0.52065000  0.53915000  0.28699000  1.0
  C  C136  1  0.45429000  0.61876000  0.33107000  1.0
  C  C137  1  0.41879000  0.72174000  0.31644000  1.0
  C  C138  1  0.45039000  0.74456000  0.25703000  1.0
  C  C139  1  0.51702000  0.66620000  0.21244000  1.0
  C  C140  1  0.55187000  0.56348000  0.22771000  1.0
  C  C141  1  0.26694000  0.91417000  0.21908000  1.0
  C  C142  1  0.17793000  0.99034000  0.25535000  1.0
  C  C143  1  0.07365000  0.02215000  0.23704000  1.0
  C  C144  1  0.06000000  0.97664000  0.18312000  1.0
  C  C145  1  0.15079000  0.89902000  0.14783000  1.0
  C  C146  1  0.25432000  0.86769000  0.16527000  1.0
  C  C147  1  0.95182000  0.00901000  0.15909000  1.0
  C  C148  1  0.70035000  0.08369000  0.35749000  1.0
  C  C149  1  0.78515000  0.97396000  0.34892000  1.0
  C  C150  1  0.77359000  0.89909000  0.38571000  1.0
  C  C151  1  0.85327000  0.79675000  0.38007000  1.0
  C  C152  1  0.94461000  0.77013000  0.33740000  1.0
  C  C153  1  0.95759000  0.84358000  0.30062000  1.0
  C  C154  1  0.87718000  0.94590000  0.30672000  1.0
  C  C155  1  0.11920000  0.64926000  0.40054000  1.0
  C  C156  1  0.09114000  0.62166000  0.45939000  1.0
  C  C157  1  0.13395000  0.63949000  0.51182000  1.0
  C  C158  1  0.20443000  0.68385000  0.50556000  1.0
  C  C159  1  0.23334000  0.70881000  0.44599000  1.0
  C  C160  1  0.19053000  0.69224000  0.39311000  1.0
  C  C161  1  0.24848000  0.70455000  0.56324000  1.0
  C  C162  1  0.78239000  0.25275000  0.09540000  1.0
  C  C163  1  0.80485000  0.32714000  0.05515000  1.0
  C  C164  1  0.80149000  0.41627000  0.08205000  1.0
  C  C165  1  0.82759000  0.48162000  0.04489000  1.0
  C  C166  1  0.85618000  0.45731000  0.98062000  1.0
  C  C167  1  0.85907000  0.36933000  0.95281000  1.0
  C  C168  1  0.83375000  0.30424000  0.99055000  1.0
  C  C169  1  0.75291000  0.62204000  0.90686000  1.0
  C  C170  1  0.68483000  0.71191000  0.94290000  1.0
  C  C171  1  0.58108000  0.77283000  0.92564000  1.0
  C  C172  1  0.54554000  0.74417000  0.87310000  1.0
  C  C173  1  0.61473000  0.65345000  0.83774000  1.0
  C  C174  1  0.71931000  0.59159000  0.85440000  1.0
  C  C175  1  0.43182000  0.81046000  0.85693000  1.0
  C  C176  1  0.77837000  0.67639000  0.25569000  1.0
  C  C177  1  0.84151000  0.57324000  0.23395000  1.0
  C  C178  1  0.83783000  0.49530000  0.27002000  1.0
  C  C179  1  0.77682000  0.51522000  0.32774000  1.0
  C  C180  1  0.71495000  0.61799000  0.35044000  1.0
  C  C181  1  0.71503000  0.69740000  0.31345000  1.0
  C  C182  1  0.86112000  0.82585000  0.13754000  1.0
  C  C183  1  0.86386000  0.74434000  0.17218000  1.0
  C  C184  1  0.77851000  0.76131000  0.21809000  1.0
  C  C185  1  0.69401000  0.86267000  0.22630000  1.0
  C  C186  1  0.69811000  0.94036000  0.19043000  1.0
  C  C187  1  0.56565000  0.75301000  0.50548000  1.0
  C  C188  1  0.62307000  0.73408000  0.44671000  1.0
  C  C189  1  0.65309000  0.64100000  0.41284000  1.0
  C  C190  1  0.62235000  0.57063000  0.44176000  1.0
  C  C191  1  0.56543000  0.59502000  0.50090000  1.0
  C  C192  1  0.99730000  0.33993000  0.22777000  1.0
  C  C193  1  0.02391000  0.27391000  0.17536000  1.0
  C  C194  1  0.13216000  0.20492000  0.15643000  1.0
  C  C195  1  0.21224000  0.20436000  0.19201000  1.0
  C  C196  1  0.18534000  0.27251000  0.24431000  1.0
  C  C197  1  0.07632000  0.34257000  0.26230000  1.0
  C  C198  1  0.45321000  0.18013000  0.31280000  1.0
  C  C199  1  0.36932000  0.17820000  0.28332000  1.0
  C  C200  1  0.27294000  0.26988000  0.27954000  1.0
  C  C201  1  0.26566000  0.35924000  0.30866000  1.0
  C  C202  1  0.35305000  0.35447000  0.33764000  1.0
  C  C203  1  0.09642000  0.07045000  0.01677000  1.0
  C  C204  1  0.07451000  0.12876000  0.07186000  1.0
  C  C205  1  0.15759000  0.13714000  0.09985000  1.0
  C  C206  1  0.26299000  0.07897000  0.07044000  1.0
  C  C207  1  0.27896000  0.02265000  0.01476000  1.0
  C  C208  1  0.44033000  0.57290000  0.69729000  1.0
  C  C209  1  0.47935000  0.46085000  0.71301000  1.0
  C  C210  1  0.54571000  0.38124000  0.66893000  1.0
  C  C211  1  0.58121000  0.27826000  0.68356000  1.0
  C  C212  1  0.54961000  0.25544000  0.74297000  1.0
  C  C213  1  0.48298000  0.33380000  0.78756000  1.0
  C  C214  1  0.44813000  0.43652000  0.77229000  1.0
  C  C215  1  0.73305000  0.08583000  0.78092000  1.0
  C  C216  1  0.82207000  0.00967000  0.74465000  1.0
  C  C217  1  0.92634000  0.97785000  0.76296000  1.0
  C  C218  1  0.94000000  0.02336000  0.81688000  1.0
  C  C219  1  0.84920000  0.10098000  0.85218000  1.0
  C  C220  1  0.74568000  0.13231000  0.83473000  1.0
  C  C221  1  0.04817000  0.99099000  0.84091000  1.0
  C  C222  1  0.29965000  0.91631000  0.64252000  1.0
  C  C223  1  0.21485000  0.02604000  0.65108000  1.0
  C  C224  1  0.22641000  0.10091000  0.61429000  1.0
  C  C225  1  0.14673000  0.20325000  0.61993000  1.0
  C  C226  1  0.05539000  0.22987000  0.66260000  1.0
  C  C227  1  0.04241000  0.15642000  0.69938000  1.0
  C  C228  1  0.12282000  0.05410000  0.69328000  1.0
  C  C229  1  0.88081000  0.35074000  0.59946000  1.0
  C  C230  1  0.90886000  0.37834000  0.54061000  1.0
  C  C231  1  0.86605000  0.36051000  0.48818000  1.0
  C  C232  1  0.79557000  0.31615000  0.49444000  1.0
  C  C233  1  0.76667000  0.29119000  0.55401000  1.0
  C  C234  1  0.80948000  0.30775000  0.60689000  1.0
  C  C235  1  0.75152000  0.29544000  0.43676000  1.0
  C  C236  1  0.21761000  0.74725000  0.90460000  1.0
  C  C237  1  0.19514000  0.67286000  0.94485000  1.0
  C  C238  1  0.19851000  0.58373000  0.91795000  1.0
  C  C239  1  0.17240000  0.51838000  0.95511000  1.0
  C  C240  1  0.14382000  0.54269000  0.01938000  1.0
  C  C241  1  0.14093000  0.63067000  0.04719000  1.0
  C  C242  1  0.16625000  0.69576000  0.00945000  1.0
  C  C243  1  0.24708000  0.37796000  0.09314000  1.0
  C  C244  1  0.31517000  0.28809000  0.05711000  1.0
  C  C245  1  0.41893000  0.22717000  0.07436000  1.0
  C  C246  1  0.45446000  0.25583000  0.12690000  1.0
  C  C247  1  0.38527000  0.34655000  0.16226000  1.0
  C  C248  1  0.28069000  0.40841000  0.14560000  1.0
  C  C249  1  0.56818000  0.18954000  0.14307000  1.0
  S  S250  1  0.40204000  0.87638000  0.23770000  1.0
  S  S251  1  0.05191000  0.64167000  0.33515000  1.0
  S  S252  1  0.88305000  0.54390000  0.93234000  1.0
  S  S253  1  0.59795000  0.12362000  0.76230000  1.0
  S  S254  1  0.94810000  0.35833000  0.66485000  1.0
  S  S255  1  0.11695000  0.45610000  0.06766000  1.0
  N  N256  1  0.21984000  0.07689000  0.85360000  1.0
  N  N257  1  0.46316000  0.31518000  0.46754000  1.0
  N  N258  1  0.55335000  0.73345000  0.66059000  1.0
  N  N259  1  0.80303000  0.98041000  0.01274000  1.0
  N  N260  1  0.78016000  0.92311000  0.14640000  1.0
  N  N261  1  0.53684000  0.68481000  0.53246000  1.0
  N  N262  1  0.44665000  0.26655000  0.33941000  1.0
  N  N263  1  0.19697000  0.01959000  0.98726000  1.0
  O  O264  1  0.11298000  0.60606000  0.75424000  1.0
  O  O265  1  0.53596000  0.41003000  0.35929000  1.0
  O  O266  1  0.61091000  0.36196000  0.25796000  1.0
  O  O267  1  0.39689000  0.93566000  0.29366000  1.0
  O  O268  1  0.46392000  0.88008000  0.18041000  1.0
  O  O269  1  0.86231000  0.06754000  0.19087000  1.0
  O  O270  1  0.95260000  0.97278000  0.10462000  1.0
  O  O271  1  0.63020000  0.10869000  0.40481000  1.0
  O  O272  1  0.69685000  0.15377000  0.31965000  1.0
  O  O273  1  0.00624000  0.57157000  0.34974000  1.0
  O  O274  1  0.12280000  0.62496000  0.27789000  1.0
  O  O275  1  0.20918000  0.69025000  0.61574000  1.0
  O  O276  1  0.32166000  0.73317000  0.55340000  1.0
  O  O277  1  0.75351000  0.28045000  0.15330000  1.0
  O  O278  1  0.79741000  0.16980000  0.06750000  1.0
  O  O279  1  0.90963000  0.60836000  0.97150000  1.0
  O  O280  1  0.95571000  0.48561000  0.87797000  1.0
  O  O281  1  0.37130000  0.87960000  0.89881000  1.0
  O  O282  1  0.40570000  0.79435000  0.80410000  1.0
  O  O283  1  0.83619000  0.23184000  0.27277000  1.0
  O  O284  1  0.88702000  0.39394000  0.24575000  1.0
  O  O285  1  0.46404000  0.58997000  0.64071000  1.0
  O  O286  1  0.38909000  0.63804000  0.74204000  1.0
  O  O287  1  0.60310000  0.06435000  0.70634000  1.0
  O  O288  1  0.53608000  0.11993000  0.81959000  1.0
  O  O289  1  0.13768000  0.93247000  0.80913000  1.0
  O  O290  1  0.04740000  0.02722000  0.89538000  1.0
  O  O291  1  0.36980000  0.89131000  0.59519000  1.0
  O  O292  1  0.30315000  0.84623000  0.68035000  1.0
  O  O293  1  0.99376000  0.42843000  0.65026000  1.0
  O  O294  1  0.87721000  0.37504000  0.72211000  1.0
  O  O295  1  0.79082000  0.30975000  0.38426000  1.0
  O  O296  1  0.67834000  0.26683000  0.44659000  1.0
  O  O297  1  0.24649000  0.71956000  0.84670000  1.0
  O  O298  1  0.20258000  0.83020000  0.93250000  1.0
  O  O299  1  0.09037000  0.39164000  0.02849000  1.0
  O  O300  1  0.04429000  0.51438000  0.12203000  1.0
  O  O301  1  0.62870000  0.12040000  0.10119000  1.0
  O  O302  1  0.59430000  0.20565000  0.19590000  1.0
  O  O303  1  0.16381000  0.76816000  0.72723000  1.0
