# generated using pymatgen
data_VH8C9O4
_symmetry_space_group_name_H-M   'P 1'
_cell_length_a   5.04818000
_cell_length_b   10.86370000
_cell_length_c   15.35940000
_cell_angle_alpha   103.83500000
_cell_angle_beta   89.90500000
_cell_angle_gamma   89.94170000
_symmetry_Int_Tables_number   1
_chemical_formula_structural   VH8C9O4
_chemical_formula_sum   'V4 H32 C36 O16'
_cell_volume   817.89927836
_cell_formula_units_Z   4
loop_
 _symmetry_equiv_pos_site_id
 _symmetry_equiv_pos_as_xyz
  1  'x, y, z'
loop_
 _atom_site_type_symbol
 _atom_site_label
 _atom_site_symmetry_multiplicity
 _atom_site_fract_x
 _atom_site_fract_y
 _atom_site_fract_z
 _atom_site_occupancy
  V  V0  1  0.72671000  0.54385000  0.45125000  1.0
  V  V1  1  0.22914000  0.45309000  0.04937000  1.0
  V  V2  1  0.27336000  0.45617000  0.54880000  1.0
  V  V3  1  0.77070000  0.54687000  0.95060000  1.0
  H  H4  1  0.91163000  0.09179000  0.28165000  1.0
  H  H5  1  0.41245000  0.90571000  0.21991000  1.0
  H  H6  1  0.08840000  0.90825000  0.71833000  1.0
  H  H7  1  0.58749000  0.09429000  0.78004000  1.0
  H  H8  1  0.55305000  0.20503000  0.13475000  1.0
  H  H9  1  0.05699000  0.79171000  0.36464000  1.0
  H  H10  1  0.44712000  0.79502000  0.86528000  1.0
  H  H11  1  0.94288000  0.20825000  0.63534000  1.0
  H  H12  1  0.83710000  0.36045000  0.19568000  1.0
  H  H13  1  0.33837000  0.63595000  0.30344000  1.0
  H  H14  1  0.16308000  0.63959000  0.80440000  1.0
  H  H15  1  0.66146000  0.36396000  0.69656000  1.0
  H  H16  1  0.77632000  0.22101000  0.41777000  1.0
  H  H17  1  0.27415000  0.77730000  0.08530000  1.0
  H  H18  1  0.22374000  0.77899000  0.58223000  1.0
  H  H19  1  0.72578000  0.22268000  0.91466000  1.0
  H  H20  1  0.05508000  0.20007000  0.48330000  1.0
  H  H21  1  0.54984000  0.80121000  0.01925000  1.0
  H  H22  1  0.94500000  0.80001000  0.51672000  1.0
  H  H23  1  0.45010000  0.19876000  0.98072000  1.0
  H  H24  1  0.98677000  0.09638000  0.07927000  1.0
  H  H25  1  0.49076000  0.90077000  0.42205000  1.0
  H  H26  1  0.01353000  0.90368000  0.92071000  1.0
  H  H27  1  0.50913000  0.09925000  0.57792000  1.0
  H  H28  1  0.01305000  0.96540000  0.12947000  1.0
  H  H29  1  0.51501000  0.03183000  0.37182000  1.0
  H  H30  1  0.98698000  0.03467000  0.87055000  1.0
  H  H31  1  0.48494000  0.96817000  0.62812000  1.0
  H  H32  1  0.28323000  0.00764000  0.06749000  1.0
  H  H33  1  0.78664000  0.98961000  0.43301000  1.0
  H  H34  1  0.71694000  0.99235000  0.93257000  1.0
  H  H35  1  0.21329000  0.01038000  0.56695000  1.0
  C  C36  1  0.14940000  0.24291000  0.35687000  1.0
  C  C37  1  0.64976000  0.75465000  0.14390000  1.0
  C  C38  1  0.85060000  0.75713000  0.64314000  1.0
  C  C39  1  0.35019000  0.24532000  0.85607000  1.0
  C  C40  1  0.08442000  0.15139000  0.27946000  1.0
  C  C41  1  0.58551000  0.84599000  0.22164000  1.0
  C  C42  1  0.91569000  0.84863000  0.72055000  1.0
  C  C43  1  0.41440000  0.15398000  0.77831000  1.0
  C  C44  1  0.44004000  0.21262000  0.19639000  1.0
  C  C45  1  0.94258000  0.78453000  0.30342000  1.0
  C  C46  1  0.56014000  0.78738000  0.80365000  1.0
  C  C47  1  0.05722000  0.21542000  0.69656000  1.0
  C  C48  1  0.74514000  0.38133000  0.26294000  1.0
  C  C49  1  0.24566000  0.61538000  0.23646000  1.0
  C  C50  1  0.25498000  0.61870000  0.73711000  1.0
  C  C51  1  0.75422000  0.38456000  0.76354000  1.0
  C  C52  1  0.51691000  0.30646000  0.27274000  1.0
  C  C53  1  0.01855000  0.69065000  0.22671000  1.0
  C  C54  1  0.48325000  0.69354000  0.72730000  1.0
  C  C55  1  0.98135000  0.30931000  0.77328000  1.0
  C  C56  1  0.22313000  0.13494000  0.19791000  1.0
  C  C57  1  0.72529000  0.86233000  0.30276000  1.0
  C  C58  1  0.77703000  0.86508000  0.80210000  1.0
  C  C59  1  0.27457000  0.13764000  0.69721000  1.0
  C  C60  1  0.36717000  0.32344000  0.35358000  1.0
  C  C61  1  0.86776000  0.67357000  0.14612000  1.0
  C  C62  1  0.63293000  0.67656000  0.64644000  1.0
  C  C63  1  0.13213000  0.32639000  0.85386000  1.0
  C  C64  1  0.97463000  0.25820000  0.43929000  1.0
  C  C65  1  0.47251000  0.74124000  0.06249000  1.0
  C  C66  1  0.02537000  0.74185000  0.56073000  1.0
  C  C67  1  0.52741000  0.25875000  0.93748000  1.0
  C  C68  1  0.12228000  0.04531000  0.11449000  1.0
  C  C69  1  0.62516000  0.95192000  0.38650000  1.0
  C  C70  1  0.87787000  0.95471000  0.88551000  1.0
  C  C71  1  0.37476000  0.04807000  0.61346000  1.0
  O  O72  1  0.43072000  0.41657000  0.42444000  1.0
  O  O73  1  0.93054000  0.58010000  0.07491000  1.0
  O  O74  1  0.56942000  0.58336000  0.57560000  1.0
  O  O75  1  0.06942000  0.41989000  0.92506000  1.0
  O  O76  1  0.85473000  0.46600000  0.32250000  1.0
  O  O77  1  0.35340000  0.52924000  0.17689000  1.0
  O  O78  1  0.14516000  0.53412000  0.67754000  1.0
  O  O79  1  0.64657000  0.47073000  0.82310000  1.0
  O  O80  1  0.60681000  0.66569000  0.42143000  1.0
  O  O81  1  0.11187000  0.32865000  0.07614000  1.0
  O  O82  1  0.39318000  0.33434000  0.57868000  1.0
  O  O83  1  0.88807000  0.67132000  0.92386000  1.0
  O  O84  1  0.94796000  0.38517000  0.48959000  1.0
  O  O85  1  0.44693000  0.61507000  0.01080000  1.0
  O  O86  1  0.05202000  0.61486000  0.51042000  1.0
  O  O87  1  0.55303000  0.38490000  0.98917000  1.0
