# generated using pymatgen
data_ErH16C18N3O8
_symmetry_space_group_name_H-M   'P 1'
_cell_length_a   9.45260000
_cell_length_b   10.44970000
_cell_length_c   10.44970000
_cell_angle_alpha   83.18200000
_cell_angle_beta   84.30210000
_cell_angle_gamma   84.30130000
_symmetry_Int_Tables_number   1
_chemical_formula_structural   ErH16C18N3O8
_chemical_formula_sum   'Er2 H32 C36 N6 O16'
_cell_volume   1015.81705884
_cell_formula_units_Z   2
loop_
 _symmetry_equiv_pos_site_id
 _symmetry_equiv_pos_as_xyz
  1  'x, y, z'
loop_
 _atom_site_type_symbol
 _atom_site_label
 _atom_site_symmetry_multiplicity
 _atom_site_fract_x
 _atom_site_fract_y
 _atom_site_fract_z
 _atom_site_occupancy
  Er  Er0  1  0.25000000  0.97424000  0.02576000  1.0
  Er  Er1  1  0.74999000  0.02575000  0.97424000  1.0
  H  H2  1  0.47207000  0.89114000  0.20346000  1.0
  H  H3  1  0.02794000  0.79654000  0.10885000  1.0
  H  H4  1  0.52793000  0.10886000  0.79654000  1.0
  H  H5  1  0.97207000  0.20346000  0.89115000  1.0
  H  H6  1  0.32161000  0.84842000  0.28252000  1.0
  H  H7  1  0.17840000  0.71749000  0.15158000  1.0
  H  H8  1  0.67838000  0.15159000  0.71749000  1.0
  H  H9  1  0.82160000  0.28251000  0.84842000  1.0
  H  H10  1  0.40282000  0.58702000  0.84419000  1.0
  H  H11  1  0.09716000  0.15582000  0.41299000  1.0
  H  H12  1  0.59717000  0.41298000  0.15582000  1.0
  H  H13  1  0.90284000  0.84419000  0.58701000  1.0
  H  H14  1  0.53700000  0.37173000  0.80343000  1.0
  H  H15  1  0.96297000  0.19657000  0.62828000  1.0
  H  H16  1  0.46299000  0.62827000  0.19656000  1.0
  H  H17  1  0.03703000  0.80344000  0.37172000  1.0
  H  H18  1  0.92092000  0.50296000  0.86095000  1.0
  H  H19  1  0.57907000  0.13905000  0.49703000  1.0
  H  H20  1  0.07907000  0.49704000  0.13906000  1.0
  H  H21  1  0.42094000  0.86094000  0.50297000  1.0
  H  H22  1  0.80505000  0.72351000  0.89923000  1.0
  H  H23  1  0.69495000  0.10077000  0.27649000  1.0
  H  H24  1  0.19495000  0.27649000  0.10078000  1.0
  H  H25  1  0.30506000  0.89922000  0.72352000  1.0
  H  H26  1  0.35790000  0.17018000  0.56994000  1.0
  H  H27  1  0.14209000  0.43006000  0.82983000  1.0
  H  H28  1  0.64210000  0.82982000  0.43006000  1.0
  H  H29  1  0.85791000  0.56994000  0.17016000  1.0
  H  H30  1  0.35529000  0.35690000  0.39374000  1.0
  H  H31  1  0.14472000  0.60627000  0.64310000  1.0
  H  H32  1  0.64473000  0.64310000  0.60626000  1.0
  H  H33  1  0.85529000  0.39373000  0.35688000  1.0
  C  C34  1  0.52011000  0.79748000  0.91375000  1.0
  C  C35  1  0.97987000  0.08626000  0.20253000  1.0
  C  C36  1  0.47988000  0.20252000  0.08626000  1.0
  C  C37  1  0.02012000  0.91374000  0.79747000  1.0
  C  C38  1  0.59443000  0.67097000  0.87659000  1.0
  C  C39  1  0.90555000  0.12341000  0.32904000  1.0
  C  C40  1  0.40555000  0.32903000  0.12342000  1.0
  C  C41  1  0.09446000  0.87659000  0.67096000  1.0
  C  C42  1  0.51825000  0.57182000  0.84668000  1.0
  C  C43  1  0.98173000  0.15332000  0.42819000  1.0
  C  C44  1  0.48174000  0.42819000  0.15333000  1.0
  C  C45  1  0.01827000  0.84668000  0.57181000  1.0
  C  C46  1  0.59180000  0.45278000  0.82474000  1.0
  C  C47  1  0.90818000  0.17527000  0.54722000  1.0
  C  C48  1  0.40819000  0.54722000  0.17526000  1.0
  C  C49  1  0.09183000  0.82474000  0.45278000  1.0
  C  C50  1  0.80616000  0.52569000  0.85674000  1.0
  C  C51  1  0.69383000  0.14327000  0.47431000  1.0
  C  C52  1  0.19383000  0.47431000  0.14326000  1.0
  C  C53  1  0.30618000  0.85673000  0.52569000  1.0
  C  C54  1  0.74255000  0.64794000  0.87819000  1.0
  C  C55  1  0.75744000  0.12180000  0.35206000  1.0
  C  C56  1  0.25744000  0.35206000  0.12182000  1.0
  C  C57  1  0.24257000  0.87819000  0.64794000  1.0
  C  C58  1  0.24999000  0.17955000  0.82046000  1.0
  C  C59  1  0.75000000  0.82045000  0.17954000  1.0
  C  C60  1  0.24999000  0.28720000  0.71280000  1.0
  C  C61  1  0.75001000  0.71279000  0.28719000  1.0
  C  C62  1  0.31094000  0.26639000  0.58878000  1.0
  C  C63  1  0.18904000  0.41122000  0.73361000  1.0
  C  C64  1  0.68906000  0.73361000  0.41122000  1.0
  C  C65  1  0.81096000  0.58878000  0.26639000  1.0
  C  C66  1  0.30820000  0.37008000  0.49155000  1.0
  C  C67  1  0.19180000  0.50845000  0.62993000  1.0
  C  C68  1  0.69180000  0.62992000  0.50844000  1.0
  C  C69  1  0.80821000  0.49155000  0.37006000  1.0
  N  N70  1  0.73315000  0.42895000  0.83226000  1.0
  N  N71  1  0.76683000  0.16774000  0.57104000  1.0
  N  N72  1  0.26684000  0.57104000  0.16774000  1.0
  N  N73  1  0.23317000  0.83226000  0.42896000  1.0
  N  N74  1  0.25000000  0.48955000  0.51045000  1.0
  N  N75  1  0.75001000  0.51045000  0.48954000  1.0
  O  O76  1  0.38460000  0.80761000  0.92682000  1.0
  O  O77  1  0.11538000  0.07318000  0.19238000  1.0
  O  O78  1  0.61539000  0.19237000  0.07319000  1.0
  O  O79  1  0.88461000  0.92681000  0.80762000  1.0
  O  O80  1  0.34416000  0.08357000  0.81480000  1.0
  O  O81  1  0.15583000  0.18521000  0.91644000  1.0
  O  O82  1  0.65584000  0.91643000  0.18520000  1.0
  O  O83  1  0.84416000  0.81480000  0.08355000  1.0
  O  O84  1  0.37576000  0.86645000  0.19367000  1.0
  O  O85  1  0.12424000  0.80633000  0.13356000  1.0
  O  O86  1  0.62423000  0.13356000  0.80633000  1.0
  O  O87  1  0.87576000  0.19367000  0.86644000  1.0
  O  O88  1  0.59640000  0.88507000  0.93334000  1.0
  O  O89  1  0.90360000  0.06665000  0.11493000  1.0
  O  O90  1  0.40360000  0.11494000  0.06666000  1.0
  O  O91  1  0.09640000  0.93334000  0.88506000  1.0
