# generated using pymatgen
data_AgH5C4(SN2)2
_symmetry_space_group_name_H-M   'P 1'
_cell_length_a   7.35117000
_cell_length_b   7.62171000
_cell_length_c   8.50957000
_cell_angle_alpha   77.40830000
_cell_angle_beta   82.11310000
_cell_angle_gamma   61.44080000
_symmetry_Int_Tables_number   1
_chemical_formula_structural   AgH5C4(SN2)2
_chemical_formula_sum   'Ag2 H10 C8 S4 N8'
_cell_volume   408.39071952
_cell_formula_units_Z   2
loop_
 _symmetry_equiv_pos_site_id
 _symmetry_equiv_pos_as_xyz
  1  'x, y, z'
loop_
 _atom_site_type_symbol
 _atom_site_label
 _atom_site_symmetry_multiplicity
 _atom_site_fract_x
 _atom_site_fract_y
 _atom_site_fract_z
 _atom_site_occupancy
  Ag  Ag0  1  0.43783000  0.05377000  0.18869000  1.0
  Ag  Ag1  1  0.56220000  0.94622000  0.81135000  1.0
  H  H2  1  0.79407000  0.13508000  0.15162000  1.0
  H  H3  1  0.20594000  0.86492000  0.84837000  1.0
  H  H4  1  0.03478000  0.42251000  0.78141000  1.0
  H  H5  1  0.96521000  0.57748000  0.21857000  1.0
  H  H6  1  0.64033000  0.37795000  0.59036000  1.0
  H  H7  1  0.35966000  0.62205000  0.40962000  1.0
  H  H8  1  0.78250000  0.51945000  0.56122000  1.0
  H  H9  1  0.21748000  0.48055000  0.43877000  1.0
  H  H10  1  0.52737000  0.62040000  0.65338000  1.0
  H  H11  1  0.47262000  0.37960000  0.34660000  1.0
  C  C12  1  0.67682000  0.28815000  0.91954000  1.0
  C  C13  1  0.32317000  0.71185000  0.08046000  1.0
  C  C14  1  0.93826000  0.36006000  0.85210000  1.0
  C  C15  1  0.06174000  0.63994000  0.14788000  1.0
  C  C16  1  0.67171000  0.48117000  0.64047000  1.0
  C  C17  1  0.32827000  0.51883000  0.35952000  1.0
  C  C18  1  0.21444000  0.06666000  0.54281000  1.0
  C  C19  1  0.78558000  0.93335000  0.45720000  1.0
  S  S20  1  0.44977000  0.28130000  0.91703000  1.0
  S  S21  1  0.55021000  0.71870000  0.08299000  1.0
  S  S22  1  0.11419000  0.16188000  0.36572000  1.0
  S  S23  1  0.88584000  0.83812000  0.63430000  1.0
  N  N24  1  0.80989000  0.21566000  0.03943000  1.0
  N  N25  1  0.19010000  0.78435000  0.96056000  1.0
  N  N26  1  0.97172000  0.25947000  0.00033000  1.0
  N  N27  1  0.02828000  0.74053000  0.99965000  1.0
  N  N28  1  0.76168000  0.37971000  0.79679000  1.0
  N  N29  1  0.23830000  0.62029000  0.20320000  1.0
  N  N30  1  0.28365000  0.99737000  0.67344000  1.0
  N  N31  1  0.71639000  0.00263000  0.32658000  1.0
