# generated using pymatgen
data_ZnH18C20(N2Cl)2
_symmetry_space_group_name_H-M   'P 1'
_cell_length_a   5.58504000
_cell_length_b   12.00791648
_cell_length_c   15.01386726
_cell_angle_alpha   70.31382280
_cell_angle_beta   79.32289873
_cell_angle_gamma   76.58383679
_symmetry_Int_Tables_number   1
_chemical_formula_structural   ZnH18C20(N2Cl)2
_chemical_formula_sum   'Zn2 H36 C40 N8 Cl4'
_cell_volume   915.84855101
_cell_formula_units_Z   2
loop_
 _symmetry_equiv_pos_site_id
 _symmetry_equiv_pos_as_xyz
  1  'x, y, z'
loop_
 _atom_site_type_symbol
 _atom_site_label
 _atom_site_symmetry_multiplicity
 _atom_site_fract_x
 _atom_site_fract_y
 _atom_site_fract_z
 _atom_site_occupancy
  Zn  Zn0  1  0.33148000  0.74985000  0.25000000  1.0
  Zn  Zn1  1  0.66854000  0.25015000  0.75000000  1.0
  H  H2  1  0.59448000  0.90110000  0.04608000  1.0
  H  H3  1  0.54183000  0.59861000  0.45401000  1.0
  H  H4  1  0.40553000  0.09890000  0.95394000  1.0
  H  H5  1  0.45818000  0.40138000  0.54599000  1.0
  H  H6  1  0.86210000  0.07509000  0.03784000  1.0
  H  H7  1  0.97506000  0.42475000  0.46236000  1.0
  H  H8  1  0.13794000  0.92490000  0.96216000  1.0
  H  H9  1  0.02492000  0.57524000  0.53764000  1.0
  H  H10  1  0.55107000  0.92645000  0.32185000  1.0
  H  H11  1  0.80003000  0.57375000  0.17819000  1.0
  H  H12  1  0.44895000  0.07356000  0.67817000  1.0
  H  H13  1  0.19997000  0.42626000  0.82181000  1.0
  H  H14  1  0.05437000  0.02938000  0.24116000  1.0
  H  H15  1  0.32534000  0.47067000  0.25920000  1.0
  H  H16  1  0.94564000  0.97063000  0.75883000  1.0
  H  H17  1  0.67463000  0.52933000  0.74079000  1.0
  H  H18  1  0.76745000  0.09738000  0.29044000  1.0
  H  H19  1  0.15562000  0.40269000  0.20979000  1.0
  H  H20  1  0.23264000  0.90260000  0.70954000  1.0
  H  H21  1  0.84433000  0.59732000  0.79022000  1.0
  H  H22  1  0.29335000  0.14908000  0.10659000  1.0
  H  H23  1  0.54958000  0.35085000  0.39362000  1.0
  H  H24  1  0.70669000  0.85093000  0.89340000  1.0
  H  H25  1  0.45039000  0.64915000  0.60639000  1.0
  H  H26  1  0.35510000  0.34588000  0.99885000  1.0
  H  H27  1  0.70025000  0.15395000  0.50126000  1.0
  H  H28  1  0.64494000  0.65414000  0.00112000  1.0
  H  H29  1  0.29972000  0.84605000  0.49875000  1.0
  H  H30  1  0.59163000  0.49433000  0.07861000  1.0
  H  H31  1  0.16335000  0.00588000  0.42169000  1.0
  H  H32  1  0.40837000  0.50568000  0.92139000  1.0
  H  H33  1  0.83664000  0.99411000  0.57830000  1.0
  H  H34  1  0.53411000  0.29360000  0.18312000  1.0
  H  H35  1  0.00970000  0.20677000  0.31732000  1.0
  H  H36  1  0.46594000  0.70639000  0.81688000  1.0
  H  H37  1  0.99028000  0.79323000  0.68268000  1.0
  C  C38  1  0.62491000  0.93296000  0.10168000  1.0
  C  C39  1  0.65975000  0.56684000  0.39842000  1.0
  C  C40  1  0.37508000  0.06703000  0.89832000  1.0
  C  C41  1  0.34024000  0.43316000  0.60158000  1.0
  C  C42  1  0.76145000  0.01678000  0.09711000  1.0
  C  C43  1  0.87550000  0.48313000  0.40304000  1.0
  C  C44  1  0.23858000  0.98321000  0.90288000  1.0
  C  C45  1  0.12447000  0.51687000  0.59697000  1.0
  C  C46  1  0.59426000  0.94317000  0.24570000  1.0
  C  C47  1  0.78364000  0.55692000  0.25435000  1.0
  C  C48  1  0.40576000  0.05683000  0.75429000  1.0
  C  C49  1  0.21635000  0.44308000  0.74565000  1.0
  C  C50  1  0.87486000  0.08707000  0.22363000  1.0
  C  C51  1  0.18579000  0.41304000  0.27665000  1.0
  C  C52  1  0.12525000  0.91298000  0.77637000  1.0
  C  C53  1  0.81426000  0.58693000  0.72335000  1.0
  C  C54  1  0.90960000  0.20751000  0.15388000  1.0
  C  C55  1  0.27088000  0.29252000  0.34644000  1.0
  C  C56  1  0.09040000  0.79246000  0.84613000  1.0
  C  C57  1  0.72908000  0.70749000  0.65356000  1.0
  C  C58  1  0.13857000  0.22488000  0.10034000  1.0
  C  C59  1  0.46396000  0.27510000  0.39989000  1.0
  C  C60  1  0.86141000  0.77511000  0.89967000  1.0
  C  C61  1  0.53600000  0.72490000  0.60011000  1.0
  C  C62  1  0.17324000  0.33816000  0.03947000  1.0
  C  C63  1  0.55098000  0.16175000  0.46068000  1.0
  C  C64  1  0.82675000  0.66184000  0.96052000  1.0
  C  C65  1  0.44898000  0.83825000  0.53931000  1.0
  C  C66  1  0.98056000  0.43916000  0.03079000  1.0
  C  C67  1  0.45014000  0.06087000  0.46931000  1.0
  C  C68  1  0.01945000  0.56087000  0.96919000  1.0
  C  C69  1  0.54984000  0.93910000  0.53070000  1.0
  C  C70  1  0.74863000  0.41990000  0.08330000  1.0
  C  C71  1  0.25079000  0.08026000  0.41699000  1.0
  C  C72  1  0.25137000  0.58009000  0.91670000  1.0
  C  C73  1  0.74917000  0.91974000  0.58300000  1.0
  C  C74  1  0.71461000  0.30638000  0.14316000  1.0
  C  C75  1  0.16326000  0.19380000  0.35724000  1.0
  C  C76  1  0.28543000  0.69359000  0.85685000  1.0
  C  C77  1  0.83671000  0.80621000  0.64275000  1.0
  N  N78  1  0.52030000  0.88873000  0.19439000  1.0
  N  N79  1  0.60377000  0.61117000  0.30566000  1.0
  N  N80  1  0.47969000  0.11127000  0.80560000  1.0
  N  N81  1  0.39619000  0.38885000  0.69435000  1.0
  N  N82  1  0.73946000  0.02187000  0.18902000  1.0
  N  N83  1  0.95072000  0.47826000  0.31111000  1.0
  N  N84  1  0.26061000  0.97814000  0.81097000  1.0
  N  N85  1  0.04926000  0.52174000  0.68890000  1.0
  Cl  Cl86  1  0.23104000  0.71488000  0.12484000  1.0
  Cl  Cl87  1  0.07072000  0.78466000  0.37506000  1.0
  Cl  Cl88  1  0.76896000  0.28513000  0.87517000  1.0
  Cl  Cl89  1  0.92926000  0.21535000  0.62494000  1.0
