# generated using pymatgen
data_AgH3C4NO3
_symmetry_space_group_name_H-M   'P 1'
_cell_length_a   7.37966000
_cell_length_b   10.84480000
_cell_length_c   13.64830000
_cell_angle_alpha   89.99970000
_cell_angle_beta   77.46700000
_cell_angle_gamma   89.99970000
_symmetry_Int_Tables_number   1
_chemical_formula_structural   AgH3C4NO3
_chemical_formula_sum   'Ag8 H24 C32 N8 O24'
_cell_volume   1066.25834758
_cell_formula_units_Z   8
loop_
 _symmetry_equiv_pos_site_id
 _symmetry_equiv_pos_as_xyz
  1  'x, y, z'
loop_
 _atom_site_type_symbol
 _atom_site_label
 _atom_site_symmetry_multiplicity
 _atom_site_fract_x
 _atom_site_fract_y
 _atom_site_fract_z
 _atom_site_occupancy
  Ag  Ag0  1  0.19670000  0.52888000  0.50932000  1.0
  Ag  Ag1  1  0.30330000  0.02888000  0.49068000  1.0
  Ag  Ag2  1  0.80331000  0.47113000  0.49068000  1.0
  Ag  Ag3  1  0.69669000  0.97113000  0.50932000  1.0
  Ag  Ag4  1  0.51054000  0.79061000  0.41133000  1.0
  Ag  Ag5  1  0.98946000  0.29061000  0.58867000  1.0
  Ag  Ag6  1  0.48946000  0.20939000  0.58867000  1.0
  Ag  Ag7  1  0.01054000  0.70939000  0.41133000  1.0
  H  H8  1  0.75500000  0.10772000  0.19554000  1.0
  H  H9  1  0.74501000  0.60773000  0.80446000  1.0
  H  H10  1  0.24500000  0.89228000  0.80447000  1.0
  H  H11  1  0.25499000  0.39227000  0.19554000  1.0
  H  H12  1  0.87702000  0.43061000  0.00839000  1.0
  H  H13  1  0.62298000  0.93060000  0.99161000  1.0
  H  H14  1  0.12299000  0.56938000  0.99161000  1.0
  H  H15  1  0.37702000  0.06939000  0.00839000  1.0
  H  H16  1  0.91426000  0.20570000  0.03326000  1.0
  H  H17  1  0.58575000  0.70569000  0.96673000  1.0
  H  H18  1  0.08574000  0.79430000  0.96674000  1.0
  H  H19  1  0.41426000  0.29430000  0.03327000  1.0
  H  H20  1  0.52745000  0.96451000  0.27662000  1.0
  H  H21  1  0.97255000  0.46452000  0.72338000  1.0
  H  H22  1  0.47254000  0.03549000  0.72338000  1.0
  H  H23  1  0.02745000  0.53549000  0.27662000  1.0
  H  H24  1  0.71853000  0.88067000  0.24133000  1.0
  H  H25  1  0.78147000  0.38067000  0.75867000  1.0
  H  H26  1  0.28146000  0.11933000  0.75867000  1.0
  H  H27  1  0.21853000  0.61933000  0.24133000  1.0
  H  H28  1  0.52289000  0.83104000  0.21358000  1.0
  H  H29  1  0.97711000  0.33104000  0.78643000  1.0
  H  H30  1  0.47711000  0.16896000  0.78643000  1.0
  H  H31  1  0.02289000  0.66896000  0.21357000  1.0
  C  C32  1  0.74090000  0.20604000  0.18320000  1.0
  C  C33  1  0.75909000  0.70605000  0.81680000  1.0
  C  C34  1  0.25910000  0.79395000  0.81680000  1.0
  C  C35  1  0.24091000  0.29395000  0.18320000  1.0
  C  C36  1  0.81190000  0.38653000  0.07884000  1.0
  C  C37  1  0.68810000  0.88653000  0.92116000  1.0
  C  C38  1  0.18811000  0.61347000  0.92116000  1.0
  C  C39  1  0.31190000  0.11347000  0.07884000  1.0
  C  C40  1  0.70367000  0.45522000  0.15644000  1.0
  C  C41  1  0.79632000  0.95522000  0.84356000  1.0
  C  C42  1  0.29634000  0.54478000  0.84356000  1.0
  C  C43  1  0.20367000  0.04478000  0.15644000  1.0
  C  C44  1  0.61766000  0.40441000  0.24924000  1.0
  C  C45  1  0.88233000  0.90441000  0.75075000  1.0
  C  C46  1  0.38235000  0.59559000  0.75076000  1.0
  C  C47  1  0.11766000  0.09559000  0.24924000  1.0
  C  C48  1  0.83000000  0.26046000  0.09301000  1.0
  C  C49  1  0.66999000  0.76046000  0.90699000  1.0
  C  C50  1  0.17000000  0.73953000  0.90700000  1.0
  C  C51  1  0.33000000  0.23954000  0.09301000  1.0
  C  C52  1  0.51719000  0.48455000  0.33457000  1.0
  C  C53  1  0.98281000  0.98456000  0.66543000  1.0
  C  C54  1  0.48282000  0.51545000  0.66543000  1.0
  C  C55  1  0.01719000  0.01544000  0.33457000  1.0
  C  C56  1  0.63776000  0.27697000  0.26137000  1.0
  C  C57  1  0.86223000  0.77697000  0.73862000  1.0
  C  C58  1  0.36224000  0.72303000  0.73863000  1.0
  C  C59  1  0.13777000  0.22303000  0.26137000  1.0
  C  C60  1  0.55235000  0.21634000  0.35938000  1.0
  C  C61  1  0.94765000  0.71634000  0.64061000  1.0
  C  C62  1  0.44765000  0.78367000  0.64062000  1.0
  C  C63  1  0.05235000  0.28366000  0.35938000  1.0
  N  N64  1  0.67852000  0.58591000  0.13851000  1.0
  N  N65  1  0.82148000  0.08591000  0.86150000  1.0
  N  N66  1  0.32148000  0.41409000  0.86149000  1.0
  N  N67  1  0.17852000  0.91409000  0.13851000  1.0
  N  N68  1  0.57774000  0.87594000  0.26626000  1.0
  N  N69  1  0.92226000  0.37595000  0.73374000  1.0
  N  N70  1  0.42226000  0.12406000  0.73374000  1.0
  N  N71  1  0.07774000  0.62406000  0.26626000  1.0
  O  O72  1  0.34498000  0.46083000  0.36457000  1.0
  O  O73  1  0.15502000  0.96083000  0.63544000  1.0
  O  O74  1  0.65503000  0.53917000  0.63544000  1.0
  O  O75  1  0.84498000  0.03917000  0.36456000  1.0
  O  O76  1  0.81573000  0.64654000  0.09543000  1.0
  O  O77  1  0.68426000  0.14654000  0.90458000  1.0
  O  O78  1  0.18428000  0.35345000  0.90457000  1.0
  O  O79  1  0.31574000  0.85345000  0.09542000  1.0
  O  O80  1  0.61140000  0.56564000  0.36719000  1.0
  O  O81  1  0.88860000  0.06564000  0.63281000  1.0
  O  O82  1  0.38860000  0.43437000  0.63281000  1.0
  O  O83  1  0.11140000  0.93436000  0.36719000  1.0
  O  O84  1  0.51963000  0.63040000  0.16589000  1.0
  O  O85  1  0.98036000  0.13039000  0.83412000  1.0
  O  O86  1  0.48038000  0.36959000  0.83410000  1.0
  O  O87  1  0.01964000  0.86960000  0.16589000  1.0
  O  O88  1  0.57358000  0.27191000  0.43801000  1.0
  O  O89  1  0.92642000  0.77192000  0.56199000  1.0
  O  O90  1  0.42643000  0.72809000  0.56199000  1.0
  O  O91  1  0.07357000  0.22809000  0.43801000  1.0
  O  O92  1  0.46588000  0.11623000  0.35427000  1.0
  O  O93  1  0.03413000  0.61624000  0.64572000  1.0
  O  O94  1  0.53412000  0.88377000  0.64573000  1.0
  O  O95  1  0.96587000  0.38376000  0.35427000  1.0
