# generated using pymatgen
data_CaH8C10(O3F2)2
_symmetry_space_group_name_H-M   'P 1'
_cell_length_a   7.68859000
_cell_length_b   10.39510000
_cell_length_c   10.39500000
_cell_angle_alpha   116.01700000
_cell_angle_beta   96.87410000
_cell_angle_gamma   96.87390000
_symmetry_Int_Tables_number   1
_chemical_formula_structural   CaH8C10(O3F2)2
_chemical_formula_sum   'Ca2 H16 C20 O12 F8'
_cell_volume   727.31420645
_cell_formula_units_Z   2
loop_
 _symmetry_equiv_pos_site_id
 _symmetry_equiv_pos_as_xyz
  1  'x, y, z'
loop_
 _atom_site_type_symbol
 _atom_site_label
 _atom_site_symmetry_multiplicity
 _atom_site_fract_x
 _atom_site_fract_y
 _atom_site_fract_z
 _atom_site_occupancy
  Ca  Ca0  1  0.75000000  0.96522000  0.03478000  1.0
  Ca  Ca1  1  0.25000000  0.03478000  0.96522000  1.0
  H  H2  1  0.02032000  0.28646000  0.41984000  1.0
  H  H3  1  0.47968000  0.58015000  0.71354000  1.0
  H  H4  1  0.97969000  0.71354000  0.58015000  1.0
  H  H5  1  0.52032000  0.41984000  0.28646000  1.0
  H  H6  1  0.93904000  0.17417000  0.49863000  1.0
  H  H7  1  0.56096000  0.50137000  0.82583000  1.0
  H  H8  1  0.06096000  0.82583000  0.50137000  1.0
  H  H9  1  0.43904000  0.49863000  0.17417000  1.0
  H  H10  1  0.78635000  0.21979000  0.38797000  1.0
  H  H11  1  0.71364000  0.61203000  0.78021000  1.0
  H  H12  1  0.21365000  0.78021000  0.61203000  1.0
  H  H13  1  0.28636000  0.38797000  0.21979000  1.0
  H  H14  1  0.05599000  0.06510000  0.26619000  1.0
  H  H15  1  0.44401000  0.73381000  0.93491000  1.0
  H  H16  1  0.94401000  0.93490000  0.73381000  1.0
  H  H17  1  0.55599000  0.26619000  0.06510000  1.0
  C  C18  1  0.90498000  0.24249000  0.04285000  1.0
  C  C19  1  0.59503000  0.95714000  0.75750000  1.0
  C  C20  1  0.09502000  0.75751000  0.95715000  1.0
  C  C21  1  0.40497000  0.04286000  0.24250000  1.0
  C  C22  1  0.95299000  0.37504000  0.02062000  1.0
  C  C23  1  0.54701000  0.97938000  0.62496000  1.0
  C  C24  1  0.04702000  0.62496000  0.97938000  1.0
  C  C25  1  0.45298000  0.02062000  0.37504000  1.0
  C  C26  1  0.96052000  0.51523000  0.13167000  1.0
  C  C27  1  0.53948000  0.86833000  0.48477000  1.0
  C  C28  1  0.03949000  0.48477000  0.86833000  1.0
  C  C29  1  0.46052000  0.13167000  0.51524000  1.0
  C  C30  1  0.00698000  0.63780000  0.11156000  1.0
  C  C31  1  0.49301000  0.88845000  0.36221000  1.0
  C  C32  1  0.99302000  0.36221000  0.88844000  1.0
  C  C33  1  0.50698000  0.11155000  0.63780000  1.0
  C  C34  1  0.91884000  0.19322000  0.40224000  1.0
  C  C35  1  0.58115000  0.59776000  0.80678000  1.0
  C  C36  1  0.08116000  0.80678000  0.59776000  1.0
  C  C37  1  0.41885000  0.40224000  0.19322000  1.0
  O  O38  1  0.75889000  0.22314000  0.08265000  1.0
  O  O39  1  0.74111000  0.91735000  0.77685000  1.0
  O  O40  1  0.24111000  0.77686000  0.91735000  1.0
  O  O41  1  0.25889000  0.08265000  0.22314000  1.0
  O  O42  1  0.01225000  0.15516000  0.01935000  1.0
  O  O43  1  0.48775000  0.98065000  0.84485000  1.0
  O  O44  1  0.98775000  0.84484000  0.98065000  1.0
  O  O45  1  0.51225000  0.01935000  0.15515000  1.0
  O  O46  1  0.92792000  0.06522000  0.27299000  1.0
  O  O47  1  0.57208000  0.72701000  0.93478000  1.0
  O  O48  1  0.07208000  0.93478000  0.72701000  1.0
  O  O49  1  0.42792000  0.27299000  0.06522000  1.0
  F  F50  1  0.92735000  0.53397000  0.26330000  1.0
  F  F51  1  0.57264000  0.73670000  0.46602000  1.0
  F  F52  1  0.07265000  0.46603000  0.73670000  1.0
  F  F53  1  0.42736000  0.26330000  0.53398000  1.0
  F  F54  1  0.01767000  0.77142000  0.22453000  1.0
  F  F55  1  0.48232000  0.77548000  0.22858000  1.0
  F  F56  1  0.98233000  0.22859000  0.77547000  1.0
  F  F57  1  0.51768000  0.22453000  0.77142000  1.0
