# generated using pymatgen
data_ZnSiH16C24N4(O2F3)2
_symmetry_space_group_name_H-M   'P 1'
_cell_length_a   7.65385000
_cell_length_b   14.00920000
_cell_length_c   14.00930000
_cell_angle_alpha   90.01660000
_cell_angle_beta   89.85660000
_cell_angle_gamma   89.85620000
_symmetry_Int_Tables_number   1
_chemical_formula_structural   ZnSiH16C24N4(O2F3)2
_chemical_formula_sum   'Zn1 Si1 H16 C24 N4 O4 F6'
_cell_volume   1502.12810052
_cell_formula_units_Z   1
loop_
 _symmetry_equiv_pos_site_id
 _symmetry_equiv_pos_as_xyz
  1  'x, y, z'
loop_
 _atom_site_type_symbol
 _atom_site_label
 _atom_site_symmetry_multiplicity
 _atom_site_fract_x
 _atom_site_fract_y
 _atom_site_fract_z
 _atom_site_occupancy
  Zn  Zn0  1  0.50002000  0.50000000  0.50000000  1.0
  Si  Si1  1  0.00001000  0.50000000  0.50000000  1.0
  H  H2  1  0.22712000  0.65983000  0.49976000  1.0
  H  H3  1  0.20674000  0.83629000  0.49977000  1.0
  H  H4  1  0.77254000  0.66698000  0.50014000  1.0
  H  H5  1  0.22749000  0.33301000  0.49980000  1.0
  H  H6  1  0.77291000  0.34016000  0.50033000  1.0
  H  H7  1  0.79328000  0.16370000  0.50034000  1.0
  H  H8  1  0.22713000  0.49978000  0.65983000  1.0
  H  H9  1  0.20674000  0.49977000  0.83629000  1.0
  H  H10  1  0.77254000  0.50019000  0.66699000  1.0
  H  H11  1  0.22748000  0.49986000  0.33301000  1.0
  H  H12  1  0.77290000  0.50014000  0.34016000  1.0
  H  H13  1  0.79328000  0.50013000  0.16371000  1.0
  H  H14  1  0.78221000  0.92105000  0.50005000  1.0
  H  H15  1  0.21780000  0.07894000  0.49994000  1.0
  H  H16  1  0.78220000  0.50004000  0.92106000  1.0
  H  H17  1  0.21780000  0.49997000  0.07894000  1.0
  C  C18  1  0.34497000  0.70296000  0.49982000  1.0
  C  C19  1  0.33437000  0.80169000  0.49983000  1.0
  C  C20  1  0.48881000  0.85589000  0.49995000  1.0
  C  C21  1  0.65001000  0.80602000  0.50005000  1.0
  C  C22  1  0.64935000  0.70621000  0.50008000  1.0
  C  C23  1  0.49094000  0.95658000  0.50000000  1.0
  C  C24  1  0.50907000  0.04342000  0.50008000  1.0
  C  C25  1  0.51121000  0.14410000  0.50011000  1.0
  C  C26  1  0.35001000  0.19398000  0.49996000  1.0
  C  C27  1  0.35068000  0.29378000  0.49991000  1.0
  C  C28  1  0.65505000  0.29703000  0.50025000  1.0
  C  C29  1  0.66564000  0.19830000  0.50025000  1.0
  C  C30  1  0.34498000  0.49985000  0.70296000  1.0
  C  C31  1  0.33438000  0.49984000  0.80169000  1.0
  C  C32  1  0.48882000  0.49994000  0.85589000  1.0
  C  C33  1  0.65000000  0.50006000  0.80602000  1.0
  C  C34  1  0.64935000  0.50011000  0.70622000  1.0
  C  C35  1  0.49094000  0.49995000  0.95656000  1.0
  C  C36  1  0.50907000  0.49999000  0.04343000  1.0
  C  C37  1  0.51120000  0.50001000  0.14411000  1.0
  C  C38  1  0.35001000  0.49993000  0.19398000  1.0
  C  C39  1  0.35067000  0.49990000  0.29378000  1.0
  C  C40  1  0.65504000  0.50010000  0.29704000  1.0
  C  C41  1  0.66563000  0.50009000  0.19831000  1.0
  N  N42  1  0.49974000  0.65624000  0.49997000  1.0
  N  N43  1  0.50029000  0.34376000  0.50005000  1.0
  N  N44  1  0.49974000  0.50000000  0.65624000  1.0
  N  N45  1  0.50027000  0.49998000  0.34376000  1.0
  O  O46  1  0.80606000  0.85228000  0.50011000  1.0
  O  O47  1  0.19396000  0.14772000  0.49986000  1.0
  O  O48  1  0.80606000  0.50012000  0.85229000  1.0
  O  O49  1  0.19395000  0.49990000  0.14772000  1.0
  F  F50  1  0.22906000  0.49829000  0.49829000  1.0
  F  F51  1  0.77097000  0.50171000  0.50171000  1.0
  F  F52  1  0.00001000  0.58576000  0.41424000  1.0
  F  F53  1  0.00002000  0.41424000  0.58577000  1.0
  F  F54  1  0.00238000  0.58578000  0.58577000  1.0
  F  F55  1  0.99764000  0.41422000  0.41423000  1.0
