# generated using pymatgen
data_SmH7(C3O4)2
_symmetry_space_group_name_H-M   'P 1'
_cell_length_a   9.57995000
_cell_length_b   14.60530000
_cell_length_c   14.72270000
_cell_angle_alpha   90.00000000
_cell_angle_beta   91.52790000
_cell_angle_gamma   90.00000000
_symmetry_Int_Tables_number   1
_chemical_formula_structural   SmH7(C3O4)2
_chemical_formula_sum   'Sm8 H56 C48 O64'
_cell_volume   2059.23897960
_cell_formula_units_Z   8
loop_
 _symmetry_equiv_pos_site_id
 _symmetry_equiv_pos_as_xyz
  1  'x, y, z'
loop_
 _atom_site_type_symbol
 _atom_site_label
 _atom_site_symmetry_multiplicity
 _atom_site_fract_x
 _atom_site_fract_y
 _atom_site_fract_z
 _atom_site_occupancy
  Sm  Sm0  1  0.80469000  0.35257000  0.90618000  1.0
  Sm  Sm1  1  0.69531000  0.85257000  0.59382000  1.0
  Sm  Sm2  1  0.19531000  0.64743000  0.09382000  1.0
  Sm  Sm3  1  0.30469000  0.14743000  0.40618000  1.0
  Sm  Sm4  1  0.02146000  0.16596000  0.74509000  1.0
  Sm  Sm5  1  0.47854000  0.66596000  0.75491000  1.0
  Sm  Sm6  1  0.97854000  0.83404000  0.25491000  1.0
  Sm  Sm7  1  0.52146000  0.33404000  0.24509000  1.0
  H  H8  1  0.30830000  0.39293000  0.80466000  1.0
  H  H9  1  0.19170000  0.89294000  0.69534000  1.0
  H  H10  1  0.69170000  0.60707000  0.19534000  1.0
  H  H11  1  0.80830000  0.10706000  0.30466000  1.0
  H  H12  1  0.31022000  0.30105000  0.99464000  1.0
  H  H13  1  0.18978000  0.80105000  0.50536000  1.0
  H  H14  1  0.68978000  0.69895000  0.00536000  1.0
  H  H15  1  0.81022000  0.19895000  0.49464000  1.0
  H  H16  1  0.50322000  0.19876000  0.79398000  1.0
  H  H17  1  0.99678000  0.69877000  0.70602000  1.0
  H  H18  1  0.49679000  0.80124000  0.20602000  1.0
  H  H19  1  0.00322000  0.30124000  0.29398000  1.0
  H  H20  1  0.54750000  0.15526000  0.59143000  1.0
  H  H21  1  0.95250000  0.65526000  0.90857000  1.0
  H  H22  1  0.45250000  0.84474000  0.40857000  1.0
  H  H23  1  0.04750000  0.34474000  0.09143000  1.0
  H  H24  1  0.12995000  0.06178000  0.04284000  1.0
  H  H25  1  0.37005000  0.56178000  0.45716000  1.0
  H  H26  1  0.87005000  0.93822000  0.95716000  1.0
  H  H27  1  0.62995000  0.43822000  0.54284000  1.0
  H  H28  1  0.85804000  0.13442000  0.12470000  1.0
  H  H29  1  0.64196000  0.63442000  0.37530000  1.0
  H  H30  1  0.14196000  0.86558000  0.87530000  1.0
  H  H31  1  0.35804000  0.36558000  0.62470000  1.0
  H  H32  1  0.72087000  0.45884000  0.72563000  1.0
  H  H33  1  0.77913000  0.95884000  0.77437000  1.0
  H  H34  1  0.27913000  0.54116000  0.27437000  1.0
  H  H35  1  0.22087000  0.04116000  0.22563000  1.0
  H  H36  1  0.85099000  0.39322000  0.70406000  1.0
  H  H37  1  0.64901000  0.89322000  0.79594000  1.0
  H  H38  1  0.14901000  0.60678000  0.29594000  1.0
  H  H39  1  0.35099000  0.10678000  0.20406000  1.0
  H  H40  1  0.84791000  0.54053000  0.98359000  1.0
  H  H41  1  0.65210000  0.04053000  0.51641000  1.0
  H  H42  1  0.15210000  0.45947000  0.01641000  1.0
  H  H43  1  0.34791000  0.95947000  0.48359000  1.0
  H  H44  1  0.76305000  0.56310000  0.89159000  1.0
  H  H45  1  0.73696000  0.06310000  0.60841000  1.0
  H  H46  1  0.23696000  0.43690000  0.10841000  1.0
  H  H47  1  0.26305000  0.93690000  0.39159000  1.0
  H  H48  1  0.02979000  0.26929000  0.56204000  1.0
  H  H49  1  0.47021000  0.76929000  0.93795000  1.0
  H  H50  1  0.97021000  0.73071000  0.43796000  1.0
  H  H51  1  0.52979000  0.23071000  0.06205000  1.0
  H  H52  1  0.08016000  0.33352000  0.64320000  1.0
  H  H53  1  0.41984000  0.83352000  0.85680000  1.0
  H  H54  1  0.91984000  0.66648000  0.35680000  1.0
  H  H55  1  0.58016000  0.16648000  0.14320000  1.0
  H  H56  1  0.12842000  0.07601000  0.58814000  1.0
  H  H57  1  0.37158000  0.57601000  0.91186000  1.0
  H  H58  1  0.87158000  0.92399000  0.41186000  1.0
  H  H59  1  0.62842000  0.42399000  0.08814000  1.0
  H  H60  1  0.00375000  0.00724000  0.61449000  1.0
  H  H61  1  0.49625000  0.50724000  0.88551000  1.0
  H  H62  1  0.99625000  0.99276000  0.38551000  1.0
  H  H63  1  0.50375000  0.49276000  0.11449000  1.0
  C  C64  1  0.11215000  0.36268000  0.87199000  1.0
  C  C65  1  0.38785000  0.86268000  0.62801000  1.0
  C  C66  1  0.88785000  0.63732000  0.12801000  1.0
  C  C67  1  0.61215000  0.13732000  0.37199000  1.0
  C  C68  1  0.26610000  0.36475000  0.86683000  1.0
  C  C69  1  0.23390000  0.86475000  0.63317000  1.0
  C  C70  1  0.73390000  0.63525000  0.13317000  1.0
  C  C71  1  0.76610000  0.13525000  0.36683000  1.0
  C  C72  1  0.35044000  0.33234000  0.93338000  1.0
  C  C73  1  0.14956000  0.83234000  0.56662000  1.0
  C  C74  1  0.64956000  0.66766000  0.06662000  1.0
  C  C75  1  0.85044000  0.16766000  0.43339000  1.0
  C  C76  1  0.50358000  0.33382000  0.92386000  1.0
  C  C77  1  0.99642000  0.83382000  0.57615000  1.0
  C  C78  1  0.49642000  0.66618000  0.07614000  1.0
  C  C79  1  0.00358000  0.16618000  0.42385000  1.0
  C  C80  1  0.71263000  0.18861000  0.73557000  1.0
  C  C81  1  0.78737000  0.68861000  0.76442000  1.0
  C  C82  1  0.28738000  0.81139000  0.26442000  1.0
  C  C83  1  0.21263000  0.31139000  0.23558000  1.0
  C  C84  1  0.55829000  0.18574000  0.73147000  1.0
  C  C85  1  0.94171000  0.68574000  0.76852000  1.0
  C  C86  1  0.44171000  0.81426000  0.26852000  1.0
  C  C87  1  0.05829000  0.31426000  0.23148000  1.0
  C  C88  1  0.48989000  0.16782000  0.65280000  1.0
  C  C89  1  0.01011000  0.66782000  0.84720000  1.0
  C  C90  1  0.51011000  0.83219000  0.34720000  1.0
  C  C91  1  0.98989000  0.33219000  0.15280000  1.0
  C  C92  1  0.33596000  0.15829000  0.64211000  1.0
  C  C93  1  0.16404000  0.65829000  0.85789000  1.0
  C  C94  1  0.66404000  0.84171000  0.35789000  1.0
  C  C95  1  0.83596000  0.34171000  0.14211000  1.0
  C  C96  1  0.00494000  0.16971000  0.97505000  1.0
  C  C97  1  0.49506000  0.66972000  0.52494000  1.0
  C  C98  1  0.99506000  0.83028000  0.02494000  1.0
  C  C99  1  0.50494000  0.33028000  0.47506000  1.0
  C  C100  1  0.03830000  0.10510000  0.05066000  1.0
  C  C101  1  0.46170000  0.60511000  0.44934000  1.0
  C  C102  1  0.96170000  0.89489000  0.94935000  1.0
  C  C103  1  0.53829000  0.39489000  0.55066000  1.0
  C  C104  1  0.95219000  0.09290000  0.11994000  1.0
  C  C105  1  0.54781000  0.59290000  0.38006000  1.0
  C  C106  1  0.04781000  0.90710000  0.88006000  1.0
  C  C107  1  0.45219000  0.40710000  0.61994000  1.0
  C  C108  1  0.96677000  0.01448000  0.18274000  1.0
  C  C109  1  0.53322000  0.51448000  0.31726000  1.0
  C  C110  1  0.03322000  0.98552000  0.81726000  1.0
  C  C111  1  0.46678000  0.48552000  0.68274000  1.0
  O  O112  1  0.03925000  0.32575000  0.80768000  1.0
  O  O113  1  0.46075000  0.82575000  0.69232000  1.0
  O  O114  1  0.96075000  0.67425000  0.19232000  1.0
  O  O115  1  0.53925000  0.17425000  0.30768000  1.0
  O  O116  1  0.05334000  0.39853000  0.93997000  1.0
  O  O117  1  0.44666000  0.89853000  0.56003000  1.0
  O  O118  1  0.94666000  0.60147000  0.06003000  1.0
  O  O119  1  0.55334000  0.10147000  0.43997000  1.0
  O  O120  1  0.58099000  0.27547000  0.96622000  1.0
  O  O121  1  0.91901000  0.77547000  0.53378000  1.0
  O  O122  1  0.41901000  0.72453000  0.03378000  1.0
  O  O123  1  0.08099000  0.22453000  0.46622000  1.0
  O  O124  1  0.55890000  0.39337000  0.87176000  1.0
  O  O125  1  0.94110000  0.89337000  0.62825000  1.0
  O  O126  1  0.44110000  0.60663000  0.12824000  1.0
  O  O127  1  0.05890000  0.10663000  0.37176000  1.0
  O  O128  1  0.77693000  0.22468000  0.80433000  1.0
  O  O129  1  0.72307000  0.72468000  0.69567000  1.0
  O  O130  1  0.22307000  0.77532000  0.19567000  1.0
  O  O131  1  0.27693000  0.27532000  0.30433000  1.0
  O  O132  1  0.78411000  0.15474000  0.67175000  1.0
  O  O133  1  0.71590000  0.65474000  0.82824000  1.0
  O  O134  1  0.21589000  0.84526000  0.32824000  1.0
  O  O135  1  0.28411000  0.34526000  0.17176000  1.0
  O  O136  1  0.29221000  0.11565000  0.57056000  1.0
  O  O137  1  0.20779000  0.61564000  0.92944000  1.0
  O  O138  1  0.70779000  0.88435000  0.42944000  1.0
  O  O139  1  0.79221000  0.38435000  0.07056000  1.0
  O  O140  1  0.25708000  0.18921000  0.70285000  1.0
  O  O141  1  0.24293000  0.68921000  0.79715000  1.0
  O  O142  1  0.74293000  0.81079000  0.29715000  1.0
  O  O143  1  0.75707000  0.31079000  0.20285000  1.0
  O  O144  1  0.90516000  0.22621000  0.98451000  1.0
  O  O145  1  0.59484000  0.72621000  0.51549000  1.0
  O  O146  1  0.09484000  0.77379000  0.01549000  1.0
  O  O147  1  0.40516000  0.27379000  0.48451000  1.0
  O  O148  1  0.07773000  0.16179000  0.90439000  1.0
  O  O149  1  0.42227000  0.66179000  0.59561000  1.0
  O  O150  1  0.92227000  0.83821000  0.09561000  1.0
  O  O151  1  0.57773000  0.33821000  0.40439000  1.0
  O  O152  1  0.85687000  0.98203000  0.21657000  1.0
  O  O153  1  0.64313000  0.48203000  0.28343000  1.0
  O  O154  1  0.14313000  0.01797000  0.78343000  1.0
  O  O155  1  0.35687000  0.51797000  0.71657000  1.0
  O  O156  1  0.08672000  0.97565000  0.19700000  1.0
  O  O157  1  0.41328000  0.47565000  0.30300000  1.0
  O  O158  1  0.91328000  0.02435000  0.80300000  1.0
  O  O159  1  0.58672000  0.52435000  0.69700000  1.0
  O  O160  1  0.79976000  0.42169000  0.75286000  1.0
  O  O161  1  0.70024000  0.92169000  0.74714000  1.0
  O  O162  1  0.20024000  0.57831000  0.24714000  1.0
  O  O163  1  0.29976000  0.07831000  0.25286000  1.0
  O  O164  1  0.79259000  0.51220000  0.93275000  1.0
  O  O165  1  0.70741000  0.01220000  0.56725000  1.0
  O  O166  1  0.20741000  0.48780000  0.06725000  1.0
  O  O167  1  0.29259000  0.98780000  0.43275000  1.0
  O  O168  1  0.00670000  0.29049000  0.62538000  1.0
  O  O169  1  0.49331000  0.79049000  0.87461000  1.0
  O  O170  1  0.99331000  0.70951000  0.37462000  1.0
  O  O171  1  0.50669000  0.20951000  0.12539000  1.0
  O  O172  1  0.02945000  0.07267000  0.60760000  1.0
  O  O173  1  0.47055000  0.57267000  0.89240000  1.0
  O  O174  1  0.97055000  0.92733000  0.39240000  1.0
  O  O175  1  0.52945000  0.42733000  0.10760000  1.0
