# generated using pymatgen
data_CdH20C25(NO2)3
_symmetry_space_group_name_H-M   'P 1'
_cell_length_a   9.73347000
_cell_length_b   10.65970000
_cell_length_c   11.07280000
_cell_angle_alpha   108.86100000
_cell_angle_beta   99.43000000
_cell_angle_gamma   96.34320000
_symmetry_Int_Tables_number   1
_chemical_formula_structural   CdH20C25(NO2)3
_chemical_formula_sum   'Cd2 H40 C50 N6 O12'
_cell_volume   1055.92130490
_cell_formula_units_Z   2
loop_
 _symmetry_equiv_pos_site_id
 _symmetry_equiv_pos_as_xyz
  1  'x, y, z'
loop_
 _atom_site_type_symbol
 _atom_site_label
 _atom_site_symmetry_multiplicity
 _atom_site_fract_x
 _atom_site_fract_y
 _atom_site_fract_z
 _atom_site_occupancy
  Cd  Cd0  1  0.19300000  0.47447000  0.64874000  1.0
  Cd  Cd1  1  0.80700000  0.52553000  0.35126000  1.0
  H  H2  1  0.91981000  0.31889000  0.49888000  1.0
  H  H3  1  0.08019000  0.68111000  0.50112000  1.0
  H  H4  1  0.00156000  0.26886000  0.61179000  1.0
  H  H5  1  0.99844000  0.73114000  0.38821000  1.0
  H  H6  1  0.14716000  0.93485000  0.66243000  1.0
  H  H7  1  0.85283000  0.06515000  0.33757000  1.0
  H  H8  1  0.53784000  0.88566000  0.87222000  1.0
  H  H9  1  0.46215000  0.11434000  0.12778000  1.0
  H  H10  1  0.63139000  0.13121000  0.93488000  1.0
  H  H11  1  0.36861000  0.86879000  0.06512000  1.0
  H  H12  1  0.48473000  0.27343000  0.85056000  1.0
  H  H13  1  0.51527000  0.72657000  0.14944000  1.0
  H  H14  1  0.02274000  0.65462000  0.85618000  1.0
  H  H15  1  0.97726000  0.34538000  0.14382000  1.0
  H  H16  1  0.02100000  0.73958000  0.09607000  1.0
  H  H17  1  0.97900000  0.26042000  0.90393000  1.0
  H  H18  1  0.18498000  0.66486000  0.24744000  1.0
  H  H19  1  0.81502000  0.33513000  0.75256000  1.0
  H  H20  1  0.32996000  0.42833000  0.91139000  1.0
  H  H21  1  0.67004000  0.57167000  0.08861000  1.0
  H  H22  1  0.43322000  0.42126000  0.11631000  1.0
  H  H23  1  0.56678000  0.57874000  0.88369000  1.0
  H  H24  1  0.46742000  0.58343000  0.23622000  1.0
  H  H25  1  0.53258000  0.41657000  0.76378000  1.0
  H  H26  1  0.25208000  0.21144000  0.02389000  1.0
  H  H27  1  0.74792000  0.78856000  0.97611000  1.0
  H  H28  1  0.12413000  0.99611000  0.02326000  1.0
  H  H29  1  0.87588000  0.00389000  0.97674000  1.0
  H  H30  1  0.04580000  0.97970000  0.22169000  1.0
  H  H31  1  0.95420000  0.02030000  0.77831000  1.0
  H  H32  1  0.10104000  0.17440000  0.42811000  1.0
  H  H33  1  0.89896000  0.82560000  0.57189000  1.0
  H  H34  1  0.43810000  0.65732000  0.57338000  1.0
  H  H35  1  0.56190000  0.34268000  0.42662000  1.0
  H  H36  1  0.51916000  0.64616000  0.43778000  1.0
  H  H37  1  0.48084000  0.35384000  0.56222000  1.0
  H  H38  1  0.25389000  0.93041000  0.36890000  1.0
  H  H39  1  0.74611000  0.06959000  0.63111000  1.0
  H  H40  1  0.61715000  0.84198000  0.58641000  1.0
  H  H41  1  0.38285000  0.15802000  0.41360000  1.0
  C  C42  1  0.22129000  0.20007000  0.69730000  1.0
  C  C43  1  0.77871000  0.79993000  0.30269000  1.0
  C  C44  1  0.30638000  0.11362000  0.75160000  1.0
  C  C45  1  0.69362000  0.88638000  0.24840000  1.0
  C  C46  1  0.25262000  0.97770000  0.72269000  1.0
  C  C47  1  0.74737000  0.02229000  0.27731000  1.0
  C  C48  1  0.33664000  0.89594000  0.76607000  1.0
  C  C49  1  0.66336000  0.10406000  0.23393000  1.0
  C  C50  1  0.47350000  0.95150000  0.84160000  1.0
  C  C51  1  0.52650000  0.04850000  0.15840000  1.0
  C  C52  1  0.52558000  0.08785000  0.87495000  1.0
  C  C53  1  0.47441000  0.91215000  0.12505000  1.0
  C  C54  1  0.44296000  0.16784000  0.82858000  1.0
  C  C55  1  0.55704000  0.83216000  0.17142000  1.0
  C  C56  1  0.28698000  0.74827000  0.72710000  1.0
  C  C57  1  0.71302000  0.25173000  0.27290000  1.0
  C  C58  1  0.09184000  0.62402000  0.92559000  1.0
  C  C59  1  0.90816000  0.37599000  0.07441000  1.0
  C  C60  1  0.09238000  0.67180000  0.05876000  1.0
  C  C61  1  0.90762000  0.32820000  0.94124000  1.0
  C  C62  1  0.18378000  0.63031000  0.14313000  1.0
  C  C63  1  0.81622000  0.36969000  0.85687000  1.0
  C  C64  1  0.27396000  0.54284000  0.09174000  1.0
  C  C65  1  0.72604000  0.45716000  0.90826000  1.0
  C  C66  1  0.26432000  0.49864000  0.95709000  1.0
  C  C67  1  0.73568000  0.50136000  0.04291000  1.0
  C  C68  1  0.38242000  0.49842000  0.17649000  1.0
  C  C69  1  0.61758000  0.50158000  0.82351000  1.0
  C  C70  1  0.24689000  0.31415000  0.22836000  1.0
  C  C71  1  0.75311000  0.68585000  0.77164000  1.0
  C  C72  1  0.21778000  0.20497000  0.11093000  1.0
  C  C73  1  0.78222000  0.79503000  0.88907000  1.0
  C  C74  1  0.14623000  0.08475000  0.11181000  1.0
  C  C75  1  0.85377000  0.91525000  0.88820000  1.0
  C  C76  1  0.10283000  0.07498000  0.22440000  1.0
  C  C77  1  0.89718000  0.92502000  0.77560000  1.0
  C  C78  1  0.13170000  0.18431000  0.34089000  1.0
  C  C79  1  0.86830000  0.81569000  0.65912000  1.0
  C  C80  1  0.20609000  0.30556000  0.34291000  1.0
  C  C81  1  0.79391000  0.69444000  0.65709000  1.0
  C  C82  1  0.32834000  0.50731000  0.39470000  1.0
  C  C83  1  0.67166000  0.49270000  0.60530000  1.0
  C  C84  1  0.41715000  0.64254000  0.46863000  1.0
  C  C85  1  0.58285000  0.35746000  0.53137000  1.0
  C  C86  1  0.42689000  0.87046000  0.47290000  1.0
  C  C87  1  0.57311000  0.12954000  0.52710000  1.0
  C  C88  1  0.36192000  0.96112000  0.42634000  1.0
  C  C89  1  0.63808000  0.03889000  0.57366000  1.0
  C  C90  1  0.56498000  0.90983000  0.54731000  1.0
  C  C91  1  0.43502000  0.09017000  0.45269000  1.0
  N  N92  1  0.17548000  0.53761000  0.87549000  1.0
  N  N93  1  0.82452000  0.46239000  0.12451000  1.0
  N  N94  1  0.32253000  0.44311000  0.26432000  1.0
  N  N95  1  0.67747000  0.55689000  0.73568000  1.0
  N  N96  1  0.25807000  0.42794000  0.44457000  1.0
  N  N97  1  0.74193000  0.57206000  0.55543000  1.0
  O  O98  1  0.29382000  0.30298000  0.68637000  1.0
  O  O99  1  0.70618000  0.69702000  0.31363000  1.0
  O  O100  1  0.08766000  0.16765000  0.66708000  1.0
  O  O101  1  0.91234000  0.83235000  0.33292000  1.0
  O  O102  1  0.16043000  0.69584000  0.65987000  1.0
  O  O103  1  0.83957000  0.30416000  0.34013000  1.0
  O  O104  1  0.37281000  0.67656000  0.75896000  1.0
  O  O105  1  0.62720000  0.32344000  0.24104000  1.0
  O  O106  1  0.34597000  0.74479000  0.44206000  1.0
  O  O107  1  0.65403000  0.25521000  0.55795000  1.0
  O  O108  1  0.97121000  0.34894000  0.59138000  1.0
  O  O109  1  0.02879000  0.65105000  0.40862000  1.0
