# generated using pymatgen
data_MnH19C20(NO3)2
_symmetry_space_group_name_H-M   'P 1'
_cell_length_a   9.67708000
_cell_length_b   9.73760000
_cell_length_c   11.45110000
_cell_angle_alpha   70.05460000
_cell_angle_beta   65.39890000
_cell_angle_gamma   71.72080000
_symmetry_Int_Tables_number   1
_chemical_formula_structural   MnH19C20(NO3)2
_chemical_formula_sum   'Mn2 H38 C40 N4 O12'
_cell_volume   903.47033494
_cell_formula_units_Z   2
loop_
 _symmetry_equiv_pos_site_id
 _symmetry_equiv_pos_as_xyz
  1  'x, y, z'
loop_
 _atom_site_type_symbol
 _atom_site_label
 _atom_site_symmetry_multiplicity
 _atom_site_fract_x
 _atom_site_fract_y
 _atom_site_fract_z
 _atom_site_occupancy
  Mn  Mn0  1  0.11268000  0.31617000  0.37796000  1.0
  Mn  Mn1  1  0.87383000  0.67850000  0.63348000  1.0
  H  H2  1  0.29595000  0.24163000  0.09906000  1.0
  H  H3  1  0.70839000  0.73933000  0.90327000  1.0
  H  H4  1  0.41127000  0.13760000  0.43308000  1.0
  H  H5  1  0.60051000  0.84923000  0.56384000  1.0
  H  H6  1  0.67764000  0.00329000  0.32404000  1.0
  H  H7  1  0.34031000  0.99383000  0.66711000  1.0
  H  H8  1  0.55623000  0.11099000  0.97575000  1.0
  H  H9  1  0.45641000  0.88169000  0.01854000  1.0
  H  H10  1  0.79860000  0.94955000  0.97883000  1.0
  H  H11  1  0.21872000  0.05635000  0.01070000  1.0
  H  H12  1  0.82222000  0.85574000  0.13354000  1.0
  H  H13  1  0.19963000  0.15162000  0.85435000  1.0
  H  H14  1  0.93503000  0.05317000  0.12609000  1.0
  H  H15  1  0.07703000  0.96338000  0.86120000  1.0
  H  H16  1  0.91627000  0.32440000  0.07467000  1.0
  H  H17  1  0.09020000  0.69831000  0.90648000  1.0
  H  H18  1  0.88883000  0.57247000  0.91666000  1.0
  H  H19  1  0.10673000  0.44639000  0.06400000  1.0
  H  H20  1  0.84662000  0.38738000  0.65832000  1.0
  H  H21  1  0.14029000  0.61541000  0.33573000  1.0
  H  H22  1  0.86688000  0.14027000  0.80375000  1.0
  H  H23  1  0.13242000  0.86798000  0.19063000  1.0
  H  H24  1  0.18740000  0.56263000  0.74478000  1.0
  H  H25  1  0.81684000  0.44563000  0.26724000  1.0
  H  H26  1  0.37779000  0.47668000  0.86319000  1.0
  H  H27  1  0.63440000  0.52506000  0.14266000  1.0
  H  H28  1  0.61340000  0.28340000  0.79524000  1.0
  H  H29  1  0.38968000  0.71102000  0.20916000  1.0
  H  H30  1  0.48219000  0.27686000  0.48325000  1.0
  H  H31  1  0.50440000  0.73081000  0.52538000  1.0
  H  H32  1  0.97030000  0.11723000  0.59467000  1.0
  H  H33  1  0.01963000  0.86750000  0.42334000  1.0
  H  H34  1  0.14174000  0.02607000  0.54166000  1.0
  H  H35  1  0.84626000  0.95845000  0.47744000  1.0
  H  H36  1  0.91980000  0.17595000  0.35435000  1.0
  H  H37  1  0.06352000  0.80813000  0.64360000  1.0
  H  H38  1  0.09099000  0.08668000  0.30707000  1.0
  H  H39  1  0.89184000  0.89881000  0.69525000  1.0
  C  C40  1  0.38419000  0.18825000  0.14523000  1.0
  C  C41  1  0.62391000  0.79561000  0.85393000  1.0
  C  C42  1  0.44921000  0.12968000  0.33134000  1.0
  C  C43  1  0.56205000  0.85735000  0.66523000  1.0
  C  C44  1  0.59693000  0.05499000  0.26998000  1.0
  C  C45  1  0.41794000  0.93893000  0.72385000  1.0
  C  C46  1  0.52928000  0.11533000  0.07693000  1.0
  C  C47  1  0.48196000  0.87669000  0.91780000  1.0
  C  C48  1  0.63923000  0.04630000  0.13958000  1.0
  C  C49  1  0.37448000  0.95192000  0.85336000  1.0
  C  C50  1  0.79698000  0.96669000  0.06955000  1.0
  C  C51  1  0.21965000  0.04019000  0.91978000  1.0
  C  C52  1  0.92673000  0.05070000  0.03376000  1.0
  C  C53  1  0.08493000  0.96372000  0.95435000  1.0
  C  C54  1  0.89585000  0.20797000  0.95337000  1.0
  C  C55  1  0.10953000  0.80567000  0.03514000  1.0
  C  C56  1  0.89847000  0.33448000  0.98375000  1.0
  C  C57  1  0.10434000  0.68347000  0.00005000  1.0
  C  C58  1  0.88139000  0.47413000  0.89626000  1.0
  C  C59  1  0.11310000  0.54323000  0.08773000  1.0
  C  C60  1  0.85672000  0.37215000  0.75285000  1.0
  C  C61  1  0.13249000  0.63687000  0.23877000  1.0
  C  C62  1  0.87199000  0.23147000  0.83530000  1.0
  C  C63  1  0.12614000  0.77918000  0.15674000  1.0
  C  C64  1  0.20465000  0.46794000  0.53996000  1.0
  C  C65  1  0.78802000  0.53995000  0.47284000  1.0
  C  C66  1  0.31952000  0.42119000  0.60967000  1.0
  C  C67  1  0.67753000  0.58910000  0.39995000  1.0
  C  C68  1  0.29192000  0.47901000  0.71583000  1.0
  C  C69  1  0.71081000  0.52869000  0.29346000  1.0
  C  C70  1  0.39785000  0.43013000  0.78199000  1.0
  C  C71  1  0.60843000  0.57325000  0.22444000  1.0
  C  C72  1  0.53074000  0.32228000  0.74380000  1.0
  C  C73  1  0.47109000  0.67701000  0.26139000  1.0
  C  C74  1  0.56185000  0.26572000  0.63625000  1.0
  C  C75  1  0.43375000  0.73403000  0.37027000  1.0
  C  C76  1  0.45634000  0.31714000  0.56909000  1.0
  C  C77  1  0.53730000  0.68974000  0.43852000  1.0
  C  C78  1  0.70647000  0.15169000  0.59324000  1.0
  C  C79  1  0.28180000  0.83753000  0.41702000  1.0
  N  N80  1  0.34362000  0.19587000  0.27070000  1.0
  N  N81  1  0.66646000  0.78417000  0.72807000  1.0
  N  N82  1  0.86135000  0.49559000  0.78008000  1.0
  N  N83  1  0.12642000  0.51905000  0.20594000  1.0
  O  O84  1  0.22481000  0.39273000  0.46086000  1.0
  O  O85  1  0.77552000  0.62249000  0.54463000  1.0
  O  O86  1  0.88552000  0.41678000  0.46291000  1.0
  O  O87  1  0.09679000  0.58276000  0.56158000  1.0
  O  O88  1  0.74479000  0.12611000  0.48034000  1.0
  O  O89  1  0.23853000  0.85770000  0.53300000  1.0
  O  O90  1  0.78275000  0.08514000  0.67234000  1.0
  O  O91  1  0.20313000  0.89885000  0.33978000  1.0
  O  O92  1  0.08046000  0.12819000  0.55387000  1.0
  O  O93  1  0.90909000  0.85603000  0.46580000  1.0
  O  O94  1  0.02557000  0.18786000  0.29052000  1.0
  O  O95  1  0.95681000  0.79567000  0.70788000  1.0
