# generated using pymatgen
data_Zr3H16C20(N3O8)2
_symmetry_space_group_name_H-M   'P 1'
_cell_length_a   15.88730000
_cell_length_b   15.90610000
_cell_length_c   34.39270000
_cell_angle_alpha   89.70620000
_cell_angle_beta   90.06080000
_cell_angle_gamma   89.80950000
_symmetry_Int_Tables_number   1
_chemical_formula_structural   Zr3H16C20(N3O8)2
_chemical_formula_sum   'Zr12 H64 C80 N24 O64'
_cell_volume   8691.03929875
_cell_formula_units_Z   4
loop_
 _symmetry_equiv_pos_site_id
 _symmetry_equiv_pos_as_xyz
  1  'x, y, z'
loop_
 _atom_site_type_symbol
 _atom_site_label
 _atom_site_symmetry_multiplicity
 _atom_site_fract_x
 _atom_site_fract_y
 _atom_site_fract_z
 _atom_site_occupancy
  Zr  Zr0  1  0.90365000  0.94587000  0.45275000  1.0
  Zr  Zr1  1  0.91177000  0.94973000  0.55552000  1.0
  Zr  Zr2  1  0.06080000  0.10026000  0.44696000  1.0
  Zr  Zr3  1  0.06705000  0.10951000  0.55116000  1.0
  Zr  Zr4  1  0.87378000  0.13869000  0.50102000  1.0
  Zr  Zr5  1  0.09807000  0.91353000  0.50118000  1.0
  Zr  Zr6  1  0.41192000  0.60131000  0.95194000  1.0
  Zr  Zr7  1  0.41814000  0.59482000  0.05480000  1.0
  Zr  Zr8  1  0.56734000  0.44179000  0.94505000  1.0
  Zr  Zr9  1  0.57626000  0.43790000  0.04931000  1.0
  Zr  Zr10  1  0.60536000  0.63038000  0.99983000  1.0
  Zr  Zr11  1  0.38074000  0.40843000  0.00085000  1.0
  H  H12  1  0.94216000  0.81283000  0.50181000  1.0
  H  H13  1  0.90039000  0.11638000  0.58289000  1.0
  H  H14  1  0.19613000  0.07950000  0.50114000  1.0
  H  H15  1  0.90374000  0.10717000  0.41549000  1.0
  H  H16  1  0.87944000  0.98633000  0.63128000  1.0
  H  H17  1  0.99709000  0.03572000  0.61911000  1.0
  H  H18  1  0.15673000  0.24733000  0.55273000  1.0
  H  H19  1  0.20760000  0.17941000  0.42362000  1.0
  H  H20  1  0.07972000  0.06956000  0.37212000  1.0
  H  H21  1  0.84013000  0.94755000  0.37490000  1.0
  H  H22  1  0.75993000  0.86073000  0.45356000  1.0
  H  H23  1  0.80494000  0.84909000  0.50923000  1.0
  H  H24  1  0.13757000  0.24744000  0.43331000  1.0
  H  H25  1  0.92091000  0.88848000  0.37898000  1.0
  H  H26  1  0.75647000  0.87680000  0.54910000  1.0
  H  H27  1  0.09582000  0.05681000  0.62525000  1.0
  H  H28  1  0.28065000  0.56174000  0.00086000  1.0
  H  H29  1  0.58568000  0.60232000  0.08191000  1.0
  H  H30  1  0.53406000  0.30686000  0.99965000  1.0
  H  H31  1  0.57200000  0.60263000  0.91469000  1.0
  H  H32  1  0.45495000  0.62080000  0.13070000  1.0
  H  H33  1  0.50434000  0.50591000  0.11771000  1.0
  H  H34  1  0.71935000  0.35122000  0.04647000  1.0
  H  H35  1  0.67251000  0.33980000  0.99121000  1.0
  H  H36  1  0.53696000  0.42094000  0.87063000  1.0
  H  H37  1  0.41220000  0.66944000  0.87527000  1.0
  H  H38  1  0.32686000  0.74577000  0.95451000  1.0
  H  H39  1  0.31458000  0.70012000  0.00855000  1.0
  H  H40  1  0.71930000  0.36566000  0.95050000  1.0
  H  H41  1  0.35283000  0.58899000  0.87730000  1.0
  H  H42  1  0.26466000  0.68590000  0.04995000  1.0
  H  H43  1  0.52732000  0.40718000  0.12432000  1.0
  H  H44  1  0.40713000  0.14441000  0.93508000  1.0
  H  H45  1  0.50948000  0.22872000  0.86925000  1.0
  H  H46  1  0.55964000  0.90679000  0.93906000  1.0
  H  H47  1  0.46480000  0.81960000  0.87199000  1.0
  H  H48  1  0.87920000  0.58823000  0.06298000  1.0
  H  H49  1  0.78969000  0.49074000  0.12898000  1.0
  H  H50  1  0.11563000  0.44231000  0.06707000  1.0
  H  H51  1  0.19968000  0.54494000  0.13252000  1.0
  H  H52  1  0.87651000  0.59659000  0.93781000  1.0
  H  H53  1  0.78772000  0.49594000  0.87299000  1.0
  H  H54  1  0.11374000  0.44618000  0.93542000  1.0
  H  H55  1  0.19774000  0.54221000  0.86754000  1.0
  H  H56  1  0.52205000  0.22230000  0.13109000  1.0
  H  H57  1  0.41598000  0.14202000  0.06576000  1.0
  H  H58  1  0.56731000  0.89923000  0.06292000  1.0
  H  H59  1  0.46668000  0.81383000  0.12899000  1.0
  H  H60  1  0.96085000  0.73232000  0.63159000  1.0
  H  H61  1  0.06520000  0.64860000  0.56651000  1.0
  H  H62  1  0.90844000  0.41111000  0.56330000  1.0
  H  H63  1  0.01296000  0.32262000  0.62751000  1.0
  H  H64  1  0.96924000  0.73245000  0.36723000  1.0
  H  H65  1  0.05932000  0.64758000  0.43686000  1.0
  H  H66  1  0.91075000  0.41238000  0.43951000  1.0
  H  H67  1  0.00947000  0.32217000  0.37434000  1.0
  H  H68  1  0.36268000  0.94279000  0.56612000  1.0
  H  H69  1  0.27866000  0.04537000  0.63162000  1.0
  H  H70  1  0.68856000  0.99688000  0.62969000  1.0
  H  H71  1  0.60203000  0.09806000  0.56378000  1.0
  H  H72  1  0.27805000  0.03923000  0.36712000  1.0
  H  H73  1  0.36397000  0.94682000  0.43588000  1.0
  H  H74  1  0.68866000  0.00163000  0.37196000  1.0
  H  H75  1  0.59770000  0.09396000  0.43877000  1.0
  C  C76  1  0.73390000  0.06064000  0.44046000  1.0
  C  C77  1  0.02965000  0.78353000  0.56588000  1.0
  C  C78  1  0.73751000  0.06246000  0.56299000  1.0
  C  C79  1  0.02886000  0.78337000  0.43574000  1.0
  C  C80  1  0.22796000  0.97947000  0.43524000  1.0
  C  C81  1  0.94748000  0.27664000  0.56075000  1.0
  C  C82  1  0.22742000  0.97771000  0.56581000  1.0
  C  C83  1  0.94769000  0.27698000  0.44176000  1.0
  C  C84  1  0.98550000  0.45569000  0.36847000  1.0
  C  C85  1  0.98839000  0.52355000  0.31039000  1.0
  C  C86  1  0.98971000  0.59825000  0.36628000  1.0
  C  C87  1  0.41258000  0.01764000  0.36524000  1.0
  C  C88  1  0.48723000  0.01714000  0.30914000  1.0
  C  C89  1  0.55515000  0.02250000  0.36703000  1.0
  C  C90  1  0.41246000  0.02014000  0.63492000  1.0
  C  C91  1  0.48561000  0.02131000  0.69149000  1.0
  C  C92  1  0.55521000  0.02225000  0.63410000  1.0
  C  C93  1  0.98529000  0.45549000  0.63333000  1.0
  C  C94  1  0.98640000  0.59817000  0.63479000  1.0
  C  C95  1  0.98612000  0.52351000  0.69101000  1.0
  C  C96  1  0.49278000  0.94673000  0.13330000  1.0
  C  C97  1  0.49380000  0.08936000  0.13422000  1.0
  C  C98  1  0.49214000  0.01575000  0.19074000  1.0
  C  C99  1  0.52551000  0.77129000  0.94005000  1.0
  C  C100  1  0.25012000  0.47926000  0.06583000  1.0
  C  C101  1  0.53251000  0.76402000  0.06283000  1.0
  C  C102  1  0.24911000  0.47816000  0.93547000  1.0
  C  C103  1  0.44315000  0.27908000  0.93533000  1.0
  C  C104  1  0.74444000  0.55147000  0.06024000  1.0
  C  C105  1  0.45225000  0.27629000  0.06530000  1.0
  C  C106  1  0.74161000  0.55842000  0.94004000  1.0
  C  C107  1  0.92287000  0.51789000  0.13431000  1.0
  C  C108  1  0.99180000  0.51964000  0.19199000  1.0
  C  C109  1  0.06579000  0.51855000  0.13576000  1.0
  C  C110  1  0.48777000  0.95261000  0.86754000  1.0
  C  C111  1  0.48457000  0.09508000  0.86616000  1.0
  C  C112  1  0.48638000  0.02182000  0.80986000  1.0
  C  C113  1  0.92099000  0.52216000  0.86729000  1.0
  C  C114  1  0.06373000  0.51983000  0.86561000  1.0
  C  C115  1  0.98928000  0.52167000  0.80944000  1.0
  C  C116  1  0.44126000  0.19268000  0.91896000  1.0
  C  C117  1  0.48053000  0.17690000  0.88521000  1.0
  C  C118  1  0.52712000  0.85766000  0.92299000  1.0
  C  C119  1  0.49129000  0.87205000  0.88818000  1.0
  C  C120  1  0.82960000  0.55452000  0.07838000  1.0
  C  C121  1  0.84253000  0.51880000  0.11340000  1.0
  C  C122  1  0.16390000  0.47711000  0.08275000  1.0
  C  C123  1  0.14799000  0.51595000  0.11657000  1.0
  C  C124  1  0.82749000  0.56184000  0.92260000  1.0
  C  C125  1  0.84078000  0.52450000  0.88816000  1.0
  C  C126  1  0.16264000  0.47811000  0.91878000  1.0
  C  C127  1  0.14628000  0.51552000  0.88450000  1.0
  C  C128  1  0.49162000  0.17175000  0.11506000  1.0
  C  C129  1  0.45131000  0.18944000  0.08167000  1.0
  C  C130  1  0.53339000  0.85078000  0.07901000  1.0
  C  C131  1  0.49536000  0.86598000  0.11315000  1.0
  C  C132  1  0.98737000  0.52177000  0.76792000  1.0
  C  C133  1  0.98665000  0.52178000  0.73258000  1.0
  C  C134  1  0.48649000  0.02082000  0.76835000  1.0
  C  C135  1  0.48649000  0.02103000  0.73302000  1.0
  C  C136  1  0.48944000  0.01537000  0.26764000  1.0
  C  C137  1  0.49078000  0.01472000  0.23230000  1.0
  C  C138  1  0.99016000  0.52058000  0.23354000  1.0
  C  C139  1  0.98921000  0.52144000  0.26887000  1.0
  C  C140  1  0.99008000  0.68059000  0.61576000  1.0
  C  C141  1  0.03045000  0.69683000  0.58228000  1.0
  C  C142  1  0.94414000  0.36208000  0.57834000  1.0
  C  C143  1  0.98292000  0.37545000  0.61251000  1.0
  C  C144  1  0.99406000  0.68074000  0.38481000  1.0
  C  C145  1  0.02917000  0.69676000  0.41950000  1.0
  C  C146  1  0.94493000  0.36296000  0.42425000  1.0
  C  C147  1  0.98201000  0.37569000  0.38961000  1.0
  C  C148  1  0.31420000  0.97657000  0.58222000  1.0
  C  C149  1  0.33043000  0.01626000  0.61574000  1.0
  C  C150  1  0.63614000  0.02543000  0.61383000  1.0
  C  C151  1  0.65085000  0.06363000  0.57958000  1.0
  C  C152  1  0.33031000  0.01376000  0.38417000  1.0
  C  C153  1  0.31486000  0.97810000  0.41891000  1.0
  C  C154  1  0.63520000  0.02728000  0.38791000  1.0
  C  C155  1  0.64797000  0.06244000  0.42285000  1.0
  N  N156  1  0.98890000  0.44945000  0.32934000  1.0
  N  N157  1  0.98743000  0.59989000  0.32705000  1.0
  N  N158  1  0.98721000  0.52831000  0.38845000  1.0
  N  N159  1  0.41091000  0.01849000  0.32600000  1.0
  N  N160  1  0.56151000  0.01755000  0.32796000  1.0
  N  N161  1  0.48266000  0.02127000  0.38722000  1.0
  N  N162  1  0.40983000  0.02348000  0.67412000  1.0
  N  N163  1  0.56042000  0.01926000  0.67326000  1.0
  N  N164  1  0.48330000  0.02098000  0.61341000  1.0
  N  N165  1  0.98567000  0.52807000  0.61299000  1.0
  N  N166  1  0.98332000  0.59975000  0.67399000  1.0
  N  N167  1  0.98875000  0.44934000  0.67249000  1.0
  N  N168  1  0.49350000  0.01892000  0.11267000  1.0
  N  N169  1  0.49669000  0.09156000  0.17343000  1.0
  N  N170  1  0.48862000  0.94136000  0.17248000  1.0
  N  N171  1  0.91733000  0.51580000  0.17347000  1.0
  N  N172  1  0.06787000  0.52267000  0.17493000  1.0
  N  N173  1  0.99530000  0.51773000  0.11398000  1.0
  N  N174  1  0.48602000  0.02448000  0.88796000  1.0
  N  N175  1  0.48785000  0.09758000  0.82697000  1.0
  N  N176  1  0.48482000  0.94717000  0.82841000  1.0
  N  N177  1  0.99364000  0.52070000  0.88755000  1.0
  N  N178  1  0.06562000  0.52339000  0.82643000  1.0
  N  N179  1  0.91506000  0.51970000  0.82814000  1.0
  O  O180  1  0.77908000  0.99701000  0.43090000  1.0
  O  O181  1  0.75550000  0.11957000  0.46304000  1.0
  O  O182  1  0.96957000  0.83094000  0.57679000  1.0
  O  O183  1  0.08724000  0.80325000  0.54150000  1.0
  O  O184  1  0.78319000  0.99941000  0.57301000  1.0
  O  O185  1  0.75953000  0.12252000  0.54067000  1.0
  O  O186  1  0.97142000  0.83343000  0.42335000  1.0
  O  O187  1  0.08327000  0.80025000  0.46173000  1.0
  O  O188  1  0.81442000  0.85027000  0.46558000  1.0
  O  O189  1  0.89816000  0.94487000  0.38397000  1.0
  O  O190  1  0.80932000  0.85334000  0.53964000  1.0
  O  O191  1  0.92774000  0.97055000  0.61566000  1.0
  O  O192  1  0.87202000  0.00851000  0.50243000  1.0
  O  O193  1  0.95658000  0.87210000  0.50188000  1.0
  O  O194  1  0.18103000  0.03996000  0.42362000  1.0
  O  O195  1  0.20790000  0.92273000  0.45969000  1.0
  O  O196  1  0.01187000  0.23273000  0.56969000  1.0
  O  O197  1  0.88723000  0.25409000  0.53843000  1.0
  O  O198  1  0.17664000  0.03211000  0.57907000  1.0
  O  O199  1  0.21137000  0.92545000  0.53854000  1.0
  O  O200  1  0.01510000  0.23570000  0.43547000  1.0
  O  O201  1  0.88408000  0.25083000  0.46087000  1.0
  O  O202  1  0.17085000  0.20061000  0.44410000  1.0
  O  O203  1  0.04541000  0.10543000  0.38848000  1.0
  O  O204  1  0.16594000  0.18796000  0.54791000  1.0
  O  O205  1  0.04320000  0.08211000  0.61624000  1.0
  O  O206  1  0.13892000  0.05826000  0.49930000  1.0
  O  O207  1  0.00166000  0.13989000  0.49975000  1.0
  O  O208  1  0.03173000  0.97613000  0.45801000  1.0
  O  O209  1  0.92449000  0.09170000  0.55968000  1.0
  O  O210  1  0.92062000  0.08508000  0.44074000  1.0
  O  O211  1  0.03373000  0.97951000  0.54255000  1.0
  O  O212  1  0.46153000  0.72680000  0.93055000  1.0
  O  O213  1  0.58538000  0.74832000  0.96214000  1.0
  O  O214  1  0.29526000  0.54224000  0.07536000  1.0
  O  O215  1  0.27132000  0.42059000  0.04261000  1.0
  O  O216  1  0.47226000  0.71712000  0.07419000  1.0
  O  O217  1  0.59121000  0.74314000  0.03941000  1.0
  O  O218  1  0.29926000  0.53516000  0.92310000  1.0
  O  O219  1  0.26592000  0.42397000  0.96180000  1.0
  O  O220  1  0.31576000  0.69083000  0.96591000  1.0
  O  O221  1  0.40890000  0.61078000  0.88342000  1.0
  O  O222  1  0.32016000  0.69737000  0.03931000  1.0
  O  O223  1  0.43920000  0.57285000  0.11496000  1.0
  O  O224  1  0.47477000  0.63391000  0.00197000  1.0
  O  O225  1  0.34009000  0.54772000  0.00133000  1.0
  O  O226  1  0.50200000  0.32652000  0.92324000  1.0
  O  O227  1  0.38773000  0.29828000  0.96078000  1.0
  O  O228  1  0.70038000  0.48706000  0.06910000  1.0
  O  O229  1  0.72232000  0.61163000  0.03777000  1.0
  O  O230  1  0.51172000  0.32422000  0.07653000  1.0
  O  O231  1  0.39542000  0.29556000  0.04052000  1.0
  O  O232  1  0.70005000  0.49226000  0.93293000  1.0
  O  O233  1  0.71620000  0.62097000  0.96025000  1.0
  O  O234  1  0.66687000  0.34251000  0.96064000  1.0
  O  O235  1  0.56940000  0.45837000  0.88699000  1.0
  O  O236  1  0.66469000  0.34279000  0.03438000  1.0
  O  O237  1  0.55168000  0.45952000  0.11476000  1.0
  O  O238  1  0.52067000  0.36647000  0.99895000  1.0
  O  O239  1  0.60412000  0.50270000  0.99857000  1.0
  O  O240  1  0.44269000  0.47410000  0.95790000  1.0
  O  O241  1  0.56074000  0.57826000  0.05877000  1.0
  O  O242  1  0.55009000  0.58384000  0.93964000  1.0
  O  O243  1  0.44738000  0.47169000  0.04319000  1.0
