# generated using pymatgen
data_Tl2HC5O4
_symmetry_space_group_name_H-M   'P 1'
_cell_length_a   6.26370000
_cell_length_b   7.56031000
_cell_length_c   15.33660000
_cell_angle_alpha   78.44700000
_cell_angle_beta   89.99990000
_cell_angle_gamma   89.99980000
_symmetry_Int_Tables_number   1
_chemical_formula_structural   Tl2HC5O4
_chemical_formula_sum   'Tl8 H4 C20 O16'
_cell_volume   711.55819190
_cell_formula_units_Z   4
loop_
 _symmetry_equiv_pos_site_id
 _symmetry_equiv_pos_as_xyz
  1  'x, y, z'
loop_
 _atom_site_type_symbol
 _atom_site_label
 _atom_site_symmetry_multiplicity
 _atom_site_fract_x
 _atom_site_fract_y
 _atom_site_fract_z
 _atom_site_occupancy
  Tl  Tl0  1  0.46754000  0.84153000  0.40708000  1.0
  Tl  Tl1  1  0.96752000  0.65847000  0.09292000  1.0
  Tl  Tl2  1  0.53247000  0.15847000  0.59292000  1.0
  Tl  Tl3  1  0.03245000  0.34153000  0.90708000  1.0
  Tl  Tl4  1  0.40143000  0.39968000  0.28634000  1.0
  Tl  Tl5  1  0.90143000  0.10033000  0.21365000  1.0
  Tl  Tl6  1  0.59857000  0.60032000  0.71365000  1.0
  Tl  Tl7  1  0.09857000  0.89968000  0.78634000  1.0
  H  H8  1  0.45459000  0.68481000  0.08240000  1.0
  H  H9  1  0.95461000  0.81519000  0.41760000  1.0
  H  H10  1  0.54539000  0.31518000  0.91760000  1.0
  H  H11  1  0.04540000  0.18482000  0.58240000  1.0
  C  C12  1  0.38201000  0.92325000  0.18775000  1.0
  C  C13  1  0.88201000  0.57673000  0.31226000  1.0
  C  C14  1  0.61799000  0.07673000  0.81226000  1.0
  C  C15  1  0.11799000  0.42326000  0.68774000  1.0
  C  C16  1  0.44202000  0.96598000  0.09060000  1.0
  C  C17  1  0.94202000  0.53402000  0.40940000  1.0
  C  C18  1  0.55799000  0.03400000  0.90940000  1.0
  C  C19  1  0.05798000  0.46599000  0.59060000  1.0
  C  C20  1  0.47105000  0.14530000  0.04445000  1.0
  C  C21  1  0.97107000  0.35470000  0.45555000  1.0
  C  C22  1  0.52893000  0.85469000  0.95556000  1.0
  C  C23  1  0.02894000  0.64531000  0.54445000  1.0
  C  C24  1  0.43281000  0.30561000  0.08786000  1.0
  C  C25  1  0.93282000  0.19440000  0.41213000  1.0
  C  C26  1  0.56718000  0.69440000  0.91213000  1.0
  C  C27  1  0.06719000  0.80561000  0.58787000  1.0
  C  C28  1  0.47112000  0.82370000  0.04551000  1.0
  C  C29  1  0.97114000  0.67631000  0.45449000  1.0
  C  C30  1  0.52886000  0.17633000  0.95448000  1.0
  C  C31  1  0.02887000  0.32368000  0.54552000  1.0
  O  O32  1  0.44450000  0.03413000  0.23548000  1.0
  O  O33  1  0.94450000  0.46586000  0.26451000  1.0
  O  O34  1  0.55550000  0.96587000  0.76452000  1.0
  O  O35  1  0.05551000  0.53413000  0.73549000  1.0
  O  O36  1  0.27228000  0.78240000  0.21641000  1.0
  O  O37  1  0.77228000  0.71759000  0.28360000  1.0
  O  O38  1  0.72773000  0.21760000  0.78360000  1.0
  O  O39  1  0.22773000  0.28240000  0.71640000  1.0
  O  O40  1  0.23820000  0.34628000  0.09906000  1.0
  O  O41  1  0.73821000  0.15373000  0.40094000  1.0
  O  O42  1  0.76180000  0.65372000  0.90094000  1.0
  O  O43  1  0.26180000  0.84626000  0.59907000  1.0
  O  O44  1  0.59494000  0.38822000  0.10907000  1.0
  O  O45  1  0.09494000  0.11178000  0.39092000  1.0
  O  O46  1  0.40506000  0.61178000  0.89092000  1.0
  O  O47  1  0.90506000  0.88822000  0.60908000  1.0
