# generated using pymatgen
data_H5PdC5O3
_symmetry_space_group_name_H-M   'P 1'
_cell_length_a   6.22245000
_cell_length_b   11.26390000
_cell_length_c   11.40720000
_cell_angle_alpha   103.42100000
_cell_angle_beta   99.62140000
_cell_angle_gamma   97.07400000
_symmetry_Int_Tables_number   1
_chemical_formula_structural   H5PdC5O3
_chemical_formula_sum   'H20 Pd4 C20 O12'
_cell_volume   755.73520582
_cell_formula_units_Z   4
loop_
 _symmetry_equiv_pos_site_id
 _symmetry_equiv_pos_as_xyz
  1  'x, y, z'
loop_
 _atom_site_type_symbol
 _atom_site_label
 _atom_site_symmetry_multiplicity
 _atom_site_fract_x
 _atom_site_fract_y
 _atom_site_fract_z
 _atom_site_occupancy
  H  H0  1  0.47530000  0.02471000  0.62093000  1.0
  H  H1  1  0.52470000  0.97529000  0.37907000  1.0
  H  H2  1  0.01796000  0.89507000  0.63488000  1.0
  H  H3  1  0.98204000  0.10493000  0.36512000  1.0
  H  H4  1  0.04444000  0.10319000  0.78504000  1.0
  H  H5  1  0.95557000  0.89681000  0.21496000  1.0
  H  H6  1  0.96167000  0.11802000  0.63508000  1.0
  H  H7  1  0.03833000  0.88198000  0.36492000  1.0
  H  H8  1  0.24313000  0.17205000  0.71343000  1.0
  H  H9  1  0.75688000  0.82795000  0.28657000  1.0
  H  H10  1  0.23974000  0.69651000  0.07804000  1.0
  H  H11  1  0.76026000  0.30349000  0.92197000  1.0
  H  H12  1  0.81487000  0.58889000  0.14868000  1.0
  H  H13  1  0.18512000  0.41111000  0.85132000  1.0
  H  H14  1  0.66798000  0.57573000  0.92539000  1.0
  H  H15  1  0.33201000  0.42427000  0.07461000  1.0
  H  H16  1  0.89116000  0.69139000  0.92489000  1.0
  H  H17  1  0.10884000  0.30861000  0.07511000  1.0
  H  H18  1  0.68166000  0.72838000  0.01036000  1.0
  H  H19  1  0.31833000  0.27162000  0.98964000  1.0
  Pd  Pd20  1  0.63749000  0.64286000  0.43889000  1.0
  Pd  Pd21  1  0.36251000  0.35714000  0.56111000  1.0
  Pd  Pd22  1  0.22169000  0.54213000  0.47833000  1.0
  Pd  Pd23  1  0.77832000  0.45787000  0.52167000  1.0
  C  C24  1  0.69039000  0.47856000  0.35231000  1.0
  C  C25  1  0.30962000  0.52145000  0.64770000  1.0
  C  C26  1  0.79457000  0.63594000  0.60282000  1.0
  C  C27  1  0.20545000  0.36406000  0.39718000  1.0
  C  C28  1  0.37780000  0.82370000  0.56148000  1.0
  C  C29  1  0.62220000  0.17630000  0.43852000  1.0
  C  C30  1  0.34034000  0.95015000  0.61362000  1.0
  C  C31  1  0.65966000  0.04985000  0.38638000  1.0
  C  C32  1  0.14913000  0.97342000  0.64663000  1.0
  C  C33  1  0.85087000  0.02658000  0.35337000  1.0
  C  C34  1  0.10025000  0.09865000  0.69771000  1.0
  C  C35  1  0.89976000  0.90135000  0.30229000  1.0
  C  C36  1  0.24414000  0.62811000  0.24256000  1.0
  C  C37  1  0.75585000  0.37190000  0.75744000  1.0
  C  C38  1  0.13237000  0.65478000  0.12933000  1.0
  C  C39  1  0.86762000  0.34522000  0.87067000  1.0
  C  C40  1  0.91123000  0.63080000  0.09238000  1.0
  C  C41  1  0.08876000  0.36920000  0.90762000  1.0
  C  C42  1  0.78502000  0.65826000  0.98223000  1.0
  C  C43  1  0.21498000  0.34174000  0.01777000  1.0
  O  O44  1  0.66210000  0.41562000  0.25167000  1.0
  O  O45  1  0.33789000  0.58438000  0.74832000  1.0
  O  O46  1  0.85035000  0.70132000  0.70256000  1.0
  O  O47  1  0.14966000  0.29868000  0.29743000  1.0
  O  O48  1  0.56169000  0.81513000  0.52536000  1.0
  O  O49  1  0.43831000  0.18487000  0.47465000  1.0
  O  O50  1  0.22652000  0.73283000  0.55485000  1.0
  O  O51  1  0.77348000  0.26717000  0.44515000  1.0
  O  O52  1  0.45600000  0.65966000  0.27087000  1.0
  O  O53  1  0.54399000  0.34035000  0.72913000  1.0
  O  O54  1  0.12439000  0.57643000  0.30377000  1.0
  O  O55  1  0.87561000  0.42357000  0.69623000  1.0
