# generated using pymatgen
data_CuH14C17SN5
_symmetry_space_group_name_H-M   'P 1'
_cell_length_a   7.45318000
_cell_length_b   9.70655000
_cell_length_c   12.34170000
_cell_angle_alpha   86.19970000
_cell_angle_beta   73.66430000
_cell_angle_gamma   69.09880000
_symmetry_Int_Tables_number   1
_chemical_formula_structural   CuH14C17SN5
_chemical_formula_sum   'Cu2 H28 C34 S2 N10'
_cell_volume   799.85291777
_cell_formula_units_Z   2
loop_
 _symmetry_equiv_pos_site_id
 _symmetry_equiv_pos_as_xyz
  1  'x, y, z'
loop_
 _atom_site_type_symbol
 _atom_site_label
 _atom_site_symmetry_multiplicity
 _atom_site_fract_x
 _atom_site_fract_y
 _atom_site_fract_z
 _atom_site_occupancy
  Cu  Cu0  1  0.65981000  0.58670000  0.64980000  1.0
  Cu  Cu1  1  0.34020000  0.41330000  0.35021000  1.0
  H  H2  1  0.88456000  0.28890000  0.75000000  1.0
  H  H3  1  0.11544000  0.71111000  0.25000000  1.0
  H  H4  1  0.94284000  0.07581000  0.87768000  1.0
  H  H5  1  0.05716000  0.92420000  0.12231000  1.0
  H  H6  1  0.67041000  0.06224000  0.04434000  1.0
  H  H7  1  0.32959000  0.93776000  0.95566000  1.0
  H  H8  1  0.33333333  0.25847000  0.08839000  1.0
  H  H9  1  0.66666667  0.74153000  0.91161000  1.0
  H  H10  1  0.21261000  0.68329000  0.82265000  1.0
  H  H11  1  0.78739000  0.31671000  0.17734000  1.0
  H  H12  1  0.97761000  0.66325000  0.01195000  1.0
  H  H13  1  0.02238000  0.33675000  0.98804000  1.0
  H  H14  1  0.06779000  0.52264000  0.10272000  1.0
  H  H15  1  0.93220000  0.47736000  0.89727000  1.0
  H  H16  1  0.58738000  0.90093000  0.77585000  1.0
  H  H17  1  0.41262000  0.09907000  0.22415000  1.0
  H  H18  1  0.47059000  0.17256000  0.81170000  1.0
  H  H19  1  0.52941000  0.82744000  0.18830000  1.0
  H  H20  1  0.24618000  0.34682000  0.70861000  1.0
  H  H21  1  0.75382000  0.65318000  0.29139000  1.0
  H  H22  1  0.12575000  0.25579000  0.56972000  1.0
  H  H23  1  0.87424000  0.74421000  0.43028000  1.0
  H  H24  1  0.35399000  0.70273000  0.49935000  1.0
  H  H25  1  0.64601000  0.29727000  0.50065000  1.0
  H  H26  1  0.15024000  0.90213000  0.39633000  1.0
  H  H27  1  0.84976000  0.09786000  0.60367000  1.0
  H  H28  1  0.11663000  0.08879000  0.42096000  1.0
  H  H29  1  0.88336000  0.91121000  0.57904000  1.0
  C  C30  1  0.57732000  0.39135000  0.84746000  1.0
  C  C31  1  0.42268000  0.60865000  0.15254000  1.0
  C  C32  1  0.76640000  0.28138000  0.82305000  1.0
  C  C33  1  0.23359000  0.71862000  0.17695000  1.0
  C  C34  1  0.79660000  0.16369000  0.89512000  1.0
  C  C35  1  0.20340000  0.83631000  0.10488000  1.0
  C  C36  1  0.64187000  0.15580000  0.98954000  1.0
  C  C37  1  0.35813000  0.84420000  0.01046000  1.0
  C  C38  1  0.45213000  0.26536000  0.01521000  1.0
  C  C39  1  0.54787000  0.73465000  0.98479000  1.0
  C  C40  1  0.42238000  0.38296000  0.94254000  1.0
  C  C41  1  0.57761000  0.61704000  0.05746000  1.0
  C  C42  1  0.31494000  0.58240000  0.84609000  1.0
  C  C43  1  0.68505000  0.41761000  0.15390000  1.0
  C  C44  1  0.05700000  0.54436000  0.01572000  1.0
  C  C45  1  0.94300000  0.45564000  0.98428000  1.0
  C  C46  1  0.41357000  0.92502000  0.65740000  1.0
  C  C47  1  0.58643000  0.07498000  0.34260000  1.0
  C  C48  1  0.48223000  0.97732000  0.73452000  1.0
  C  C49  1  0.51777000  0.02269000  0.26548000  1.0
  C  C50  1  0.41757000  0.12946000  0.75271000  1.0
  C  C51  1  0.58243000  0.87054000  0.24729000  1.0
  C  C52  1  0.29000000  0.22825000  0.69441000  1.0
  C  C53  1  0.71000000  0.77175000  0.30559000  1.0
  C  C54  1  0.22009000  0.17828000  0.61669000  1.0
  C  C55  1  0.77991000  0.82172000  0.38331000  1.0
  C  C56  1  0.28228000  0.02557000  0.60058000  1.0
  C  C57  1  0.71772000  0.97443000  0.39943000  1.0
  C  C58  1  0.35473000  0.79431000  0.54513000  1.0
  C  C59  1  0.64528000  0.20569000  0.45487000  1.0
  C  C60  1  0.10680000  0.98699000  0.46277000  1.0
  C  C61  1  0.89320000  0.01300000  0.53723000  1.0
  C  C62  1  0.08988000  0.57332000  0.57764000  1.0
  C  C63  1  0.91012000  0.42668000  0.42237000  1.0
  S  S64  1  0.92042000  0.63530000  0.69802000  1.0
  S  S65  1  0.07958000  0.36469000  0.30198000  1.0
  N  N66  1  0.50496000  0.51752000  0.78924000  1.0
  N  N67  1  0.49504000  0.48248000  0.21076000  1.0
  N  N68  1  0.25689000  0.50699000  0.93932000  1.0
  N  N69  1  0.74310000  0.49301000  0.06068000  1.0
  N  N70  1  0.45618000  0.78160000  0.62019000  1.0
  N  N71  1  0.54382000  0.21840000  0.37981000  1.0
  N  N72  1  0.24781000  0.93783000  0.52991000  1.0
  N  N73  1  0.75219000  0.06217000  0.47010000  1.0
  N  N74  1  0.20844000  0.52866000  0.48919000  1.0
  N  N75  1  0.79158000  0.47134000  0.51081000  1.0
