# generated using pymatgen
data_CdH22C34S2(N2O3)2
_symmetry_space_group_name_H-M   'P 1'
_cell_length_a   8.28348000
_cell_length_b   8.93938000
_cell_length_c   9.70708000
_cell_angle_alpha   96.44190000
_cell_angle_beta   92.18430000
_cell_angle_gamma   104.28700000
_symmetry_Int_Tables_number   1
_chemical_formula_structural   CdH22C34S2(N2O3)2
_chemical_formula_sum   'Cd1 H22 C34 S2 N4 O6'
_cell_volume   690.55404891
_cell_formula_units_Z   1
loop_
 _symmetry_equiv_pos_site_id
 _symmetry_equiv_pos_as_xyz
  1  'x, y, z'
loop_
 _atom_site_type_symbol
 _atom_site_label
 _atom_site_symmetry_multiplicity
 _atom_site_fract_x
 _atom_site_fract_y
 _atom_site_fract_z
 _atom_site_occupancy
  Cd  Cd0  1  0.00000000  0.50000000  0.50000000  1.0
  H  H1  1  0.61575000  0.42592000  0.63005000  1.0
  H  H2  1  0.38425000  0.57408000  0.36996000  1.0
  H  H3  1  0.46885000  0.26931000  0.80510000  1.0
  H  H4  1  0.53115000  0.73068000  0.19490000  1.0
  H  H5  1  0.60348000  0.08346000  0.91129000  1.0
  H  H6  1  0.39652000  0.91653000  0.08871000  1.0
  H  H7  1  0.83852000  0.95596000  0.91601000  1.0
  H  H8  1  0.16148000  0.04403000  0.08399000  1.0
  H  H9  1  0.09322000  0.90516000  0.80963000  1.0
  H  H10  1  0.90679000  0.09484000  0.19037000  1.0
  H  H11  1  0.30350000  0.96007000  0.63754000  1.0
  H  H12  1  0.69651000  0.03993000  0.36246000  1.0
  H  H13  1  0.42454000  0.12238000  0.44897000  1.0
  H  H14  1  0.57546000  0.87763000  0.55103000  1.0
  H  H15  1  0.30397000  0.33753000  0.39740000  1.0
  H  H16  1  0.69603000  0.66248000  0.60260000  1.0
  H  H17  1  0.92899000  0.53292000  0.11061000  1.0
  H  H18  1  0.07100000  0.46708000  0.88939000  1.0
  H  H19  1  0.91506000  0.70276000  0.92527000  1.0
  H  H20  1  0.08493000  0.29725000  0.07473000  1.0
  H  H21  1  0.64028000  0.72101000  0.82864000  1.0
  H  H22  1  0.35972000  0.27899000  0.17136000  1.0
  C  C23  1  0.67323000  0.34527000  0.67760000  1.0
  C  C24  1  0.32676000  0.65472000  0.32240000  1.0
  C  C25  1  0.59002000  0.25558000  0.77567000  1.0
  C  C26  1  0.40998000  0.74441000  0.22432000  1.0
  C  C27  1  0.66393000  0.15289000  0.83356000  1.0
  C  C28  1  0.33607000  0.84710000  0.16644000  1.0
  C  C29  1  0.81825000  0.13438000  0.78732000  1.0
  C  C30  1  0.18176000  0.86561000  0.21268000  1.0
  C  C31  1  0.89650000  0.02213000  0.83522000  1.0
  C  C32  1  0.10351000  0.97787000  0.16478000  1.0
  C  C33  1  0.03641000  0.99504000  0.77831000  1.0
  C  C34  1  0.96360000  0.00496000  0.22169000  1.0
  C  C35  1  0.11104000  0.08211000  0.67176000  1.0
  C  C36  1  0.88897000  0.91789000  0.32824000  1.0
  C  C37  1  0.25036000  0.05180000  0.60507000  1.0
  C  C38  1  0.74964000  0.94821000  0.39493000  1.0
  C  C39  1  0.31735000  0.14063000  0.50365000  1.0
  C  C40  1  0.68266000  0.85937000  0.49635000  1.0
  C  C41  1  0.24760000  0.26183000  0.47212000  1.0
  C  C42  1  0.75240000  0.73818000  0.52788000  1.0
  C  C43  1  0.04383000  0.20259000  0.62868000  1.0
  C  C44  1  0.95617000  0.79741000  0.37132000  1.0
  C  C45  1  0.89239000  0.22723000  0.68550000  1.0
  C  C46  1  0.10762000  0.77277000  0.31451000  1.0
  C  C47  1  0.66496000  0.44774000  0.10956000  1.0
  C  C48  1  0.33503000  0.55226000  0.89044000  1.0
  C  C49  1  0.80887000  0.53799000  0.06479000  1.0
  C  C50  1  0.19112000  0.46201000  0.93522000  1.0
  C  C51  1  0.79982000  0.63536000  0.96167000  1.0
  C  C52  1  0.20018000  0.36464000  0.03834000  1.0
  C  C53  1  0.64706000  0.64321000  0.90588000  1.0
  C  C54  1  0.35294000  0.35679000  0.09412000  1.0
  C  C55  1  0.50395000  0.44924000  0.05202000  1.0
  C  C56  1  0.49605000  0.55076000  0.94798000  1.0
  S  S57  1  0.68409000  0.33276000  0.24632000  1.0
  S  S58  1  0.31591000  0.66724000  0.75368000  1.0
  N  N59  1  0.82123000  0.33361000  0.63547000  1.0
  N  N60  1  0.17877000  0.66639000  0.36453000  1.0
  N  N61  1  0.11524000  0.29160000  0.53200000  1.0
  N  N62  1  0.88476000  0.70840000  0.46800000  1.0
  O  O63  1  0.59946000  0.39348000  0.36161000  1.0
  O  O64  1  0.40053000  0.60651000  0.63839000  1.0
  O  O65  1  0.60674000  0.17024000  0.19060000  1.0
  O  O66  1  0.39325000  0.82976000  0.80940000  1.0
  O  O67  1  0.86674000  0.36045000  0.27881000  1.0
  O  O68  1  0.13326000  0.63955000  0.72119000  1.0
