# generated using pymatgen
data_CdH22C28S2(N3O)2
_symmetry_space_group_name_H-M   'P 1'
_cell_length_a   10.86670000
_cell_length_b   12.81180000
_cell_length_c   13.38533776
_cell_angle_alpha   118.54525205
_cell_angle_beta   110.77876705
_cell_angle_gamma   90.01590000
_symmetry_Int_Tables_number   1
_chemical_formula_structural   CdH22C28S2(N3O)2
_chemical_formula_sum   'Cd2 H44 C56 S4 N12 O4'
_cell_volume   1497.45960920
_cell_formula_units_Z   2
loop_
 _symmetry_equiv_pos_site_id
 _symmetry_equiv_pos_as_xyz
  1  'x, y, z'
loop_
 _atom_site_type_symbol
 _atom_site_label
 _atom_site_symmetry_multiplicity
 _atom_site_fract_x
 _atom_site_fract_y
 _atom_site_fract_z
 _atom_site_occupancy
  Cd  Cd0  1  0.24999000  0.92118000  0.99981000  1.0
  Cd  Cd1  1  0.75001000  0.07881000  0.00018000  1.0
  H  H2  1  0.09627000  0.64963000  0.86484000  1.0
  H  H3  1  0.11011000  0.43258000  0.73678000  1.0
  H  H4  1  0.30234000  0.39104000  0.67015000  1.0
  H  H5  1  0.44864000  0.77849000  0.86990000  1.0
  H  H6  1  0.60463000  0.60688000  0.80920000  1.0
  H  H7  1  0.50394000  0.61235000  0.67484000  1.0
  H  H8  1  0.45340000  0.22274000  0.47845000  1.0
  H  H9  1  0.57470000  0.13589000  0.34037000  1.0
  H  H10  1  0.76976000  0.26645000  0.37005000  1.0
  H  H11  1  0.71575000  0.57321000  0.67256000  1.0
  H  H12  1  0.90179000  0.59904000  0.62035000  1.0
  H  H13  1  0.40362000  0.78474000  0.13518000  1.0
  H  H14  1  0.38937000  0.69577000  0.26334000  1.0
  H  H15  1  0.19698000  0.72099000  0.32977000  1.0
  H  H16  1  0.05164000  0.90912000  0.13010000  1.0
  H  H17  1  0.89516000  0.79823000  0.19061000  1.0
  H  H18  1  0.99598000  0.93776000  0.32511000  1.0
  H  H19  1  0.04638000  0.74440000  0.52144000  1.0
  H  H20  1  0.92518000  0.79562000  0.65968000  1.0
  H  H21  1  0.73017000  0.89649000  0.62991000  1.0
  H  H22  1  0.78392000  0.90064000  0.32703000  1.0
  H  H23  1  0.59796000  0.97872000  0.37939000  1.0
  H  H24  1  0.90373000  0.35037000  0.13516000  1.0
  H  H25  1  0.88990000  0.56742000  0.26322000  1.0
  H  H26  1  0.69766000  0.60896000  0.32985000  1.0
  H  H27  1  0.55136000  0.22152000  0.13010000  1.0
  H  H28  1  0.39537000  0.39312000  0.19080000  1.0
  H  H29  1  0.49606000  0.38765000  0.32516000  1.0
  H  H30  1  0.54659000  0.77726000  0.52155000  1.0
  H  H31  1  0.42530000  0.86411000  0.65963000  1.0
  H  H32  1  0.23024000  0.73354000  0.62995000  1.0
  H  H33  1  0.28426000  0.42678000  0.32744000  1.0
  H  H34  1  0.09821000  0.40095000  0.37965000  1.0
  H  H35  1  0.59638000  0.21526000  0.86481000  1.0
  H  H36  1  0.61063000  0.30424000  0.73666000  1.0
  H  H37  1  0.80303000  0.27901000  0.67022000  1.0
  H  H38  1  0.94836000  0.09088000  0.86989000  1.0
  H  H39  1  0.10484000  0.20177000  0.80940000  1.0
  H  H40  1  0.00402000  0.06224000  0.67489000  1.0
  H  H41  1  0.95362000  0.25560000  0.47856000  1.0
  H  H42  1  0.07482000  0.20438000  0.34032000  1.0
  H  H43  1  0.26983000  0.10351000  0.37010000  1.0
  H  H44  1  0.21608000  0.09936000  0.67297000  1.0
  H  H45  1  0.40204000  0.02128000  0.62061000  1.0
  C  C46  1  0.17928000  0.62644000  0.83584000  1.0
  C  C47  1  0.18766000  0.50676000  0.76495000  1.0
  C  C48  1  0.29482000  0.48376000  0.72839000  1.0
  C  C49  1  0.39140000  0.58147000  0.76512000  1.0
  C  C50  1  0.37584000  0.69880000  0.83794000  1.0
  C  C51  1  0.50787000  0.56563000  0.72675000  1.0
  C  C52  1  0.57508000  0.40251000  0.58192000  1.0
  C  C53  1  0.53740000  0.27937000  0.48963000  1.0
  C  C54  1  0.60732000  0.23097000  0.41392000  1.0
  C  C55  1  0.71626000  0.30355000  0.43038000  1.0
  C  C56  1  0.75692000  0.42666000  0.52504000  1.0
  C  C57  1  0.68481000  0.47714000  0.60069000  1.0
  C  C58  1  0.87405000  0.50271000  0.54706000  1.0
  C  C59  1  0.09925000  0.14593000  0.12918000  1.0
  C  C60  1  0.32060000  0.79065000  0.16420000  1.0
  C  C61  1  0.31191000  0.74178000  0.23502000  1.0
  C  C62  1  0.20475000  0.75552000  0.27157000  1.0
  C  C63  1  0.10841000  0.81665000  0.23481000  1.0
  C  C64  1  0.12420000  0.86120000  0.16202000  1.0
  C  C65  1  0.99190000  0.83921000  0.27308000  1.0
  C  C66  1  0.92461000  0.82063000  0.41785000  1.0
  C  C67  1  0.96236000  0.78980000  0.51024000  1.0
  C  C68  1  0.89251000  0.81713000  0.58603000  1.0
  C  C69  1  0.78358000  0.87320000  0.56950000  1.0
  C  C70  1  0.74290000  0.90164000  0.47475000  1.0
  C  C71  1  0.81489000  0.87647000  0.39899000  1.0
  C  C72  1  0.62578000  0.95566000  0.45274000  1.0
  C  C73  1  0.40082000  0.01681000  0.87058000  1.0
  C  C74  1  0.82071000  0.37356000  0.16416000  1.0
  C  C75  1  0.81234000  0.49324000  0.23505000  1.0
  C  C76  1  0.70519000  0.51624000  0.27161000  1.0
  C  C77  1  0.60861000  0.41854000  0.23489000  1.0
  C  C78  1  0.62416000  0.30120000  0.16206000  1.0
  C  C79  1  0.49213000  0.43436000  0.27325000  1.0
  C  C80  1  0.42492000  0.59750000  0.41809000  1.0
  C  C81  1  0.46260000  0.72062000  0.51036000  1.0
  C  C82  1  0.39268000  0.76902000  0.58607000  1.0
  C  C83  1  0.28374000  0.69645000  0.56962000  1.0
  C  C84  1  0.24308000  0.57333000  0.47496000  1.0
  C  C85  1  0.31519000  0.52285000  0.39931000  1.0
  C  C86  1  0.12594000  0.49729000  0.45294000  1.0
  C  C87  1  0.90074000  0.85407000  0.87082000  1.0
  C  C88  1  0.67940000  0.20935000  0.83579000  1.0
  C  C89  1  0.68809000  0.25821000  0.76497000  1.0
  C  C90  1  0.79525000  0.24448000  0.72843000  1.0
  C  C91  1  0.89159000  0.18335000  0.76519000  1.0
  C  C92  1  0.87580000  0.13880000  0.83798000  1.0
  C  C93  1  0.00810000  0.16079000  0.72692000  1.0
  C  C94  1  0.07540000  0.17938000  0.58216000  1.0
  C  C95  1  0.03765000  0.21021000  0.48977000  1.0
  C  C96  1  0.10749000  0.18287000  0.41398000  1.0
  C  C97  1  0.21642000  0.12680000  0.43051000  1.0
  C  C98  1  0.25710000  0.09836000  0.52526000  1.0
  C  C99  1  0.18511000  0.12353000  0.60102000  1.0
  C  C100  1  0.37422000  0.04434000  0.54726000  1.0
  C  C101  1  0.59919000  0.98321000  0.12943000  1.0
  S  S102  1  0.26099000  0.15517000  0.16940000  1.0
  S  S103  1  0.23905000  0.98553000  0.83015000  1.0
  S  S104  1  0.73900000  0.84483000  0.83060000  1.0
  S  S105  1  0.76095000  0.01446000  0.16984000  1.0
  N  N106  1  0.27227000  0.72075000  0.87205000  1.0
  N  N107  1  0.94603000  0.45771000  0.48290000  1.0
  N  N108  1  0.98259000  0.14149000  0.10371000  1.0
  N  N109  1  0.22780000  0.84887000  0.12793000  1.0
  N  N110  1  0.55397000  0.97481000  0.51706000  1.0
  N  N111  1  0.51749000  0.03810000  0.89627000  1.0
  N  N112  1  0.72773000  0.27925000  0.12795000  1.0
  N  N113  1  0.05397000  0.54229000  0.51710000  1.0
  N  N114  1  0.01740000  0.85849000  0.89628000  1.0
  N  N115  1  0.77219000  0.15113000  0.87207000  1.0
  N  N116  1  0.44603000  0.02519000  0.48294000  1.0
  N  N117  1  0.48250000  0.96193000  0.10374000  1.0
  O  O118  1  0.49822000  0.43885000  0.64996000  1.0
  O  O119  1  0.00136000  0.78895000  0.34972000  1.0
  O  O120  1  0.50179000  0.56115000  0.35004000  1.0
  O  O121  1  0.99864000  0.21105000  0.65028000  1.0
