# generated using pymatgen
data_SmH2C7O6
_symmetry_space_group_name_H-M   'P 1'
_cell_length_a   7.28545000
_cell_length_b   8.79525000
_cell_length_c   9.78532000
_cell_angle_alpha   90.00010000
_cell_angle_beta   90.00010000
_cell_angle_gamma   89.99960000
_symmetry_Int_Tables_number   1
_chemical_formula_structural   SmH2C7O6
_chemical_formula_sum   'Sm4 H8 C28 O24'
_cell_volume   627.01741473
_cell_formula_units_Z   4
loop_
 _symmetry_equiv_pos_site_id
 _symmetry_equiv_pos_as_xyz
  1  'x, y, z'
loop_
 _atom_site_type_symbol
 _atom_site_label
 _atom_site_symmetry_multiplicity
 _atom_site_fract_x
 _atom_site_fract_y
 _atom_site_fract_z
 _atom_site_occupancy
  Sm  Sm0  1  0.64775000  0.17717000  0.75000000  1.0
  Sm  Sm1  1  0.85225000  0.67718000  0.25000000  1.0
  Sm  Sm2  1  0.14774000  0.32283000  0.75000000  1.0
  Sm  Sm3  1  0.35225000  0.82283000  0.25000000  1.0
  H  H4  1  0.53794000  0.59325000  0.97135000  1.0
  H  H5  1  0.96204000  0.09325000  0.02863000  1.0
  H  H6  1  0.03795000  0.90674000  0.52864000  1.0
  H  H7  1  0.46206000  0.40675000  0.47138000  1.0
  H  H8  1  0.46205000  0.40675000  0.02863000  1.0
  H  H9  1  0.03795000  0.90674000  0.97137000  1.0
  H  H10  1  0.96205000  0.09325000  0.47137000  1.0
  H  H11  1  0.53793000  0.59326000  0.52863000  1.0
  C  C12  1  0.64270000  0.89178000  0.98631000  1.0
  C  C13  1  0.85730000  0.39179000  0.01369000  1.0
  C  C14  1  0.14270000  0.60820000  0.51368000  1.0
  C  C15  1  0.35731000  0.10821000  0.48632000  1.0
  C  C16  1  0.35731000  0.10821000  0.01368000  1.0
  C  C17  1  0.14270000  0.60821000  0.98631000  1.0
  C  C18  1  0.85730000  0.39179000  0.48631000  1.0
  C  C19  1  0.64270000  0.89178000  0.51368000  1.0
  C  C20  1  0.58628000  0.79863000  0.87156000  1.0
  C  C21  1  0.91373000  0.29863000  0.12844000  1.0
  C  C22  1  0.08626000  0.70137000  0.62842000  1.0
  C  C23  1  0.41374000  0.20137000  0.37158000  1.0
  C  C24  1  0.41374000  0.20137000  0.12843000  1.0
  C  C25  1  0.08627000  0.70137000  0.87158000  1.0
  C  C26  1  0.91373000  0.29863000  0.37156000  1.0
  C  C27  1  0.58628000  0.79863000  0.62844000  1.0
  C  C28  1  0.54146000  0.64769000  0.87235000  1.0
  C  C29  1  0.95854000  0.14769000  0.12764000  1.0
  C  C30  1  0.04144000  0.85231000  0.62764000  1.0
  C  C31  1  0.45856000  0.35231000  0.37236000  1.0
  C  C32  1  0.45856000  0.35231000  0.12765000  1.0
  C  C33  1  0.04145000  0.85231000  0.87236000  1.0
  C  C34  1  0.95855000  0.14769000  0.37236000  1.0
  C  C35  1  0.54145000  0.64770000  0.62764000  1.0
  C  C36  1  0.51472000  0.56428000  0.74999000  1.0
  C  C37  1  0.98528000  0.06427000  0.25000000  1.0
  C  C38  1  0.01471000  0.93573000  0.75000000  1.0
  C  C39  1  0.48529000  0.43573000  0.25001000  1.0
  O  O40  1  0.68540000  0.02940000  0.96024000  1.0
  O  O41  1  0.81459000  0.52941000  0.03975000  1.0
  O  O42  1  0.18541000  0.47059000  0.53975000  1.0
  O  O43  1  0.31459000  0.97060000  0.46025000  1.0
  O  O44  1  0.31458000  0.97060000  0.03975000  1.0
  O  O45  1  0.18541000  0.47059000  0.96025000  1.0
  O  O46  1  0.81460000  0.52941000  0.46025000  1.0
  O  O47  1  0.68540000  0.02940000  0.53975000  1.0
  O  O48  1  0.64890000  0.83344000  0.10894000  1.0
  O  O49  1  0.85109000  0.33343000  0.89107000  1.0
  O  O50  1  0.14893000  0.66656000  0.39108000  1.0
  O  O51  1  0.35108000  0.16657000  0.60892000  1.0
  O  O52  1  0.35108000  0.16658000  0.89108000  1.0
  O  O53  1  0.14893000  0.66656000  0.10892000  1.0
  O  O54  1  0.85109000  0.33343000  0.60893000  1.0
  O  O55  1  0.64891000  0.83344000  0.39106000  1.0
  O  O56  1  0.47470000  0.41763000  0.75000000  1.0
  O  O57  1  0.02530000  0.91763000  0.25000000  1.0
  O  O58  1  0.97470000  0.08238000  0.75000000  1.0
  O  O59  1  0.52529000  0.58236000  0.25000000  1.0
  O  O60  1  0.59502000  0.87910000  0.75000000  1.0
  O  O61  1  0.90499000  0.37909000  0.25000000  1.0
  O  O62  1  0.09504000  0.62091000  0.75000000  1.0
  O  O63  1  0.40496000  0.12092000  0.25000000  1.0
