# generated using pymatgen
data_HgH10C12(BrN2)2
_symmetry_space_group_name_H-M   'P 1'
_cell_length_a   4.94937000
_cell_length_b   12.92040000
_cell_length_c   23.30170000
_cell_angle_alpha   89.99980000
_cell_angle_beta   89.99970000
_cell_angle_gamma   86.68830000
_symmetry_Int_Tables_number   1
_chemical_formula_structural   HgH10C12(BrN2)2
_chemical_formula_sum   'Hg4 H40 C48 Br8 N16'
_cell_volume   1487.60499192
_cell_formula_units_Z   4
loop_
 _symmetry_equiv_pos_site_id
 _symmetry_equiv_pos_as_xyz
  1  'x, y, z'
loop_
 _atom_site_type_symbol
 _atom_site_label
 _atom_site_symmetry_multiplicity
 _atom_site_fract_x
 _atom_site_fract_y
 _atom_site_fract_z
 _atom_site_occupancy
  Hg  Hg0  1  0.10428000  0.75903000  0.39410000  1.0
  Hg  Hg1  1  0.39572000  0.74097000  0.89409000  1.0
  Hg  Hg2  1  0.89572000  0.24098000  0.60591000  1.0
  Hg  Hg3  1  0.60428000  0.25903000  0.10590000  1.0
  H  H4  1  0.31266000  0.94672000  0.31112000  1.0
  H  H5  1  0.18734000  0.55328000  0.81111000  1.0
  H  H6  1  0.68734000  0.05328000  0.68889000  1.0
  H  H7  1  0.81266000  0.44672000  0.18889000  1.0
  H  H8  1  0.64810000  0.98277000  0.23339000  1.0
  H  H9  1  0.85191000  0.51723000  0.73339000  1.0
  H  H10  1  0.35191000  0.01723000  0.76660000  1.0
  H  H11  1  0.14809000  0.48277000  0.26661000  1.0
  H  H12  1  0.89697000  0.65717000  0.23613000  1.0
  H  H13  1  0.60303000  0.84283000  0.73613000  1.0
  H  H14  1  0.10302000  0.34283000  0.76387000  1.0
  H  H15  1  0.39697000  0.15717000  0.26387000  1.0
  H  H16  1  0.54075000  0.63385000  0.31127000  1.0
  H  H17  1  0.95925000  0.86615000  0.81127000  1.0
  H  H18  1  0.45925000  0.36615000  0.68873000  1.0
  H  H19  1  0.04075000  0.13385000  0.18873000  1.0
  H  H20  1  0.00918000  0.91946000  0.16677000  1.0
  H  H21  1  0.49082000  0.58053000  0.66677000  1.0
  H  H22  1  0.99083000  0.08053000  0.83323000  1.0
  H  H23  1  0.50917000  0.41946000  0.33323000  1.0
  H  H24  1  0.49248000  0.64322000  0.12867000  1.0
  H  H25  1  0.00753000  0.85679000  0.62867000  1.0
  H  H26  1  0.50752000  0.35678000  0.87133000  1.0
  H  H27  1  0.99248000  0.14322000  0.37133000  1.0
  H  H28  1  0.95118000  0.89269000  0.96361000  1.0
  H  H29  1  0.54882000  0.60731000  0.46362000  1.0
  H  H30  1  0.04881000  0.10731000  0.03638000  1.0
  H  H31  1  0.45117000  0.39269000  0.53638000  1.0
  H  H32  1  0.59624000  0.89003000  0.04040000  1.0
  H  H33  1  0.90376000  0.60997000  0.54040000  1.0
  H  H34  1  0.40376000  0.10997000  0.95960000  1.0
  H  H35  1  0.09624000  0.39003000  0.45960000  1.0
  H  H36  1  0.86544000  0.57095000  0.07310000  1.0
  H  H37  1  0.63457000  0.92905000  0.57310000  1.0
  H  H38  1  0.13457000  0.42906000  0.92690000  1.0
  H  H39  1  0.36543000  0.07095000  0.42690000  1.0
  H  H40  1  0.20494000  0.58656000  0.99439000  1.0
  H  H41  1  0.29508000  0.91344000  0.49439000  1.0
  H  H42  1  0.79507000  0.41345000  0.00561000  1.0
  H  H43  1  0.70492000  0.08656000  0.50561000  1.0
  C  C44  1  0.44488000  0.88486000  0.29259000  1.0
  C  C45  1  0.05513000  0.61514000  0.79259000  1.0
  C  C46  1  0.55512000  0.11514000  0.70741000  1.0
  C  C47  1  0.94487000  0.38486000  0.20741000  1.0
  C  C48  1  0.63301000  0.90450000  0.25012000  1.0
  C  C49  1  0.86700000  0.59550000  0.75012000  1.0
  C  C50  1  0.36700000  0.09550000  0.74988000  1.0
  C  C51  1  0.13301000  0.40450000  0.24988000  1.0
  C  C52  1  0.80109000  0.82219000  0.22880000  1.0
  C  C53  1  0.69892000  0.67781000  0.72879000  1.0
  C  C54  1  0.19892000  0.17781000  0.77121000  1.0
  C  C55  1  0.30108000  0.32219000  0.27121000  1.0
  C  C56  1  0.76846000  0.72272000  0.25125000  1.0
  C  C57  1  0.73154000  0.77728000  0.75125000  1.0
  C  C58  1  0.23154000  0.27728000  0.74875000  1.0
  C  C59  1  0.26845000  0.22272000  0.24875000  1.0
  C  C60  1  0.57243000  0.70974000  0.29271000  1.0
  C  C61  1  0.92758000  0.79026000  0.79271000  1.0
  C  C62  1  0.42757000  0.29026000  0.70729000  1.0
  C  C63  1  0.07242000  0.20974000  0.20729000  1.0
  C  C64  1  0.00056000  0.84084000  0.18441000  1.0
  C  C65  1  0.49942000  0.65917000  0.68441000  1.0
  C  C66  1  0.99943000  0.15917000  0.81559000  1.0
  C  C67  1  0.50056000  0.34083000  0.31559000  1.0
  C  C68  1  0.50076000  0.71935000  0.10785000  1.0
  C  C69  1  0.99925000  0.78066000  0.60785000  1.0
  C  C70  1  0.49924000  0.28065000  0.89215000  1.0
  C  C71  1  0.00076000  0.21934000  0.39214000  1.0
  C  C72  1  0.92389000  0.82316000  0.98905000  1.0
  C  C73  1  0.57611000  0.67684000  0.48906000  1.0
  C  C74  1  0.07610000  0.17684000  0.01094000  1.0
  C  C75  1  0.42389000  0.32316000  0.51094000  1.0
  C  C76  1  0.72730000  0.82137000  0.03147000  1.0
  C  C77  1  0.77271000  0.67862000  0.53148000  1.0
  C  C78  1  0.27270000  0.17863000  0.96852000  1.0
  C  C79  1  0.22728000  0.32137000  0.46852000  1.0
  C  C80  1  0.70123000  0.72955000  0.06281000  1.0
  C  C81  1  0.79878000  0.77045000  0.56281000  1.0
  C  C82  1  0.29878000  0.27045000  0.93719000  1.0
  C  C83  1  0.20123000  0.22955000  0.43719000  1.0
  C  C84  1  0.87700000  0.64366000  0.04977000  1.0
  C  C85  1  0.62301000  0.85634000  0.54977000  1.0
  C  C86  1  0.12301000  0.35634000  0.95023000  1.0
  C  C87  1  0.37699000  0.14367000  0.45023000  1.0
  C  C88  1  0.06581000  0.65178000  0.00609000  1.0
  C  C89  1  0.43420000  0.84822000  0.50609000  1.0
  C  C90  1  0.93420000  0.34822000  0.99391000  1.0
  C  C91  1  0.56580000  0.15178000  0.49391000  1.0
  Br  Br92  1  0.89215000  0.94232000  0.40200000  1.0
  Br  Br93  1  0.60783000  0.55767000  0.90198000  1.0
  Br  Br94  1  0.10784000  0.05767000  0.59801000  1.0
  Br  Br95  1  0.39216000  0.44233000  0.09801000  1.0
  Br  Br96  1  0.06544000  0.56469000  0.38269000  1.0
  Br  Br97  1  0.43456000  0.93530000  0.88270000  1.0
  Br  Br98  1  0.93456000  0.43531000  0.61730000  1.0
  Br  Br99  1  0.56544000  0.06469000  0.11731000  1.0
  N  N100  1  0.41424000  0.78946000  0.31327000  1.0
  N  N101  1  0.08576000  0.71054000  0.81327000  1.0
  N  N102  1  0.58576000  0.21054000  0.68673000  1.0
  N  N103  1  0.91423000  0.28946000  0.18673000  1.0
  N  N104  1  0.16022000  0.76531000  0.16585000  1.0
  N  N105  1  0.33978000  0.73469000  0.66585000  1.0
  N  N106  1  0.83977000  0.23469000  0.83415000  1.0
  N  N107  1  0.66024000  0.26531000  0.33415000  1.0
  N  N108  1  0.33467000  0.79549000  0.12313000  1.0
  N  N109  1  0.16533000  0.70451000  0.62313000  1.0
  N  N110  1  0.66532000  0.20451000  0.87687000  1.0
  N  N111  1  0.83468000  0.29549000  0.37687000  1.0
  N  N112  1  0.08819000  0.73964000  0.97628000  1.0
  N  N113  1  0.41183000  0.76036000  0.47628000  1.0
  N  N114  1  0.91182000  0.26036000  0.02372000  1.0
  N  N115  1  0.58818000  0.23964000  0.52372000  1.0
