# generated using pymatgen
data_CdH16C26N2O9
_symmetry_space_group_name_H-M   'P 1'
_cell_length_a   7.08650000
_cell_length_b   9.06595000
_cell_length_c   17.17830000
_cell_angle_alpha   91.25810000
_cell_angle_beta   100.43200000
_cell_angle_gamma   96.76450000
_symmetry_Int_Tables_number   1
_chemical_formula_structural   CdH16C26N2O9
_chemical_formula_sum   'Cd2 H32 C52 N4 O18'
_cell_volume   1076.77717260
_cell_formula_units_Z   2
loop_
 _symmetry_equiv_pos_site_id
 _symmetry_equiv_pos_as_xyz
  1  'x, y, z'
loop_
 _atom_site_type_symbol
 _atom_site_label
 _atom_site_symmetry_multiplicity
 _atom_site_fract_x
 _atom_site_fract_y
 _atom_site_fract_z
 _atom_site_occupancy
  Cd  Cd0  1  0.71582000  0.13105000  0.38328000  1.0
  Cd  Cd1  1  0.28418000  0.86895000  0.61672000  1.0
  H  H2  1  0.32083000  0.53485000  0.41789000  1.0
  H  H3  1  0.67916000  0.46515000  0.58211000  1.0
  H  H4  1  0.31314000  0.66224000  0.29093000  1.0
  H  H5  1  0.68685000  0.33775000  0.70906000  1.0
  H  H6  1  0.80965000  0.56394000  0.08004000  1.0
  H  H7  1  0.19035000  0.43606000  0.91996000  1.0
  H  H8  1  0.12936000  0.86846000  0.21292000  1.0
  H  H9  1  0.87064000  0.13154000  0.78708000  1.0
  H  H10  1  0.85008000  0.71982000  0.20508000  1.0
  H  H11  1  0.14991000  0.28018000  0.79492000  1.0
  H  H12  1  0.85068000  0.73461000  0.35105000  1.0
  H  H13  1  0.14932000  0.26539000  0.64895000  1.0
  H  H14  1  0.58564000  0.86347000  0.24286000  1.0
  H  H15  1  0.41436000  0.13654000  0.75714000  1.0
  H  H16  1  0.67812000  0.03735000  0.01888000  1.0
  H  H17  1  0.32189000  0.96265000  0.98112000  1.0
  H  H18  1  0.74811000  0.31505000  0.01181000  1.0
  H  H19  1  0.25190000  0.68495000  0.98819000  1.0
  H  H20  1  0.79298000  0.49871000  0.42117000  1.0
  H  H21  1  0.20702000  0.50130000  0.57883000  1.0
  H  H22  1  0.59090000  0.81973000  0.09785000  1.0
  H  H23  1  0.40910000  0.18027000  0.90216000  1.0
  H  H24  1  0.14639000  0.99830000  0.08816000  1.0
  H  H25  1  0.85363000  0.00170000  0.91184000  1.0
  H  H26  1  0.01260000  0.26885000  0.49796000  1.0
  H  H27  1  0.98740000  0.73115000  0.50204000  1.0
  H  H28  1  0.84236000  0.21114000  0.54460000  1.0
  H  H29  1  0.15764000  0.78886000  0.45540000  1.0
  H  H30  1  0.45283000  0.87807000  0.38038000  1.0
  H  H31  1  0.54717000  0.12193000  0.61962000  1.0
  H  H32  1  0.65087000  0.82849000  0.42609000  1.0
  H  H33  1  0.34913000  0.17152000  0.57391000  1.0
  C  C34  1  0.32721000  0.24631000  0.44225000  1.0
  C  C35  1  0.67278000  0.75369000  0.55775000  1.0
  C  C36  1  0.13337000  0.98138000  0.35643000  1.0
  C  C37  1  0.86662000  0.01862000  0.64357000  1.0
  C  C38  1  0.23458000  0.30035000  0.21862000  1.0
  C  C39  1  0.76543000  0.69965000  0.78137000  1.0
  C  C40  1  0.78381000  0.48062000  0.19610000  1.0
  C  C41  1  0.21618000  0.51937000  0.80390000  1.0
  C  C42  1  0.27173000  0.31505000  0.36352000  1.0
  C  C43  1  0.72826000  0.68495000  0.63648000  1.0
  C  C44  1  0.70632000  0.20857000  0.20029000  1.0
  C  C45  1  0.29368000  0.79143000  0.79971000  1.0
  C  C46  1  0.74859000  0.35336000  0.24064000  1.0
  C  C47  1  0.25140000  0.64664000  0.75936000  1.0
  C  C48  1  0.29467000  0.46920000  0.36219000  1.0
  C  C49  1  0.70533000  0.53080000  0.63780000  1.0
  C  C50  1  0.22808000  0.22634000  0.29096000  1.0
  C  C51  1  0.77192000  0.77366000  0.70904000  1.0
  C  C52  1  0.20540000  0.21607000  0.14582000  1.0
  C  C53  1  0.79462000  0.78392000  0.85418000  1.0
  C  C54  1  0.18074000  0.06821000  0.28678000  1.0
  C  C55  1  0.81926000  0.93179000  0.71322000  1.0
  C  C56  1  0.29248000  0.54122000  0.29069000  1.0
  C  C57  1  0.70752000  0.45878000  0.70930000  1.0
  C  C58  1  0.78258000  0.46433000  0.11292000  1.0
  C  C59  1  0.21742000  0.53566000  0.88708000  1.0
  C  C60  1  0.15766000  0.98928000  0.21466000  1.0
  C  C61  1  0.84235000  0.01072000  0.78534000  1.0
  C  C62  1  0.82140000  0.62018000  0.23752000  1.0
  C  C63  1  0.17859000  0.37982000  0.76248000  1.0
  C  C64  1  0.26890000  0.45819000  0.21980000  1.0
  C  C65  1  0.73110000  0.54181000  0.78020000  1.0
  C  C66  1  0.82305000  0.62854000  0.31794000  1.0
  C  C67  1  0.17695000  0.37146000  0.68206000  1.0
  C  C68  1  0.62179000  0.95475000  0.20585000  1.0
  C  C69  1  0.37820000  0.04525000  0.79415000  1.0
  C  C70  1  0.67103000  0.05224000  0.08131000  1.0
  C  C71  1  0.32897000  0.94776000  0.91870000  1.0
  C  C72  1  0.74805000  0.32686000  0.07519000  1.0
  C  C73  1  0.25195000  0.67314000  0.92481000  1.0
  C  C74  1  0.78932000  0.49633000  0.35745000  1.0
  C  C75  1  0.21068000  0.50367000  0.64256000  1.0
  C  C76  1  0.70869000  0.19630000  0.11775000  1.0
  C  C77  1  0.29131000  0.80370000  0.88225000  1.0
  C  C78  1  0.62476000  0.93153000  0.12493000  1.0
  C  C79  1  0.37524000  0.06847000  0.87507000  1.0
  C  C80  1  0.16934000  0.06184000  0.14437000  1.0
  C  C81  1  0.83068000  0.93815000  0.85563000  1.0
  C  C82  1  0.27260000  0.53424000  0.14591000  1.0
  C  C83  1  0.72740000  0.46576000  0.85409000  1.0
  C  C84  1  0.21315000  0.29100000  0.07180000  1.0
  C  C85  1  0.78688000  0.70900000  0.92820000  1.0
  N  N86  1  0.75326000  0.36325000  0.31987000  1.0
  N  N87  1  0.24673000  0.63675000  0.68013000  1.0
  N  N88  1  0.66470000  0.08851000  0.24245000  1.0
  N  N89  1  0.33529000  0.91149000  0.75756000  1.0
  O  O90  1  0.45748000  0.16102000  0.44593000  1.0
  O  O91  1  0.54252000  0.83898000  0.55407000  1.0
  O  O92  1  0.25308000  0.28182000  0.50093000  1.0
  O  O93  1  0.74692000  0.71818000  0.49907000  1.0
  O  O94  1  0.21459000  0.86466000  0.37222000  1.0
  O  O95  1  0.78541000  0.13534000  0.62778000  1.0
  O  O96  1  0.00755000  0.02478000  0.39192000  1.0
  O  O97  1  0.99244000  0.97523000  0.60808000  1.0
  O  O98  1  0.87052000  0.26337000  0.49625000  1.0
  O  O99  1  0.12947000  0.73663000  0.50375000  1.0
  O  O100  1  0.59428000  0.88413000  0.37953000  1.0
  O  O101  1  0.40572000  0.11587000  0.62047000  1.0
  O  O102  1  0.25183000  0.44575000  0.07641000  1.0
  O  O103  1  0.74818000  0.55425000  0.92359000  1.0
  O  O104  1  0.29174000  0.66853000  0.13849000  1.0
  O  O105  1  0.70826000  0.33147000  0.86151000  1.0
  O  O106  1  0.18984000  0.23064000  0.00592000  1.0
  O  O107  1  0.81020000  0.76936000  0.99408000  1.0
