# generated using pymatgen
data_NiH34C24(N3O2)2
_symmetry_space_group_name_H-M   'P 1'
_cell_length_a   8.96468671
_cell_length_b   9.04053000
_cell_length_c   9.52527000
_cell_angle_alpha   109.75900000
_cell_angle_beta   116.65472271
_cell_angle_gamma   60.65701684
_symmetry_Int_Tables_number   1
_chemical_formula_structural   NiH34C24(N3O2)2
_chemical_formula_sum   'Ni1 H34 C24 N6 O4'
_cell_volume   594.45553832
_cell_formula_units_Z   1
loop_
 _symmetry_equiv_pos_site_id
 _symmetry_equiv_pos_as_xyz
  1  'x, y, z'
loop_
 _atom_site_type_symbol
 _atom_site_label
 _atom_site_symmetry_multiplicity
 _atom_site_fract_x
 _atom_site_fract_y
 _atom_site_fract_z
 _atom_site_occupancy
  Ni  Ni0  1  0.49999000  0.00000000  0.49999000  1.0
  H  H1  1  0.85619000  0.09127000  0.86299000  1.0
  H  H2  1  0.14382000  0.90872000  0.13701000  1.0
  H  H3  1  0.89595000  0.27169000  0.87581000  1.0
  H  H4  1  0.10406000  0.72830000  0.12418000  1.0
  H  H5  1  0.05728000  0.06129000  0.84349000  1.0
  H  H6  1  0.94272000  0.93870000  0.15648000  1.0
  H  H7  1  0.59583000  0.27732000  0.46715000  1.0
  H  H8  1  0.40414000  0.72268000  0.53284000  1.0
  H  H9  1  0.64324000  0.39834000  0.66289000  1.0
  H  H10  1  0.35672000  0.60167000  0.33709000  1.0
  H  H11  1  0.19145000  0.00909000  0.57808000  1.0
  H  H12  1  0.80850000  0.99093000  0.42190000  1.0
  H  H13  1  0.98955000  0.09565000  0.41675000  1.0
  H  H14  1  0.01042000  0.90436000  0.58324000  1.0
  H  H15  1  0.28542000  0.38439000  0.43965000  1.0
  H  H16  1  0.71454000  0.61561000  0.56034000  1.0
  H  H17  1  0.29273000  0.48999000  0.63626000  1.0
  H  H18  1  0.70724000  0.51001000  0.36374000  1.0
  H  H19  1  0.22494000  0.26485000  0.66892000  1.0
  H  H20  1  0.77504000  0.73515000  0.33107000  1.0
  H  H21  1  0.04740000  0.37879000  0.51069000  1.0
  H  H22  1  0.95257000  0.62121000  0.48930000  1.0
  H  H23  1  0.68687000  0.09448000  0.21268000  1.0
  H  H24  1  0.31318000  0.90552000  0.78734000  1.0
  H  H25  1  0.76128000  0.27411000  0.13123000  1.0
  H  H26  1  0.23876000  0.72587000  0.86876000  1.0
  H  H27  1  0.11780000  0.37819000  0.98955000  1.0
  H  H28  1  0.88225000  0.62177000  0.01046000  1.0
  H  H29  1  0.18433000  0.56153000  0.90572000  1.0
  H  H30  1  0.81569000  0.43846000  0.09430000  1.0
  H  H31  1  0.54225000  0.23350000  0.73167000  1.0
  H  H32  1  0.45771000  0.76651000  0.26832000  1.0
  H  H33  1  0.18028000  0.14362000  0.32779000  1.0
  H  H34  1  0.81973000  0.85638000  0.67221000  1.0
  C  C35  1  0.91081000  0.14146000  0.81426000  1.0
  C  C36  1  0.08919000  0.85854000  0.18573000  1.0
  C  C37  1  0.64156000  0.27273000  0.59427000  1.0
  C  C38  1  0.35841000  0.72727000  0.40573000  1.0
  C  C39  1  0.13895000  0.02308000  0.45268000  1.0
  C  C40  1  0.86101000  0.97693000  0.54730000  1.0
  C  C41  1  0.31529000  0.36431000  0.55880000  1.0
  C  C42  1  0.68468000  0.63569000  0.44119000  1.0
  C  C43  1  0.19145000  0.28844000  0.55012000  1.0
  C  C44  1  0.80853000  0.71156000  0.44988000  1.0
  C  C45  1  0.35045000  0.14029000  0.18614000  1.0
  C  C46  1  0.64960000  0.85971000  0.81390000  1.0
  C  C47  1  0.39708000  0.22946000  0.11295000  1.0
  C  C48  1  0.60297000  0.77053000  0.88707000  1.0
  C  C49  1  0.57796000  0.19905000  0.14691000  1.0
  C  C50  1  0.42209000  0.80095000  0.85311000  1.0
  C  C51  1  0.61847000  0.30172000  0.10084000  1.0
  C  C52  1  0.38157000  0.69828000  0.89917000  1.0
  C  C53  1  0.47913000  0.44031000  0.01847000  1.0
  C  C54  1  0.52090000  0.55969000  0.98154000  1.0
  C  C55  1  0.29805000  0.46058000  0.97381000  1.0
  C  C56  1  0.70198000  0.53941000  0.02621000  1.0
  C  C57  1  0.25845000  0.35762000  0.02049000  1.0
  C  C58  1  0.74159000  0.64236000  0.97953000  1.0
  N  N59  1  0.82425000  0.14386000  0.64335000  1.0
  N  N60  1  0.17572000  0.85615000  0.35664000  1.0
  N  N61  1  0.50556000  0.23949000  0.61445000  1.0
  N  N62  1  0.49441000  0.76052000  0.38555000  1.0
  N  N63  1  0.22345000  0.12340000  0.44380000  1.0
  N  N64  1  0.77653000  0.87660000  0.55620000  1.0
  O  O65  1  0.48622000  0.03481000  0.27983000  1.0
  O  O66  1  0.51382000  0.96520000  0.72022000  1.0
  O  O67  1  0.18355000  0.18298000  0.15801000  1.0
  O  O68  1  0.81649000  0.81703000  0.84202000  1.0
