# generated using pymatgen
data_ZnH18C26(N2O3)2
_symmetry_space_group_name_H-M   'P 1'
_cell_length_a   13.30110000
_cell_length_b   13.30650000
_cell_length_c   15.06820000
_cell_angle_alpha   89.99990000
_cell_angle_beta   89.99980000
_cell_angle_gamma   89.20570000
_symmetry_Int_Tables_number   1
_chemical_formula_structural   ZnH18C26(N2O3)2
_chemical_formula_sum   'Zn4 H72 C104 N16 O24'
_cell_volume   2666.68082824
_cell_formula_units_Z   4
loop_
 _symmetry_equiv_pos_site_id
 _symmetry_equiv_pos_as_xyz
  1  'x, y, z'
loop_
 _atom_site_type_symbol
 _atom_site_label
 _atom_site_symmetry_multiplicity
 _atom_site_fract_x
 _atom_site_fract_y
 _atom_site_fract_z
 _atom_site_occupancy
  Zn  Zn0  1  0.14684000  0.74916000  0.75641000  1.0
  Zn  Zn1  1  0.35316000  0.75085000  0.25641000  1.0
  Zn  Zn2  1  0.85316000  0.25084000  0.24358000  1.0
  Zn  Zn3  1  0.64684000  0.24915000  0.74359000  1.0
  H  H4  1  0.28283000  0.56909000  0.84206000  1.0
  H  H5  1  0.21717000  0.93092000  0.34206000  1.0
  H  H6  1  0.71716000  0.43091000  0.15793000  1.0
  H  H7  1  0.78284000  0.06909000  0.65794000  1.0
  H  H8  1  0.40859000  0.46606000  0.74703000  1.0
  H  H9  1  0.09141000  0.03395000  0.24703000  1.0
  H  H10  1  0.59140000  0.53394000  0.25296000  1.0
  H  H11  1  0.90860000  0.96606000  0.75298000  1.0
  H  H12  1  0.27154000  0.68993000  0.58366000  1.0
  H  H13  1  0.22846000  0.81007000  0.08366000  1.0
  H  H14  1  0.72847000  0.31006000  0.41633000  1.0
  H  H15  1  0.77154000  0.18995000  0.91634000  1.0
  H  H16  1  0.47756000  0.38786000  0.63021000  1.0
  H  H17  1  0.02244000  0.11214000  0.13023000  1.0
  H  H18  1  0.52243000  0.61213000  0.36977000  1.0
  H  H19  1  0.97757000  0.88787000  0.86978000  1.0
  H  H20  1  0.40734000  0.66221000  0.48855000  1.0
  H  H21  1  0.09265000  0.83779000  0.98856000  1.0
  H  H22  1  0.59264000  0.33779000  0.51144000  1.0
  H  H23  1  0.90734000  0.16220000  0.01145000  1.0
  H  H24  1  0.15346000  0.99715000  0.74680000  1.0
  H  H25  1  0.34654000  0.50286000  0.24680000  1.0
  H  H26  1  0.84654000  0.00284000  0.25319000  1.0
  H  H27  1  0.65345000  0.49714000  0.75320000  1.0
  H  H28  1  0.28581000  0.09132000  0.83682000  1.0
  H  H29  1  0.21420000  0.40869000  0.33683000  1.0
  H  H30  1  0.71420000  0.90867000  0.16317000  1.0
  H  H31  1  0.78579000  0.59132000  0.66318000  1.0
  H  H32  1  0.32365000  0.78133000  0.88870000  1.0
  H  H33  1  0.17636000  0.71868000  0.38872000  1.0
  H  H34  1  0.67636000  0.21867000  0.11130000  1.0
  H  H35  1  0.82365000  0.28133000  0.61129000  1.0
  H  H36  1  0.45772000  0.11450000  0.87450000  1.0
  H  H37  1  0.04229000  0.38549000  0.37451000  1.0
  H  H38  1  0.54229000  0.88549000  0.12550000  1.0
  H  H39  1  0.95772000  0.61451000  0.62551000  1.0
  H  H40  1  0.59589000  0.15565000  0.97394000  1.0
  H  H41  1  0.90412000  0.34435000  0.47395000  1.0
  H  H42  1  0.40412000  0.84434000  0.02605000  1.0
  H  H43  1  0.09588000  0.65566000  0.52606000  1.0
  H  H44  1  0.01522000  0.56523000  0.20569000  1.0
  H  H45  1  0.48478000  0.93476000  0.70569000  1.0
  H  H46  1  0.98479000  0.43477000  0.79430000  1.0
  H  H47  1  0.51521000  0.06524000  0.29431000  1.0
  H  H48  1  0.83317000  0.56485000  0.17688000  1.0
  H  H49  1  0.66683000  0.93515000  0.67688000  1.0
  H  H50  1  0.16684000  0.43515000  0.82311000  1.0
  H  H51  1  0.33316000  0.06486000  0.32312000  1.0
  H  H52  1  0.88736000  0.65761000  0.90653000  1.0
  H  H53  1  0.61264000  0.84240000  0.40653000  1.0
  H  H54  1  0.11264000  0.34238000  0.09346000  1.0
  H  H55  1  0.38735000  0.15760000  0.59348000  1.0
  H  H56  1  0.18571000  0.62848000  0.03168000  1.0
  H  H57  1  0.31429000  0.87152000  0.53168000  1.0
  H  H58  1  0.81430000  0.37151000  0.96832000  1.0
  H  H59  1  0.68570000  0.12848000  0.46833000  1.0
  H  H60  1  0.69192000  0.64449000  0.15715000  1.0
  H  H61  1  0.80808000  0.85551000  0.65715000  1.0
  H  H62  1  0.30808000  0.35550000  0.84284000  1.0
  H  H63  1  0.19191000  0.14450000  0.34285000  1.0
  H  H64  1  0.56184000  0.59662000  0.85181000  1.0
  H  H65  1  0.93817000  0.90339000  0.35182000  1.0
  H  H66  1  0.43817000  0.40337000  0.14818000  1.0
  H  H67  1  0.06182000  0.09664000  0.64819000  1.0
  H  H68  1  0.74550000  0.57610000  0.88211000  1.0
  H  H69  1  0.75450000  0.92391000  0.38212000  1.0
  H  H70  1  0.25450000  0.42389000  0.11788000  1.0
  H  H71  1  0.24549000  0.07612000  0.61789000  1.0
  H  H72  1  0.39283000  0.66728000  0.02363000  1.0
  H  H73  1  0.10716000  0.83272000  0.52364000  1.0
  H  H74  1  0.60717000  0.33272000  0.97636000  1.0
  H  H75  1  0.89283000  0.16729000  0.47636000  1.0
  C  C76  1  0.29695000  0.57913000  0.77178000  1.0
  C  C77  1  0.20305000  0.92087000  0.27179000  1.0
  C  C78  1  0.70305000  0.42086000  0.22821000  1.0
  C  C79  1  0.79696000  0.07914000  0.72822000  1.0
  C  C80  1  0.36605000  0.56443000  0.63797000  1.0
  C  C81  1  0.13395000  0.93558000  0.13798000  1.0
  C  C82  1  0.63395000  0.43557000  0.36202000  1.0
  C  C83  1  0.86605000  0.06443000  0.86202000  1.0
  C  C84  1  0.29424000  0.64059000  0.63741000  1.0
  C  C85  1  0.20576000  0.85941000  0.13742000  1.0
  C  C86  1  0.70575000  0.35940000  0.36257000  1.0
  C  C87  1  0.79425000  0.14060000  0.86258000  1.0
  C  C88  1  0.43357000  0.52965000  0.56839000  1.0
  C  C89  1  0.06643000  0.97034000  0.06839000  1.0
  C  C90  1  0.56642000  0.47033000  0.43160000  1.0
  C  C91  1  0.93357000  0.02967000  0.93161000  1.0
  C  C92  1  0.48706000  0.43794000  0.57392000  1.0
  C  C93  1  0.01293000  0.06205000  0.07393000  1.0
  C  C94  1  0.51293000  0.56205000  0.42607000  1.0
  C  C95  1  0.98707000  0.93795000  0.92607000  1.0
  C  C96  1  0.44751000  0.59062000  0.49339000  1.0
  C  C97  1  0.05249000  0.90938000  0.99340000  1.0
  C  C98  1  0.55248000  0.40937000  0.50660000  1.0
  C  C99  1  0.94751000  0.09063000  0.00661000  1.0
  C  C100  1  0.20961000  0.96365000  0.79005000  1.0
  C  C101  1  0.29039000  0.53635000  0.29005000  1.0
  C  C102  1  0.79039000  0.03634000  0.20995000  1.0
  C  C103  1  0.70961000  0.46364000  0.70995000  1.0
  C  C104  1  0.33778000  0.94814000  0.88486000  1.0
  C  C105  1  0.16222000  0.55186000  0.38487000  1.0
  C  C106  1  0.66223000  0.05185000  0.11513000  1.0
  C  C107  1  0.83777000  0.44815000  0.61514000  1.0
  C  C108  1  0.29927000  0.85486000  0.86553000  1.0
  C  C109  1  0.20074000  0.64514000  0.36554000  1.0
  C  C110  1  0.70074000  0.14513000  0.13447000  1.0
  C  C111  1  0.79926000  0.35486000  0.63447000  1.0
  C  C112  1  0.41980000  0.97613000  0.94298000  1.0
  C  C113  1  0.08020000  0.52387000  0.44298000  1.0
  C  C114  1  0.58021000  0.02386000  0.05702000  1.0
  C  C115  1  0.91980000  0.47614000  0.55703000  1.0
  C  C116  1  0.47442000  0.06463000  0.93025000  1.0
  C  C117  1  0.02559000  0.43537000  0.43026000  1.0
  C  C118  1  0.52559000  0.93537000  0.06975000  1.0
  C  C119  1  0.97440000  0.56463000  0.56975000  1.0
  C  C120  1  0.55332000  0.08795000  0.98642000  1.0
  C  C121  1  0.94668000  0.41206000  0.48644000  1.0
  C  C122  1  0.44668000  0.91205000  0.01357000  1.0
  C  C123  1  0.05332000  0.58795000  0.51358000  1.0
  C  C124  1  0.08726000  0.66410000  0.91606000  1.0
  C  C125  1  0.41274000  0.83591000  0.41606000  1.0
  C  C126  1  0.91275000  0.33590000  0.08393000  1.0
  C  C127  1  0.58725000  0.16409000  0.58395000  1.0
  C  C128  1  0.01676000  0.63560000  0.98762000  1.0
  C  C129  1  0.48325000  0.86441000  0.48762000  1.0
  C  C130  1  0.98324000  0.36440000  0.01237000  1.0
  C  C131  1  0.51675000  0.13559000  0.51238000  1.0
  C  C132  1  0.05446000  0.61019000  0.07300000  1.0
  C  C133  1  0.44554000  0.88981000  0.57301000  1.0
  C  C134  1  0.94554000  0.38980000  0.92699000  1.0
  C  C135  1  0.55445000  0.11020000  0.42700000  1.0
  C  C136  1  0.98609000  0.58613000  0.14050000  1.0
  C  C137  1  0.51391000  0.91387000  0.64051000  1.0
  C  C138  1  0.01392000  0.41387000  0.85949000  1.0
  C  C139  1  0.48608000  0.08614000  0.35950000  1.0
  C  C140  1  0.88368000  0.58647000  0.12342000  1.0
  C  C141  1  0.61633000  0.91352000  0.62342000  1.0
  C  C142  1  0.11633000  0.41352000  0.87657000  1.0
  C  C143  1  0.38367000  0.08648000  0.37658000  1.0
  C  C144  1  0.84412000  0.61095000  0.03890000  1.0
  C  C145  1  0.65588000  0.88905000  0.53890000  1.0
  C  C146  1  0.15589000  0.38904000  0.96110000  1.0
  C  C147  1  0.34411000  0.11095000  0.46111000  1.0
  C  C148  1  0.91289000  0.63566000  0.97257000  1.0
  C  C149  1  0.58711000  0.86434000  0.47256000  1.0
  C  C150  1  0.08711000  0.36432000  0.02743000  1.0
  C  C151  1  0.41288000  0.13567000  0.52744000  1.0
  C  C152  1  0.73474000  0.61303000  0.02142000  1.0
  C  C153  1  0.76526000  0.88698000  0.52143000  1.0
  C  C154  1  0.26526000  0.38697000  0.97857000  1.0
  C  C155  1  0.23473000  0.11304000  0.47858000  1.0
  C  C156  1  0.66573000  0.63237000  0.08942000  1.0
  C  C157  1  0.83426000  0.86763000  0.58942000  1.0
  C  C158  1  0.33427000  0.36762000  0.91057000  1.0
  C  C159  1  0.16572000  0.13238000  0.41059000  1.0
  C  C160  1  0.56201000  0.64120000  0.07400000  1.0
  C  C161  1  0.93799000  0.85880000  0.57401000  1.0
  C  C162  1  0.43799000  0.35879000  0.92600000  1.0
  C  C163  1  0.06200000  0.14121000  0.42600000  1.0
  C  C164  1  0.52460000  0.63220000  0.98673000  1.0
  C  C165  1  0.97540000  0.86780000  0.48674000  1.0
  C  C166  1  0.47540000  0.36779000  0.01326000  1.0
  C  C167  1  0.02459000  0.13222000  0.51327000  1.0
  C  C168  1  0.59214000  0.60736000  0.91840000  1.0
  C  C169  1  0.90786000  0.89265000  0.41841000  1.0
  C  C170  1  0.40786000  0.39264000  0.08159000  1.0
  C  C171  1  0.09213000  0.10738000  0.58160000  1.0
  C  C172  1  0.69451000  0.59764000  0.93569000  1.0
  C  C173  1  0.80549000  0.90236000  0.43570000  1.0
  C  C174  1  0.30549000  0.40235000  0.06429000  1.0
  C  C175  1  0.19450000  0.09766000  0.56431000  1.0
  C  C176  1  0.49437000  0.66100000  0.15011000  1.0
  C  C177  1  0.00563000  0.83900000  0.65012000  1.0
  C  C178  1  0.50563000  0.33899000  0.84988000  1.0
  C  C179  1  0.99437000  0.16102000  0.34989000  1.0
  N  N180  1  0.25193000  0.64848000  0.72053000  1.0
  N  N181  1  0.24807000  0.85152000  0.22053000  1.0
  N  N182  1  0.74807000  0.35152000  0.27946000  1.0
  N  N183  1  0.75194000  0.14848000  0.77947000  1.0
  N  N184  1  0.36545000  0.52682000  0.72380000  1.0
  N  N185  1  0.13456000  0.97318000  0.22381000  1.0
  N  N186  1  0.63455000  0.47317000  0.27618000  1.0
  N  N187  1  0.86545000  0.02683000  0.77619000  1.0
  N  N188  1  0.22023000  0.86616000  0.80718000  1.0
  N  N189  1  0.27978000  0.63384000  0.30719000  1.0
  N  N190  1  0.77979000  0.13383000  0.19283000  1.0
  N  N191  1  0.72021000  0.36616000  0.69282000  1.0
  N  N192  1  0.27982000  0.01546000  0.83547000  1.0
  N  N193  1  0.22019000  0.48455000  0.33548000  1.0
  N  N194  1  0.72019000  0.98454000  0.16452000  1.0
  N  N195  1  0.77981000  0.51545000  0.66453000  1.0
  O  O196  1  0.05034000  0.68779000  0.83960000  1.0
  O  O197  1  0.44965000  0.81222000  0.33960000  1.0
  O  O198  1  0.94966000  0.31220000  0.16040000  1.0
  O  O199  1  0.55035000  0.18778000  0.66041000  1.0
  O  O200  1  0.18139000  0.66652000  0.93323000  1.0
  O  O201  1  0.31861000  0.83349000  0.43322000  1.0
  O  O202  1  0.81862000  0.33347000  0.06677000  1.0
  O  O203  1  0.68138000  0.16651000  0.56679000  1.0
  O  O204  1  0.15386000  0.60833000  0.09076000  1.0
  O  O205  1  0.34614000  0.89166000  0.59077000  1.0
  O  O206  1  0.84615000  0.39166000  0.90923000  1.0
  O  O207  1  0.65385000  0.10834000  0.40925000  1.0
  O  O208  1  0.42554000  0.64461000  0.96745000  1.0
  O  O209  1  0.07447000  0.85539000  0.46746000  1.0
  O  O210  1  0.57447000  0.35539000  0.03254000  1.0
  O  O211  1  0.92553000  0.14462000  0.53254000  1.0
  O  O212  1  0.51972000  0.63572000  0.22750000  1.0
  O  O213  1  0.98027000  0.86427000  0.72751000  1.0
  O  O214  1  0.48029000  0.36428000  0.77250000  1.0
  O  O215  1  0.01972000  0.13573000  0.27250000  1.0
  O  O216  1  0.40852000  0.70658000  0.13469000  1.0
  O  O217  1  0.09147000  0.79342000  0.63469000  1.0
  O  O218  1  0.59148000  0.29340000  0.86530000  1.0
  O  O219  1  0.90852000  0.20659000  0.36530000  1.0
