# generated using pymatgen
data_Zn3P2H8(C3O5)2
_symmetry_space_group_name_H-M   'P 1'
_cell_length_a   8.27672000
_cell_length_b   8.53924000
_cell_length_c   9.33265000
_cell_angle_alpha   89.99980000
_cell_angle_beta   89.99990000
_cell_angle_gamma   74.08200000
_symmetry_Int_Tables_number   1
_chemical_formula_structural   Zn3P2H8(C3O5)2
_chemical_formula_sum   'Zn6 P4 H16 C12 O20'
_cell_volume   634.31041780
_cell_formula_units_Z   2
loop_
 _symmetry_equiv_pos_site_id
 _symmetry_equiv_pos_as_xyz
  1  'x, y, z'
loop_
 _atom_site_type_symbol
 _atom_site_label
 _atom_site_symmetry_multiplicity
 _atom_site_fract_x
 _atom_site_fract_y
 _atom_site_fract_z
 _atom_site_occupancy
  Zn  Zn0  1  0.58124000  0.88071000  0.88044000  1.0
  Zn  Zn1  1  0.41875000  0.61929000  0.38044000  1.0
  Zn  Zn2  1  0.41875000  0.11930000  0.11956000  1.0
  Zn  Zn3  1  0.58125000  0.38070000  0.61956000  1.0
  Zn  Zn4  1  0.50000000  0.50000000  0.00000000  1.0
  Zn  Zn5  1  0.50000000  0.00000000  0.50000000  1.0
  P  P6  1  0.36412000  0.74174000  0.70980000  1.0
  P  P7  1  0.63588000  0.75826000  0.20980000  1.0
  P  P8  1  0.63588000  0.25826000  0.29019000  1.0
  P  P9  1  0.36412000  0.24174000  0.79020000  1.0
  H  H10  1  0.12337000  0.85731000  0.84997000  1.0
  H  H11  1  0.87664000  0.64269000  0.34997000  1.0
  H  H12  1  0.87663000  0.14269000  0.15003000  1.0
  H  H13  1  0.12337000  0.35730000  0.65002000  1.0
  H  H14  1  0.14489000  0.65015000  0.81414000  1.0
  H  H15  1  0.85510000  0.84985000  0.31413000  1.0
  H  H16  1  0.85510000  0.34985000  0.18587000  1.0
  H  H17  1  0.14490000  0.15014000  0.68586000  1.0
  H  H18  1  0.04426000  0.92626000  0.58921000  1.0
  H  H19  1  0.95573000  0.57375000  0.08920000  1.0
  H  H20  1  0.95574000  0.07374000  0.41080000  1.0
  H  H21  1  0.04427000  0.42625000  0.91079000  1.0
  H  H22  1  0.05362000  0.72289000  0.55458000  1.0
  H  H23  1  0.94637000  0.77712000  0.05458000  1.0
  H  H24  1  0.94637000  0.27712000  0.44543000  1.0
  H  H25  1  0.05363000  0.22288000  0.94542000  1.0
  C  C26  1  0.15049000  0.76505000  0.76478000  1.0
  C  C27  1  0.84951000  0.73495000  0.26478000  1.0
  C  C28  1  0.84951000  0.23495000  0.23522000  1.0
  C  C29  1  0.15050000  0.26504000  0.73521000  1.0
  C  C30  1  0.02823000  0.81499000  0.64017000  1.0
  C  C31  1  0.97176000  0.68501000  0.14017000  1.0
  C  C32  1  0.97177000  0.18501000  0.35983000  1.0
  C  C33  1  0.02823000  0.31499000  0.85983000  1.0
  C  C34  1  0.84343000  0.85037000  0.67885000  1.0
  C  C35  1  0.15657000  0.64963000  0.17883000  1.0
  C  C36  1  0.15657000  0.14963000  0.32116000  1.0
  C  C37  1  0.84343000  0.35038000  0.82116000  1.0
  O  O38  1  0.41312000  0.59903000  0.59865000  1.0
  O  O39  1  0.58688000  0.90097000  0.09866000  1.0
  O  O40  1  0.58688000  0.40097000  0.40135000  1.0
  O  O41  1  0.41312000  0.09903000  0.90135000  1.0
  O  O42  1  0.48212000  0.69850000  0.84340000  1.0
  O  O43  1  0.51787000  0.80150000  0.34340000  1.0
  O  O44  1  0.51788000  0.30150000  0.15660000  1.0
  O  O45  1  0.48213000  0.19850000  0.65660000  1.0
  O  O46  1  0.37525000  0.90127000  0.64383000  1.0
  O  O47  1  0.62475000  0.59873000  0.14383000  1.0
  O  O48  1  0.62474000  0.09873000  0.35616000  1.0
  O  O49  1  0.37525000  0.40127000  0.85617000  1.0
  O  O50  1  0.80650000  0.85989000  0.81373000  1.0
  O  O51  1  0.19350000  0.64012000  0.31373000  1.0
  O  O52  1  0.19350000  0.14012000  0.18628000  1.0
  O  O53  1  0.80651000  0.35990000  0.68626000  1.0
  O  O54  1  0.73991000  0.86849000  0.57777000  1.0
  O  O55  1  0.26008000  0.63151000  0.07777000  1.0
  O  O56  1  0.26009000  0.13152000  0.42224000  1.0
  O  O57  1  0.73992000  0.36848000  0.92223000  1.0
