# generated using pymatgen
data_CuH32C34(N4O7)2
_symmetry_space_group_name_H-M   'P 1'
_cell_length_a   6.64650000
_cell_length_b   10.82020000
_cell_length_c   13.22730000
_cell_angle_alpha   92.28470000
_cell_angle_beta   99.72740000
_cell_angle_gamma   101.97800000
_symmetry_Int_Tables_number   1
_chemical_formula_structural   CuH32C34(N4O7)2
_chemical_formula_sum   'Cu1 H32 C34 N8 O14'
_cell_volume   914.39650916
_cell_formula_units_Z   1
loop_
 _symmetry_equiv_pos_site_id
 _symmetry_equiv_pos_as_xyz
  1  'x, y, z'
loop_
 _atom_site_type_symbol
 _atom_site_label
 _atom_site_symmetry_multiplicity
 _atom_site_fract_x
 _atom_site_fract_y
 _atom_site_fract_z
 _atom_site_occupancy
  Cu  Cu0  1  0.00000000  0.00000000  0.00000000  1.0
  H  H1  1  0.55765000  0.09305000  0.76743000  1.0
  H  H2  1  0.44234000  0.90695000  0.23257000  1.0
  H  H3  1  0.34382000  0.07332000  0.88906000  1.0
  H  H4  1  0.65618000  0.92667000  0.11094000  1.0
  H  H5  1  0.08725000  0.93575000  0.57294000  1.0
  H  H6  1  0.91273000  0.06426000  0.42706000  1.0
  H  H7  1  0.75899000  0.83406000  0.63024000  1.0
  H  H8  1  0.24099000  0.16594000  0.36976000  1.0
  H  H9  1  0.73782000  0.85452000  0.81859000  1.0
  H  H10  1  0.26217000  0.14548000  0.18141000  1.0
  H  H11  1  0.76510000  0.08580000  0.57998000  1.0
  H  H12  1  0.23489000  0.91420000  0.42002000  1.0
  H  H13  1  0.79165000  0.19182000  0.68814000  1.0
  H  H14  1  0.20834000  0.80819000  0.31186000  1.0
  H  H15  1  0.66752000  0.24325000  0.46138000  1.0
  H  H16  1  0.33246000  0.75675000  0.53861000  1.0
  H  H17  1  0.66298000  0.34931000  0.56437000  1.0
  H  H18  1  0.33703000  0.65070000  0.43562000  1.0
  H  H19  1  0.05112000  0.25222000  0.52845000  1.0
  H  H20  1  0.94886000  0.74777000  0.47155000  1.0
  H  H21  1  0.04673000  0.36045000  0.62959000  1.0
  H  H22  1  0.95327000  0.63955000  0.37040000  1.0
  H  H23  1  0.19929000  0.45799000  0.48253000  1.0
  H  H24  1  0.80072000  0.54200000  0.51747000  1.0
  H  H25  1  0.95161000  0.41068000  0.40184000  1.0
  H  H26  1  0.04840000  0.58931000  0.59815000  1.0
  H  H27  1  0.24331000  0.40702000  0.94805000  1.0
  H  H28  1  0.75670000  0.59298000  0.05194000  1.0
  H  H29  1  0.94489000  0.67142000  0.77496000  1.0
  H  H30  1  0.05513000  0.32858000  0.22505000  1.0
  H  H31  1  0.58422000  0.30392000  0.81922000  1.0
  H  H32  1  0.41579000  0.69609000  0.18078000  1.0
  C  C33  1  0.21820000  0.01992000  0.82970000  1.0
  C  C34  1  0.78180000  0.98008000  0.17029000  1.0
  C  C35  1  0.24423000  0.01070000  0.72679000  1.0
  C  C36  1  0.75575000  0.98929000  0.27321000  1.0
  C  C37  1  0.07549000  0.94272000  0.65368000  1.0
  C  C38  1  0.92450000  0.05728000  0.34632000  1.0
  C  C39  1  0.89211000  0.88559000  0.68623000  1.0
  C  C40  1  0.10788000  0.11441000  0.31377000  1.0
  C  C41  1  0.87822000  0.89740000  0.78965000  1.0
  C  C42  1  0.12178000  0.10260000  0.21035000  1.0
  C  C43  1  0.47644000  0.11014000  0.61102000  1.0
  C  C44  1  0.52354000  0.88986000  0.38897000  1.0
  C  C45  1  0.70412000  0.16477000  0.60937000  1.0
  C  C46  1  0.29587000  0.83524000  0.39063000  1.0
  C  C47  1  0.74158000  0.27526000  0.54157000  1.0
  C  C48  1  0.25842000  0.72474000  0.45843000  1.0
  C  C49  1  0.97570000  0.32894000  0.54889000  1.0
  C  C50  1  0.02430000  0.67105000  0.45111000  1.0
  C  C51  1  0.02994000  0.43916000  0.48232000  1.0
  C  C52  1  0.97006000  0.56083000  0.51768000  1.0
  C  C53  1  0.91310000  0.34051000  0.88646000  1.0
  C  C54  1  0.08691000  0.65949000  0.11354000  1.0
  C  C55  1  0.10332000  0.42971000  0.90429000  1.0
  C  C56  1  0.89669000  0.57030000  0.09571000  1.0
  C  C57  1  0.10943000  0.54756000  0.86430000  1.0
  C  C58  1  0.89058000  0.45244000  0.13571000  1.0
  C  C59  1  0.93555000  0.57959000  0.80633000  1.0
  C  C60  1  0.06446000  0.42041000  0.19367000  1.0
  C  C61  1  0.74881000  0.48941000  0.79176000  1.0
  C  C62  1  0.25120000  0.51060000  0.20825000  1.0
  C  C63  1  0.73375000  0.37145000  0.83139000  1.0
  C  C64  1  0.26626000  0.62856000  0.16861000  1.0
  C  C65  1  0.89563000  0.20897000  0.92306000  1.0
  C  C66  1  0.10438000  0.79103000  0.07694000  1.0
  N  N67  1  0.03987000  0.96486000  0.85904000  1.0
  N  N68  1  0.96014000  0.03514000  0.14095000  1.0
  N  N69  1  0.43765000  0.06933000  0.70465000  1.0
  N  N70  1  0.56234000  0.93067000  0.29535000  1.0
  N  N71  1  0.30805000  0.64331000  0.88279000  1.0
  N  N72  1  0.69196000  0.35669000  0.11721000  1.0
  N  N73  1  0.55981000  0.51974000  0.73203000  1.0
  N  N74  1  0.44020000  0.48026000  0.26797000  1.0
  O  O75  1  0.33713000  0.10054000  0.53433000  1.0
  O  O76  1  0.66288000  0.89947000  0.46568000  1.0
  O  O77  1  0.05966000  0.18741000  0.97982000  1.0
  O  O78  1  0.94035000  0.81258000  0.02017000  1.0
  O  O79  1  0.72639000  0.12853000  0.89540000  1.0
  O  O80  1  0.27359000  0.87147000  0.10460000  1.0
  O  O81  1  0.39141000  0.44294000  0.72905000  1.0
  O  O82  1  0.60861000  0.55707000  0.27096000  1.0
  O  O83  1  0.57975000  0.61969000  0.68863000  1.0
  O  O84  1  0.42026000  0.38031000  0.31137000  1.0
  O  O85  1  0.45836000  0.61823000  0.94132000  1.0
  O  O86  1  0.54164000  0.38177000  0.05869000  1.0
  O  O87  1  0.31299000  0.74249000  0.83877000  1.0
  O  O88  1  0.68702000  0.25751000  0.16123000  1.0
