# generated using pymatgen
data_ZnH24C26(N2O3)2
_symmetry_space_group_name_H-M   'P 1'
_cell_length_a   9.34115000
_cell_length_b   11.85730000
_cell_length_c   13.09530000
_cell_angle_alpha   109.19900000
_cell_angle_beta   97.74370000
_cell_angle_gamma   113.10300000
_symmetry_Int_Tables_number   1
_chemical_formula_structural   ZnH24C26(N2O3)2
_chemical_formula_sum   'Zn2 H48 C52 N8 O12'
_cell_volume   1200.42522272
_cell_formula_units_Z   2
loop_
 _symmetry_equiv_pos_site_id
 _symmetry_equiv_pos_as_xyz
  1  'x, y, z'
loop_
 _atom_site_type_symbol
 _atom_site_label
 _atom_site_symmetry_multiplicity
 _atom_site_fract_x
 _atom_site_fract_y
 _atom_site_fract_z
 _atom_site_occupancy
  Zn  Zn0  1  0.63479000  0.20695000  0.21482000  1.0
  Zn  Zn1  1  0.36521000  0.79305000  0.78518000  1.0
  H  H2  1  0.62147000  0.42501000  0.39741000  1.0
  H  H3  1  0.37853000  0.57499000  0.60259000  1.0
  H  H4  1  0.75737000  0.56204000  0.61087000  1.0
  H  H5  1  0.24262000  0.43796000  0.38913000  1.0
  H  H6  1  0.08968000  0.21638000  0.47512000  1.0
  H  H7  1  0.91031000  0.78362000  0.52488000  1.0
  H  H8  1  0.95296000  0.50800000  0.70837000  1.0
  H  H9  1  0.04704000  0.49200000  0.29163000  1.0
  H  H10  1  0.07829000  0.21963000  0.74474000  1.0
  H  H11  1  0.92171000  0.78037000  0.25526000  1.0
  H  H12  1  0.87548000  0.20513000  0.38202000  1.0
  H  H13  1  0.12452000  0.79487000  0.61798000  1.0
  H  H14  1  0.31880000  0.33567000  0.70395000  1.0
  H  H15  1  0.68121000  0.66433000  0.29605000  1.0
  H  H16  1  0.42498000  0.33710000  0.54260000  1.0
  H  H17  1  0.57502000  0.66290000  0.45740000  1.0
  H  H18  1  0.30713000  0.15993000  0.46871000  1.0
  H  H19  1  0.69286000  0.84007000  0.53129000  1.0
  H  H20  1  0.58849000  0.21302000  0.55348000  1.0
  H  H21  1  0.41151000  0.78698000  0.44652000  1.0
  H  H22  1  0.59264000  0.31356000  0.68859000  1.0
  H  H23  1  0.40736000  0.68643000  0.31141000  1.0
  H  H24  1  0.54826000  0.09105000  0.68061000  1.0
  H  H25  1  0.45174000  0.90895000  0.31939000  1.0
  H  H26  1  0.37834000  0.00699000  0.55757000  1.0
  H  H27  1  0.62166000  0.99301000  0.44243000  1.0
  H  H28  1  0.40267000  0.20209000  0.79071000  1.0
  H  H29  1  0.59733000  0.79791000  0.20930000  1.0
  H  H30  1  0.28693000  0.02484000  0.73330000  1.0
  H  H31  1  0.71307000  0.97516000  0.26670000  1.0
  H  H32  1  0.12289000  0.02907000  0.56762000  1.0
  H  H33  1  0.87711000  0.97093000  0.43238000  1.0
  H  H34  1  0.67515000  0.83367000  0.71021000  1.0
  H  H35  1  0.32485000  0.16632000  0.28978000  1.0
  H  H36  1  0.79394000  0.28438000  0.97921000  1.0
  H  H37  1  0.20606000  0.71562000  0.02079000  1.0
  H  H38  1  0.52940000  0.08104000  0.92775000  1.0
  H  H39  1  0.47060000  0.91896000  0.07225000  1.0
  H  H40  1  0.99929000  0.26267000  0.87995000  1.0
  H  H41  1  0.00071000  0.73733000  0.12005000  1.0
  H  H42  1  0.72155000  0.43462000  0.01040000  1.0
  H  H43  1  0.27845000  0.56538000  0.98960000  1.0
  H  H44  1  0.68144000  0.54041000  0.87896000  1.0
  H  H45  1  0.31856000  0.45959000  0.12104000  1.0
  H  H46  1  0.72424000  0.88681000  0.01932000  1.0
  H  H47  1  0.27576000  0.11320000  0.98069000  1.0
  H  H48  1  0.82887000  0.75223000  0.88831000  1.0
  H  H49  1  0.17113000  0.24777000  0.11170000  1.0
  C  C50  1  0.70884000  0.40802000  0.44654000  1.0
  C  C51  1  0.29116000  0.59198000  0.55346000  1.0
  C  C52  1  0.78340000  0.48183000  0.56284000  1.0
  C  C53  1  0.21660000  0.51817000  0.43717000  1.0
  C  C54  1  0.89245000  0.45169000  0.61751000  1.0
  C  C55  1  0.10755000  0.54831000  0.38249000  1.0
  C  C56  1  0.92881000  0.35131000  0.55429000  1.0
  C  C57  1  0.07119000  0.64869000  0.44571000  1.0
  C  C58  1  0.85147000  0.28298000  0.43733000  1.0
  C  C59  1  0.14853000  0.71702000  0.56267000  1.0
  C  C60  1  0.04817000  0.32495000  0.61928000  1.0
  C  C61  1  0.95183000  0.67505000  0.38072000  1.0
  C  C62  1  0.25505000  0.24576000  0.62237000  1.0
  C  C63  1  0.74494000  0.75424000  0.37762000  1.0
  C  C64  1  0.37490000  0.24266000  0.55381000  1.0
  C  C65  1  0.62510000  0.75734000  0.44619000  1.0
  C  C66  1  0.51254000  0.22290000  0.60965000  1.0
  C  C67  1  0.48746000  0.77710000  0.39035000  1.0
  C  C68  1  0.44669000  0.09993000  0.63708000  1.0
  C  C69  1  0.55331000  0.90007000  0.36291000  1.0
  C  C70  1  0.33437000  0.11061000  0.71032000  1.0
  C  C71  1  0.66563000  0.88939000  0.28967000  1.0
  C  C72  1  0.19148000  0.12040000  0.64826000  1.0
  C  C73  1  0.80851000  0.87960000  0.35174000  1.0
  C  C74  1  0.96348000  0.01935000  0.71885000  1.0
  C  C75  1  0.03652000  0.98065000  0.28115000  1.0
  C  C76  1  0.85014000  0.04570000  0.78300000  1.0
  C  C77  1  0.14986000  0.95430000  0.21700000  1.0
  C  C78  1  0.70268000  0.93597000  0.76525000  1.0
  C  C79  1  0.29732000  0.06403000  0.23475000  1.0
  C  C80  1  0.77000000  0.18810000  0.91470000  1.0
  C  C81  1  0.23000000  0.81190000  0.08530000  1.0
  C  C82  1  0.62369000  0.07454000  0.88916000  1.0
  C  C83  1  0.37631000  0.92546000  0.11083000  1.0
  C  C84  1  0.88399000  0.17417000  0.86025000  1.0
  C  C85  1  0.11601000  0.82583000  0.13975000  1.0
  C  C86  1  0.54220000  0.37242000  0.14873000  1.0
  C  C87  1  0.45780000  0.62758000  0.85127000  1.0
  C  C88  1  0.52167000  0.43950000  0.07268000  1.0
  C  C89  1  0.47832000  0.56050000  0.92732000  1.0
  C  C90  1  0.62410000  0.46286000  0.00471000  1.0
  C  C91  1  0.37590000  0.53713000  0.99528000  1.0
  C  C92  1  0.60251000  0.52235000  0.93229000  1.0
  C  C93  1  0.39749000  0.47765000  0.06771000  1.0
  C  C94  1  0.87836000  0.15834000  0.14515000  1.0
  C  C95  1  0.12164000  0.84166000  0.85485000  1.0
  C  C96  1  0.94190000  0.07506000  0.07232000  1.0
  C  C97  1  0.05810000  0.92494000  0.92768000  1.0
  C  C98  1  0.84507000  0.93526000  0.01059000  1.0
  C  C99  1  0.15493000  0.06474000  0.98942000  1.0
  C  C100  1  0.90285000  0.86063000  0.93830000  1.0
  C  C101  1  0.09715000  0.13937000  0.06171000  1.0
  N  N102  1  0.74218000  0.31002000  0.38539000  1.0
  N  N103  1  0.25782000  0.68997000  0.61461000  1.0
  N  N104  1  0.59047000  0.95048000  0.81521000  1.0
  N  N105  1  0.40953000  0.04952000  0.18479000  1.0
  N  N106  1  0.12312000  0.26003000  0.56238000  1.0
  N  N107  1  0.87688000  0.73997000  0.43762000  1.0
  N  N108  1  0.07876000  0.12791000  0.71397000  1.0
  N  N109  1  0.92123000  0.87209000  0.28603000  1.0
  O  O110  1  0.61624000  0.29980000  0.11932000  1.0
  O  O111  1  0.38376000  0.70020000  0.88068000  1.0
  O  O112  1  0.48778000  0.38632000  0.23202000  1.0
  O  O113  1  0.51222000  0.61368000  0.76799000  1.0
  O  O114  1  0.73289000  0.09081000  0.15075000  1.0
  O  O115  1  0.26711000  0.90920000  0.84925000  1.0
  O  O116  1  0.95950000  0.28386000  0.19286000  1.0
  O  O117  1  0.04051000  0.71614000  0.80715000  1.0
  O  O118  1  0.07623000  0.36575000  0.72464000  1.0
  O  O119  1  0.92377000  0.63425000  0.27536000  1.0
  O  O120  1  0.94586000  0.90210000  0.67115000  1.0
  O  O121  1  0.05414000  0.09790000  0.32885000  1.0
