# generated using pymatgen
data_CuH15C23N3(OF)4
_symmetry_space_group_name_H-M   'P 1'
_cell_length_a   8.66749000
_cell_length_b   8.76152000
_cell_length_c   16.39450000
_cell_angle_alpha   97.19380000
_cell_angle_beta   90.00240000
_cell_angle_gamma   119.63800000
_symmetry_Int_Tables_number   1
_chemical_formula_structural   CuH15C23N3(OF)4
_chemical_formula_sum   'Cu2 H30 C46 N6 O8 F8'
_cell_volume   1070.82331228
_cell_formula_units_Z   2
loop_
 _symmetry_equiv_pos_site_id
 _symmetry_equiv_pos_as_xyz
  1  'x, y, z'
loop_
 _atom_site_type_symbol
 _atom_site_label
 _atom_site_symmetry_multiplicity
 _atom_site_fract_x
 _atom_site_fract_y
 _atom_site_fract_z
 _atom_site_occupancy
  Cu  Cu0  1  0.52268000  0.00004000  0.75003000  1.0
  Cu  Cu1  1  0.47732000  0.99996000  0.24997000  1.0
  H  H2  1  0.28599000  0.89690000  0.88714000  1.0
  H  H3  1  0.38913000  0.10307000  0.61285000  1.0
  H  H4  1  0.71402000  0.10311000  0.11286000  1.0
  H  H5  1  0.61086000  0.89692000  0.38714000  1.0
  H  H6  1  0.08153000  0.61183000  0.94050000  1.0
  H  H7  1  0.46952000  0.38805000  0.55947000  1.0
  H  H8  1  0.91848000  0.38817000  0.05950000  1.0
  H  H9  1  0.53048000  0.61195000  0.44052000  1.0
  H  H10  1  0.09419000  0.33859000  0.88573000  1.0
  H  H11  1  0.75541000  0.66145000  0.61423000  1.0
  H  H12  1  0.90581000  0.66141000  0.11427000  1.0
  H  H13  1  0.24459000  0.33854000  0.38577000  1.0
  H  H14  1  0.31868000  0.36331000  0.78259000  1.0
  H  H15  1  0.95528000  0.63668000  0.71732000  1.0
  H  H16  1  0.68133000  0.63670000  0.21741000  1.0
  H  H17  1  0.04472000  0.36331000  0.28268000  1.0
  H  H18  1  0.50564000  0.65556000  0.73296000  1.0
  H  H19  1  0.85008000  0.34459000  0.76703000  1.0
  H  H20  1  0.49437000  0.34445000  0.26704000  1.0
  H  H21  1  0.14991000  0.65540000  0.23297000  1.0
  H  H22  1  0.76350000  0.99113000  0.87551000  1.0
  H  H23  1  0.77220000  0.00881000  0.62453000  1.0
  H  H24  1  0.23650000  0.00887000  0.12449000  1.0
  H  H25  1  0.22780000  0.99119000  0.37547000  1.0
  H  H26  1  0.05034000  0.98669000  0.88077000  1.0
  H  H27  1  0.06359000  0.01336000  0.61916000  1.0
  H  H28  1  0.94967000  0.01332000  0.11923000  1.0
  H  H29  1  0.93641000  0.98665000  0.38084000  1.0
  H  H30  1  0.20449000  0.00010000  0.74999000  1.0
  H  H31  1  0.79552000  0.99991000  0.25001000  1.0
  C  C32  1  0.58692000  0.25696000  0.89586000  1.0
  C  C33  1  0.33004000  0.74313000  0.60415000  1.0
  C  C34  1  0.41304000  0.74303000  0.10413000  1.0
  C  C35  1  0.66994000  0.25688000  0.39586000  1.0
  C  C36  1  0.54245000  0.38203000  0.95015000  1.0
  C  C37  1  0.16050000  0.61805000  0.54981000  1.0
  C  C38  1  0.45755000  0.61797000  0.04985000  1.0
  C  C39  1  0.83950000  0.38195000  0.45019000  1.0
  C  C40  1  0.39691000  0.31976000  0.99832000  1.0
  C  C41  1  0.07701000  0.68024000  0.50172000  1.0
  C  C42  1  0.60308000  0.68023000  0.00168000  1.0
  C  C43  1  0.92299000  0.31976000  0.49828000  1.0
  C  C44  1  0.35526000  0.43451000  0.04702000  1.0
  C  C45  1  0.92053000  0.56542000  0.45307000  1.0
  C  C46  1  0.64474000  0.56549000  0.95298000  1.0
  C  C47  1  0.07948000  0.43458000  0.54693000  1.0
  C  C48  1  0.28604000  0.77426000  0.86558000  1.0
  C  C49  1  0.51176000  0.22574000  0.63441000  1.0
  C  C50  1  0.71397000  0.22574000  0.13443000  1.0
  C  C51  1  0.48823000  0.77425000  0.36558000  1.0
  C  C52  1  0.17345000  0.61571000  0.89463000  1.0
  C  C53  1  0.55761000  0.38427000  0.60535000  1.0
  C  C54  1  0.82655000  0.38429000  0.10537000  1.0
  C  C55  1  0.44240000  0.61573000  0.39465000  1.0
  C  C56  1  0.18246000  0.46453000  0.86450000  1.0
  C  C57  1  0.71776000  0.53550000  0.63546000  1.0
  C  C58  1  0.81754000  0.53548000  0.13550000  1.0
  C  C59  1  0.28224000  0.46450000  0.36454000  1.0
  C  C60  1  0.30528000  0.47740000  0.80686000  1.0
  C  C61  1  0.82777000  0.52262000  0.69307000  1.0
  C  C62  1  0.69473000  0.52260000  0.19313000  1.0
  C  C63  1  0.17223000  0.47737000  0.30694000  1.0
  C  C64  1  0.41213000  0.64002000  0.77990000  1.0
  C  C65  1  0.77206000  0.36006000  0.72009000  1.0
  C  C66  1  0.58787000  0.35998000  0.22010000  1.0
  C  C67  1  0.22794000  0.63993000  0.27991000  1.0
  C  C68  1  0.83389000  0.99302000  0.82035000  1.0
  C  C69  1  0.84082000  0.00697000  0.67965000  1.0
  C  C70  1  0.16612000  0.00699000  0.17965000  1.0
  C  C71  1  0.15918000  0.99303000  0.32035000  1.0
  C  C72  1  0.99389000  0.99232000  0.82267000  1.0
  C  C73  1  0.00158000  0.00782000  0.67729000  1.0
  C  C74  1  0.00611000  0.00768000  0.17733000  1.0
  C  C75  1  0.99842000  0.99219000  0.32271000  1.0
  C  C76  1  0.07935000  0.00014000  0.74998000  1.0
  C  C77  1  0.92066000  0.99987000  0.25002000  1.0
  N  N78  1  0.40189000  0.78556000  0.80857000  1.0
  N  N79  1  0.61631000  0.21449000  0.69146000  1.0
  N  N80  1  0.59811000  0.21444000  0.19143000  1.0
  N  N81  1  0.38369000  0.78550000  0.30854000  1.0
  N  N82  1  0.75909000  0.99997000  0.75002000  1.0
  N  N83  1  0.24091000  0.00003000  0.24999000  1.0
  O  O84  1  0.46150000  0.15170000  0.84057000  1.0
  O  O85  1  0.30989000  0.84831000  0.65948000  1.0
  O  O86  1  0.53848000  0.84830000  0.15942000  1.0
  O  O87  1  0.69011000  0.15168000  0.34052000  1.0
  O  O88  1  0.73406000  0.26820000  0.90825000  1.0
  O  O89  1  0.46599000  0.73192000  0.59176000  1.0
  O  O90  1  0.26593000  0.73178000  0.09175000  1.0
  O  O91  1  0.53403000  0.26809000  0.40825000  1.0
  F  F92  1  0.29191000  0.14167000  0.99892000  1.0
  F  F93  1  0.15015000  0.85831000  0.50102000  1.0
  F  F94  1  0.70808000  0.85833000  0.00108000  1.0
  F  F95  1  0.84985000  0.14168000  0.49898000  1.0
  F  F96  1  0.21281000  0.36454000  0.09348000  1.0
  F  F97  1  0.84809000  0.63534000  0.40652000  1.0
  F  F98  1  0.78719000  0.63547000  0.90652000  1.0
  F  F99  1  0.15191000  0.36466000  0.59348000  1.0
