# generated using pymatgen
data_ZnH10(C3O4)2
_symmetry_space_group_name_H-M   'P 1'
_cell_length_a   6.48051000
_cell_length_b   10.74650000
_cell_length_c   10.74650000
_cell_angle_alpha   75.14960000
_cell_angle_beta   73.11760000
_cell_angle_gamma   73.11780000
_symmetry_Int_Tables_number   1
_chemical_formula_structural   ZnH10(C3O4)2
_chemical_formula_sum   'Zn3 H30 C18 O24'
_cell_volume   673.10483940
_cell_formula_units_Z   3
loop_
 _symmetry_equiv_pos_site_id
 _symmetry_equiv_pos_as_xyz
  1  'x, y, z'
loop_
 _atom_site_type_symbol
 _atom_site_label
 _atom_site_symmetry_multiplicity
 _atom_site_fract_x
 _atom_site_fract_y
 _atom_site_fract_z
 _atom_site_occupancy
  Zn  Zn0  1  0.00000000  0.55444000  0.44556000  1.0
  Zn  Zn1  1  0.23242000  0.00616000  0.47317000  1.0
  Zn  Zn2  1  0.76759000  0.52683000  0.99384000  1.0
  H  H3  1  0.20210000  0.74176000  0.99451000  1.0
  H  H4  1  0.79790000  0.00549000  0.25824000  1.0
  H  H5  1  0.00000000  0.15831000  0.84169000  1.0
  H  H6  1  0.50000000  0.89648000  0.10352000  1.0
  H  H7  1  0.29884000  0.31244000  0.95291000  1.0
  H  H8  1  0.70116000  0.04709000  0.68756000  1.0
  H  H9  1  0.03114000  0.22096000  0.35201000  1.0
  H  H10  1  0.96886000  0.64799000  0.77904000  1.0
  H  H11  1  0.85613000  0.21174000  0.50035000  1.0
  H  H12  1  0.14387000  0.49965000  0.78826000  1.0
  H  H13  1  0.93011000  0.87709000  0.46151000  1.0
  H  H14  1  0.06990000  0.53849000  0.12291000  1.0
  H  H15  1  0.91513000  0.87611000  0.61334000  1.0
  H  H16  1  0.08487000  0.38666000  0.12389000  1.0
  H  H17  1  0.59026000  0.79971000  0.44741000  1.0
  H  H18  1  0.40975000  0.55259000  0.20029000  1.0
  H  H19  1  0.43106000  0.79820000  0.59593000  1.0
  H  H20  1  0.56895000  0.40407000  0.20180000  1.0
  H  H21  1  0.55502000  0.15308000  0.33759000  1.0
  H  H22  1  0.44498000  0.66241000  0.84692000  1.0
  H  H23  1  0.54101000  0.12991000  0.49213000  1.0
  H  H24  1  0.45899000  0.50787000  0.87010000  1.0
  H  H25  1  0.31926000  0.54374000  0.57420000  1.0
  H  H26  1  0.68075000  0.42580000  0.45626000  1.0
  H  H27  1  0.30342000  0.68852000  0.49136000  1.0
  H  H28  1  0.69658000  0.50864000  0.31148000  1.0
  H  H29  1  0.85774000  0.53808000  0.69988000  1.0
  H  H30  1  0.14225000  0.30012000  0.46192000  1.0
  H  H31  1  0.66406000  0.50518000  0.65291000  1.0
  H  H32  1  0.33594000  0.34709000  0.49482000  1.0
  C  C33  1  0.00000000  0.75037000  0.24962000  1.0
  C  C34  1  0.00000000  0.86295000  0.13704000  1.0
  C  C35  1  0.11428000  0.84158000  0.00945000  1.0
  C  C36  1  0.88572000  0.99054000  0.15842000  1.0
  C  C37  1  0.11297000  0.94743000  0.90233000  1.0
  C  C38  1  0.88702000  0.09767000  0.05257000  1.0
  C  C39  1  0.00000000  0.07533000  0.92467000  1.0
  C  C40  1  0.22672000  0.92280000  0.76449000  1.0
  C  C41  1  0.77328000  0.23551000  0.07719000  1.0
  C  C42  1  0.26409000  0.12132000  0.18189000  1.0
  C  C43  1  0.73591000  0.81812000  0.87868000  1.0
  C  C44  1  0.38539000  0.10624000  0.04292000  1.0
  C  C45  1  0.61461000  0.95708000  0.89376000  1.0
  C  C46  1  0.50000000  0.97932000  0.02068000  1.0
  C  C47  1  0.38693000  0.21301000  0.93652000  1.0
  C  C48  1  0.61307000  0.06348000  0.78700000  1.0
  C  C49  1  0.50000000  0.19195000  0.80805000  1.0
  C  C50  1  0.50000000  0.30581000  0.69419000  1.0
  O  O51  1  0.11126000  0.63317000  0.23253000  1.0
  O  O52  1  0.88875000  0.76745000  0.36683000  1.0
  O  O53  1  0.35755000  0.81021000  0.74896000  1.0
  O  O54  1  0.64244000  0.25104000  0.18979000  1.0
  O  O55  1  0.18272000  0.01771000  0.66984000  1.0
  O  O56  1  0.81729000  0.33016000  0.98229000  1.0
  O  O57  1  0.29671000  0.01888000  0.27130000  1.0
  O  O58  1  0.70329000  0.72870000  0.98112000  1.0
  O  O59  1  0.13374000  0.23235000  0.20374000  1.0
  O  O60  1  0.86626000  0.79626000  0.76765000  1.0
  O  O61  1  0.56921000  0.28327000  0.57530000  1.0
  O  O62  1  0.43079000  0.42470000  0.71673000  1.0
  O  O63  1  0.01368000  0.19917000  0.45330000  1.0
  O  O64  1  0.98632000  0.54670000  0.80084000  1.0
  O  O65  1  0.94939000  0.92710000  0.52072000  1.0
  O  O66  1  0.05061000  0.47928000  0.07290000  1.0
  O  O67  1  0.43457000  0.80848000  0.49806000  1.0
  O  O68  1  0.56544000  0.50194000  0.19152000  1.0
  O  O69  1  0.51262000  0.09464000  0.42507000  1.0
  O  O70  1  0.48738000  0.57493000  0.90536000  1.0
  O  O71  1  0.24216000  0.60910000  0.50970000  1.0
  O  O72  1  0.75784000  0.49031000  0.39090000  1.0
  O  O73  1  0.78578000  0.55120000  0.62433000  1.0
  O  O74  1  0.21422000  0.37567000  0.44881000  1.0
