# generated using pymatgen
data_TlH14C10SNO2
_symmetry_space_group_name_H-M   'P 1'
_cell_length_a   8.69217000
_cell_length_b   10.56510000
_cell_length_c   13.39880000
_cell_angle_alpha   89.99990000
_cell_angle_beta   89.99990000
_cell_angle_gamma   89.99980000
_symmetry_Int_Tables_number   1
_chemical_formula_structural   TlH14C10SNO2
_chemical_formula_sum   'Tl4 H56 C40 S4 N4 O8'
_cell_volume   1230.46064619
_cell_formula_units_Z   4
loop_
 _symmetry_equiv_pos_site_id
 _symmetry_equiv_pos_as_xyz
  1  'x, y, z'
loop_
 _atom_site_type_symbol
 _atom_site_label
 _atom_site_symmetry_multiplicity
 _atom_site_fract_x
 _atom_site_fract_y
 _atom_site_fract_z
 _atom_site_occupancy
  Tl  Tl0  1  0.46893000  0.22550000  0.59590000  1.0
  Tl  Tl1  1  0.03107000  0.77450000  0.09590000  1.0
  Tl  Tl2  1  0.96893000  0.27450000  0.40410000  1.0
  Tl  Tl3  1  0.53107000  0.72550000  0.90410000  1.0
  H  H4  1  0.46252000  0.46434000  0.15145000  1.0
  H  H5  1  0.03748000  0.53566000  0.65145000  1.0
  H  H6  1  0.96252000  0.03566000  0.84855000  1.0
  H  H7  1  0.53748000  0.96434000  0.34855000  1.0
  H  H8  1  0.65983000  0.54344000  0.27023000  1.0
  H  H9  1  0.84017000  0.45656000  0.77023000  1.0
  H  H10  1  0.15983000  0.95656000  0.72978000  1.0
  H  H11  1  0.34017000  0.04344000  0.22977000  1.0
  H  H12  1  0.66546000  0.44803000  0.44381000  1.0
  H  H13  1  0.83454000  0.55197000  0.94381000  1.0
  H  H14  1  0.16546000  0.05197000  0.55619000  1.0
  H  H15  1  0.33454000  0.94803000  0.05619000  1.0
  H  H16  1  0.11680000  0.36220000  0.00256000  1.0
  H  H17  1  0.38319000  0.63780000  0.50256000  1.0
  H  H18  1  0.61680000  0.13780000  0.99745000  1.0
  H  H19  1  0.88319000  0.86220000  0.49744000  1.0
  H  H20  1  0.09335000  0.20167000  0.03840000  1.0
  H  H21  1  0.40665000  0.79833000  0.53840000  1.0
  H  H22  1  0.59335000  0.29833000  0.96160000  1.0
  H  H23  1  0.90665000  0.70167000  0.46160000  1.0
  H  H24  1  0.34597000  0.29657000  0.89404000  1.0
  H  H25  1  0.15403000  0.70343000  0.39404000  1.0
  H  H26  1  0.84597000  0.20343000  0.10596000  1.0
  H  H27  1  0.65403000  0.79657000  0.60596000  1.0
  H  H28  1  0.17090000  0.22348000  0.85778000  1.0
  H  H29  1  0.32910000  0.77652000  0.35777000  1.0
  H  H30  1  0.67090000  0.27652000  0.14222000  1.0
  H  H31  1  0.82910000  0.72348000  0.64223000  1.0
  H  H32  1  0.30939000  0.13579000  0.92576000  1.0
  H  H33  1  0.19061000  0.86421000  0.42576000  1.0
  H  H34  1  0.80939000  0.36421000  0.07424000  1.0
  H  H35  1  0.69061000  0.63579000  0.57424000  1.0
  H  H36  1  0.25100000  0.35514000  0.69963000  1.0
  H  H37  1  0.24900000  0.64486000  0.19963000  1.0
  H  H38  1  0.75100000  0.14486000  0.30037000  1.0
  H  H39  1  0.74900000  0.85514000  0.80037000  1.0
  H  H40  1  0.27562000  0.42466000  0.57818000  1.0
  H  H41  1  0.22437000  0.57534000  0.07818000  1.0
  H  H42  1  0.77563000  0.07534000  0.42182000  1.0
  H  H43  1  0.72437000  0.92466000  0.92182000  1.0
  H  H44  1  0.41372000  0.45590000  0.67588000  1.0
  H  H45  1  0.08627000  0.54410000  0.17588000  1.0
  H  H46  1  0.91373000  0.04410000  0.32412000  1.0
  H  H47  1  0.58627000  0.95590000  0.82412000  1.0
  H  H48  1  0.48527000  0.97353000  0.63252000  1.0
  H  H49  1  0.01473000  0.02647000  0.13252000  1.0
  H  H50  1  0.98527000  0.52647000  0.36748000  1.0
  H  H51  1  0.51473000  0.47353000  0.86748000  1.0
  H  H52  1  0.67475000  0.03198000  0.60653000  1.0
  H  H53  1  0.82524000  0.96802000  0.10653000  1.0
  H  H54  1  0.17475000  0.46802000  0.39347000  1.0
  H  H55  1  0.32524000  0.53198000  0.89347000  1.0
  H  H56  1  0.54172000  0.00357000  0.50565000  1.0
  H  H57  1  0.95828000  0.99643000  0.00565000  1.0
  H  H58  1  0.04172000  0.49643000  0.49435000  1.0
  H  H59  1  0.45828000  0.50357000  0.99435000  1.0
  C  C60  1  0.37650000  0.27946000  0.35402000  1.0
  C  C61  1  0.12351000  0.72054000  0.85402000  1.0
  C  C62  1  0.87649000  0.22054000  0.64598000  1.0
  C  C63  1  0.62350000  0.77946000  0.14598000  1.0
  C  C64  1  0.36428000  0.33169000  0.25584000  1.0
  C  C65  1  0.13572000  0.66832000  0.75584000  1.0
  C  C66  1  0.86428000  0.16831000  0.74416000  1.0
  C  C67  1  0.63572000  0.83168000  0.24416000  1.0
  C  C68  1  0.46849000  0.42543000  0.22660000  1.0
  C  C69  1  0.03152000  0.57457000  0.72660000  1.0
  C  C70  1  0.96848000  0.07457000  0.77340000  1.0
  C  C71  1  0.53152000  0.92543000  0.27340000  1.0
  C  C72  1  0.57834000  0.47072000  0.29321000  1.0
  C  C73  1  0.92167000  0.52928000  0.79321000  1.0
  C  C74  1  0.07834000  0.02928000  0.70679000  1.0
  C  C75  1  0.42166000  0.97072000  0.20679000  1.0
  C  C76  1  0.58185000  0.41727000  0.38791000  1.0
  C  C77  1  0.91815000  0.58273000  0.88791000  1.0
  C  C78  1  0.08185000  0.08273000  0.61209000  1.0
  C  C79  1  0.41815000  0.91727000  0.11209000  1.0
  C  C80  1  0.24056000  0.29518000  0.18477000  1.0
  C  C81  1  0.25944000  0.70483000  0.68477000  1.0
  C  C82  1  0.74055000  0.20483000  0.81523000  1.0
  C  C83  1  0.75945000  0.79517000  0.31523000  1.0
  C  C84  1  0.17724000  0.27144000  0.01201000  1.0
  C  C85  1  0.32276000  0.72856000  0.51201000  1.0
  C  C86  1  0.67724000  0.22856000  0.98799000  1.0
  C  C87  1  0.82276000  0.77144000  0.48799000  1.0
  C  C88  1  0.25683000  0.22970000  0.91758000  1.0
  C  C89  1  0.24317000  0.77031000  0.41758000  1.0
  C  C90  1  0.75683000  0.27030000  0.08242000  1.0
  C  C91  1  0.74317000  0.72970000  0.58242000  1.0
  C  C92  1  0.33444000  0.38659000  0.64374000  1.0
  C  C93  1  0.16556000  0.61341000  0.14374000  1.0
  C  C94  1  0.83444000  0.11341000  0.35625000  1.0
  C  C95  1  0.66556000  0.88659000  0.85625000  1.0
  C  C96  1  0.55420000  0.03378000  0.58321000  1.0
  C  C97  1  0.94580000  0.96622000  0.08321000  1.0
  C  C98  1  0.05420000  0.46622000  0.41679000  1.0
  C  C99  1  0.44580000  0.53378000  0.91679000  1.0
  S  S100  1  0.26454000  0.15715000  0.39935000  1.0
  S  S101  1  0.23546000  0.84285000  0.89935000  1.0
  S  S102  1  0.76454000  0.34285000  0.60065000  1.0
  S  S103  1  0.73546000  0.65714000  0.10065000  1.0
  N  N104  1  0.48692000  0.32439000  0.41672000  1.0
  N  N105  1  0.01308000  0.67561000  0.91672000  1.0
  N  N106  1  0.98692000  0.17561000  0.58328000  1.0
  N  N107  1  0.51308000  0.82439000  0.08328000  1.0
  O  O108  1  0.10527000  0.27577000  0.20680000  1.0
  O  O109  1  0.39474000  0.72423000  0.70680000  1.0
  O  O110  1  0.60527000  0.22423000  0.79321000  1.0
  O  O111  1  0.89472000  0.77576000  0.29321000  1.0
  O  O112  1  0.29353000  0.28979000  0.08983000  1.0
  O  O113  1  0.20647000  0.71022000  0.58983000  1.0
  O  O114  1  0.79353000  0.21021000  0.91017000  1.0
  O  O115  1  0.70647000  0.78978000  0.41017000  1.0
