# generated using pymatgen
data_ZnH16C22(NO3)2
_symmetry_space_group_name_H-M   'P 1'
_cell_length_a   7.93806000
_cell_length_b   7.93832000
_cell_length_c   16.42560255
_cell_angle_alpha   99.58148340
_cell_angle_beta   99.57937855
_cell_angle_gamma   108.04300000
_symmetry_Int_Tables_number   1
_chemical_formula_structural   ZnH16C22(NO3)2
_chemical_formula_sum   'Zn2 H32 C44 N4 O12'
_cell_volume   943.83859739
_cell_formula_units_Z   2
loop_
 _symmetry_equiv_pos_site_id
 _symmetry_equiv_pos_as_xyz
  1  'x, y, z'
loop_
 _atom_site_type_symbol
 _atom_site_label
 _atom_site_symmetry_multiplicity
 _atom_site_fract_x
 _atom_site_fract_y
 _atom_site_fract_z
 _atom_site_occupancy
  Zn  Zn0  1  0.48862000  0.48898000  0.00013000  1.0
  Zn  Zn1  1  0.73898000  0.23862000  0.50012000  1.0
  H  H2  1  0.29463000  0.31140000  0.81502000  1.0
  H  H3  1  0.49620000  0.48085000  0.18560000  1.0
  H  H4  1  0.73087000  0.24617000  0.68560000  1.0
  H  H5  1  0.56142000  0.04462000  0.31502000  1.0
  H  H6  1  0.20483000  0.25498000  0.65762000  1.0
  H  H7  1  0.59784000  0.54844000  0.34296000  1.0
  H  H8  1  0.79844000  0.34783000  0.84297000  1.0
  H  H9  1  0.50500000  0.95482000  0.15762000  1.0
  H  H10  1  0.60377000  0.73447000  0.57647000  1.0
  H  H11  1  0.15879000  0.02764000  0.42332000  1.0
  H  H12  1  0.27762000  0.90880000  0.92331000  1.0
  H  H13  1  0.98447000  0.35378000  0.07646000  1.0
  H  H14  1  0.86229000  0.00955000  0.65250000  1.0
  H  H15  1  0.35767000  0.20949000  0.34690000  1.0
  H  H16  1  0.45942000  0.10767000  0.84687000  1.0
  H  H17  1  0.25955000  0.61231000  0.15249000  1.0
  H  H18  1  0.95458000  0.09155000  0.81098000  1.0
  H  H19  1  0.28117000  0.14222000  0.18837000  1.0
  H  H20  1  0.39217000  0.03114000  0.68835000  1.0
  H  H21  1  0.34155000  0.70458000  0.31097000  1.0
  H  H22  1  0.78899000  0.88176000  0.89212000  1.0
  H  H23  1  0.98997000  0.89593000  0.10761000  1.0
  H  H24  1  0.14591000  0.73990000  0.60760000  1.0
  H  H25  1  0.13177000  0.53899000  0.39212000  1.0
  H  H26  1  0.20549000  0.33402000  0.54119000  1.0
  H  H27  1  0.79409000  0.66435000  0.45903000  1.0
  H  H28  1  0.91433000  0.54404000  0.95902000  1.0
  H  H29  1  0.58401000  0.95549000  0.04119000  1.0
  H  H30  1  0.31692000  0.56487000  0.53892000  1.0
  H  H31  1  0.02704000  0.77842000  0.46110000  1.0
  H  H32  1  0.02837000  0.77701000  0.96111000  1.0
  H  H33  1  0.81486000  0.06693000  0.03891000  1.0
  C  C34  1  0.51799000  0.56490000  0.82959000  1.0
  C  C35  1  0.73547000  0.68869000  0.17064000  1.0
  C  C36  1  0.93868000  0.48544000  0.67063000  1.0
  C  C37  1  0.81491000  0.26799000  0.32959000  1.0
  C  C38  1  0.36989000  0.40750000  0.78256000  1.0
  C  C39  1  0.62508000  0.58816000  0.21787000  1.0
  C  C40  1  0.83815000  0.37505000  0.71787000  1.0
  C  C41  1  0.65752000  0.11988000  0.28255000  1.0
  C  C42  1  0.31844000  0.37467000  0.69548000  1.0
  C  C43  1  0.67963000  0.62373000  0.30492000  1.0
  C  C44  1  0.87375000  0.42961000  0.80492000  1.0
  C  C45  1  0.62468000  0.06843000  0.19548000  1.0
  C  C46  1  0.55020000  0.64619000  0.69122000  1.0
  C  C47  1  0.95576000  0.85890000  0.30876000  1.0
  C  C48  1  0.10890000  0.70576000  0.80876000  1.0
  C  C49  1  0.89618000  0.30021000  0.19121000  1.0
  C  C50  1  0.64331000  0.76499000  0.64547000  1.0
  C  C51  1  0.12027000  0.99782000  0.35433000  1.0
  C  C52  1  0.24778000  0.87025000  0.85431000  1.0
  C  C53  1  0.01499000  0.39332000  0.14546000  1.0
  C  C54  1  0.78807000  0.92178000  0.68872000  1.0
  C  C55  1  0.23373000  0.09891000  0.31086000  1.0
  C  C56  1  0.34888000  0.98373000  0.81085000  1.0
  C  C57  1  0.17177000  0.53807000  0.18870000  1.0
  C  C58  1  0.84174000  0.96685000  0.77783000  1.0
  C  C59  1  0.18960000  0.06304000  0.22172000  1.0
  C  C60  1  0.31300000  0.93958000  0.72170000  1.0
  C  C61  1  0.21685000  0.59175000  0.27783000  1.0
  C  C62  1  0.75139000  0.85124000  0.82307000  1.0
  C  C63  1  0.02865000  0.92759000  0.17666000  1.0
  C  C64  1  0.17756000  0.77861000  0.67665000  1.0
  C  C65  1  0.10124000  0.50140000  0.32307000  1.0
  C  C66  1  0.60670000  0.68851000  0.78108000  1.0
  C  C67  1  0.90797000  0.82538000  0.21889000  1.0
  C  C68  1  0.07538000  0.65795000  0.71889000  1.0
  C  C69  1  0.93851000  0.35670000  0.28107000  1.0
  C  C70  1  0.33744000  0.44549000  0.55795000  1.0
  C  C71  1  0.88853000  0.77967000  0.44219000  1.0
  C  C72  1  0.02964000  0.63851000  0.94219000  1.0
  C  C73  1  0.69549000  0.08744000  0.05795000  1.0
  C  C74  1  0.46759000  0.38676000  0.50985000  1.0
  C  C75  1  0.87757000  0.95776000  0.49020000  1.0
  C  C76  1  0.20776000  0.62758000  0.99020000  1.0
  C  C77  1  0.63674000  0.21759000  0.00986000  1.0
  N  N78  1  0.40334000  0.48827000  0.65032000  1.0
  N  N79  1  0.83878000  0.75328000  0.34984000  1.0
  N  N80  1  0.00328000  0.58875000  0.84984000  1.0
  N  N81  1  0.73827000  0.15334000  0.15032000  1.0
  O  O82  1  0.57999000  0.60355000  0.91031000  1.0
  O  O83  1  0.69309000  0.66990000  0.08990000  1.0
  O  O84  1  0.91988000  0.44307000  0.58989000  1.0
  O  O85  1  0.85357000  0.32998000  0.41030000  1.0
  O  O86  1  0.51503000  0.25658000  0.53253000  1.0
  O  O87  1  0.72461000  0.98226000  0.46754000  1.0
  O  O88  1  0.23228000  0.47462000  0.96755000  1.0
  O  O89  1  0.50656000  0.26504000  0.03255000  1.0
  O  O90  1  0.51525000  0.46344000  0.45276000  1.0
  O  O91  1  0.01124000  0.06267000  0.54722000  1.0
  O  O92  1  0.31267000  0.76126000  0.04722000  1.0
  O  O93  1  0.71340000  0.26525000  0.95276000  1.0
