# generated using pymatgen
data_ZnH16(CO)10
_symmetry_space_group_name_H-M   'P 1'
_cell_length_a   4.81330000
_cell_length_b   5.64527000
_cell_length_c   12.01950000
_cell_angle_alpha   92.80470000
_cell_angle_beta   94.59940000
_cell_angle_gamma   96.01210000
_symmetry_Int_Tables_number   1
_chemical_formula_structural   ZnH16(CO)10
_chemical_formula_sum   'Zn1 H16 C10 O10'
_cell_volume   323.21419179
_cell_formula_units_Z   1
loop_
 _symmetry_equiv_pos_site_id
 _symmetry_equiv_pos_as_xyz
  1  'x, y, z'
loop_
 _atom_site_type_symbol
 _atom_site_label
 _atom_site_symmetry_multiplicity
 _atom_site_fract_x
 _atom_site_fract_y
 _atom_site_fract_z
 _atom_site_occupancy
  Zn  Zn0  1  0.50000000  0.49999000  0.50000000  1.0
  H  H1  1  0.28335000  0.13809000  0.57691000  1.0
  H  H2  1  0.71664000  0.86189000  0.42309000  1.0
  H  H3  1  0.04733000  0.21143000  0.48175000  1.0
  H  H4  1  0.95266000  0.78856000  0.51824000  1.0
  H  H5  1  0.09942000  0.57658000  0.64958000  1.0
  H  H6  1  0.90056000  0.42340000  0.35042000  1.0
  H  H7  1  0.33425000  0.80653000  0.65433000  1.0
  H  H8  1  0.66574000  0.19345000  0.34567000  1.0
  H  H9  1  0.00917000  0.93080000  0.19512000  1.0
  H  H10  1  0.99083000  0.06920000  0.80489000  1.0
  H  H11  1  0.23282000  0.77391000  0.11196000  1.0
  H  H12  1  0.76720000  0.22609000  0.88805000  1.0
  H  H13  1  0.53038000  0.20753000  0.14739000  1.0
  H  H14  1  0.46961000  0.79250000  0.85261000  1.0
  H  H15  1  0.84271000  0.86234000  0.00744000  1.0
  H  H16  1  0.15729000  0.13768000  0.99256000  1.0
  C  C17  1  0.31575000  0.75366000  0.28894000  1.0
  C  C18  1  0.68426000  0.24635000  0.71106000  1.0
  C  C19  1  0.11263000  0.76605000  0.18618000  1.0
  C  C20  1  0.88738000  0.23395000  0.81382000  1.0
  C  C21  1  0.71223000  0.53854000  0.08818000  1.0
  C  C22  1  0.28777000  0.46147000  0.91181000  1.0
  C  C23  1  0.51695000  0.33543000  0.08252000  1.0
  C  C24  1  0.48306000  0.66460000  0.91748000  1.0
  C  C25  1  0.69396000  0.70304000  0.00497000  1.0
  C  C26  1  0.30604000  0.29696000  0.99502000  1.0
  O  O27  1  0.25000000  0.59702000  0.35778000  1.0
  O  O28  1  0.75001000  0.40296000  0.64223000  1.0
  O  O29  1  0.53581000  0.90028000  0.29792000  1.0
  O  O30  1  0.46421000  0.09971000  0.70209000  1.0
  O  O31  1  0.91102000  0.56109000  0.17754000  1.0
  O  O32  1  0.08899000  0.43892000  0.82246000  1.0
  O  O33  1  0.24606000  0.18415000  0.49814000  1.0
  O  O34  1  0.75393000  0.81583000  0.50186000  1.0
  O  O35  1  0.22920000  0.67535000  0.60563000  1.0
  O  O36  1  0.77079000  0.32464000  0.39437000  1.0
