# generated using pymatgen
data_Ho2CuH16C24(N2O5)4
_symmetry_space_group_name_H-M   'P 1'
_cell_length_a   6.04450000
_cell_length_b   12.14640000
_cell_length_c   21.58570000
_cell_angle_alpha   89.99940000
_cell_angle_beta   89.99940000
_cell_angle_gamma   87.42760000
_symmetry_Int_Tables_number   1
_chemical_formula_structural   Ho2CuH16C24(N2O5)4
_chemical_formula_sum   'Ho4 Cu2 H32 C48 N16 O40'
_cell_volume   1583.20167650
_cell_formula_units_Z   2
loop_
 _symmetry_equiv_pos_site_id
 _symmetry_equiv_pos_as_xyz
  1  'x, y, z'
loop_
 _atom_site_type_symbol
 _atom_site_label
 _atom_site_symmetry_multiplicity
 _atom_site_fract_x
 _atom_site_fract_y
 _atom_site_fract_z
 _atom_site_occupancy
  Ho  Ho0  1  0.98486000  0.56352000  0.15734000  1.0
  Ho  Ho1  1  0.51513000  0.93647000  0.65734000  1.0
  Ho  Ho2  1  0.01515000  0.43646000  0.84266000  1.0
  Ho  Ho3  1  0.48487000  0.06353000  0.34266000  1.0
  Cu  Cu4  1  0.49999000  0.00000000  1.00000000  1.0
  Cu  Cu5  1  0.00000000  0.50001000  0.50000000  1.0
  H  H6  1  0.22008000  0.65083000  0.04472000  1.0
  H  H7  1  0.27993000  0.84918000  0.54474000  1.0
  H  H8  1  0.77993000  0.34917000  0.95527000  1.0
  H  H9  1  0.72007000  0.15082000  0.45527000  1.0
  H  H10  1  0.40099000  0.57993000  0.08734000  1.0
  H  H11  1  0.09900000  0.92007000  0.58734000  1.0
  H  H12  1  0.59902000  0.42006000  0.91266000  1.0
  H  H13  1  0.90098000  0.07992000  0.41266000  1.0
  H  H14  1  0.93973000  0.34835000  0.07810000  1.0
  H  H15  1  0.56027000  0.15164000  0.57810000  1.0
  H  H16  1  0.06027000  0.65163000  0.92191000  1.0
  H  H17  1  0.43975000  0.84837000  0.42191000  1.0
  H  H18  1  0.12629000  0.33899000  0.13022000  1.0
  H  H19  1  0.37369000  0.16101000  0.63022000  1.0
  H  H20  1  0.87371000  0.66099000  0.86978000  1.0
  H  H21  1  0.62629000  0.83901000  0.36978000  1.0
  H  H22  1  0.31649000  0.12331000  0.11358000  1.0
  H  H23  1  0.18355000  0.37669000  0.61358000  1.0
  H  H24  1  0.68346000  0.87668000  0.88642000  1.0
  H  H25  1  0.81649000  0.62333000  0.38642000  1.0
  H  H26  1  0.00401000  0.08151000  0.18628000  1.0
  H  H27  1  0.49605000  0.41849000  0.68628000  1.0
  H  H28  1  0.99600000  0.91847000  0.81373000  1.0
  H  H29  1  0.50398000  0.58153000  0.31372000  1.0
  H  H30  1  0.62636000  0.89427000  0.20582000  1.0
  H  H31  1  0.87366000  0.60573000  0.70583000  1.0
  H  H32  1  0.37364000  0.10572000  0.79417000  1.0
  H  H33  1  0.12635000  0.39427000  0.29417000  1.0
  H  H34  1  0.46748000  0.73207000  0.14986000  1.0
  H  H35  1  0.03251000  0.76795000  0.64988000  1.0
  H  H36  1  0.53247000  0.26793000  0.85014000  1.0
  H  H37  1  0.96750000  0.23206000  0.35013000  1.0
  C  C38  1  0.20498000  0.83398000  0.99056000  1.0
  C  C39  1  0.29501000  0.66603000  0.49056000  1.0
  C  C40  1  0.79500000  0.16602000  0.00945000  1.0
  C  C41  1  0.70500000  0.33399000  0.50944000  1.0
  C  C42  1  0.13796000  0.89863000  0.04790000  1.0
  C  C43  1  0.36207000  0.60138000  0.54789000  1.0
  C  C44  1  0.86205000  0.10135000  0.95211000  1.0
  C  C45  1  0.63796000  0.39864000  0.45211000  1.0
  C  C46  1  0.21521000  0.05257000  0.10680000  1.0
  C  C47  1  0.28481000  0.44743000  0.60680000  1.0
  C  C48  1  0.78478000  0.94741000  0.89320000  1.0
  C  C49  1  0.71520000  0.55259000  0.39320000  1.0
  C  C50  1  0.03953000  0.02907000  0.14617000  1.0
  C  C51  1  0.46049000  0.47094000  0.64617000  1.0
  C  C52  1  0.96045000  0.97090000  0.85383000  1.0
  C  C53  1  0.53954000  0.52909000  0.35382000  1.0
  C  C54  1  0.96028000  0.87850000  0.08721000  1.0
  C  C55  1  0.53974000  0.62151000  0.58720000  1.0
  C  C56  1  0.03971000  0.12148000  0.91280000  1.0
  C  C57  1  0.46031000  0.37851000  0.41279000  1.0
  C  C58  1  0.79565000  0.79085000  0.07505000  1.0
  C  C59  1  0.70437000  0.70916000  0.57504000  1.0
  C  C60  1  0.20435000  0.20913000  0.92495000  1.0
  C  C61  1  0.29565000  0.29087000  0.42495000  1.0
  C  C62  1  0.00710000  0.96545000  0.31500000  1.0
  C  C63  1  0.49293000  0.53455000  0.81500000  1.0
  C  C64  1  0.99290000  0.03456000  0.68500000  1.0
  C  C65  1  0.50708000  0.46544000  0.18500000  1.0
  C  C66  1  0.14359000  0.88541000  0.27518000  1.0
  C  C67  1  0.35643000  0.61459000  0.77518000  1.0
  C  C68  1  0.85641000  0.11459000  0.72482000  1.0
  C  C69  1  0.64357000  0.38541000  0.22482000  1.0
  C  C70  1  0.46377000  0.86457000  0.21770000  1.0
  C  C71  1  0.03625000  0.63543000  0.71771000  1.0
  C  C72  1  0.53621000  0.13542000  0.78230000  1.0
  C  C73  1  0.96375000  0.36457000  0.28229000  1.0
  C  C74  1  0.37850000  0.77369000  0.18758000  1.0
  C  C75  1  0.12150000  0.72631000  0.68759000  1.0
  C  C76  1  0.62148000  0.22630000  0.81242000  1.0
  C  C77  1  0.87850000  0.27369000  0.31242000  1.0
  C  C78  1  0.07045000  0.78654000  0.25040000  1.0
  C  C79  1  0.42956000  0.71347000  0.75041000  1.0
  C  C80  1  0.92953000  0.21347000  0.74960000  1.0
  C  C81  1  0.57046000  0.28653000  0.24959000  1.0
  C  C82  1  0.87141000  0.72816000  0.27395000  1.0
  C  C83  1  0.62859000  0.77184000  0.77396000  1.0
  C  C84  1  0.12855000  0.27184000  0.72604000  1.0
  C  C85  1  0.37143000  0.22815000  0.22604000  1.0
  N  N86  1  0.26090000  0.98642000  0.05881000  1.0
  N  N87  1  0.23911000  0.51359000  0.55881000  1.0
  N  N88  1  0.73910000  0.01358000  0.94119000  1.0
  N  N89  1  0.76089000  0.48643000  0.44119000  1.0
  N  N90  1  0.91411000  0.94294000  0.13685000  1.0
  N  N91  1  0.58591000  0.55708000  0.63684000  1.0
  N  N92  1  0.08589000  0.05703000  0.86315000  1.0
  N  N93  1  0.41412000  0.44295000  0.36315000  1.0
  N  N94  1  0.34770000  0.91856000  0.26188000  1.0
  N  N95  1  0.15232000  0.58144000  0.76188000  1.0
  N  N96  1  0.65229000  0.08143000  0.73813000  1.0
  N  N97  1  0.84768000  0.41856000  0.23812000  1.0
  N  N98  1  0.18768000  0.73248000  0.20594000  1.0
  N  N99  1  0.31234000  0.76753000  0.70594000  1.0
  N  N100  1  0.81231000  0.26752000  0.79406000  1.0
  N  N101  1  0.68768000  0.23246000  0.29406000  1.0
  O  O102  1  0.32678000  0.88504000  0.95265000  1.0
  O  O103  1  0.17318000  0.61498000  0.45265000  1.0
  O  O104  1  0.67319000  0.11496000  0.04735000  1.0
  O  O105  1  0.82684000  0.38504000  0.54735000  1.0
  O  O106  1  0.13573000  0.73833000  0.98367000  1.0
  O  O107  1  0.36425000  0.76169000  0.48368000  1.0
  O  O108  1  0.86425000  0.26167000  0.01633000  1.0
  O  O109  1  0.63575000  0.23834000  0.51633000  1.0
  O  O110  1  0.63306000  0.81914000  0.04237000  1.0
  O  O111  1  0.86694000  0.68088000  0.54236000  1.0
  O  O112  1  0.36693000  0.18086000  0.95764000  1.0
  O  O113  1  0.13306000  0.31914000  0.45763000  1.0
  O  O114  1  0.82524000  0.69825000  0.10245000  1.0
  O  O115  1  0.67480000  0.80175000  0.60246000  1.0
  O  O116  1  0.17477000  0.30173000  0.89755000  1.0
  O  O117  1  0.32523000  0.19827000  0.39754000  1.0
  O  O118  1  0.11058000  0.01364000  0.35769000  1.0
  O  O119  1  0.38944000  0.48637000  0.85770000  1.0
  O  O120  1  0.88943000  0.98638000  0.64231000  1.0
  O  O121  1  0.61056000  0.51362000  0.14230000  1.0
  O  O122  1  0.80630000  0.98487000  0.30042000  1.0
  O  O123  1  0.69372000  0.51513000  0.80042000  1.0
  O  O124  1  0.19370000  0.01514000  0.69958000  1.0
  O  O125  1  0.30629000  0.48487000  0.19958000  1.0
  O  O126  1  0.78674000  0.75747000  0.32443000  1.0
  O  O127  1  0.71325000  0.74253000  0.82443000  1.0
  O  O128  1  0.21317000  0.24253000  0.67556000  1.0
  O  O129  1  0.28678000  0.25746000  0.17556000  1.0
  O  O130  1  0.81154000  0.64776000  0.24043000  1.0
  O  O131  1  0.68846000  0.85223000  0.74043000  1.0
  O  O132  1  0.18844000  0.35224000  0.75956000  1.0
  O  O133  1  0.31156000  0.14776000  0.25957000  1.0
  O  O134  1  0.24438000  0.60398000  0.08198000  1.0
  O  O135  1  0.25560000  0.89601000  0.58200000  1.0
  O  O136  1  0.75562000  0.39600000  0.91801000  1.0
  O  O137  1  0.74439000  0.10399000  0.41801000  1.0
  O  O138  1  0.01993000  0.39127000  0.10932000  1.0
  O  O139  1  0.48006000  0.10873000  0.60933000  1.0
  O  O140  1  0.98009000  0.60872000  0.89068000  1.0
  O  O141  1  0.51993000  0.89128000  0.39068000  1.0
