# generated using pymatgen
data_ZnH36C27N7O8
_symmetry_space_group_name_H-M   'P 1'
_cell_length_a   10.69430000
_cell_length_b   16.80830000
_cell_length_c   17.69480000
_cell_angle_alpha   92.03690000
_cell_angle_beta   93.07220000
_cell_angle_gamma   93.42790000
_symmetry_Int_Tables_number   1
_chemical_formula_structural   ZnH36C27N7O8
_chemical_formula_sum   'Zn2 H72 C54 N14 O16'
_cell_volume   3168.04314836
_cell_formula_units_Z   2
loop_
 _symmetry_equiv_pos_site_id
 _symmetry_equiv_pos_as_xyz
  1  'x, y, z'
loop_
 _atom_site_type_symbol
 _atom_site_label
 _atom_site_symmetry_multiplicity
 _atom_site_fract_x
 _atom_site_fract_y
 _atom_site_fract_z
 _atom_site_occupancy
  Zn  Zn0  1  0.50233000  0.40723000  0.50670000  1.0
  Zn  Zn1  1  0.49205000  0.59096000  0.50534000  1.0
  H  H2  1  0.97310000  0.53256000  0.72614000  1.0
  H  H3  1  0.83937000  0.46878000  0.69152000  1.0
  H  H4  1  0.81641000  0.55856000  0.74492000  1.0
  H  H5  1  0.99603000  0.69728000  0.58598000  1.0
  H  H6  1  0.13717000  0.70297000  0.53469000  1.0
  H  H7  1  0.13985000  0.74079000  0.63101000  1.0
  H  H8  1  0.28785000  0.63940000  0.44936000  1.0
  H  H9  1  0.17040000  0.63822000  0.34118000  1.0
  H  H10  1  0.29505000  0.69538000  0.30269000  1.0
  H  H11  1  0.16987000  0.74431000  0.34404000  1.0
  H  H12  1  0.60107000  0.67375000  0.61684000  1.0
  H  H13  1  0.80209000  0.70358000  0.64814000  1.0
  H  H14  1  0.75971000  0.80214000  0.67360000  1.0
  H  H15  1  0.81006000  0.78031000  0.58139000  1.0
  H  H16  1  0.81665000  0.49859000  0.35423000  1.0
  H  H17  1  0.85417000  0.41376000  0.40853000  1.0
  H  H18  1  0.96861000  0.45991000  0.35002000  1.0
  H  H19  1  0.07124000  0.38643000  0.67275000  1.0
  H  H20  1  0.21080000  0.35890000  0.62780000  1.0
  H  H21  1  0.06370000  0.30388000  0.60489000  1.0
  H  H22  1  0.46823000  0.31787000  0.85760000  1.0
  H  H23  1  0.59346000  0.26612000  0.94888000  1.0
  H  H24  1  0.54173000  0.34189000  0.01134000  1.0
  H  H25  1  0.68119000  0.35948000  0.96243000  1.0
  H  H26  1  0.32505000  0.36673000  0.12759000  1.0
  H  H27  1  0.24162000  0.38631000  0.00963000  1.0
  H  H28  1  0.37162000  0.44925000  0.98643000  1.0
  H  H29  1  0.26134000  0.48601000  0.04914000  1.0
  H  H30  1  0.47948000  0.24263000  0.73925000  1.0
  H  H31  1  0.62194000  0.30482000  0.75491000  1.0
  H  H32  1  0.54124000  0.29841000  0.66328000  1.0
  H  H33  1  0.46828000  0.28675000  0.20334000  1.0
  H  H34  1  0.34619000  0.26138000  0.26582000  1.0
  H  H35  1  0.49129000  0.31035000  0.30369000  1.0
  H  H36  1  0.63323000  0.68979000  0.77200000  1.0
  H  H37  1  0.46062000  0.73991000  0.70657000  1.0
  H  H38  1  0.39686000  0.68607000  0.78304000  1.0
  H  H39  1  0.39154000  0.64197000  0.68935000  1.0
  H  H40  1  0.66475000  0.59141000  0.35953000  1.0
  H  H41  1  0.51851000  0.69126000  0.32266000  1.0
  H  H42  1  0.62845000  0.72090000  0.25486000  1.0
  H  H43  1  0.67392000  0.72790000  0.35337000  1.0
  H  H44  1  0.62851000  0.69254000  0.87373000  1.0
  H  H45  1  0.81139000  0.70370000  0.95288000  1.0
  H  H46  1  0.84748000  0.63925000  0.87533000  1.0
  H  H47  1  0.80451000  0.59901000  0.96317000  1.0
  H  H48  1  0.75932000  0.63916000  0.20413000  1.0
  H  H49  1  0.61557000  0.72066000  0.12412000  1.0
  H  H50  1  0.64330000  0.65217000  0.04839000  1.0
  H  H51  1  0.77050000  0.71280000  0.09227000  1.0
  H  H52  1  0.28914000  0.04939000  0.46081000  1.0
  H  H53  1  0.29103000  0.08431000  0.32730000  1.0
  H  H54  1  0.20933000  0.16958000  0.35340000  1.0
  H  H55  1  0.13733000  0.07266000  0.36277000  1.0
  H  H56  1  0.72594000  0.06990000  0.46611000  1.0
  H  H57  1  0.73369000  0.07925000  0.60524000  1.0
  H  H58  1  0.81396000  0.17452000  0.59827000  1.0
  H  H59  1  0.88339000  0.08760000  0.56464000  1.0
  H  H60  1  0.21367000  0.22195000  0.48088000  1.0
  H  H61  1  0.19363000  0.29231000  0.36773000  1.0
  H  H62  1  0.30938000  0.36549000  0.40434000  1.0
  H  H63  1  0.16100000  0.35822000  0.44525000  1.0
  H  H64  1  0.79684000  0.25211000  0.49040000  1.0
  H  H65  1  0.79784000  0.29084000  0.62371000  1.0
  H  H66  1  0.69851000  0.36837000  0.59925000  1.0
  H  H67  1  0.85303000  0.37150000  0.56814000  1.0
  H  H68  1  0.40462000  0.82232000  0.27790000  1.0
  H  H69  1  0.45606000  0.91981000  0.31705000  1.0
  H  H70  1  0.30017000  0.90229000  0.27470000  1.0
  H  H71  1  0.56626000  0.87224000  0.67504000  1.0
  H  H72  1  0.51698000  0.95860000  0.62706000  1.0
  H  H73  1  0.66957000  0.96063000  0.67528000  1.0
  C  C74  1  0.48746000  0.48860000  0.36015000  1.0
  C  C75  1  0.52930000  0.49716000  0.65301000  1.0
  C  C76  1  0.26778000  0.49717000  0.54166000  1.0
  C  C77  1  0.73575000  0.53185000  0.49824000  1.0
  C  C78  1  0.93519000  0.55022000  0.57838000  1.0
  C  C79  1  0.07175000  0.55180000  0.58905000  1.0
  C  C80  1  0.87697000  0.53427000  0.50902000  1.0
  C  C81  1  0.13839000  0.48876000  0.56776000  1.0
  C  C82  1  0.54242000  0.42967000  0.85714000  1.0
  C  C83  1  0.45877000  0.45133000  0.14582000  1.0
  C  C84  1  0.51372000  0.43170000  0.77828000  1.0
  C  C85  1  0.45029000  0.44057000  0.22394000  1.0
  C  C86  1  0.53200000  0.50200000  0.73802000  1.0
  C  C87  1  0.51384000  0.49365000  0.27797000  1.0
  C  C88  1  0.57107000  0.57462000  0.77927000  1.0
  C  C89  1  0.59519000  0.55609000  0.25426000  1.0
  C  C90  1  0.60655000  0.57260000  0.85704000  1.0
  C  C91  1  0.61615000  0.56241000  0.17643000  1.0
  C  C92  1  0.58928000  0.50123000  0.89694000  1.0
  C  C93  1  0.54816000  0.51017000  0.12164000  1.0
  C  C94  1  0.59259000  0.50599000  0.97680000  1.0
  C  C95  1  0.57574000  0.51061000  0.04468000  1.0
  C  C96  1  0.39377000  0.15188000  0.46338000  1.0
  C  C97  1  0.62003000  0.16051000  0.48835000  1.0
  C  C98  1  0.39487000  0.23560000  0.47615000  1.0
  C  C99  1  0.61524000  0.24415000  0.49765000  1.0
  C  C100  1  0.50738000  0.11422000  0.47087000  1.0
  C  C101  1  0.50749000  0.03032000  0.46382000  1.0
  C  C102  1  0.50403000  0.95755000  0.46286000  1.0
  C  C103  1  0.40764000  0.82386000  0.43025000  1.0
  C  C104  1  0.57603000  0.84419000  0.52935000  1.0
  C  C105  1  0.39154000  0.74344000  0.45082000  1.0
  C  C106  1  0.56129000  0.76239000  0.54463000  1.0
  C  C107  1  0.49890000  0.87418000  0.47150000  1.0
  C  C108  1  0.87490000  0.53106000  0.70354000  1.0
  C  C109  1  0.09848000  0.69450000  0.59043000  1.0
  C  C110  1  0.22966000  0.69374000  0.34882000  1.0
  C  C111  1  0.75670000  0.75602000  0.62751000  1.0
  C  C112  1  0.89133000  0.47025000  0.38668000  1.0
  C  C113  1  0.10882000  0.36307000  0.62008000  1.0
  C  C114  1  0.58587000  0.33076000  0.95748000  1.0
  C  C115  1  0.31111000  0.43309000  0.03207000  1.0
  C  C116  1  0.52925000  0.29864000  0.72441000  1.0
  C  C117  1  0.42268000  0.30523000  0.25500000  1.0
  C  C118  1  0.44835000  0.68082000  0.73071000  1.0
  C  C119  1  0.61808000  0.69206000  0.30910000  1.0
  C  C120  1  0.78616000  0.64604000  0.92327000  1.0
  C  C121  1  0.68276000  0.67862000  0.10268000  1.0
  C  C122  1  0.22696000  0.10832000  0.36823000  1.0
  C  C123  1  0.79419000  0.11592000  0.56959000  1.0
  C  C124  1  0.23354000  0.32412000  0.42011000  1.0
  C  C125  1  0.77135000  0.33177000  0.57865000  1.0
  C  C126  1  0.37539000  0.87598000  0.30817000  1.0
  C  C127  1  0.59771000  0.92323000  0.64181000  1.0
  N  N128  1  0.50429000  0.28073000  0.49306000  1.0
  N  N129  1  0.47323000  0.71416000  0.50376000  1.0
  N  N130  1  0.29542000  0.69246000  0.42275000  1.0
  N  N131  1  0.62985000  0.72949000  0.60079000  1.0
  N  N132  1  0.51454000  0.35977000  0.89285000  1.0
  N  N133  1  0.38252000  0.40088000  0.09588000  1.0
  N  N134  1  0.57251000  0.64872000  0.74367000  1.0
  N  N135  1  0.66447000  0.61138000  0.30581000  1.0
  N  N136  1  0.65222000  0.64206000  0.89962000  1.0
  N  N137  1  0.71073000  0.61702000  0.15596000  1.0
  N  N138  1  0.27818000  0.10723000  0.44715000  1.0
  N  N139  1  0.73670000  0.12483000  0.49307000  1.0
  N  N140  1  0.27898000  0.26797000  0.47543000  1.0
  N  N141  1  0.72937000  0.28817000  0.50765000  1.0
  O  O142  1  0.48984000  0.42113000  0.39049000  1.0
  O  O143  1  0.54403000  0.42894000  0.62199000  1.0
  O  O144  1  0.46542000  0.55412000  0.39381000  1.0
  O  O145  1  0.51860000  0.56090000  0.61675000  1.0
  O  O146  1  0.32773000  0.43434000  0.53692000  1.0
  O  O147  1  0.68190000  0.46299000  0.49651000  1.0
  O  O148  1  0.30676000  0.56612000  0.52104000  1.0
  O  O149  1  0.68449000  0.59780000  0.49091000  1.0
  O  O150  1  0.86351000  0.57663000  0.63659000  1.0
  O  O151  1  0.13497000  0.61983000  0.61937000  1.0
  O  O152  1  0.94590000  0.52276000  0.44745000  1.0
  O  O153  1  0.07807000  0.41328000  0.55818000  1.0
  O  O154  1  0.45306000  0.36296000  0.74502000  1.0
  O  O155  1  0.36570000  0.38015000  0.24514000  1.0
  O  O156  1  0.32398000  0.85568000  0.37897000  1.0
  O  O157  1  0.65538000  0.89638000  0.57469000  1.0
