# generated using pymatgen
data_Cu2H5C3SN4Cl
_symmetry_space_group_name_H-M   'P 1'
_cell_length_a   6.95215000
_cell_length_b   6.95214000
_cell_length_c   17.16870000
_cell_angle_alpha   79.56830000
_cell_angle_beta   79.56810000
_cell_angle_gamma   74.22270000
_symmetry_Int_Tables_number   1
_chemical_formula_structural   Cu2H5C3SN4Cl
_chemical_formula_sum   'Cu8 H20 C12 S4 N16 Cl4'
_cell_volume   777.68535090
_cell_formula_units_Z   4
loop_
 _symmetry_equiv_pos_site_id
 _symmetry_equiv_pos_as_xyz
  1  'x, y, z'
loop_
 _atom_site_type_symbol
 _atom_site_label
 _atom_site_symmetry_multiplicity
 _atom_site_fract_x
 _atom_site_fract_y
 _atom_site_fract_z
 _atom_site_occupancy
  Cu  Cu0  1  0.11854000  0.59283000  0.31384000  1.0
  Cu  Cu1  1  0.40717000  0.88146000  0.18616000  1.0
  Cu  Cu2  1  0.88146000  0.40717000  0.68616000  1.0
  Cu  Cu3  1  0.59283000  0.11854000  0.81384000  1.0
  Cu  Cu4  1  0.24305000  0.48390000  0.50564000  1.0
  Cu  Cu5  1  0.51610000  0.75695000  0.99436000  1.0
  Cu  Cu6  1  0.75695000  0.51610000  0.49435000  1.0
  Cu  Cu7  1  0.48390000  0.24305000  0.00564000  1.0
  H  H8  1  0.83796000  0.89787000  0.43639000  1.0
  H  H9  1  0.10213000  0.16204000  0.06361000  1.0
  H  H10  1  0.16204000  0.10213000  0.56361000  1.0
  H  H11  1  0.89787000  0.83796000  0.93639000  1.0
  H  H12  1  0.96681000  0.04990000  0.36215000  1.0
  H  H13  1  0.95010000  0.03319000  0.13785000  1.0
  H  H14  1  0.03319000  0.95010000  0.63785000  1.0
  H  H15  1  0.04990000  0.96681000  0.86215000  1.0
  H  H16  1  0.64143000  0.25957000  0.42765000  1.0
  H  H17  1  0.74043000  0.35857000  0.07235000  1.0
  H  H18  1  0.35857000  0.74043000  0.57235000  1.0
  H  H19  1  0.25957000  0.64143000  0.92765000  1.0
  H  H20  1  0.50153000  0.11887000  0.39473000  1.0
  H  H21  1  0.88113000  0.49847000  0.10527000  1.0
  H  H22  1  0.49847000  0.88113000  0.60527000  1.0
  H  H23  1  0.11887000  0.50153000  0.89473000  1.0
  H  H24  1  0.63785000  0.27118000  0.32345000  1.0
  H  H25  1  0.72882000  0.36215000  0.17656000  1.0
  H  H26  1  0.36215000  0.72882000  0.67655000  1.0
  H  H27  1  0.27118000  0.63785000  0.82345000  1.0
  C  C28  1  0.62442000  0.75459000  0.33931000  1.0
  C  C29  1  0.24541000  0.37558000  0.16069000  1.0
  C  C30  1  0.37558000  0.24541000  0.66069000  1.0
  C  C31  1  0.75459000  0.62442000  0.83931000  1.0
  C  C32  1  0.82759000  0.99765000  0.37905000  1.0
  C  C33  1  0.00235000  0.17241000  0.12095000  1.0
  C  C34  1  0.17241000  0.00235000  0.62095000  1.0
  C  C35  1  0.99765000  0.82759000  0.87905000  1.0
  C  C36  1  0.64098000  0.17106000  0.38085000  1.0
  C  C37  1  0.82894000  0.35902000  0.11915000  1.0
  C  C38  1  0.35903000  0.82894000  0.61915000  1.0
  C  C39  1  0.17106000  0.64098000  0.88085000  1.0
  S  S40  1  0.83922000  0.84339000  0.30169000  1.0
  S  S41  1  0.15661000  0.16078000  0.19831000  1.0
  S  S42  1  0.16078000  0.15661000  0.69831000  1.0
  S  S43  1  0.84339000  0.83922000  0.80169000  1.0
  N  N44  1  0.47815000  0.76563000  0.29568000  1.0
  N  N45  1  0.23437000  0.52185000  0.20432000  1.0
  N  N46  1  0.52186000  0.23437000  0.70432000  1.0
  N  N47  1  0.76563000  0.47815000  0.79568000  1.0
  N  N48  1  0.33822000  0.68670000  0.34638000  1.0
  N  N49  1  0.31330000  0.66178000  0.15362000  1.0
  N  N50  1  0.66178000  0.31330000  0.65362000  1.0
  N  N51  1  0.68669000  0.33823000  0.84638000  1.0
  N  N52  1  0.39516000  0.63350000  0.41828000  1.0
  N  N53  1  0.36650000  0.60484000  0.08172000  1.0
  N  N54  1  0.60484000  0.36650000  0.58172000  1.0
  N  N55  1  0.63350000  0.39516000  0.91828000  1.0
  N  N56  1  0.57779000  0.67072000  0.41545000  1.0
  N  N57  1  0.32928000  0.42221000  0.08455000  1.0
  N  N58  1  0.42221000  0.32928000  0.58455000  1.0
  N  N59  1  0.67072000  0.57779000  0.91545000  1.0
  Cl  Cl60  1  0.06682000  0.34989000  0.42442000  1.0
  Cl  Cl61  1  0.65011000  0.93319000  0.07558000  1.0
  Cl  Cl62  1  0.93318000  0.65011000  0.57558000  1.0
  Cl  Cl63  1  0.34989000  0.06682000  0.92442000  1.0
