# generated using pymatgen
data_CdH8C4SBrN4
_symmetry_space_group_name_H-M   'P 1'
_cell_length_a   6.77931000
_cell_length_b   7.46461000
_cell_length_c   11.87026716
_cell_angle_alpha   73.90555707
_cell_angle_beta   87.34158805
_cell_angle_gamma   76.25410000
_symmetry_Int_Tables_number   1
_chemical_formula_structural   CdH8C4SBrN4
_chemical_formula_sum   'Cd2 H16 C8 S2 Br2 N8'
_cell_volume   560.49779654
_cell_formula_units_Z   2
loop_
 _symmetry_equiv_pos_site_id
 _symmetry_equiv_pos_as_xyz
  1  'x, y, z'
loop_
 _atom_site_type_symbol
 _atom_site_label
 _atom_site_symmetry_multiplicity
 _atom_site_fract_x
 _atom_site_fract_y
 _atom_site_fract_z
 _atom_site_occupancy
  Cd  Cd0  1  0.67539000  0.10978000  0.58987000  1.0
  Cd  Cd1  1  0.32461000  0.89021000  0.41012000  1.0
  H  H2  1  0.30559000  0.68284000  0.96959000  1.0
  H  H3  1  0.69443000  0.31718000  0.03041000  1.0
  H  H4  1  0.49378000  0.80794000  0.90156000  1.0
  H  H5  1  0.50621000  0.19210000  0.09843000  1.0
  H  H6  1  0.49420000  0.57808000  0.88026000  1.0
  H  H7  1  0.50583000  0.42196000  0.11974000  1.0
  H  H8  1  0.96643000  0.87664000  0.85900000  1.0
  H  H9  1  0.03357000  0.12337000  0.14099000  1.0
  H  H10  1  0.02306000  0.34461000  0.61814000  1.0
  H  H11  1  0.97693000  0.65538000  0.38188000  1.0
  H  H12  1  0.06219000  0.29883000  0.48010000  1.0
  H  H13  1  0.93782000  0.70117000  0.51991000  1.0
  H  H14  1  0.70878000  0.47132000  0.42952000  1.0
  H  H15  1  0.29122000  0.52867000  0.57048000  1.0
  H  H16  1  0.67683000  0.49512000  0.56291000  1.0
  H  H17  1  0.32316000  0.50486000  0.43709000  1.0
  C  C18  1  0.33011000  0.83761000  0.67478000  1.0
  C  C19  1  0.66989000  0.16238000  0.32522000  1.0
  C  C20  1  0.39889000  0.71243000  0.89194000  1.0
  C  C21  1  0.60112000  0.28760000  0.10806000  1.0
  C  C22  1  0.06307000  0.87816000  0.78347000  1.0
  C  C23  1  0.93695000  0.12186000  0.21650000  1.0
  C  C24  1  0.97583000  0.40188000  0.52517000  1.0
  C  C25  1  0.02416000  0.59811000  0.47484000  1.0
  S  S26  1  0.57360000  0.77591000  0.62806000  1.0
  S  S27  1  0.42640000  0.22407000  0.37194000  1.0
  Br  Br28  1  0.45418000  0.23626000  0.75876000  1.0
  Br  Br29  1  0.54582000  0.76370000  0.24125000  1.0
  N  N30  1  0.26720000  0.80446000  0.78906000  1.0
  N  N31  1  0.73279000  0.19555000  0.21093000  1.0
  N  N32  1  0.16800000  0.92518000  0.60388000  1.0
  N  N33  1  0.83200000  0.07481000  0.39611000  1.0
  N  N34  1  0.00112000  0.95076000  0.67278000  1.0
  N  N35  1  0.99888000  0.04923000  0.32722000  1.0
  N  N36  1  0.75840000  0.40772000  0.51514000  1.0
  N  N37  1  0.24159000  0.59226000  0.48487000  1.0
