# generated using pymatgen
data_Zn2H13C24N3O10
_symmetry_space_group_name_H-M   'P 1'
_cell_length_a   9.61527000
_cell_length_b   11.02580000
_cell_length_c   29.03590000
_cell_angle_alpha   90.16230000
_cell_angle_beta   90.14960000
_cell_angle_gamma   89.97700000
_symmetry_Int_Tables_number   1
_chemical_formula_structural   Zn2H13C24N3O10
_chemical_formula_sum   'Zn4 H26 C48 N6 O20'
_cell_volume   3078.24816915
_cell_formula_units_Z   2
loop_
 _symmetry_equiv_pos_site_id
 _symmetry_equiv_pos_as_xyz
  1  'x, y, z'
loop_
 _atom_site_type_symbol
 _atom_site_label
 _atom_site_symmetry_multiplicity
 _atom_site_fract_x
 _atom_site_fract_y
 _atom_site_fract_z
 _atom_site_occupancy
  Zn  Zn0  1  0.64222000  0.49824000  0.49897000  1.0
  Zn  Zn1  1  0.35721000  0.49803000  0.49839000  1.0
  Zn  Zn2  1  0.35807000  0.50079000  0.11814000  1.0
  Zn  Zn3  1  0.64311000  0.50032000  0.11871000  1.0
  H  H4  1  0.86644000  0.36364000  0.44870000  1.0
  H  H5  1  0.13264000  0.63264000  0.54944000  1.0
  H  H6  1  0.13359000  0.36399000  0.44891000  1.0
  H  H7  1  0.86634000  0.63241000  0.54898000  1.0
  H  H8  1  0.27378000  0.11119000  0.49902000  1.0
  H  H9  1  0.72128000  0.88506000  0.50018000  1.0
  H  H10  1  0.27511000  0.88328000  0.50128000  1.0
  H  H11  1  0.71997000  0.11300000  0.49954000  1.0
  H  H12  1  0.27916000  0.49663000  0.97059000  1.0
  H  H13  1  0.27574000  0.49579000  0.88452000  1.0
  H  H14  1  0.72498000  0.50453000  0.88446000  1.0
  H  H15  1  0.27521000  0.50458000  0.73277000  1.0
  H  H16  1  0.72090000  0.49521000  0.64659000  1.0
  H  H17  1  0.72441000  0.49499000  0.73265000  1.0
  H  H18  1  0.72384000  0.50193000  0.35171000  1.0
  H  H19  1  0.27651000  0.50259000  0.26537000  1.0
  H  H20  1  0.72258000  0.50475000  0.26506000  1.0
  H  H21  1  0.27776000  0.50338000  0.35202000  1.0
  H  H22  1  0.13408000  0.36624000  0.16809000  1.0
  H  H23  1  0.86744000  0.63428000  0.06763000  1.0
  H  H24  1  0.86693000  0.36640000  0.16788000  1.0
  H  H25  1  0.13372000  0.63413000  0.06805000  1.0
  H  H26  1  0.72651000  0.11337000  0.11793000  1.0
  H  H27  1  0.27900000  0.88756000  0.11702000  1.0
  H  H28  1  0.72516000  0.88542000  0.11585000  1.0
  H  H29  1  0.28033000  0.11553000  0.11747000  1.0
  C  C30  1  0.49910000  0.73523000  0.50136000  1.0
  C  C31  1  0.50277000  0.49857000  0.58945000  1.0
  C  C32  1  0.49593000  0.26099000  0.49803000  1.0
  C  C33  1  0.50137000  0.50049000  0.40838000  1.0
  C  C34  1  0.50113000  0.73757000  0.11595000  1.0
  C  C35  1  0.49738000  0.50021000  0.02770000  1.0
  C  C36  1  0.50438000  0.26337000  0.11888000  1.0
  C  C37  1  0.49887000  0.50266000  0.20869000  1.0
  C  C38  1  0.92754000  0.42324000  0.47090000  1.0
  C  C39  1  0.07227000  0.57368000  0.52680000  1.0
  C  C40  1  0.07223000  0.42364000  0.47092000  1.0
  C  C41  1  0.92739000  0.57318000  0.52674000  1.0
  C  C42  1  0.49681000  0.12518000  0.49890000  1.0
  C  C43  1  0.49826000  0.87105000  0.50087000  1.0
  C  C44  1  0.37116000  0.06067000  0.49939000  1.0
  C  C45  1  0.62389000  0.93557000  0.50020000  1.0
  C  C46  1  0.37188000  0.93455000  0.50065000  1.0
  C  C47  1  0.62318000  0.06170000  0.49955000  1.0
  C  C48  1  0.50066000  0.50309000  0.97603000  1.0
  C  C49  1  0.37566000  0.49926000  0.95103000  1.0
  C  C50  1  0.37400000  0.49822000  0.90325000  1.0
  C  C51  1  0.49989000  0.49975000  0.87833000  1.0
  C  C52  1  0.62650000  0.50312000  0.90289000  1.0
  C  C53  1  0.62446000  0.50589000  0.95064000  1.0
  C  C54  1  0.50004000  0.49873000  0.82962000  1.0
  C  C55  1  0.50013000  0.49873000  0.78757000  1.0
  C  C56  1  0.50025000  0.49948000  0.73886000  1.0
  C  C57  1  0.37364000  0.50290000  0.71431000  1.0
  C  C58  1  0.37566000  0.50523000  0.66656000  1.0
  C  C59  1  0.49944000  0.50199000  0.64115000  1.0
  C  C60  1  0.62443000  0.49818000  0.66615000  1.0
  C  C61  1  0.62613000  0.49752000  0.71393000  1.0
  C  C62  1  0.50084000  0.50164000  0.35680000  1.0
  C  C63  1  0.49949000  0.50275000  0.26028000  1.0
  C  C64  1  0.62651000  0.50201000  0.33241000  1.0
  C  C65  1  0.37383000  0.50236000  0.28467000  1.0
  C  C66  1  0.62584000  0.50327000  0.28450000  1.0
  C  C67  1  0.37450000  0.50251000  0.33257000  1.0
  C  C68  1  0.07288000  0.42560000  0.14594000  1.0
  C  C69  1  0.92790000  0.57553000  0.09020000  1.0
  C  C70  1  0.92819000  0.42592000  0.14592000  1.0
  C  C71  1  0.07277000  0.57508000  0.09025000  1.0
  C  C72  1  0.50349000  0.12755000  0.11810000  1.0
  C  C73  1  0.50200000  0.87339000  0.11638000  1.0
  C  C74  1  0.62913000  0.06292000  0.11765000  1.0
  C  C75  1  0.37637000  0.93801000  0.11700000  1.0
  C  C76  1  0.62839000  0.93678000  0.11650000  1.0
  C  C77  1  0.37711000  0.06415000  0.11753000  1.0
  N  N78  1  0.85677000  0.49810000  0.49885000  1.0
  N  N79  1  0.14285000  0.49889000  0.49886000  1.0
  N  N80  1  0.14352000  0.50033000  0.11809000  1.0
  N  N81  1  0.85744000  0.50098000  0.11809000  1.0
  N  N82  1  0.76249000  0.51665000  0.97325000  1.0
  N  N83  1  0.23758000  0.51591000  0.64397000  1.0
  O  O84  1  0.61657000  0.68266000  0.49704000  1.0
  O  O85  1  0.38237000  0.68166000  0.50584000  1.0
  O  O86  1  0.38735000  0.48118000  0.56905000  1.0
  O  O87  1  0.62080000  0.51171000  0.57052000  1.0
  O  O88  1  0.37874000  0.31333000  0.49268000  1.0
  O  O89  1  0.61265000  0.31473000  0.50288000  1.0
  O  O90  1  0.61863000  0.48837000  0.42849000  1.0
  O  O91  1  0.38426000  0.51178000  0.42850000  1.0
  O  O92  1  0.38364000  0.68519000  0.12030000  1.0
  O  O93  1  0.61785000  0.68384000  0.11144000  1.0
  O  O94  1  0.61280000  0.48281000  0.04808000  1.0
  O  O95  1  0.37942000  0.51382000  0.04667000  1.0
  O  O96  1  0.62157000  0.31568000  0.12425000  1.0
  O  O97  1  0.38770000  0.31713000  0.11396000  1.0
  O  O98  1  0.38157000  0.49084000  0.18856000  1.0
  O  O99  1  0.61591000  0.51435000  0.18860000  1.0
  O  O100  1  0.79658000  0.61912000  0.98669000  1.0
  O  O101  1  0.83649000  0.42513000  0.97430000  1.0
  O  O102  1  0.20328000  0.61838000  0.63078000  1.0
  O  O103  1  0.16381000  0.42431000  0.64269000  1.0
