# generated using pymatgen
data_DyH4C12(O4F3)2
_symmetry_space_group_name_H-M   'P 1'
_cell_length_a   8.81752000
_cell_length_b   8.82010000
_cell_length_c   11.11270000
_cell_angle_alpha   107.69500000
_cell_angle_beta   109.78600000
_cell_angle_gamma   100.94400000
_symmetry_Int_Tables_number   1
_chemical_formula_structural   DyH4C12(O4F3)2
_chemical_formula_sum   'Dy2 H8 C24 O16 F12'
_cell_volume   732.27911235
_cell_formula_units_Z   2
loop_
 _symmetry_equiv_pos_site_id
 _symmetry_equiv_pos_as_xyz
  1  'x, y, z'
loop_
 _atom_site_type_symbol
 _atom_site_label
 _atom_site_symmetry_multiplicity
 _atom_site_fract_x
 _atom_site_fract_y
 _atom_site_fract_z
 _atom_site_occupancy
  Dy  Dy0  1  0.87101000  0.66300000  0.53424000  1.0
  Dy  Dy1  1  0.12899000  0.33700000  0.46576000  1.0
  H  H2  1  0.60506000  0.59406000  0.64093000  1.0
  H  H3  1  0.95329000  0.96469000  0.35915000  1.0
  H  H4  1  0.39494000  0.40594000  0.35907000  1.0
  H  H5  1  0.04671000  0.03531000  0.64085000  1.0
  H  H6  1  0.71681000  0.77648000  0.74465000  1.0
  H  H7  1  0.03201000  0.97220000  0.25528000  1.0
  H  H8  1  0.28319000  0.22352000  0.25535000  1.0
  H  H9  1  0.96799000  0.02780000  0.74472000  1.0
  C  C10  1  0.51722000  0.98013000  0.62103000  1.0
  C  C11  1  0.35906000  0.89642000  0.37892000  1.0
  C  C12  1  0.48278000  0.01987000  0.37897000  1.0
  C  C13  1  0.64094000  0.10358000  0.62107000  1.0
  C  C14  1  0.37345000  0.87359000  0.49995000  1.0
  C  C15  1  0.62655000  0.12641000  0.50005000  1.0
  C  C16  1  0.23900000  0.73920000  0.50006000  1.0
  C  C17  1  0.76100000  0.26080000  0.49994000  1.0
  C  C18  1  0.62899000  0.66483000  0.29430000  1.0
  C  C19  1  0.37102000  0.33517000  0.70570000  1.0
  C  C20  1  0.50435000  0.65233000  0.15714000  1.0
  C  C21  1  0.49566000  0.34767000  0.84286000  1.0
  C  C22  1  0.54740000  0.75217000  0.08834000  1.0
  C  C23  1  0.66422000  0.45955000  0.91162000  1.0
  C  C24  1  0.45261000  0.24783000  0.91166000  1.0
  C  C25  1  0.33578000  0.54044000  0.08837000  1.0
  C  C26  1  0.42973000  0.74378000  0.96351000  1.0
  C  C27  1  0.78068000  0.46682000  0.03649000  1.0
  C  C28  1  0.57026000  0.25622000  0.03649000  1.0
  C  C29  1  0.21932000  0.53318000  0.96351000  1.0
  C  C30  1  0.26214000  0.63652000  0.89918000  1.0
  C  C31  1  0.73786000  0.36348000  0.10082000  1.0
  C  C32  1  0.13217000  0.63560000  0.76821000  1.0
  C  C33  1  0.86783000  0.36440000  0.23179000  1.0
  O  O34  1  0.12843000  0.78660000  0.53541000  1.0
  O  O35  1  0.25114000  0.59336000  0.46478000  1.0
  O  O36  1  0.87157000  0.21340000  0.46459000  1.0
  O  O37  1  0.74886000  0.40664000  0.53522000  1.0
  O  O38  1  0.68200000  0.69788000  0.64965000  1.0
  O  O39  1  0.04833000  0.03267000  0.35022000  1.0
  O  O40  1  0.31800000  0.30213000  0.35035000  1.0
  O  O41  1  0.95166000  0.96733000  0.64978000  1.0
  O  O42  1  0.58343000  0.57061000  0.35192000  1.0
  O  O43  1  0.21927000  0.23191000  0.64806000  1.0
  O  O44  1  0.41657000  0.42939000  0.64807000  1.0
  O  O45  1  0.78073000  0.76809000  0.35194000  1.0
  O  O46  1  0.04714000  0.73404000  0.78149000  1.0
  O  O47  1  0.95285000  0.26596000  0.21851000  1.0
  O  O48  1  0.11320000  0.53631000  0.64983000  1.0
  O  O49  1  0.88680000  0.46370000  0.35017000  1.0
  F  F50  1  0.54098000  0.96403000  0.74300000  1.0
  F  F51  1  0.22096000  0.79867000  0.25696000  1.0
  F  F52  1  0.45902000  0.03597000  0.25700000  1.0
  F  F53  1  0.77903000  0.20134000  0.74304000  1.0
  F  F54  1  0.70587000  0.86120000  0.13921000  1.0
  F  F55  1  0.72237000  0.56711000  0.86070000  1.0
  F  F56  1  0.29414000  0.13880000  0.86079000  1.0
  F  F57  1  0.27764000  0.43288000  0.13930000  1.0
  F  F58  1  0.48170000  0.84202000  0.90327000  1.0
  F  F59  1  0.93905000  0.57917000  0.09682000  1.0
  F  F60  1  0.51830000  0.15798000  0.09673000  1.0
  F  F61  1  0.06095000  0.42083000  0.90318000  1.0
