# generated using pymatgen
data_AgH6C4N3
_symmetry_space_group_name_H-M   'P 1'
_cell_length_a   7.09298000
_cell_length_b   8.11756000
_cell_length_c   9.58669000
_cell_angle_alpha   89.99980000
_cell_angle_beta   89.99970000
_cell_angle_gamma   89.99980000
_symmetry_Int_Tables_number   1
_chemical_formula_structural   AgH6C4N3
_chemical_formula_sum   'Ag4 H24 C16 N12'
_cell_volume   551.97947192
_cell_formula_units_Z   4
loop_
 _symmetry_equiv_pos_site_id
 _symmetry_equiv_pos_as_xyz
  1  'x, y, z'
loop_
 _atom_site_type_symbol
 _atom_site_label
 _atom_site_symmetry_multiplicity
 _atom_site_fract_x
 _atom_site_fract_y
 _atom_site_fract_z
 _atom_site_occupancy
  Ag  Ag0  1  0.80103000  0.71705000  0.49799000  1.0
  Ag  Ag1  1  0.19898000  0.28295000  0.99799000  1.0
  Ag  Ag2  1  0.30103000  0.78296000  0.49800000  1.0
  Ag  Ag3  1  0.69897000  0.21705000  0.99799000  1.0
  H  H4  1  0.56623000  0.60216000  0.70513000  1.0
  H  H5  1  0.43376000  0.39785000  0.20513000  1.0
  H  H6  1  0.06623000  0.89785000  0.70513000  1.0
  H  H7  1  0.93377000  0.10215000  0.20513000  1.0
  H  H8  1  0.54802000  0.42469000  0.81218000  1.0
  H  H9  1  0.45198000  0.57531000  0.31218000  1.0
  H  H10  1  0.04801000  0.07532000  0.81218000  1.0
  H  H11  1  0.95199000  0.92468000  0.31218000  1.0
  H  H12  1  0.64573000  0.65686000  0.95998000  1.0
  H  H13  1  0.35425000  0.34314000  0.45998000  1.0
  H  H14  1  0.14574000  0.84315000  0.95997000  1.0
  H  H15  1  0.85426000  0.15686000  0.45998000  1.0
  H  H16  1  0.41063000  0.60542000  0.00575000  1.0
  H  H17  1  0.58936000  0.39457000  0.50575000  1.0
  H  H18  1  0.91063000  0.89457000  0.00575000  1.0
  H  H19  1  0.08937000  0.10543000  0.50575000  1.0
  H  H20  1  0.45586000  0.78114000  0.90026000  1.0
  H  H21  1  0.54413000  0.21886000  0.40026000  1.0
  H  H22  1  0.95587000  0.71886000  0.90025000  1.0
  H  H23  1  0.04413000  0.28114000  0.40025000  1.0
  H  H24  1  0.87315000  0.36715000  0.75522000  1.0
  H  H25  1  0.12685000  0.63285000  0.25522000  1.0
  H  H26  1  0.37314000  0.13286000  0.75522000  1.0
  H  H27  1  0.62686000  0.86714000  0.25522000  1.0
  C  C28  1  0.28761000  0.52045000  0.74421000  1.0
  C  C29  1  0.71239000  0.47954000  0.24421000  1.0
  C  C30  1  0.78760000  0.97955000  0.74420000  1.0
  C  C31  1  0.21241000  0.02045000  0.24420000  1.0
  C  C32  1  0.48527000  0.54649000  0.79089000  1.0
  C  C33  1  0.51473000  0.45351000  0.29089000  1.0
  C  C34  1  0.98526000  0.95351000  0.79088000  1.0
  C  C35  1  0.01474000  0.04649000  0.29088000  1.0
  C  C36  1  0.50016000  0.65420000  0.92171000  1.0
  C  C37  1  0.49984000  0.34581000  0.42171000  1.0
  C  C38  1  0.00016000  0.84581000  0.92170000  1.0
  C  C39  1  0.99984000  0.15419000  0.42170000  1.0
  C  C40  1  0.00220000  0.43429000  0.73307000  1.0
  C  C41  1  0.99780000  0.56572000  0.23308000  1.0
  C  C42  1  0.50220000  0.06572000  0.73307000  1.0
  C  C43  1  0.49782000  0.93428000  0.23307000  1.0
  N  N44  1  0.01913000  0.54524000  0.63212000  1.0
  N  N45  1  0.98086000  0.45476000  0.13211000  1.0
  N  N46  1  0.51913000  0.95477000  0.63212000  1.0
  N  N47  1  0.48087000  0.04524000  0.13211000  1.0
  N  N48  1  0.20247000  0.60049000  0.63923000  1.0
  N  N49  1  0.79753000  0.39951000  0.13923000  1.0
  N  N50  1  0.70247000  0.89952000  0.63923000  1.0
  N  N51  1  0.29754000  0.10049000  0.13923000  1.0
  N  N52  1  0.16530000  0.41385000  0.80559000  1.0
  N  N53  1  0.83470000  0.58615000  0.30559000  1.0
  N  N54  1  0.66529000  0.08616000  0.80559000  1.0
  N  N55  1  0.33471000  0.91385000  0.30559000  1.0
