# generated using pymatgen
data_ZnH9C10I3NO4
_symmetry_space_group_name_H-M   'P 1'
_cell_length_a   9.48888000
_cell_length_b   10.91170000
_cell_length_c   11.22570000
_cell_angle_alpha   83.82500000
_cell_angle_beta   79.69900000
_cell_angle_gamma   81.02910000
_symmetry_Int_Tables_number   1
_chemical_formula_structural   ZnH9C10I3NO4
_chemical_formula_sum   'Zn2 H18 C20 I6 N2 O8'
_cell_volume   1125.78100134
_cell_formula_units_Z   2
loop_
 _symmetry_equiv_pos_site_id
 _symmetry_equiv_pos_as_xyz
  1  'x, y, z'
loop_
 _atom_site_type_symbol
 _atom_site_label
 _atom_site_symmetry_multiplicity
 _atom_site_fract_x
 _atom_site_fract_y
 _atom_site_fract_z
 _atom_site_occupancy
  Zn  Zn0  1  0.34282000  0.52009000  0.52959000  1.0
  Zn  Zn1  1  0.64864000  0.47839000  0.47356000  1.0
  H  H2  1  0.70312000  0.49846000  0.08036000  1.0
  H  H3  1  0.28132000  0.09814000  0.58722000  1.0
  H  H4  1  0.25780000  0.91194000  0.52712000  1.0
  H  H5  1  0.69890000  0.10724000  0.37435000  1.0
  H  H6  1  0.71318000  0.90066000  0.42991000  1.0
  H  H7  1  0.55345000  0.93716000  0.83811000  1.0
  H  H8  1  0.69447000  0.03065000  0.79591000  1.0
  H  H9  1  0.54284000  0.07817000  0.90621000  1.0
  H  H10  1  0.52119000  0.20340000  0.71147000  1.0
  H  H11  1  0.38145000  0.11008000  0.74738000  1.0
  H  H12  1  0.37114000  0.56547000  0.11661000  1.0
  H  H13  1  0.12890000  0.65799000  0.38454000  1.0
  H  H14  1  0.06106000  0.48259000  0.59668000  1.0
  H  H15  1  0.85486000  0.66272000  0.38880000  1.0
  H  H16  1  0.66695000  0.05031000  0.57597000  1.0
  H  H17  1  0.93161000  0.40851000  0.49566000  1.0
  H  H18  1  0.60497000  0.84849000  0.63272000  1.0
  H  H19  1  0.41877000  0.90260000  0.67249000  1.0
  C  C20  1  0.49948000  0.48073000  0.73339000  1.0
  C  C21  1  0.91952000  0.58308000  0.43103000  1.0
  C  C22  1  0.49787000  0.26231000  0.49576000  1.0
  C  C23  1  0.49061000  0.52645000  0.26951000  1.0
  C  C24  1  0.48885000  0.74215000  0.49087000  1.0
  C  C25  1  0.54895000  0.05002000  0.59822000  1.0
  C  C26  1  0.51573000  0.91559000  0.60462000  1.0
  C  C27  1  0.33423000  0.09165000  0.49264000  1.0
  C  C28  1  0.59553000  0.07477000  0.37453000  1.0
  C  C29  1  0.48836000  0.12507000  0.48434000  1.0
  C  C30  1  0.49950000  0.10654000  0.72050000  1.0
  C  C31  1  0.48899000  0.88386000  0.47865000  1.0
  C  C32  1  0.57640000  0.03373000  0.82044000  1.0
  C  C33  1  0.33986000  0.95583000  0.46318000  1.0
  C  C34  1  0.61596000  0.93111000  0.38852000  1.0
  C  C35  1  0.59668000  0.51889000  0.05254000  1.0
  C  C36  1  0.47979000  0.54123000  0.13861000  1.0
  C  C37  1  0.59147000  0.52146000  0.92368000  1.0
  C  C38  1  0.50532000  0.46889000  0.86727000  1.0
  C  C39  1  0.06636000  0.59602000  0.44929000  1.0
  I  I40  1  0.68988000  0.83997000  0.21993000  1.0
  I  I41  1  0.16980000  0.22128000  0.40956000  1.0
  I  I42  1  0.27378000  0.91971000  0.29298000  1.0
  I  I43  1  0.74807000  0.62981000  0.82025000  1.0
  I  I44  1  0.35570000  0.35319000  0.96412000  1.0
  I  I45  1  0.54091000  0.17244000  0.20421000  1.0
  N  N46  1  0.12524000  0.53723000  0.53703000  1.0
  N  N47  1  0.86405000  0.48211000  0.46127000  1.0
  O  O48  1  0.37602000  0.51974000  0.70479000  1.0
  O  O49  1  0.61651000  0.44910000  0.66261000  1.0
  O  O50  1  0.38324000  0.32884000  0.54148000  1.0
  O  O51  1  0.62241000  0.29595000  0.46536000  1.0
  O  O52  1  0.37086000  0.52520000  0.34225000  1.0
  O  O53  1  0.61547000  0.51431000  0.29976000  1.0
  O  O54  1  0.36628000  0.70502000  0.50787000  1.0
  O  O55  1  0.61016000  0.67400000  0.49034000  1.0
