# generated using pymatgen
data_CdH15C25N7O4
_symmetry_space_group_name_H-M   'P 1'
_cell_length_a   15.33880000
_cell_length_b   18.04870000
_cell_length_c   20.87260000
_cell_angle_alpha   90.00030000
_cell_angle_beta   90.00010000
_cell_angle_gamma   78.82100000
_symmetry_Int_Tables_number   1
_chemical_formula_structural   CdH15C25N7O4
_chemical_formula_sum   'Cd8 H120 C200 N56 O32'
_cell_volume   5668.84396325
_cell_formula_units_Z   8
loop_
 _symmetry_equiv_pos_site_id
 _symmetry_equiv_pos_as_xyz
  1  'x, y, z'
loop_
 _atom_site_type_symbol
 _atom_site_label
 _atom_site_symmetry_multiplicity
 _atom_site_fract_x
 _atom_site_fract_y
 _atom_site_fract_z
 _atom_site_occupancy
  Cd  Cd0  1  0.83919000  0.13276000  0.93947000  1.0
  Cd  Cd1  1  0.66081000  0.86724000  0.43947000  1.0
  Cd  Cd2  1  0.16081000  0.86724000  0.06053000  1.0
  Cd  Cd3  1  0.33919000  0.13276000  0.56053000  1.0
  Cd  Cd4  1  0.14773000  0.10614000  0.43948000  1.0
  Cd  Cd5  1  0.35227000  0.89386000  0.93948000  1.0
  Cd  Cd6  1  0.85227000  0.89386000  0.56052000  1.0
  Cd  Cd7  1  0.64773000  0.10614000  0.06052000  1.0
  H  H8  1  0.84069000  0.63831000  0.95468000  1.0
  H  H9  1  0.65932000  0.36169000  0.45469000  1.0
  H  H10  1  0.15931000  0.36169000  0.04532000  1.0
  H  H11  1  0.34068000  0.63832000  0.54532000  1.0
  H  H12  1  0.95200000  0.49913000  0.11523000  1.0
  H  H13  1  0.54800000  0.50088000  0.61523000  1.0
  H  H14  1  0.04800000  0.50087000  0.88477000  1.0
  H  H15  1  0.45199000  0.49913000  0.38478000  1.0
  H  H16  1  0.97304000  0.72452000  0.11146000  1.0
  H  H17  1  0.52696000  0.27548000  0.61146000  1.0
  H  H18  1  0.02697000  0.27548000  0.88854000  1.0
  H  H19  1  0.47303000  0.72452000  0.38854000  1.0
  H  H20  1  0.94708000  0.83240000  0.06219000  1.0
  H  H21  1  0.55293000  0.16760000  0.56219000  1.0
  H  H22  1  0.05293000  0.16760000  0.93781000  1.0
  H  H23  1  0.44707000  0.83240000  0.43781000  1.0
  H  H24  1  0.91620000  0.98585000  0.01822000  1.0
  H  H25  1  0.58380000  0.01415000  0.51822000  1.0
  H  H26  1  0.08380000  0.01415000  0.98178000  1.0
  H  H27  1  0.41619000  0.98585000  0.48178000  1.0
  H  H28  1  0.77009000  0.01599000  0.84922000  1.0
  H  H29  1  0.72992000  0.98401000  0.34922000  1.0
  H  H30  1  0.22992000  0.98401000  0.15078000  1.0
  H  H31  1  0.27008000  0.01599000  0.65078000  1.0
  H  H32  1  0.75620000  0.87992000  0.84284000  1.0
  H  H33  1  0.74381000  0.12008000  0.34284000  1.0
  H  H34  1  0.24380000  0.12007000  0.15716000  1.0
  H  H35  1  0.25620000  0.87992000  0.65716000  1.0
  H  H36  1  0.81166000  0.53429000  0.91370000  1.0
  H  H37  1  0.68834000  0.46570000  0.41370000  1.0
  H  H38  1  0.18834000  0.46571000  0.08630000  1.0
  H  H39  1  0.31166000  0.53429000  0.58630000  1.0
  H  H40  1  0.88097000  0.26391000  0.03148000  1.0
  H  H41  1  0.61903000  0.73609000  0.53147000  1.0
  H  H42  1  0.11903000  0.73609000  0.96853000  1.0
  H  H43  1  0.38097000  0.26391000  0.46853000  1.0
  H  H44  1  0.76129000  0.27172000  0.85291000  1.0
  H  H45  1  0.73871000  0.72828000  0.35291000  1.0
  H  H46  1  0.23871000  0.72828000  0.14709000  1.0
  H  H47  1  0.26129000  0.27172000  0.64709000  1.0
  H  H48  1  0.75453000  0.41105000  0.83935000  1.0
  H  H49  1  0.74548000  0.58895000  0.33935000  1.0
  H  H50  1  0.24548000  0.58895000  0.16065000  1.0
  H  H51  1  0.25452000  0.41105000  0.66065000  1.0
  H  H52  1  0.15227000  0.61171000  0.46101000  1.0
  H  H53  1  0.34773000  0.38829000  0.96101000  1.0
  H  H54  1  0.84773000  0.38829000  0.53899000  1.0
  H  H55  1  0.65227000  0.61171000  0.03899000  1.0
  H  H56  1  0.06737000  0.73405000  0.63387000  1.0
  H  H57  1  0.43263000  0.26594000  0.13387000  1.0
  H  H58  1  0.93264000  0.26595000  0.36613000  1.0
  H  H59  1  0.56736000  0.73406000  0.86613000  1.0
  H  H60  1  0.05239000  0.50749000  0.62548000  1.0
  H  H61  1  0.44760000  0.49251000  0.12548000  1.0
  H  H62  1  0.94760000  0.49251000  0.37452000  1.0
  H  H63  1  0.55239000  0.50750000  0.87452000  1.0
  H  H64  1  0.18173000  0.49886000  0.42014000  1.0
  H  H65  1  0.31827000  0.50114000  0.92014000  1.0
  H  H66  1  0.81827000  0.50115000  0.57986000  1.0
  H  H67  1  0.68173000  0.49886000  0.07985000  1.0
  H  H68  1  0.08174000  0.25735000  0.52608000  1.0
  H  H69  1  0.41827000  0.74265000  0.02608000  1.0
  H  H70  1  0.91827000  0.74265000  0.47392000  1.0
  H  H71  1  0.58173000  0.25735000  0.97392000  1.0
  H  H72  1  0.20479000  0.22526000  0.34826000  1.0
  H  H73  1  0.29521000  0.77474000  0.84827000  1.0
  H  H74  1  0.79521000  0.77474000  0.65173000  1.0
  H  H75  1  0.70479000  0.22526000  0.15173000  1.0
  H  H76  1  0.22320000  0.36028000  0.33964000  1.0
  H  H77  1  0.27680000  0.63972000  0.83964000  1.0
  H  H78  1  0.77680000  0.63972000  0.66035000  1.0
  H  H79  1  0.72320000  0.36028000  0.16035000  1.0
  H  H80  1  0.07007000  0.83819000  0.57551000  1.0
  H  H81  1  0.42993000  0.16181000  0.07551000  1.0
  H  H82  1  0.92993000  0.16181000  0.42449000  1.0
  H  H83  1  0.57007000  0.83819000  0.92449000  1.0
  H  H84  1  0.09752000  0.98155000  0.52858000  1.0
  H  H85  1  0.40248000  0.01845000  0.02858000  1.0
  H  H86  1  0.90248000  0.01845000  0.47142000  1.0
  H  H87  1  0.59752000  0.98155000  0.97142000  1.0
  H  H88  1  0.24413000  0.96126000  0.36009000  1.0
  H  H89  1  0.25587000  0.03874000  0.86009000  1.0
  H  H90  1  0.75587000  0.03874000  0.63992000  1.0
  H  H91  1  0.74414000  0.96126000  0.13991000  1.0
  H  H92  1  0.25788000  0.82038000  0.35491000  1.0
  H  H93  1  0.24212000  0.17962000  0.85490000  1.0
  H  H94  1  0.74213000  0.17963000  0.64510000  1.0
  H  H95  1  0.75788000  0.82038000  0.14509000  1.0
  H  H96  1  0.11051000  0.16284000  0.80642000  1.0
  H  H97  1  0.38948000  0.83715000  0.30642000  1.0
  H  H98  1  0.88949000  0.83715000  0.19357000  1.0
  H  H99  1  0.61051000  0.16285000  0.69358000  1.0
  H  H100  1  0.18529000  0.16144000  0.69895000  1.0
  H  H101  1  0.31470000  0.83857000  0.19895000  1.0
  H  H102  1  0.81471000  0.83856000  0.30105000  1.0
  H  H103  1  0.68529000  0.16144000  0.80105000  1.0
  H  H104  1  0.96803000  0.08001000  0.61214000  1.0
  H  H105  1  0.53197000  0.92000000  0.11215000  1.0
  H  H106  1  0.03197000  0.92000000  0.38786000  1.0
  H  H107  1  0.46803000  0.08000000  0.88786000  1.0
  H  H108  1  0.89211000  0.08428000  0.71900000  1.0
  H  H109  1  0.60789000  0.91572000  0.21900000  1.0
  H  H110  1  0.10790000  0.91572000  0.28100000  1.0
  H  H111  1  0.39211000  0.08428000  0.78100000  1.0
  H  H112  1  0.89658000  0.05936000  0.30400000  1.0
  H  H113  1  0.60342000  0.94064000  0.80399000  1.0
  H  H114  1  0.10342000  0.94064000  0.69600000  1.0
  H  H115  1  0.39658000  0.05936000  0.19601000  1.0
  H  H116  1  0.81749000  0.05912000  0.19840000  1.0
  H  H117  1  0.68251000  0.94088000  0.69840000  1.0
  H  H118  1  0.18251000  0.94088000  0.80160000  1.0
  H  H119  1  0.31749000  0.05911000  0.30160000  1.0
  H  H120  1  0.00317000  0.17929000  0.11244000  1.0
  H  H121  1  0.49683000  0.82071000  0.61244000  1.0
  H  H122  1  0.99683000  0.82071000  0.88756000  1.0
  H  H123  1  0.50317000  0.17929000  0.38757000  1.0
  H  H124  1  0.08369000  0.17770000  0.21705000  1.0
  H  H125  1  0.41631000  0.82230000  0.71705000  1.0
  H  H126  1  0.91632000  0.82229000  0.78294000  1.0
  H  H127  1  0.58369000  0.17770000  0.28295000  1.0
  C  C128  1  0.90427000  0.68990000  0.02866000  1.0
  C  C129  1  0.59574000  0.31010000  0.52866000  1.0
  C  C130  1  0.09573000  0.31010000  0.97134000  1.0
  C  C131  1  0.40426000  0.68990000  0.47134000  1.0
  C  C132  1  0.87572000  0.62856000  0.00030000  1.0
  C  C133  1  0.62428000  0.37144000  0.50030000  1.0
  C  C134  1  0.12428000  0.37144000  0.99970000  1.0
  C  C135  1  0.37571000  0.62856000  0.49970000  1.0
  C  C136  1  0.89279000  0.55864000  0.03110000  1.0
  C  C137  1  0.60721000  0.44136000  0.53110000  1.0
  C  C138  1  0.10721000  0.44136000  0.96890000  1.0
  C  C139  1  0.39279000  0.55864000  0.46890000  1.0
  C  C140  1  0.93800000  0.55338000  0.09033000  1.0
  C  C141  1  0.56199000  0.44662000  0.59033000  1.0
  C  C142  1  0.06200000  0.44662000  0.90967000  1.0
  C  C143  1  0.43800000  0.55338000  0.40967000  1.0
  C  C144  1  0.94906000  0.67828000  0.08765000  1.0
  C  C145  1  0.55094000  0.32172000  0.58765000  1.0
  C  C146  1  0.05094000  0.32172000  0.91235000  1.0
  C  C147  1  0.44905000  0.67828000  0.41235000  1.0
  C  C148  1  0.88512000  0.76311000  0.99694000  1.0
  C  C149  1  0.61488000  0.23689000  0.49694000  1.0
  C  C150  1  0.11488000  0.23689000  0.00306000  1.0
  C  C151  1  0.38511000  0.76311000  0.50306000  1.0
  C  C152  1  0.83208000  0.85257000  0.93133000  1.0
  C  C153  1  0.66792000  0.14744000  0.43133000  1.0
  C  C154  1  0.16792000  0.14743000  0.06867000  1.0
  C  C155  1  0.33208000  0.85256000  0.56868000  1.0
  C  C156  1  0.87733000  0.88441000  0.98060000  1.0
  C  C157  1  0.62267000  0.11559000  0.48060000  1.0
  C  C158  1  0.12267000  0.11559000  0.01940000  1.0
  C  C159  1  0.37733000  0.88442000  0.51940000  1.0
  C  C160  1  0.88217000  0.96033000  0.98088000  1.0
  C  C161  1  0.61783000  0.03967000  0.48088000  1.0
  C  C162  1  0.11783000  0.03967000  0.01912000  1.0
  C  C163  1  0.38216000  0.96033000  0.51912000  1.0
  C  C164  1  0.79889000  0.97568000  0.88596000  1.0
  C  C165  1  0.70111000  0.02432000  0.38596000  1.0
  C  C166  1  0.20111000  0.02432000  0.11404000  1.0
  C  C167  1  0.29889000  0.97568000  0.61404000  1.0
  C  C168  1  0.79147000  0.90036000  0.88236000  1.0
  C  C169  1  0.70853000  0.09964000  0.38236000  1.0
  C  C170  1  0.20853000  0.09964000  0.11764000  1.0
  C  C171  1  0.29147000  0.90036000  0.61765000  1.0
  C  C172  1  0.86798000  0.49133000  0.00392000  1.0
  C  C173  1  0.63202000  0.50867000  0.50392000  1.0
  C  C174  1  0.13201000  0.50867000  0.99609000  1.0
  C  C175  1  0.36798000  0.49133000  0.49609000  1.0
  C  C176  1  0.81735000  0.41744000  0.93296000  1.0
  C  C177  1  0.68265000  0.58255000  0.43296000  1.0
  C  C178  1  0.18265000  0.58256000  0.06705000  1.0
  C  C179  1  0.31735000  0.41744000  0.56705000  1.0
  C  C180  1  0.85208000  0.37674000  0.98856000  1.0
  C  C181  1  0.64792000  0.62325000  0.48857000  1.0
  C  C182  1  0.14792000  0.62326000  0.01144000  1.0
  C  C183  1  0.35208000  0.37674000  0.51144000  1.0
  C  C184  1  0.85325000  0.29932000  0.99124000  1.0
  C  C185  1  0.64676000  0.70068000  0.49124000  1.0
  C  C186  1  0.14675000  0.70068000  0.00876000  1.0
  C  C187  1  0.35325000  0.29932000  0.50876000  1.0
  C  C188  1  0.78643000  0.30469000  0.88993000  1.0
  C  C189  1  0.71358000  0.69530000  0.38993000  1.0
  C  C190  1  0.21358000  0.69531000  0.11007000  1.0
  C  C191  1  0.28642000  0.30469000  0.61007000  1.0
  C  C192  1  0.78282000  0.38175000  0.88236000  1.0
  C  C193  1  0.71718000  0.61825000  0.38236000  1.0
  C  C194  1  0.21718000  0.61825000  0.11764000  1.0
  C  C195  1  0.28282000  0.38175000  0.61764000  1.0
  C  C196  1  0.10426000  0.54863000  0.53883000  1.0
  C  C197  1  0.39574000  0.45137000  0.03883000  1.0
  C  C198  1  0.89574000  0.45137000  0.46116000  1.0
  C  C199  1  0.60425000  0.54863000  0.96117000  1.0
  C  C200  1  0.12635000  0.61216000  0.50971000  1.0
  C  C201  1  0.37365000  0.38784000  0.00971000  1.0
  C  C202  1  0.87365000  0.38784000  0.49029000  1.0
  C  C203  1  0.62635000  0.61216000  0.99029000  1.0
  C  C204  1  0.11325000  0.68060000  0.54318000  1.0
  C  C205  1  0.38674000  0.31940000  0.04317000  1.0
  C  C206  1  0.88674000  0.31941000  0.45682000  1.0
  C  C207  1  0.61325000  0.68060000  0.95683000  1.0
  C  C208  1  0.07869000  0.68197000  0.60575000  1.0
  C  C209  1  0.42130000  0.31803000  0.10575000  1.0
  C  C210  1  0.92131000  0.31803000  0.39425000  1.0
  C  C211  1  0.57869000  0.68197000  0.89425000  1.0
  C  C212  1  0.07008000  0.55645000  0.60172000  1.0
  C  C213  1  0.42992000  0.44355000  0.10172000  1.0
  C  C214  1  0.92992000  0.44355000  0.39828000  1.0
  C  C215  1  0.57007000  0.55645000  0.89828000  1.0
  C  C216  1  0.11536000  0.47573000  0.50673000  1.0
  C  C217  1  0.38464000  0.52428000  0.00673000  1.0
  C  C218  1  0.88465000  0.52428000  0.49327000  1.0
  C  C219  1  0.61536000  0.47572000  0.99327000  1.0
  C  C220  1  0.15781000  0.38729000  0.43241000  1.0
  C  C221  1  0.34219000  0.61271000  0.93241000  1.0
  C  C222  1  0.84220000  0.61271000  0.56759000  1.0
  C  C223  1  0.65780000  0.38729000  0.06758000  1.0
  C  C224  1  0.11691000  0.35877000  0.48567000  1.0
  C  C225  1  0.38309000  0.64123000  0.98567000  1.0
  C  C226  1  0.88310000  0.64124000  0.51432000  1.0
  C  C227  1  0.61690000  0.35877000  0.01432000  1.0
  C  C228  1  0.11077000  0.28267000  0.48605000  1.0
  C  C229  1  0.38923000  0.71733000  0.98605000  1.0
  C  C230  1  0.88923000  0.71734000  0.51395000  1.0
  C  C231  1  0.61076000  0.28267000  0.01395000  1.0
  C  C232  1  0.18144000  0.26591000  0.38614000  1.0
  C  C233  1  0.31856000  0.73409000  0.88614000  1.0
  C  C234  1  0.81856000  0.73410000  0.61386000  1.0
  C  C235  1  0.68144000  0.26590000  0.11385000  1.0
  C  C236  1  0.19098000  0.34075000  0.38111000  1.0
  C  C237  1  0.30902000  0.65925000  0.88112000  1.0
  C  C238  1  0.80902000  0.65925000  0.61888000  1.0
  C  C239  1  0.69098000  0.34075000  0.11888000  1.0
  C  C240  1  0.13458000  0.74713000  0.51196000  1.0
  C  C241  1  0.36542000  0.25287000  0.01196000  1.0
  C  C242  1  0.86542000  0.25288000  0.48803000  1.0
  C  C243  1  0.63458000  0.74713000  0.98804000  1.0
  C  C244  1  0.18433000  0.81863000  0.44437000  1.0
  C  C245  1  0.31567000  0.18137000  0.94437000  1.0
  C  C246  1  0.81567000  0.18137000  0.55563000  1.0
  C  C247  1  0.68433000  0.81863000  0.05563000  1.0
  C  C248  1  0.14086000  0.86573000  0.49404000  1.0
  C  C249  1  0.35914000  0.13427000  0.99404000  1.0
  C  C250  1  0.85914000  0.13427000  0.50596000  1.0
  C  C251  1  0.64087000  0.86573000  0.00596000  1.0
  C  C252  1  0.13319000  0.94365000  0.49256000  1.0
  C  C253  1  0.36681000  0.05635000  0.99256000  1.0
  C  C254  1  0.86681000  0.05635000  0.50744000  1.0
  C  C255  1  0.63319000  0.94365000  0.00744000  1.0
  C  C256  1  0.21504000  0.93085000  0.39698000  1.0
  C  C257  1  0.28496000  0.06914000  0.89698000  1.0
  C  C258  1  0.78496000  0.06915000  0.60302000  1.0
  C  C259  1  0.71505000  0.93085000  0.10302000  1.0
  C  C260  1  0.22340000  0.85288000  0.39449000  1.0
  C  C261  1  0.27660000  0.14712000  0.89449000  1.0
  C  C262  1  0.77660000  0.14713000  0.60551000  1.0
  C  C263  1  0.72341000  0.85288000  0.10551000  1.0
  C  C264  1  0.99579000  0.12554000  0.76840000  1.0
  C  C265  1  0.50421000  0.87446000  0.26840000  1.0
  C  C266  1  0.00422000  0.87446000  0.23160000  1.0
  C  C267  1  0.49579000  0.12554000  0.73161000  1.0
  C  C268  1  0.07947000  0.14548000  0.76341000  1.0
  C  C269  1  0.42053000  0.85452000  0.26341000  1.0
  C  C270  1  0.92054000  0.85452000  0.23659000  1.0
  C  C271  1  0.57947000  0.14549000  0.73659000  1.0
  C  C272  1  0.12093000  0.14482000  0.70398000  1.0
  C  C273  1  0.37907000  0.85518000  0.20398000  1.0
  C  C274  1  0.87908000  0.85518000  0.29602000  1.0
  C  C275  1  0.62093000  0.14482000  0.79603000  1.0
  C  C276  1  0.07935000  0.12299000  0.64907000  1.0
  C  C277  1  0.42064000  0.87701000  0.14907000  1.0
  C  C278  1  0.92065000  0.87702000  0.35093000  1.0
  C  C279  1  0.57936000  0.12298000  0.85093000  1.0
  C  C280  1  0.99814000  0.09893000  0.65477000  1.0
  C  C281  1  0.50186000  0.90107000  0.15477000  1.0
  C  C282  1  0.00186000  0.90107000  0.34523000  1.0
  C  C283  1  0.49814000  0.09893000  0.84523000  1.0
  C  C284  1  0.95630000  0.10091000  0.71391000  1.0
  C  C285  1  0.54370000  0.89909000  0.21391000  1.0
  C  C286  1  0.04371000  0.89909000  0.28609000  1.0
  C  C287  1  0.45630000  0.10091000  0.78609000  1.0
  C  C288  1  0.94622000  0.13137000  0.83040000  1.0
  C  C289  1  0.55378000  0.86863000  0.33041000  1.0
  C  C290  1  0.05379000  0.86863000  0.16960000  1.0
  C  C291  1  0.44622000  0.13137000  0.66960000  1.0
  C  C292  1  0.11945000  0.12835000  0.58416000  1.0
  C  C293  1  0.38055000  0.87165000  0.08416000  1.0
  C  C294  1  0.88055000  0.87166000  0.41583000  1.0
  C  C295  1  0.61945000  0.12835000  0.91584000  1.0
  C  C296  1  0.99516000  0.11804000  0.26633000  1.0
  C  C297  1  0.50484000  0.88197000  0.76632000  1.0
  C  C298  1  0.00484000  0.88196000  0.73367000  1.0
  C  C299  1  0.49516000  0.11804000  0.23368000  1.0
  C  C300  1  0.91902000  0.08592000  0.26178000  1.0
  C  C301  1  0.58098000  0.91408000  0.76178000  1.0
  C  C302  1  0.08098000  0.91408000  0.73822000  1.0
  C  C303  1  0.41903000  0.08591000  0.23822000  1.0
  C  C304  1  0.87565000  0.08513000  0.20323000  1.0
  C  C305  1  0.62435000  0.91488000  0.70322000  1.0
  C  C306  1  0.12435000  0.91487000  0.79678000  1.0
  C  C307  1  0.37565000  0.08512000  0.29678000  1.0
  C  C308  1  0.90736000  0.11760000  0.14902000  1.0
  C  C309  1  0.59263000  0.88241000  0.64902000  1.0
  C  C310  1  0.09263000  0.88241000  0.85098000  1.0
  C  C311  1  0.40737000  0.11759000  0.35098000  1.0
  C  C312  1  0.98059000  0.15304000  0.15461000  1.0
  C  C313  1  0.51941000  0.84697000  0.65460000  1.0
  C  C314  1  0.01941000  0.84696000  0.84539000  1.0
  C  C315  1  0.48059000  0.15303000  0.34540000  1.0
  C  C316  1  0.02489000  0.15256000  0.21262000  1.0
  C  C317  1  0.47511000  0.84744000  0.71262000  1.0
  C  C318  1  0.97512000  0.84744000  0.78737000  1.0
  C  C319  1  0.52489000  0.15255000  0.28738000  1.0
  C  C320  1  0.04728000  0.11401000  0.32706000  1.0
  C  C321  1  0.45272000  0.88599000  0.82706000  1.0
  C  C322  1  0.95272000  0.88599000  0.67294000  1.0
  C  C323  1  0.54728000  0.11401000  0.17294000  1.0
  C  C324  1  0.86558000  0.11260000  0.08470000  1.0
  C  C325  1  0.63442000  0.88740000  0.58470000  1.0
  C  C326  1  0.13442000  0.88740000  0.91530000  1.0
  C  C327  1  0.36558000  0.11260000  0.41530000  1.0
  N  N328  1  0.96560000  0.61147000  0.11802000  1.0
  N  N329  1  0.53440000  0.38853000  0.61802000  1.0
  N  N330  1  0.03441000  0.38852000  0.88198000  1.0
  N  N331  1  0.46559000  0.61147000  0.38198000  1.0
  N  N332  1  0.83848000  0.77653000  0.94238000  1.0
  N  N333  1  0.66152000  0.22347000  0.44238000  1.0
  N  N334  1  0.16152000  0.22347000  0.05762000  1.0
  N  N335  1  0.33848000  0.77653000  0.55762000  1.0
  N  N336  1  0.91019000  0.82623000  0.02137000  1.0
  N  N337  1  0.58981000  0.17377000  0.52137000  1.0
  N  N338  1  0.08980000  0.17376000  0.97863000  1.0
  N  N339  1  0.41019000  0.82624000  0.47863000  1.0
  N  N340  1  0.84240000  0.00472000  0.93378000  1.0
  N  N341  1  0.65760000  0.99528000  0.43378000  1.0
  N  N342  1  0.15760000  0.99528000  0.06622000  1.0
  N  N343  1  0.34240000  0.00472000  0.56622000  1.0
  N  N344  1  0.88238000  0.42398000  0.03178000  1.0
  N  N345  1  0.61762000  0.57602000  0.53178000  1.0
  N  N346  1  0.11761000  0.57602000  0.96822000  1.0
  N  N347  1  0.38238000  0.42398000  0.46822000  1.0
  N  N348  1  0.82809000  0.49012000  0.94419000  1.0
  N  N349  1  0.67192000  0.50988000  0.44419000  1.0
  N  N350  1  0.17191000  0.50989000  0.05582000  1.0
  N  N351  1  0.32808000  0.49011000  0.55581000  1.0
  N  N352  1  0.82106000  0.26497000  0.94220000  1.0
  N  N353  1  0.67894000  0.73503000  0.44220000  1.0
  N  N354  1  0.17894000  0.73503000  0.05780000  1.0
  N  N355  1  0.32106000  0.26497000  0.55780000  1.0
  N  N356  1  0.05778000  0.62132000  0.63452000  1.0
  N  N357  1  0.44221000  0.37868000  0.13453000  1.0
  N  N358  1  0.94221000  0.37868000  0.36547000  1.0
  N  N359  1  0.55778000  0.62133000  0.86548000  1.0
  N  N360  1  0.15518000  0.46191000  0.44687000  1.0
  N  N361  1  0.34482000  0.53809000  0.94687000  1.0
  N  N362  1  0.84482000  0.53810000  0.55313000  1.0
  N  N363  1  0.65518000  0.46190000  0.05313000  1.0
  N  N364  1  0.09113000  0.41484000  0.53078000  1.0
  N  N365  1  0.40887000  0.58515000  0.03078000  1.0
  N  N366  1  0.90887000  0.58516000  0.46922000  1.0
  N  N367  1  0.59113000  0.41484000  0.96922000  1.0
  N  N368  1  0.14314000  0.23778000  0.43699000  1.0
  N  N369  1  0.35686000  0.76222000  0.93700000  1.0
  N  N370  1  0.85686000  0.76222000  0.56300000  1.0
  N  N371  1  0.64313000  0.23778000  0.06300000  1.0
  N  N372  1  0.17879000  0.74469000  0.45639000  1.0
  N  N373  1  0.32121000  0.25531000  0.95639000  1.0
  N  N374  1  0.82121000  0.25531000  0.54360000  1.0
  N  N375  1  0.67879000  0.74469000  0.04360000  1.0
  N  N376  1  0.11105000  0.81852000  0.53660000  1.0
  N  N377  1  0.38894000  0.18148000  0.03660000  1.0
  N  N378  1  0.88895000  0.18148000  0.46340000  1.0
  N  N379  1  0.61105000  0.81852000  0.96340000  1.0
  N  N380  1  0.17046000  0.97487000  0.44398000  1.0
  N  N381  1  0.32954000  0.02512000  0.94398000  1.0
  N  N382  1  0.82954000  0.02513000  0.55602000  1.0
  N  N383  1  0.67047000  0.97487000  0.05602000  1.0
  O  O384  1  0.86384000  0.12879000  0.82841000  1.0
  O  O385  1  0.63616000  0.87120000  0.32842000  1.0
  O  O386  1  0.13616000  0.87120000  0.17159000  1.0
  O  O387  1  0.36384000  0.12880000  0.67159000  1.0
  O  O388  1  0.98667000  0.13882000  0.88300000  1.0
  O  O389  1  0.51333000  0.86118000  0.38301000  1.0
  O  O390  1  0.01333000  0.86119000  0.11700000  1.0
  O  O391  1  0.48667000  0.13882000  0.61700000  1.0
  O  O392  1  0.18912000  0.15616000  0.57999000  1.0
  O  O393  1  0.31088000  0.84385000  0.07999000  1.0
  O  O394  1  0.81089000  0.84385000  0.42001000  1.0
  O  O395  1  0.68912000  0.15616000  0.92001000  1.0
  O  O396  1  0.07824000  0.10740000  0.53618000  1.0
  O  O397  1  0.42176000  0.89260000  0.03618000  1.0
  O  O398  1  0.92177000  0.89260000  0.46382000  1.0
  O  O399  1  0.57824000  0.10740000  0.96382000  1.0
  O  O400  1  0.12962000  0.11507000  0.32405000  1.0
  O  O401  1  0.37038000  0.88494000  0.82405000  1.0
  O  O402  1  0.87038000  0.88494000  0.67595000  1.0
  O  O403  1  0.62962000  0.11507000  0.17595000  1.0
  O  O404  1  0.00725000  0.10888000  0.38065000  1.0
  O  O405  1  0.49275000  0.89113000  0.88065000  1.0
  O  O406  1  0.99275000  0.89113000  0.61935000  1.0
  O  O407  1  0.50725000  0.10888000  0.11936000  1.0
  O  O408  1  0.79718000  0.08326000  0.08091000  1.0
  O  O409  1  0.70282000  0.91674000  0.58091000  1.0
  O  O410  1  0.20282000  0.91673000  0.91909000  1.0
  O  O411  1  0.29718000  0.08326000  0.41909000  1.0
  O  O412  1  0.90433000  0.13638000  0.03666000  1.0
  O  O413  1  0.59568000  0.86361000  0.53666000  1.0
  O  O414  1  0.09567000  0.86361000  0.96334000  1.0
  O  O415  1  0.40433000  0.13638000  0.46335000  1.0
