# generated using pymatgen
data_CdH6C8(N4O)2
_symmetry_space_group_name_H-M   'P 1'
_cell_length_a   7.71607000
_cell_length_b   7.83149000
_cell_length_c   11.58430000
_cell_angle_alpha   105.91100000
_cell_angle_beta   109.43000000
_cell_angle_gamma   90.03150000
_symmetry_Int_Tables_number   1
_chemical_formula_structural   CdH6C8(N4O)2
_chemical_formula_sum   'Cd2 H12 C16 N16 O4'
_cell_volume   631.60461644
_cell_formula_units_Z   2
loop_
 _symmetry_equiv_pos_site_id
 _symmetry_equiv_pos_as_xyz
  1  'x, y, z'
loop_
 _atom_site_type_symbol
 _atom_site_label
 _atom_site_symmetry_multiplicity
 _atom_site_fract_x
 _atom_site_fract_y
 _atom_site_fract_z
 _atom_site_occupancy
  Cd  Cd0  1  0.50000000  0.00000000  0.50000000  1.0
  Cd  Cd1  1  0.00000000  0.00000000  0.50000000  1.0
  H  H2  1  0.63210000  0.57232000  0.72436000  1.0
  H  H3  1  0.90825000  0.42698000  0.27551000  1.0
  H  H4  1  0.36791000  0.42768000  0.27564000  1.0
  H  H5  1  0.09175000  0.57302000  0.72449000  1.0
  H  H6  1  0.76111000  0.70712000  0.96142000  1.0
  H  H7  1  0.79996000  0.29213000  0.03843000  1.0
  H  H8  1  0.23889000  0.29288000  0.03858000  1.0
  H  H9  1  0.20005000  0.70787000  0.96157000  1.0
  H  H10  1  0.15606000  0.41830000  0.54746000  1.0
  H  H11  1  0.60917000  0.58188000  0.45253000  1.0
  H  H12  1  0.84394000  0.58170000  0.45254000  1.0
  H  H13  1  0.39082000  0.41812000  0.54746000  1.0
  C  C14  1  0.54365000  0.60227000  0.78186000  1.0
  C  C15  1  0.76229000  0.39730000  0.21806000  1.0
  C  C16  1  0.45635000  0.39773000  0.21814000  1.0
  C  C17  1  0.23771000  0.60270000  0.78194000  1.0
  C  C18  1  0.61255000  0.67722000  0.91269000  1.0
  C  C19  1  0.70021000  0.32232000  0.08723000  1.0
  C  C20  1  0.38745000  0.32278000  0.08731000  1.0
  C  C21  1  0.29979000  0.67768000  0.91277000  1.0
  C  C22  1  0.49052000  0.71499000  0.98136000  1.0
  C  C23  1  0.50948000  0.28501000  0.01864000  1.0
  C  C24  1  0.55966000  0.78751000  0.11952000  1.0
  C  C25  1  0.44034000  0.21248000  0.88048000  1.0
  C  C26  1  0.28863000  0.49790000  0.57768000  1.0
  C  C27  1  0.71137000  0.50210000  0.42232000  1.0
  C  C28  1  0.26269000  0.66122000  0.52518000  1.0
  C  C29  1  0.73731000  0.33878000  0.47482000  1.0
  N  N30  1  0.35890000  0.56526000  0.71833000  1.0
  N  N31  1  0.64110000  0.43474000  0.28167000  1.0
  N  N32  1  0.45056000  0.82317000  0.19203000  1.0
  N  N33  1  0.25870000  0.17705000  0.80810000  1.0
  N  N34  1  0.54944000  0.17683000  0.80796000  1.0
  N  N35  1  0.74130000  0.82294000  0.19190000  1.0
  N  N36  1  0.56812000  0.88145000  0.31069000  1.0
  N  N37  1  0.25742000  0.11868000  0.68939000  1.0
  N  N38  1  0.43188000  0.11855000  0.68931000  1.0
  N  N39  1  0.74258000  0.88132000  0.31061000  1.0
  N  N40  1  0.19641000  0.04542000  0.39282000  1.0
  N  N41  1  0.80359000  0.95459000  0.60718000  1.0
  N  N42  1  0.15945000  0.13323000  0.31873000  1.0
  N  N43  1  0.84056000  0.86677000  0.68127000  1.0
  N  N44  1  0.12369000  0.21829000  0.24705000  1.0
  N  N45  1  0.87632000  0.78171000  0.75295000  1.0
  O  O46  1  0.40210000  0.72078000  0.50839000  1.0
  O  O47  1  0.89334000  0.27912000  0.49184000  1.0
  O  O48  1  0.59790000  0.27923000  0.49162000  1.0
  O  O49  1  0.10665000  0.72088000  0.50815000  1.0
