# generated using pymatgen
data_ZnH17C24N2O5
_symmetry_space_group_name_H-M   'P 1'
_cell_length_a   9.26955000
_cell_length_b   9.64779000
_cell_length_c   11.83810000
_cell_angle_alpha   81.50440000
_cell_angle_beta   80.94320000
_cell_angle_gamma   68.99660000
_symmetry_Int_Tables_number   1
_chemical_formula_structural   ZnH17C24N2O5
_chemical_formula_sum   'Zn2 H34 C48 N4 O10'
_cell_volume   971.22776887
_cell_formula_units_Z   2
loop_
 _symmetry_equiv_pos_site_id
 _symmetry_equiv_pos_as_xyz
  1  'x, y, z'
loop_
 _atom_site_type_symbol
 _atom_site_label
 _atom_site_symmetry_multiplicity
 _atom_site_fract_x
 _atom_site_fract_y
 _atom_site_fract_z
 _atom_site_occupancy
  Zn  Zn0  1  0.78677000  0.16383000  0.62290000  1.0
  Zn  Zn1  1  0.21323000  0.83617000  0.37710000  1.0
  H  H2  1  0.71971000  0.99233000  0.52004000  1.0
  H  H3  1  0.28029000  0.00767000  0.47996000  1.0
  H  H4  1  0.85314000  0.03054000  0.42536000  1.0
  H  H5  1  0.14686000  0.96946000  0.57464000  1.0
  H  H6  1  0.30528000  0.07748000  0.65573000  1.0
  H  H7  1  0.69472000  0.92252000  0.34427000  1.0
  H  H8  1  0.35189000  0.75366000  0.02389000  1.0
  H  H9  1  0.64810000  0.24634000  0.97611000  1.0
  H  H10  1  0.09276000  0.90070000  0.96664000  1.0
  H  H11  1  0.90723000  0.09930000  0.03336000  1.0
  H  H12  1  0.69370000  0.91862000  0.95794000  1.0
  H  H13  1  0.30630000  0.08138000  0.04206000  1.0
  H  H14  1  0.94134000  0.75479000  0.02355000  1.0
  H  H15  1  0.05866000  0.24521000  0.97645000  1.0
  H  H16  1  0.86190000  0.37452000  0.92670000  1.0
  H  H17  1  0.13810000  0.62548000  0.07330000  1.0
  H  H18  1  0.60875000  0.53876000  0.87167000  1.0
  H  H19  1  0.39125000  0.46124000  0.12833000  1.0
  H  H20  1  0.04258000  0.19600000  0.41442000  1.0
  H  H21  1  0.95742000  0.80400000  0.58558000  1.0
  H  H22  1  0.09098000  0.40385000  0.27908000  1.0
  H  H23  1  0.90902000  0.59614000  0.72092000  1.0
  H  H24  1  0.91064000  0.66568000  0.30309000  1.0
  H  H25  1  0.08936000  0.33431000  0.69691000  1.0
  H  H26  1  0.68899000  0.70944000  0.46084000  1.0
  H  H27  1  0.31102000  0.29056000  0.53915000  1.0
  H  H28  1  0.49941000  0.72722000  0.58322000  1.0
  H  H29  1  0.50059000  0.27278000  0.41678000  1.0
  H  H30  1  0.28228000  0.72787000  0.73336000  1.0
  H  H31  1  0.71772000  0.27213000  0.26664000  1.0
  H  H32  1  0.28319000  0.48549000  0.84893000  1.0
  H  H33  1  0.71681000  0.51451000  0.15107000  1.0
  H  H34  1  0.50333000  0.25045000  0.80063000  1.0
  H  H35  1  0.49667000  0.74955000  0.19937000  1.0
  C  C36  1  0.02171000  0.08081000  0.76843000  1.0
  C  C37  1  0.97828000  0.91919000  0.23157000  1.0
  C  C38  1  0.18018000  0.99906000  0.80634000  1.0
  C  C39  1  0.81982000  0.00094000  0.19366000  1.0
  C  C40  1  0.31426000  0.00995000  0.73837000  1.0
  C  C41  1  0.68574000  0.99004000  0.26163000  1.0
  C  C42  1  0.46182000  0.93267000  0.77368000  1.0
  C  C43  1  0.53818000  0.06733000  0.22632000  1.0
  C  C44  1  0.47746000  0.83653000  0.87619000  1.0
  C  C45  1  0.52254000  0.16347000  0.12381000  1.0
  C  C46  1  0.34221000  0.82631000  0.94358000  1.0
  C  C47  1  0.65778000  0.17369000  0.05643000  1.0
  C  C48  1  0.19514000  0.90875000  0.91086000  1.0
  C  C49  1  0.80486000  0.09125000  0.08914000  1.0
  C  C50  1  0.59907000  0.95336000  0.69539000  1.0
  C  C51  1  0.40093000  0.04664000  0.30461000  1.0
  C  C52  1  0.63212000  0.74060000  0.91097000  1.0
  C  C53  1  0.36788000  0.25940000  0.08903000  1.0
  C  C54  1  0.72964000  0.79893000  0.95271000  1.0
  C  C55  1  0.27036000  0.20107000  0.04729000  1.0
  C  C56  1  0.87164000  0.70500000  0.98844000  1.0
  C  C57  1  0.12836000  0.29500000  0.01156000  1.0
  C  C58  1  0.92428000  0.54984000  0.98106000  1.0
  C  C59  1  0.07572000  0.45016000  0.01895000  1.0
  C  C60  1  0.82668000  0.49283000  0.93691000  1.0
  C  C61  1  0.17332000  0.50718000  0.06309000  1.0
  C  C62  1  0.68280000  0.58614000  0.90418000  1.0
  C  C63  1  0.31720000  0.41386000  0.09582000  1.0
  C  C64  1  0.96629000  0.31128000  0.42131000  1.0
  C  C65  1  0.03371000  0.68872000  0.57869000  1.0
  C  C66  1  0.99310000  0.42740000  0.34629000  1.0
  C  C67  1  0.00691000  0.57260000  0.65371000  1.0
  C  C68  1  0.89214000  0.57259000  0.36012000  1.0
  C  C69  1  0.10786000  0.42741000  0.63988000  1.0
  C  C70  1  0.76778000  0.59709000  0.44689000  1.0
  C  C71  1  0.23222000  0.40291000  0.55311000  1.0
  C  C72  1  0.74710000  0.47443000  0.51775000  1.0
  C  C73  1  0.25290000  0.52557000  0.48225000  1.0
  C  C74  1  0.61532000  0.48717000  0.60954000  1.0
  C  C75  1  0.38468000  0.51283000  0.39046000  1.0
  C  C76  1  0.49727000  0.62260000  0.63108000  1.0
  C  C77  1  0.50273000  0.37740000  0.36892000  1.0
  C  C78  1  0.37547000  0.62320000  0.71673000  1.0
  C  C79  1  0.62453000  0.37680000  0.28327000  1.0
  C  C80  1  0.37521000  0.48973000  0.78044000  1.0
  C  C81  1  0.62479000  0.51027000  0.21956000  1.0
  C  C82  1  0.49667000  0.35891000  0.75497000  1.0
  C  C83  1  0.50333000  0.64109000  0.24503000  1.0
  N  N84  1  0.84704000  0.33461000  0.50474000  1.0
  N  N85  1  0.15296000  0.66539000  0.49526000  1.0
  N  N86  1  0.61265000  0.35771000  0.67096000  1.0
  N  N87  1  0.38735000  0.64229000  0.32904000  1.0
  O  O88  1  0.00285000  0.05525000  0.66702000  1.0
  O  O89  1  0.99715000  0.94475000  0.33298000  1.0
  O  O90  1  0.91695000  0.16627000  0.83070000  1.0
  O  O91  1  0.08305000  0.83373000  0.16930000  1.0
  O  O92  1  0.63441000  0.89513000  0.60095000  1.0
  O  O93  1  0.36559000  0.10487000  0.39905000  1.0
  O  O94  1  0.66404000  0.03480000  0.72813000  1.0
  O  O95  1  0.33596000  0.96520000  0.27187000  1.0
  O  O96  1  0.76388000  0.07367000  0.48461000  1.0
  O  O97  1  0.23612000  0.92633000  0.51539000  1.0
