# generated using pymatgen
data_ZnH17C25(NO)5
_symmetry_space_group_name_H-M   'P 1'
_cell_length_a   10.78700000
_cell_length_b   14.58816011
_cell_length_c   21.90140000
_cell_angle_alpha   92.81205376
_cell_angle_beta   90.01080000
_cell_angle_gamma   111.68196872
_symmetry_Int_Tables_number   1
_chemical_formula_structural   ZnH17C25(NO)5
_chemical_formula_sum   'Zn4 H68 C100 N20 O20'
_cell_volume   3198.13864511
_cell_formula_units_Z   4
loop_
 _symmetry_equiv_pos_site_id
 _symmetry_equiv_pos_as_xyz
  1  'x, y, z'
loop_
 _atom_site_type_symbol
 _atom_site_label
 _atom_site_symmetry_multiplicity
 _atom_site_fract_x
 _atom_site_fract_y
 _atom_site_fract_z
 _atom_site_occupancy
  Zn  Zn0  1  0.11531000  0.46361000  0.19877000  1.0
  Zn  Zn1  1  0.65155000  0.53634000  0.30126000  1.0
  Zn  Zn2  1  0.88469000  0.53639000  0.80123000  1.0
  Zn  Zn3  1  0.34845000  0.46366000  0.69874000  1.0
  H  H4  1  0.21029000  0.41906000  0.06567000  1.0
  H  H5  1  0.79127000  0.58113000  0.43420000  1.0
  H  H6  1  0.78971000  0.58094000  0.93433000  1.0
  H  H7  1  0.20872000  0.41886000  0.56580000  1.0
  H  H8  1  0.33988000  0.37631000  0.24046000  1.0
  H  H9  1  0.96360000  0.62366000  0.25941000  1.0
  H  H10  1  0.66012000  0.62369000  0.75954000  1.0
  H  H11  1  0.03641000  0.37634000  0.74059000  1.0
  H  H12  1  0.49414000  0.32831000  0.15408000  1.0
  H  H13  1  0.16578000  0.67178000  0.34584000  1.0
  H  H14  1  0.50586000  0.67169000  0.84592000  1.0
  H  H15  1  0.83421000  0.32822000  0.65416000  1.0
  H  H16  1  0.56972000  0.30469000  0.06855000  1.0
  H  H17  1  0.26495000  0.69544000  0.43146000  1.0
  H  H18  1  0.43028000  0.69531000  0.93145000  1.0
  H  H19  1  0.73505000  0.30456000  0.56854000  1.0
  H  H20  1  0.65633000  0.29133000  0.96418000  1.0
  H  H21  1  0.36486000  0.70877000  0.53586000  1.0
  H  H22  1  0.34366000  0.70867000  0.03582000  1.0
  H  H23  1  0.63514000  0.29123000  0.46414000  1.0
  H  H24  1  0.55753000  0.34230000  0.87481000  1.0
  H  H25  1  0.21508000  0.65774000  0.62518000  1.0
  H  H26  1  0.44247000  0.65770000  0.12519000  1.0
  H  H27  1  0.78493000  0.34226000  0.37482000  1.0
  H  H28  1  0.46279000  0.37877000  0.80451000  1.0
  H  H29  1  0.08385000  0.62139000  0.69548000  1.0
  H  H30  1  0.53721000  0.62123000  0.19549000  1.0
  H  H31  1  0.91616000  0.37861000  0.30452000  1.0
  H  H32  1  0.22556000  0.46812000  0.93194000  1.0
  H  H33  1  0.75742000  0.53154000  0.56793000  1.0
  H  H34  1  0.77444000  0.53188000  0.06806000  1.0
  H  H35  1  0.24258000  0.46846000  0.43207000  1.0
  H  H36  1  0.18186000  0.51822000  0.81495000  1.0
  H  H37  1  0.66360000  0.48184000  0.68496000  1.0
  H  H38  1  0.81814000  0.48178000  0.18504000  1.0
  H  H39  1  0.33640000  0.51817000  0.31504000  1.0
  H  H40  1  0.48068000  0.80925000  0.20125000  1.0
  H  H41  1  0.67125000  0.19082000  0.29886000  1.0
  H  H42  1  0.51932000  0.19075000  0.79875000  1.0
  H  H43  1  0.32876000  0.80919000  0.70114000  1.0
  H  H44  1  0.55281000  0.97454000  0.15740000  1.0
  H  H45  1  0.57809000  0.02541000  0.34258000  1.0
  H  H46  1  0.44719000  0.02546000  0.84260000  1.0
  H  H47  1  0.42191000  0.97459000  0.65742000  1.0
  H  H48  1  0.16032000  0.89794000  0.07678000  1.0
  H  H49  1  0.26218000  0.10203000  0.42314000  1.0
  H  H50  1  0.83968000  0.10206000  0.92322000  1.0
  H  H51  1  0.73781000  0.89797000  0.57687000  1.0
  H  H52  1  0.08932000  0.73139000  0.12146000  1.0
  H  H53  1  0.35756000  0.26861000  0.37847000  1.0
  H  H54  1  0.91068000  0.26861000  0.87854000  1.0
  H  H55  1  0.64244000  0.73139000  0.62153000  1.0
  H  H56  1  0.58861000  0.08105000  0.00711000  1.0
  H  H57  1  0.50720000  0.91888000  0.49295000  1.0
  H  H58  1  0.41139000  0.91895000  0.99289000  1.0
  H  H59  1  0.49280000  0.08112000  0.50705000  1.0
  H  H60  1  0.81172000  0.21921000  0.02429000  1.0
  H  H61  1  0.59209000  0.78064000  0.47574000  1.0
  H  H62  1  0.18828000  0.78079000  0.97571000  1.0
  H  H63  1  0.40791000  0.21936000  0.52426000  1.0
  H  H64  1  0.69781000  0.27863000  0.20537000  1.0
  H  H65  1  0.41903000  0.72152000  0.29460000  1.0
  H  H66  1  0.30219000  0.72137000  0.79463000  1.0
  H  H67  1  0.58097000  0.27848000  0.70540000  1.0
  H  H68  1  0.47330000  0.14295000  0.18796000  1.0
  H  H69  1  0.33020000  0.85727000  0.31205000  1.0
  H  H70  1  0.52670000  0.85705000  0.81204000  1.0
  H  H71  1  0.66980000  0.14273000  0.68795000  1.0
  C  C72  1  0.26706000  0.40335000  0.10165000  1.0
  C  C73  1  0.86375000  0.59677000  0.39823000  1.0
  C  C74  1  0.73294000  0.59665000  0.89835000  1.0
  C  C75  1  0.13624000  0.40322000  0.60177000  1.0
  C  C76  1  0.33533000  0.37811000  0.19110000  1.0
  C  C77  1  0.95721000  0.62187000  0.30878000  1.0
  C  C78  1  0.66467000  0.62189000  0.80890000  1.0
  C  C79  1  0.04279000  0.37813000  0.69122000  1.0
  C  C80  1  0.41288000  0.35396000  0.14880000  1.0
  C  C81  1  0.05890000  0.64610000  0.35112000  1.0
  C  C82  1  0.58712000  0.64604000  0.85120000  1.0
  C  C83  1  0.94110000  0.35390000  0.64888000  1.0
  C  C84  1  0.42314000  0.36026000  0.03418000  1.0
  C  C85  1  0.06283000  0.63987000  0.46577000  1.0
  C  C86  1  0.57686000  0.63974000  0.96582000  1.0
  C  C87  1  0.93717000  0.36013000  0.53423000  1.0
  C  C88  1  0.52715000  0.32544000  0.02902000  1.0
  C  C89  1  0.20162000  0.67472000  0.47097000  1.0
  C  C90  1  0.47286000  0.67457000  0.97098000  1.0
  C  C91  1  0.79838000  0.32528000  0.52903000  1.0
  C  C92  1  0.57527000  0.31819000  0.97065000  1.0
  C  C93  1  0.25696000  0.68194000  0.52936000  1.0
  C  C94  1  0.42473000  0.68181000  0.02935000  1.0
  C  C95  1  0.74304000  0.31806000  0.47064000  1.0
  C  C96  1  0.52021000  0.34573000  0.92067000  1.0
  C  C97  1  0.17434000  0.65437000  0.57931000  1.0
  C  C98  1  0.47980000  0.65428000  0.07933000  1.0
  C  C99  1  0.82566000  0.34563000  0.42068000  1.0
  C  C100  1  0.41696000  0.38005000  0.93196000  1.0
  C  C101  1  0.03680000  0.61996000  0.56798000  1.0
  C  C102  1  0.58304000  0.61995000  0.06804000  1.0
  C  C103  1  0.96321000  0.38004000  0.43202000  1.0
  C  C104  1  0.39064000  0.40838000  0.82271000  1.0
  C  C105  1  0.98213000  0.59171000  0.67724000  1.0
  C  C106  1  0.60936000  0.59162000  0.17729000  1.0
  C  C107  1  0.01788000  0.40830000  0.32276000  1.0
  C  C108  1  0.26630000  0.45743000  0.88826000  1.0
  C  C109  1  0.80880000  0.54238000  0.61165000  1.0
  C  C110  1  0.73371000  0.54258000  0.11174000  1.0
  C  C111  1  0.19120000  0.45762000  0.38835000  1.0
  C  C112  1  0.24527000  0.48052000  0.83027000  1.0
  C  C113  1  0.76468000  0.51948000  0.66965000  1.0
  C  C114  1  0.75473000  0.51948000  0.16973000  1.0
  C  C115  1  0.23532000  0.48052000  0.33036000  1.0
  C  C116  1  0.24567000  0.65807000  0.18644000  1.0
  C  C117  1  0.58728000  0.34195000  0.31363000  1.0
  C  C118  1  0.75433000  0.34193000  0.81356000  1.0
  C  C119  1  0.41272000  0.65805000  0.68637000  1.0
  C  C120  1  0.28074000  0.75973000  0.16424000  1.0
  C  C121  1  0.52072000  0.24028000  0.33577000  1.0
  C  C122  1  0.71926000  0.24027000  0.83575000  1.0
  C  C123  1  0.47928000  0.75972000  0.66423000  1.0
  C  C124  1  0.41042000  0.82934000  0.17435000  1.0
  C  C125  1  0.58087000  0.17065000  0.32568000  1.0
  C  C126  1  0.58957000  0.17066000  0.82565000  1.0
  C  C127  1  0.41913000  0.82935000  0.67432000  1.0
  C  C128  1  0.45119000  0.92177000  0.14979000  1.0
  C  C129  1  0.52915000  0.07816000  0.35017000  1.0
  C  C130  1  0.54881000  0.07823000  0.85021000  1.0
  C  C131  1  0.47085000  0.92184000  0.64983000  1.0
  C  C132  1  0.36024000  0.94524000  0.11416000  1.0
  C  C133  1  0.41475000  0.05472000  0.38576000  1.0
  C  C134  1  0.63976000  0.05476000  0.88584000  1.0
  C  C135  1  0.58525000  0.94528000  0.61424000  1.0
  C  C136  1  0.22910000  0.87756000  0.10456000  1.0
  C  C137  1  0.35125000  0.12242000  0.39535000  1.0
  C  C138  1  0.77090000  0.12244000  0.89544000  1.0
  C  C139  1  0.64875000  0.87758000  0.60466000  1.0
  C  C140  1  0.19007000  0.78549000  0.12951000  1.0
  C  C141  1  0.40425000  0.21449000  0.37042000  1.0
  C  C142  1  0.80993000  0.21451000  0.87049000  1.0
  C  C143  1  0.59575000  0.78551000  0.62959000  1.0
  C  C144  1  0.51995000  0.10512000  0.09660000  1.0
  C  C145  1  0.41452000  0.89490000  0.40344000  1.0
  C  C146  1  0.48005000  0.89488000  0.90340000  1.0
  C  C147  1  0.58548000  0.10510000  0.59656000  1.0
  C  C148  1  0.61351000  0.12470000  0.05027000  1.0
  C  C149  1  0.48843000  0.87525000  0.44979000  1.0
  C  C150  1  0.38649000  0.87530000  0.94973000  1.0
  C  C151  1  0.51157000  0.12475000  0.55021000  1.0
  C  C152  1  0.73728000  0.20092000  0.05999000  1.0
  C  C153  1  0.53593000  0.79896000  0.44006000  1.0
  C  C154  1  0.26272000  0.79908000  0.94001000  1.0
  C  C155  1  0.46407000  0.20104000  0.55994000  1.0
  C  C156  1  0.76825000  0.25619000  0.11581000  1.0
  C  C157  1  0.51171000  0.74376000  0.38420000  1.0
  C  C158  1  0.23175000  0.74381000  0.88419000  1.0
  C  C159  1  0.48829000  0.25624000  0.61580000  1.0
  C  C160  1  0.67319000  0.23480000  0.16210000  1.0
  C  C161  1  0.43817000  0.76525000  0.33789000  1.0
  C  C162  1  0.32681000  0.76520000  0.83790000  1.0
  C  C163  1  0.56183000  0.23475000  0.66211000  1.0
  C  C164  1  0.54836000  0.15967000  0.15251000  1.0
  C  C165  1  0.38846000  0.84041000  0.34750000  1.0
  C  C166  1  0.45164000  0.84033000  0.84749000  1.0
  C  C167  1  0.61154000  0.15959000  0.65250000  1.0
  C  C168  1  0.90301000  0.33770000  0.12558000  1.0
  C  C169  1  0.56510000  0.66230000  0.37443000  1.0
  C  C170  1  0.09700000  0.66230000  0.87442000  1.0
  C  C171  1  0.43490000  0.33770000  0.62557000  1.0
  N  N172  1  0.24525000  0.40862000  0.16103000  1.0
  N  N173  1  0.83664000  0.59140000  0.33884000  1.0
  N  N174  1  0.75475000  0.59138000  0.83897000  1.0
  N  N175  1  0.16336000  0.40860000  0.66116000  1.0
  N  N176  1  0.36942000  0.37072000  0.09205000  1.0
  N  N177  1  0.99867000  0.62943000  0.40786000  1.0
  N  N178  1  0.63058000  0.62928000  0.90795000  1.0
  N  N179  1  0.00132000  0.37057000  0.59214000  1.0
  N  N180  1  0.36837000  0.38736000  0.98705000  1.0
  N  N181  1  0.98093000  0.61268000  0.51287000  1.0
  N  N182  1  0.63163000  0.61264000  0.01295000  1.0
  N  N183  1  0.01907000  0.38732000  0.48713000  1.0
  N  N184  1  0.35914000  0.41200000  0.88307000  1.0
  N  N185  1  0.94705000  0.58789000  0.61686000  1.0
  N  N186  1  0.64087000  0.58801000  0.11693000  1.0
  N  N187  1  0.05295000  0.41211000  0.38314000  1.0
  N  N188  1  0.32294000  0.44920000  0.79017000  1.0
  N  N189  1  0.87363000  0.55095000  0.70978000  1.0
  N  N190  1  0.67706000  0.55080000  0.20983000  1.0
  N  N191  1  0.12637000  0.44905000  0.29022000  1.0
  O  O192  1  0.33522000  0.63390000  0.21004000  1.0
  O  O193  1  0.70089000  0.36611000  0.28999000  1.0
  O  O194  1  0.66478000  0.36610000  0.78996000  1.0
  O  O195  1  0.29910000  0.63389000  0.71001000  1.0
  O  O196  1  0.12346000  0.59714000  0.17800000  1.0
  O  O197  1  0.52598000  0.40291000  0.32213000  1.0
  O  O198  1  0.87654000  0.40286000  0.82200000  1.0
  O  O199  1  0.47402000  0.59709000  0.67787000  1.0
  O  O200  1  0.39375000  0.03237000  0.08487000  1.0
  O  O201  1  0.36112000  0.96768000  0.41514000  1.0
  O  O202  1  0.60625000  0.96763000  0.91513000  1.0
  O  O203  1  0.63888000  0.03232000  0.58486000  1.0
  O  O204  1  0.92986000  0.37232000  0.18207000  1.0
  O  O205  1  0.55759000  0.62781000  0.31792000  1.0
  O  O206  1  0.07014000  0.62768000  0.81793000  1.0
  O  O207  1  0.44241000  0.37219000  0.68209000  1.0
  O  O208  1  0.97847000  0.36651000  0.08155000  1.0
  O  O209  1  0.61170000  0.63342000  0.41846000  1.0
  O  O210  1  0.02154000  0.63349000  0.91845000  1.0
  O  O211  1  0.38830000  0.36658000  0.58154000  1.0
