# generated using pymatgen
data_HgH20C24N6Cl2O3
_symmetry_space_group_name_H-M   'P 1'
_cell_length_a   11.00000000
_cell_length_b   11.08480000
_cell_length_c   28.12350000
_cell_angle_alpha   89.99950000
_cell_angle_beta   89.99940000
_cell_angle_gamma   78.43400000
_symmetry_Int_Tables_number   1
_chemical_formula_structural   HgH20C24N6Cl2O3
_chemical_formula_sum   'Hg4 H80 C96 N24 Cl8 O12'
_cell_volume   3359.54559912
_cell_formula_units_Z   4
loop_
 _symmetry_equiv_pos_site_id
 _symmetry_equiv_pos_as_xyz
  1  'x, y, z'
loop_
 _atom_site_type_symbol
 _atom_site_label
 _atom_site_symmetry_multiplicity
 _atom_site_fract_x
 _atom_site_fract_y
 _atom_site_fract_z
 _atom_site_occupancy
  Hg  Hg0  1  0.32669000  0.76643000  0.44910000  1.0
  Hg  Hg1  1  0.17329000  0.73359000  0.94910000  1.0
  Hg  Hg2  1  0.67329000  0.23357000  0.55090000  1.0
  Hg  Hg3  1  0.82671000  0.26641000  0.05090000  1.0
  H  H4  1  0.96651000  0.18756000  0.69991000  1.0
  H  H5  1  0.53348000  0.31245000  0.19991000  1.0
  H  H6  1  0.03347000  0.81242000  0.30009000  1.0
  H  H7  1  0.46654000  0.68758000  0.80008000  1.0
  H  H8  1  0.75222000  0.38692000  0.69808000  1.0
  H  H9  1  0.74777000  0.11308000  0.19809000  1.0
  H  H10  1  0.24779000  0.61309000  0.30193000  1.0
  H  H11  1  0.25223000  0.88691000  0.80193000  1.0
  H  H12  1  0.98625000  0.10788000  0.63267000  1.0
  H  H13  1  0.51373000  0.39214000  0.13266000  1.0
  H  H14  1  0.01372000  0.89210000  0.36734000  1.0
  H  H15  1  0.48629000  0.60789000  0.86733000  1.0
  H  H16  1  0.71115000  0.45497000  0.62952000  1.0
  H  H17  1  0.78885000  0.04506000  0.12953000  1.0
  H  H18  1  0.28886000  0.54505000  0.37048000  1.0
  H  H19  1  0.21114000  0.95494000  0.87048000  1.0
  H  H20  1  0.32218000  0.04710000  0.60499000  1.0
  H  H21  1  0.17781000  0.45289000  0.10498000  1.0
  H  H22  1  0.67780000  0.95290000  0.39501000  1.0
  H  H23  1  0.82221000  0.54708000  0.89500000  1.0
  H  H24  1  0.39976000  0.93579000  0.53113000  1.0
  H  H25  1  0.10022000  0.56419000  0.03112000  1.0
  H  H26  1  0.60020000  0.06419000  0.46886000  1.0
  H  H27  1  0.89981000  0.43578000  0.96885000  1.0
  H  H28  1  0.96119000  0.96762000  0.57290000  1.0
  H  H29  1  0.53878000  0.53242000  0.07290000  1.0
  H  H30  1  0.03878000  0.03236000  0.42710000  1.0
  H  H31  1  0.46123000  0.46764000  0.92710000  1.0
  H  H32  1  0.36908000  0.50638000  0.61656000  1.0
  H  H33  1  0.13092000  0.99363000  0.11657000  1.0
  H  H34  1  0.63093000  0.49365000  0.38344000  1.0
  H  H35  1  0.86907000  0.00635000  0.88343000  1.0
  H  H36  1  0.84238000  0.19837000  0.83993000  1.0
  H  H37  1  0.65762000  0.30163000  0.33994000  1.0
  H  H38  1  0.15761000  0.80162000  0.16008000  1.0
  H  H39  1  0.34240000  0.69838000  0.66007000  1.0
  H  H40  1  0.26926000  0.60574000  0.54297000  1.0
  H  H41  1  0.23074000  0.89426000  0.04299000  1.0
  H  H42  1  0.73075000  0.39429000  0.45703000  1.0
  H  H43  1  0.76926000  0.10570000  0.95703000  1.0
  H  H44  1  0.45066000  0.39663000  0.75935000  1.0
  H  H45  1  0.04933000  0.10336000  0.25936000  1.0
  H  H46  1  0.54934000  0.60339000  0.24065000  1.0
  H  H47  1  0.95068000  0.89660000  0.74065000  1.0
  H  H48  1  0.12798000  0.35393000  0.87711000  1.0
  H  H49  1  0.37200000  0.14610000  0.37712000  1.0
  H  H50  1  0.87204000  0.64600000  0.12289000  1.0
  H  H51  1  0.62798000  0.85397000  0.62288000  1.0
  H  H52  1  0.05548000  0.85512000  0.50073000  1.0
  H  H53  1  0.44449000  0.64491000  0.00072000  1.0
  H  H54  1  0.94448000  0.14485000  0.49928000  1.0
  H  H55  1  0.55552000  0.35513000  0.99927000  1.0
  H  H56  1  0.91955000  0.39526000  0.83820000  1.0
  H  H57  1  0.58044000  0.10477000  0.33820000  1.0
  H  H58  1  0.08047000  0.60470000  0.16181000  1.0
  H  H59  1  0.41955000  0.89529000  0.66180000  1.0
  H  H60  1  0.71610000  0.58120000  0.56397000  1.0
  H  H61  1  0.78388000  0.91884000  0.06397000  1.0
  H  H62  1  0.28390000  0.41882000  0.43603000  1.0
  H  H63  1  0.21611000  0.08117000  0.93603000  1.0
  H  H64  1  0.27987000  0.13543000  0.75557000  1.0
  H  H65  1  0.22013000  0.36458000  0.25557000  1.0
  H  H66  1  0.72012000  0.86454000  0.24442000  1.0
  H  H67  1  0.77989000  0.63545000  0.74441000  1.0
  H  H68  1  0.44405000  0.31108000  0.84068000  1.0
  H  H69  1  0.05595000  0.18891000  0.34069000  1.0
  H  H70  1  0.55594000  0.68895000  0.15932000  1.0
  H  H71  1  0.94407000  0.81104000  0.65932000  1.0
  H  H72  1  0.64005000  0.20689000  0.88072000  1.0
  H  H73  1  0.85995000  0.29310000  0.38072000  1.0
  H  H74  1  0.35993000  0.79313000  0.11929000  1.0
  H  H75  1  0.14008000  0.70687000  0.61929000  1.0
  H  H76  1  0.30703000  0.21826000  0.83594000  1.0
  H  H77  1  0.19295000  0.28177000  0.33594000  1.0
  H  H78  1  0.69298000  0.78169000  0.16406000  1.0
  H  H79  1  0.80704000  0.71829000  0.66405000  1.0
  H  H80  1  0.60088000  0.67819000  0.49237000  1.0
  H  H81  1  0.89911000  0.82184000  0.99237000  1.0
  H  H82  1  0.39912000  0.32182000  0.50763000  1.0
  H  H83  1  0.10088000  0.17816000  0.00763000  1.0
  C  C84  1  0.13427000  0.01671000  0.59520000  1.0
  C  C85  1  0.36571000  0.48330000  0.09519000  1.0
  C  C86  1  0.86570000  0.98328000  0.40480000  1.0
  C  C87  1  0.63431000  0.51671000  0.90480000  1.0
  C  C88  1  0.14088000  0.10630000  0.67566000  1.0
  C  C89  1  0.35911000  0.39370000  0.17566000  1.0
  C  C90  1  0.85911000  0.89369000  0.32434000  1.0
  C  C91  1  0.64090000  0.60631000  0.82433000  1.0
  C  C92  1  0.08413000  0.21139000  0.75307000  1.0
  C  C93  1  0.41586000  0.28861000  0.25306000  1.0
  C  C94  1  0.91586000  0.78859000  0.24693000  1.0
  C  C95  1  0.58416000  0.71141000  0.74693000  1.0
  C  C96  1  0.26023000  0.00549000  0.58319000  1.0
  C  C97  1  0.23976000  0.49450000  0.08319000  1.0
  C  C98  1  0.73975000  0.99450000  0.41680000  1.0
  C  C99  1  0.76026000  0.50548000  0.91680000  1.0
  C  C100  1  0.30319000  0.94338000  0.54189000  1.0
  C  C101  1  0.19679000  0.55661000  0.04189000  1.0
  C  C102  1  0.69678000  0.05660000  0.45810000  1.0
  C  C103  1  0.80323000  0.44337000  0.95810000  1.0
  C  C104  1  0.05906000  0.96209000  0.56477000  1.0
  C  C105  1  0.44092000  0.53793000  0.06476000  1.0
  C  C106  1  0.94091000  0.03788000  0.43524000  1.0
  C  C107  1  0.55909000  0.46211000  0.93523000  1.0
  C  C108  1  0.57002000  0.45286000  0.67880000  1.0
  C  C109  1  0.92997000  0.04715000  0.17881000  1.0
  C  C110  1  0.42999000  0.54715000  0.32120000  1.0
  C  C111  1  0.07002000  0.95285000  0.82120000  1.0
  C  C112  1  0.75983000  0.29765000  0.77884000  1.0
  C  C113  1  0.74016000  0.20235000  0.27884000  1.0
  C  C114  1  0.24016000  0.70235000  0.22117000  1.0
  C  C115  1  0.25985000  0.79764000  0.72116000  1.0
  C  C116  1  0.55150000  0.53691000  0.59666000  1.0
  C  C117  1  0.94849000  0.96311000  0.09666000  1.0
  C  C118  1  0.44851000  0.46311000  0.40334000  1.0
  C  C119  1  0.05150000  0.03688000  0.90334000  1.0
  C  C120  1  0.98281000  0.28211000  0.77781000  1.0
  C  C121  1  0.51719000  0.21790000  0.27781000  1.0
  C  C122  1  0.01720000  0.71787000  0.22219000  1.0
  C  C123  1  0.48282000  0.78213000  0.72219000  1.0
  C  C124  1  0.42307000  0.54444000  0.59022000  1.0
  C  C125  1  0.07693000  0.95557000  0.09023000  1.0
  C  C126  1  0.57694000  0.45559000  0.40978000  1.0
  C  C127  1  0.92306000  0.04441000  0.90978000  1.0
  C  C128  1  0.75631000  0.24362000  0.82321000  1.0
  C  C129  1  0.74368000  0.25637000  0.32322000  1.0
  C  C130  1  0.24367000  0.75637000  0.17679000  1.0
  C  C131  1  0.25634000  0.74363000  0.67678000  1.0
  C  C132  1  0.36835000  0.59939000  0.54914000  1.0
  C  C133  1  0.13164000  0.90062000  0.04915000  1.0
  C  C134  1  0.63166000  0.40063000  0.45086000  1.0
  C  C135  1  0.86835000  0.09936000  0.95086000  1.0
  C  C136  1  0.64956000  0.35102000  0.75468000  1.0
  C  C137  1  0.85044000  0.14898000  0.25469000  1.0
  C  C138  1  0.35044000  0.64898000  0.24532000  1.0
  C  C139  1  0.14958000  0.85101000  0.74532000  1.0
  C  C140  1  0.53563000  0.35456000  0.77758000  1.0
  C  C141  1  0.96437000  0.14543000  0.27759000  1.0
  C  C142  1  0.46437000  0.64545000  0.22242000  1.0
  C  C143  1  0.03565000  0.85454000  0.72242000  1.0
  C  C144  1  0.11572000  0.31270000  0.84270000  1.0
  C  C145  1  0.38426000  0.18733000  0.34270000  1.0
  C  C146  1  0.88429000  0.68726000  0.15730000  1.0
  C  C147  1  0.61573000  0.81272000  0.65729000  1.0
  C  C148  1  0.11085000  0.89981000  0.52468000  1.0
  C  C149  1  0.38913000  0.60020000  0.02468000  1.0
  C  C150  1  0.88912000  0.10016000  0.47532000  1.0
  C  C151  1  0.61088000  0.39982000  0.97532000  1.0
  C  C152  1  0.99860000  0.33563000  0.82149000  1.0
  C  C153  1  0.50139000  0.16439000  0.32149000  1.0
  C  C154  1  0.00142000  0.66433000  0.17851000  1.0
  C  C155  1  0.49860000  0.83566000  0.67851000  1.0
  C  C156  1  0.61658000  0.58561000  0.56059000  1.0
  C  C157  1  0.88341000  0.91442000  0.06059000  1.0
  C  C158  1  0.38342000  0.41442000  0.43941000  1.0
  C  C159  1  0.11658000  0.08558000  0.93941000  1.0
  C  C160  1  0.20159000  0.18976000  0.77453000  1.0
  C  C161  1  0.29840000  0.31025000  0.27452000  1.0
  C  C162  1  0.79841000  0.81020000  0.22547000  1.0
  C  C163  1  0.70161000  0.68978000  0.72546000  1.0
  C  C164  1  0.53320000  0.30474000  0.82303000  1.0
  C  C165  1  0.96680000  0.19525000  0.32304000  1.0
  C  C166  1  0.46679000  0.69527000  0.17697000  1.0
  C  C167  1  0.03322000  0.80472000  0.67697000  1.0
  C  C168  1  0.64246000  0.24752000  0.84553000  1.0
  C  C169  1  0.85753000  0.25247000  0.34554000  1.0
  C  C170  1  0.35753000  0.75249000  0.15447000  1.0
  C  C171  1  0.14249000  0.74751000  0.65447000  1.0
  C  C172  1  0.21558000  0.23842000  0.81947000  1.0
  C  C173  1  0.28441000  0.26161000  0.31947000  1.0
  C  C174  1  0.78443000  0.76153000  0.18052000  1.0
  C  C175  1  0.71558000  0.73844000  0.68052000  1.0
  C  C176  1  0.55345000  0.63880000  0.52081000  1.0
  C  C177  1  0.94655000  0.86123000  0.02081000  1.0
  C  C178  1  0.44655000  0.36122000  0.47919000  1.0
  C  C179  1  0.05345000  0.13877000  0.97919000  1.0
  N  N180  1  0.05820000  0.16790000  0.70836000  1.0
  N  N181  1  0.44179000  0.33210000  0.20835000  1.0
  N  N182  1  0.94179000  0.83208000  0.29164000  1.0
  N  N183  1  0.55823000  0.66791000  0.79164000  1.0
  N  N184  1  0.66271000  0.39593000  0.70888000  1.0
  N  N185  1  0.83728000  0.10408000  0.20889000  1.0
  N  N186  1  0.33729000  0.60408000  0.29112000  1.0
  N  N187  1  0.16272000  0.89591000  0.79112000  1.0
  N  N188  1  0.08015000  0.07963000  0.63448000  1.0
  N  N189  1  0.41984000  0.42038000  0.13447000  1.0
  N  N190  1  0.91983000  0.92036000  0.36552000  1.0
  N  N191  1  0.58018000  0.57963000  0.86552000  1.0
  N  N192  1  0.23083000  0.89115000  0.51288000  1.0
  N  N193  1  0.26915000  0.60885000  0.01287000  1.0
  N  N194  1  0.76913000  0.10883000  0.48712000  1.0
  N  N195  1  0.73087000  0.39114000  0.98711000  1.0
  N  N196  1  0.61789000  0.48205000  0.63519000  1.0
  N  N197  1  0.88210000  0.01798000  0.13519000  1.0
  N  N198  1  0.38212000  0.51798000  0.36481000  1.0
  N  N199  1  0.11789000  0.98202000  0.86481000  1.0
  N  N200  1  0.43080000  0.64597000  0.51480000  1.0
  N  N201  1  0.06920000  0.85404000  0.01481000  1.0
  N  N202  1  0.56921000  0.35405000  0.48520000  1.0
  N  N203  1  0.93080000  0.14594000  0.98520000  1.0
  Cl  Cl204  1  0.50475000  0.83434000  0.41690000  1.0
  Cl  Cl205  1  0.99523000  0.66569000  0.91690000  1.0
  Cl  Cl206  1  0.49522000  0.16566000  0.58309000  1.0
  Cl  Cl207  1  0.00476000  0.33433000  0.08309000  1.0
  Cl  Cl208  1  0.14467000  0.70586000  0.41105000  1.0
  Cl  Cl209  1  0.35532000  0.79414000  0.91105000  1.0
  Cl  Cl210  1  0.85531000  0.29413000  0.58894000  1.0
  Cl  Cl211  1  0.64468000  0.20587000  0.08894000  1.0
  O  O212  1  0.86918000  0.29933000  0.75410000  1.0
  O  O213  1  0.63082000  0.20068000  0.25411000  1.0
  O  O214  1  0.13082000  0.70065000  0.24590000  1.0
  O  O215  1  0.36920000  0.79935000  0.74590000  1.0
  O  O216  1  0.25373000  0.07623000  0.68158000  1.0
  O  O217  1  0.24626000  0.42375000  0.18157000  1.0
  O  O218  1  0.74626000  0.92377000  0.31842000  1.0
  O  O219  1  0.75375000  0.57623000  0.81842000  1.0
  O  O220  1  0.45879000  0.47766000  0.68869000  1.0
  O  O221  1  0.04120000  0.02235000  0.18870000  1.0
  O  O222  1  0.54122000  0.52235000  0.31131000  1.0
  O  O223  1  0.95880000  0.97765000  0.81131000  1.0
