# generated using pymatgen
data_ZnH6C8(NO)4
_symmetry_space_group_name_H-M   'P 1'
_cell_length_a   7.31737000
_cell_length_b   7.44326000
_cell_length_c   18.43180000
_cell_angle_alpha   89.99950000
_cell_angle_beta   89.99940000
_cell_angle_gamma   89.99980000
_symmetry_Int_Tables_number   1
_chemical_formula_structural   ZnH6C8(NO)4
_chemical_formula_sum   'Zn4 H24 C32 N16 O16'
_cell_volume   1003.88959832
_cell_formula_units_Z   4
loop_
 _symmetry_equiv_pos_site_id
 _symmetry_equiv_pos_as_xyz
  1  'x, y, z'
loop_
 _atom_site_type_symbol
 _atom_site_label
 _atom_site_symmetry_multiplicity
 _atom_site_fract_x
 _atom_site_fract_y
 _atom_site_fract_z
 _atom_site_occupancy
  Zn  Zn0  1  0.00000000  0.50000000  0.50000000  1.0
  Zn  Zn1  1  0.00000000  0.00000000  0.00000000  1.0
  Zn  Zn2  1  0.50000000  0.50000000  0.50000000  1.0
  Zn  Zn3  1  0.50000000  0.00000000  0.00000000  1.0
  H  H4  1  0.04457000  0.47803000  0.27155000  1.0
  H  H5  1  0.95543000  0.02197000  0.77155000  1.0
  H  H6  1  0.54457000  0.52197000  0.72845000  1.0
  H  H7  1  0.45543000  0.97802000  0.22845000  1.0
  H  H8  1  0.95543000  0.52197000  0.72845000  1.0
  H  H9  1  0.04457000  0.97802000  0.22845000  1.0
  H  H10  1  0.45543000  0.47803000  0.27155000  1.0
  H  H11  1  0.54457000  0.02197000  0.77155000  1.0
  H  H12  1  0.03393000  0.51772000  0.13555000  1.0
  H  H13  1  0.96607000  0.98228000  0.63555000  1.0
  H  H14  1  0.53394000  0.48228000  0.86445000  1.0
  H  H15  1  0.46606000  0.01772000  0.36445000  1.0
  H  H16  1  0.96607000  0.48228000  0.86445000  1.0
  H  H17  1  0.03393000  0.01772000  0.36445000  1.0
  H  H18  1  0.46606000  0.51772000  0.13555000  1.0
  H  H19  1  0.53393000  0.98227000  0.63555000  1.0
  H  H20  1  0.62698000  0.60580000  0.03619000  1.0
  H  H21  1  0.37302000  0.89420000  0.53619000  1.0
  H  H22  1  0.12698000  0.39420000  0.96381000  1.0
  H  H23  1  0.87302000  0.10580000  0.46381000  1.0
  H  H24  1  0.37302000  0.39421000  0.96381000  1.0
  H  H25  1  0.62698000  0.10580000  0.46381000  1.0
  H  H26  1  0.87301000  0.60580000  0.03619000  1.0
  H  H27  1  0.12698000  0.89420000  0.53619000  1.0
  C  C28  1  0.74999000  0.45038000  0.36320000  1.0
  C  C29  1  0.24999000  0.04962000  0.86320000  1.0
  C  C30  1  0.25001000  0.54963000  0.63680000  1.0
  C  C31  1  0.75001000  0.95038000  0.13680000  1.0
  C  C32  1  0.75000000  0.47347000  0.28131000  1.0
  C  C33  1  0.25000000  0.02653000  0.78131000  1.0
  C  C34  1  0.25000000  0.52653000  0.71869000  1.0
  C  C35  1  0.74999000  0.97347000  0.21869000  1.0
  C  C36  1  0.91470000  0.48586000  0.24306000  1.0
  C  C37  1  0.08530000  0.01414000  0.74306000  1.0
  C  C38  1  0.41470000  0.51414000  0.75694000  1.0
  C  C39  1  0.58530000  0.98586000  0.25694000  1.0
  C  C40  1  0.08531000  0.51414000  0.75694000  1.0
  C  C41  1  0.91470000  0.98586000  0.25694000  1.0
  C  C42  1  0.58530000  0.48586000  0.24306000  1.0
  C  C43  1  0.41470000  0.01414000  0.74306000  1.0
  C  C44  1  0.91152000  0.50956000  0.16871000  1.0
  C  C45  1  0.08848000  0.99045000  0.66871000  1.0
  C  C46  1  0.41152000  0.49045000  0.83129000  1.0
  C  C47  1  0.58848000  0.00955000  0.33129000  1.0
  C  C48  1  0.08848000  0.49044000  0.83129000  1.0
  C  C49  1  0.91152000  0.00955000  0.33129000  1.0
  C  C50  1  0.58848000  0.50956000  0.16871000  1.0
  C  C51  1  0.41152000  0.99044000  0.66871000  1.0
  C  C52  1  0.75000000  0.53376000  0.05333000  1.0
  C  C53  1  0.25000000  0.96624000  0.55333000  1.0
  C  C54  1  0.25000000  0.46624000  0.94667000  1.0
  C  C55  1  0.75000000  0.03376000  0.44667000  1.0
  C  C56  1  0.75001000  0.33953000  0.02382000  1.0
  C  C57  1  0.25000000  0.16047000  0.52382000  1.0
  C  C58  1  0.24999000  0.66048000  0.97618000  1.0
  C  C59  1  0.74999000  0.83953000  0.47618000  1.0
  N  N60  1  0.75000000  0.41968000  0.54750000  1.0
  N  N61  1  0.25000000  0.08030000  0.04749000  1.0
  N  N62  1  0.25000000  0.58031000  0.45250000  1.0
  N  N63  1  0.75000000  0.91970000  0.95250000  1.0
  N  N64  1  0.75000000  0.33674000  0.60363000  1.0
  N  N65  1  0.25000000  0.16324000  0.10362000  1.0
  N  N66  1  0.25000000  0.66325000  0.39637000  1.0
  N  N67  1  0.75000000  0.83675000  0.89638000  1.0
  N  N68  1  0.75000000  0.25599000  0.65788000  1.0
  N  N69  1  0.25000000  0.24400000  0.15787000  1.0
  N  N70  1  0.25000000  0.74399000  0.34212000  1.0
  N  N71  1  0.75000000  0.75600000  0.84213000  1.0
  N  N72  1  0.75000000  0.52102000  0.13293000  1.0
  N  N73  1  0.25000000  0.97898000  0.63293000  1.0
  N  N74  1  0.25000000  0.47898000  0.86707000  1.0
  N  N75  1  0.75000000  0.02102000  0.36707000  1.0
  O  O76  1  0.90614000  0.44141000  0.39263000  1.0
  O  O77  1  0.09387000  0.05859000  0.89263000  1.0
  O  O78  1  0.40614000  0.55860000  0.60737000  1.0
  O  O79  1  0.59386000  0.94141000  0.10737000  1.0
  O  O80  1  0.09386000  0.55858000  0.60737000  1.0
  O  O81  1  0.90613000  0.94141000  0.10737000  1.0
  O  O82  1  0.59386000  0.44141000  0.39263000  1.0
  O  O83  1  0.40615000  0.05859000  0.89263000  1.0
  O  O84  1  0.90582000  0.26975000  0.01468000  1.0
  O  O85  1  0.09417000  0.23025000  0.51467000  1.0
  O  O86  1  0.40582000  0.73026000  0.98532000  1.0
  O  O87  1  0.59418000  0.76975000  0.48532000  1.0
  O  O88  1  0.09418000  0.73025000  0.98533000  1.0
  O  O89  1  0.90582000  0.76975000  0.48532000  1.0
  O  O90  1  0.59417000  0.26975000  0.01467000  1.0
  O  O91  1  0.40582000  0.23025000  0.51468000  1.0
