# generated using pymatgen
data_ZnH6C9NO4
_symmetry_space_group_name_H-M   'P 1'
_cell_length_a   8.97959000
_cell_length_b   8.97966000
_cell_length_c   13.92020000
_cell_angle_alpha   74.28410000
_cell_angle_beta   74.28320000
_cell_angle_gamma   81.49490000
_symmetry_Int_Tables_number   1
_chemical_formula_structural   ZnH6C9NO4
_chemical_formula_sum   'Zn4 H24 C36 N4 O16'
_cell_volume   1036.71062227
_cell_formula_units_Z   4
loop_
 _symmetry_equiv_pos_site_id
 _symmetry_equiv_pos_as_xyz
  1  'x, y, z'
loop_
 _atom_site_type_symbol
 _atom_site_label
 _atom_site_symmetry_multiplicity
 _atom_site_fract_x
 _atom_site_fract_y
 _atom_site_fract_z
 _atom_site_occupancy
  Zn  Zn0  1  0.23289000  0.23289000  0.41188000  1.0
  Zn  Zn1  1  0.28705000  0.28703000  0.19111000  1.0
  Zn  Zn2  1  0.76712000  0.76711000  0.58812000  1.0
  Zn  Zn3  1  0.71296000  0.71296000  0.80889000  1.0
  H  H4  1  0.25862000  0.80487000  0.18565000  1.0
  H  H5  1  0.24317000  0.71707000  0.41832000  1.0
  H  H6  1  0.40729000  0.05281000  0.56681000  1.0
  H  H7  1  0.43945000  0.06961000  0.73355000  1.0
  H  H8  1  0.47227000  0.10226000  0.86062000  1.0
  H  H9  1  0.48319000  0.13091000  0.03085000  1.0
  H  H10  1  0.80490000  0.25860000  0.18563000  1.0
  H  H11  1  0.71707000  0.24318000  0.41829000  1.0
  H  H12  1  0.05281000  0.40730000  0.56681000  1.0
  H  H13  1  0.06961000  0.43946000  0.73355000  1.0
  H  H14  1  0.10225000  0.47227000  0.86063000  1.0
  H  H15  1  0.13089000  0.48319000  0.03087000  1.0
  H  H16  1  0.19511000  0.74140000  0.81437000  1.0
  H  H17  1  0.28293000  0.75683000  0.58169000  1.0
  H  H18  1  0.94718000  0.59270000  0.43318000  1.0
  H  H19  1  0.93039000  0.56053000  0.26645000  1.0
  H  H20  1  0.89774000  0.52773000  0.13938000  1.0
  H  H21  1  0.86910000  0.51681000  0.96914000  1.0
  H  H22  1  0.74139000  0.19512000  0.81436000  1.0
  H  H23  1  0.75682000  0.28293000  0.58169000  1.0
  H  H24  1  0.59270000  0.94719000  0.43319000  1.0
  H  H25  1  0.56056000  0.93039000  0.26645000  1.0
  H  H26  1  0.52774000  0.89776000  0.13937000  1.0
  H  H27  1  0.51683000  0.86912000  0.96913000  1.0
  C  C28  1  0.24781000  0.56133000  0.27472000  1.0
  C  C29  1  0.25233000  0.73046000  0.26263000  1.0
  C  C30  1  0.25317000  0.79066000  0.34077000  1.0
  C  C31  1  0.26404000  0.95920000  0.32724000  1.0
  C  C32  1  0.33490000  0.13740000  0.60616000  1.0
  C  C33  1  0.35328000  0.14906000  0.69966000  1.0
  C  C34  1  0.39103000  0.18662000  0.89557000  1.0
  C  C35  1  0.39912000  0.20210000  0.99048000  1.0
  C  C36  1  0.56136000  0.24779000  0.27470000  1.0
  C  C37  1  0.73048000  0.25232000  0.26261000  1.0
  C  C38  1  0.79067000  0.25317000  0.34075000  1.0
  C  C39  1  0.95921000  0.26405000  0.32723000  1.0
  C  C40  1  0.13741000  0.33491000  0.60617000  1.0
  C  C41  1  0.14905000  0.35328000  0.69966000  1.0
  C  C42  1  0.18661000  0.39104000  0.89555000  1.0
  C  C43  1  0.20210000  0.39911000  0.99048000  1.0
  C  C44  1  0.26084000  0.26085000  0.74831000  1.0
  C  C45  1  0.27946000  0.27949000  0.84671000  1.0
  C  C46  1  0.43866000  0.75221000  0.72529000  1.0
  C  C47  1  0.26953000  0.74767000  0.73738000  1.0
  C  C48  1  0.20933000  0.74683000  0.65924000  1.0
  C  C49  1  0.04079000  0.73595000  0.67276000  1.0
  C  C50  1  0.86259000  0.66508000  0.39384000  1.0
  C  C51  1  0.85094000  0.64671000  0.30034000  1.0
  C  C52  1  0.81338000  0.60896000  0.10445000  1.0
  C  C53  1  0.79789000  0.60088000  0.00952000  1.0
  C  C54  1  0.75219000  0.43866000  0.72529000  1.0
  C  C55  1  0.74766000  0.26954000  0.73738000  1.0
  C  C56  1  0.74682000  0.20934000  0.65923000  1.0
  C  C57  1  0.73595000  0.04079000  0.67277000  1.0
  C  C58  1  0.66510000  0.86259000  0.39383000  1.0
  C  C59  1  0.64672000  0.85095000  0.30034000  1.0
  C  C60  1  0.60897000  0.81339000  0.10443000  1.0
  C  C61  1  0.60089000  0.79790000  0.00951000  1.0
  C  C62  1  0.73914000  0.73916000  0.25170000  1.0
  C  C63  1  0.72051000  0.72052000  0.15329000  1.0
  N  N64  1  0.22956000  0.22956000  0.55947000  1.0
  N  N65  1  0.30391000  0.30390000  0.03875000  1.0
  N  N66  1  0.77044000  0.77043000  0.44053000  1.0
  N  N67  1  0.69609000  0.69609000  0.96125000  1.0
  O  O68  1  0.22607000  0.47364000  0.36517000  1.0
  O  O69  1  0.26769000  0.51818000  0.19152000  1.0
  O  O70  1  0.29080000  0.04516000  0.23561000  1.0
  O  O71  1  0.24815000  0.00341000  0.40923000  1.0
  O  O72  1  0.47366000  0.22608000  0.36514000  1.0
  O  O73  1  0.51822000  0.26762000  0.19150000  1.0
  O  O74  1  0.04517000  0.29083000  0.23559000  1.0
  O  O75  1  0.00340000  0.24814000  0.40921000  1.0
  O  O76  1  0.52635000  0.77393000  0.63485000  1.0
  O  O77  1  0.48179000  0.73235000  0.80850000  1.0
  O  O78  1  0.95483000  0.70919000  0.76440000  1.0
  O  O79  1  0.99660000  0.75185000  0.59077000  1.0
  O  O80  1  0.77392000  0.52635000  0.63485000  1.0
  O  O81  1  0.73234000  0.48181000  0.80850000  1.0
  O  O82  1  0.70919000  0.95484000  0.76440000  1.0
  O  O83  1  0.75185000  0.99659000  0.59078000  1.0
