# generated using pymatgen
data_ZnH14C22S4N3O17
_symmetry_space_group_name_H-M   'P 1'
_cell_length_a   16.28910000
_cell_length_b   17.26400000
_cell_length_c   19.23820000
_cell_angle_alpha   86.17380000
_cell_angle_beta   83.20730000
_cell_angle_gamma   86.49920000
_symmetry_Int_Tables_number   1
_chemical_formula_structural   ZnH14C22S4N3O17
_chemical_formula_sum   'Zn2 H28 C44 S8 N6 O34'
_cell_volume   5352.39719133
_cell_formula_units_Z   2
loop_
 _symmetry_equiv_pos_site_id
 _symmetry_equiv_pos_as_xyz
  1  'x, y, z'
loop_
 _atom_site_type_symbol
 _atom_site_label
 _atom_site_symmetry_multiplicity
 _atom_site_fract_x
 _atom_site_fract_y
 _atom_site_fract_z
 _atom_site_occupancy
  Zn  Zn0  1  0.58250000  0.49216000  0.49865000  1.0
  Zn  Zn1  1  0.40607000  0.48693000  0.51194000  1.0
  H  H2  1  0.60103000  0.44023000  0.71830000  1.0
  H  H3  1  0.61999000  0.47132000  0.13275000  1.0
  H  H4  1  0.39464000  0.24225000  0.56077000  1.0
  H  H5  1  0.60428000  0.72083000  0.43552000  1.0
  H  H6  1  0.34507000  0.74164000  0.50723000  1.0
  H  H7  1  0.64301000  0.25168000  0.45946000  1.0
  H  H8  1  0.41786000  0.00148000  0.44852000  1.0
  H  H9  1  0.59138000  0.97943000  0.49828000  1.0
  H  H10  1  0.65030000  0.10763000  0.45084000  1.0
  H  H11  1  0.34853000  0.88625000  0.49126000  1.0
  H  H12  1  0.66397000  0.56360000  0.38641000  1.0
  H  H13  1  0.38512000  0.56461000  0.29846000  1.0
  H  H14  1  0.31997000  0.45004000  0.63335000  1.0
  H  H15  1  0.76758000  0.39379000  0.70658000  1.0
  H  H16  1  0.22331000  0.56923000  0.28960000  1.0
  H  H17  1  0.68093000  0.52166000  0.91222000  1.0
  H  H18  1  0.39821000  0.66666667  0.08038000  1.0
  H  H19  1  0.26757000  0.66127000  0.80546000  1.0
  H  H20  1  0.73777000  0.37463000  0.18879000  1.0
  H  H21  1  0.72895000  0.78138000  0.37442000  1.0
  H  H22  1  0.27017000  0.15720000  0.60592000  1.0
  H  H23  1  0.28874000  0.52925000  0.41491000  1.0
  H  H24  1  0.70483000  0.41957000  0.57717000  1.0
  H  H25  1  0.98833000  0.57136000  0.47333000  1.0
  H  H26  1  0.00227000  0.40200000  0.53456000  1.0
  H  H27  1  0.11198000  0.41540000  0.61502000  1.0
  H  H28  1  0.87236000  0.58898000  0.41005000  1.0
  H  H29  1  0.40876000  0.61829000  0.85723000  1.0
  C  C30  1  0.50986000  0.34179000  0.51043000  1.0
  C  C31  1  0.47866000  0.88652000  0.45566000  1.0
  C  C32  1  0.59408000  0.13742000  0.47478000  1.0
  C  C33  1  0.40446000  0.84957000  0.47829000  1.0
  C  C34  1  0.59027000  0.21753000  0.47933000  1.0
  C  C35  1  0.40245000  0.76925000  0.48801000  1.0
  C  C36  1  0.53328000  0.00955000  0.48627000  1.0
  C  C37  1  0.47565000  0.97079000  0.46026000  1.0
  C  C38  1  0.24655000  0.50628000  0.45840000  1.0
  C  C39  1  0.74478000  0.45577000  0.54100000  1.0
  C  C40  1  0.16348000  0.50015000  0.45183000  1.0
  C  C41  1  0.47891000  0.63765000  0.49122000  1.0
  C  C42  1  0.82806000  0.45842000  0.54826000  1.0
  C  C43  1  0.11195000  0.46723000  0.50966000  1.0
  C  C44  1  0.87777000  0.50736000  0.49968000  1.0
  C  C45  1  0.48615000  0.49702000  0.64361000  1.0
  C  C46  1  0.50336000  0.49451000  0.36646000  1.0
  C  C47  1  0.14889000  0.44089000  0.56924000  1.0
  C  C48  1  0.83740000  0.55129000  0.44891000  1.0
  C  C49  1  0.23302000  0.45093000  0.57259000  1.0
  C  C50  1  0.75310000  0.54409000  0.44419000  1.0
  C  C51  1  0.02266000  0.45860000  0.51306000  1.0
  C  C52  1  0.51700000  0.25554000  0.50833000  1.0
  C  C53  1  0.96707000  0.51531000  0.49603000  1.0
  C  C54  1  0.55812000  0.47819000  0.74985000  1.0
  C  C55  1  0.43716000  0.54533000  0.26173000  1.0
  C  C56  1  0.57250000  0.49061000  0.81778000  1.0
  C  C57  1  0.43543000  0.56247000  0.19030000  1.0
  C  C58  1  0.51727000  0.54133000  0.85837000  1.0
  C  C59  1  0.50436000  0.53910000  0.14252000  1.0
  C  C60  1  0.44968000  0.57747000  0.82718000  1.0
  C  C61  1  0.56895000  0.49262000  0.16942000  1.0
  C  C62  1  0.43564000  0.56415000  0.75911000  1.0
  C  C63  1  0.47591000  0.72327000  0.47588000  1.0
  C  C64  1  0.56848000  0.47369000  0.24063000  1.0
  C  C65  1  0.49052000  0.51368000  0.71916000  1.0
  C  C66  1  0.50388000  0.50312000  0.28818000  1.0
  C  C67  1  0.51541000  0.55840000  0.06699000  1.0
  C  C68  1  0.52397000  0.55905000  0.93074000  1.0
  C  C69  1  0.44951000  0.21214000  0.53541000  1.0
  C  C70  1  0.54900000  0.75805000  0.44832000  1.0
  C  C71  1  0.45399000  0.13174000  0.53143000  1.0
  C  C72  1  0.55001000  0.83834000  0.43615000  1.0
  C  C73  1  0.52561000  0.09270000  0.49818000  1.0
  S  S74  1  0.86654000  0.40167000  0.61998000  1.0
  S  S75  1  0.12566000  0.53051000  0.37030000  1.0
  S  S76  1  0.66034000  0.43523000  0.84760000  1.0
  S  S77  1  0.33860000  0.60566000  0.16604000  1.0
  S  S78  1  0.35033000  0.61666000  0.72197000  1.0
  S  S79  1  0.64848000  0.40906000  0.27232000  1.0
  S  S80  1  0.64272000  0.87826000  0.39311000  1.0
  S  S81  1  0.36992000  0.07752000  0.57387000  1.0
  N  N82  1  0.46272000  0.60248000  0.96547000  1.0
  N  N83  1  0.58831000  0.53711000  0.03034000  1.0
  N  N84  1  0.46065000  0.60552000  0.03333000  1.0
  N  N85  1  0.59386000  0.54087000  0.96204000  1.0
  N  N86  1  0.28094000  0.48259000  0.51713000  1.0
  N  N87  1  0.70762000  0.49735000  0.49050000  1.0
  O  O88  1  0.57596000  0.37807000  0.49415000  1.0
  O  O89  1  0.26525000  0.42813000  0.63152000  1.0
  O  O90  1  0.91314000  0.33460000  0.59265000  1.0
  O  O91  1  0.90292000  0.45223000  0.66303000  1.0
  O  O92  1  0.78378000  0.36977000  0.66101000  1.0
  O  O93  1  0.07062000  0.47402000  0.35449000  1.0
  O  O94  1  0.09875000  0.61179000  0.37082000  1.0
  O  O95  1  0.20926000  0.52088000  0.31871000  1.0
  O  O96  1  0.62961000  0.38649000  0.90739000  1.0
  O  O97  1  0.70628000  0.40083000  0.78773000  1.0
  O  O98  1  0.71580000  0.49873000  0.86952000  1.0
  O  O99  1  0.41244000  0.60217000  0.49153000  1.0
  O  O100  1  0.30920000  0.55327000  0.12061000  1.0
  O  O101  1  0.28807000  0.62732000  0.22932000  1.0
  O  O102  1  0.36266000  0.68418000  0.12495000  1.0
  O  O103  1  0.38412000  0.66189000  0.66151000  1.0
  O  O104  1  0.28325000  0.56627000  0.72131000  1.0
  O  O105  1  0.32104000  0.67739000  0.78195000  1.0
  O  O106  1  0.71660000  0.45199000  0.28757000  1.0
  O  O107  1  0.60823000  0.35431000  0.32212000  1.0
  O  O108  1  0.67947000  0.36384000  0.20213000  1.0
  O  O109  1  0.62133000  0.93742000  0.34155000  1.0
  O  O110  1  0.43810000  0.37341000  0.52774000  1.0
  O  O111  1  0.69794000  0.89233000  0.44395000  1.0
  O  O112  1  0.68416000  0.80567000  0.34944000  1.0
  O  O113  1  0.31338000  0.06224000  0.52439000  1.0
  O  O114  1  0.40241000  0.01624000  0.61846000  1.0
  O  O115  1  0.32159000  0.14032000  0.62547000  1.0
  O  O116  1  0.54917000  0.60581000  0.50265000  1.0
  O  O117  1  0.55567000  0.48382000  0.60869000  1.0
  O  O118  1  0.43671000  0.47555000  0.40166000  1.0
  O  O119  1  0.41540000  0.49770000  0.62177000  1.0
  O  O120  1  0.57002000  0.51078000  0.38954000  1.0
  O  O121  1  0.71778000  0.58464000  0.39292000  1.0
