# generated using pymatgen
data_MnH12C8S2(NO2)2
_symmetry_space_group_name_H-M   'P 1'
_cell_length_a   5.95666000
_cell_length_b   8.97973000
_cell_length_c   21.52700000
_cell_angle_alpha   90.00000000
_cell_angle_beta   90.00000000
_cell_angle_gamma   90.00000000
_symmetry_Int_Tables_number   1
_chemical_formula_structural   MnH12C8S2(NO2)2
_chemical_formula_sum   'Mn4 H48 C32 S8 N8 O16'
_cell_volume   1151.46197615
_cell_formula_units_Z   4
loop_
 _symmetry_equiv_pos_site_id
 _symmetry_equiv_pos_as_xyz
  1  'x, y, z'
loop_
 _atom_site_type_symbol
 _atom_site_label
 _atom_site_symmetry_multiplicity
 _atom_site_fract_x
 _atom_site_fract_y
 _atom_site_fract_z
 _atom_site_occupancy
  Mn  Mn0  1  0.93609000  0.56735000  0.80100000  1.0
  Mn  Mn1  1  0.56390000  0.43264000  0.30100000  1.0
  Mn  Mn2  1  0.06392000  0.06735000  0.69900000  1.0
  Mn  Mn3  1  0.43607000  0.93264000  0.19900000  1.0
  H  H4  1  0.86029000  0.67892000  0.93463000  1.0
  H  H5  1  0.63971000  0.32108000  0.43462000  1.0
  H  H6  1  0.13972000  0.17891000  0.56537000  1.0
  H  H7  1  0.36027000  0.82110000  0.06538000  1.0
  H  H8  1  0.91818000  0.26649000  0.83066000  1.0
  H  H9  1  0.58182000  0.73351000  0.33067000  1.0
  H  H10  1  0.08183000  0.76648000  0.66934000  1.0
  H  H11  1  0.41816000  0.23351000  0.16934000  1.0
  H  H12  1  0.89679000  0.98527000  0.97143000  1.0
  H  H13  1  0.60321000  0.01474000  0.47143000  1.0
  H  H14  1  0.10322000  0.48527000  0.52857000  1.0
  H  H15  1  0.39679000  0.51475000  0.02857000  1.0
  H  H16  1  0.05566000  0.07703000  0.91311000  1.0
  H  H17  1  0.44435000  0.92297000  0.41311000  1.0
  H  H18  1  0.94434000  0.57702000  0.58690000  1.0
  H  H19  1  0.55566000  0.42298000  0.08689000  1.0
  H  H20  1  0.30417000  0.69442000  0.87614000  1.0
  H  H21  1  0.19583000  0.30558000  0.37614000  1.0
  H  H22  1  0.69584000  0.19441000  0.62386000  1.0
  H  H23  1  0.80416000  0.80560000  0.12386000  1.0
  H  H24  1  0.22083000  0.60406000  0.94665000  1.0
  H  H25  1  0.27918000  0.39594000  0.44665000  1.0
  H  H26  1  0.77919000  0.10406000  0.55335000  1.0
  H  H27  1  0.72081000  0.89595000  0.05335000  1.0
  H  H28  1  0.72396000  0.88043000  0.88334000  1.0
  H  H29  1  0.77603000  0.11957000  0.38334000  1.0
  H  H30  1  0.27605000  0.38042000  0.61666000  1.0
  H  H31  1  0.22397000  0.61957000  0.11667000  1.0
  H  H32  1  0.72968000  0.46160000  0.92710000  1.0
  H  H33  1  0.77032000  0.53840000  0.42710000  1.0
  H  H34  1  0.27031000  0.96159000  0.57290000  1.0
  H  H35  1  0.22969000  0.03842000  0.07290000  1.0
  H  H36  1  0.94070000  0.32191000  0.93473000  1.0
  H  H37  1  0.55930000  0.67810000  0.43473000  1.0
  H  H38  1  0.05930000  0.82190000  0.56527000  1.0
  H  H39  1  0.44071000  0.17811000  0.06528000  1.0
  H  H40  1  0.53298000  0.08589000  0.83436000  1.0
  H  H41  1  0.96703000  0.91411000  0.33437000  1.0
  H  H42  1  0.46705000  0.58588000  0.66563000  1.0
  H  H43  1  0.03295000  0.41413000  0.16564000  1.0
  H  H44  1  0.29331000  0.20039000  0.84686000  1.0
  H  H45  1  0.20669000  0.79961000  0.34687000  1.0
  H  H46  1  0.70670000  0.70038000  0.65313000  1.0
  H  H47  1  0.79329000  0.29962000  0.15313000  1.0
  H  H48  1  0.61627000  0.28554000  0.76745000  1.0
  H  H49  1  0.88373000  0.71446000  0.26745000  1.0
  H  H50  1  0.38376000  0.78553000  0.73255000  1.0
  H  H51  1  0.11624000  0.21447000  0.23255000  1.0
  C  C52  1  0.01237000  0.96819000  0.93254000  1.0
  C  C53  1  0.48763000  0.03181000  0.43254000  1.0
  C  C54  1  0.98764000  0.46818000  0.56746000  1.0
  C  C55  1  0.51237000  0.53182000  0.06746000  1.0
  C  C56  1  0.19405000  0.70125000  0.91675000  1.0
  C  C57  1  0.30595000  0.29875000  0.41675000  1.0
  C  C58  1  0.80596000  0.20124000  0.58324000  1.0
  C  C59  1  0.69404000  0.79876000  0.08325000  1.0
  C  C60  1  0.90789000  0.86645000  0.88277000  1.0
  C  C61  1  0.59211000  0.13355000  0.38276000  1.0
  C  C62  1  0.09212000  0.36644000  0.61723000  1.0
  C  C63  1  0.40789000  0.63356000  0.11723000  1.0
  C  C64  1  0.98629000  0.90141000  0.81626000  1.0
  C  C65  1  0.51372000  0.09858000  0.31625000  1.0
  C  C66  1  0.01370000  0.40139000  0.68374000  1.0
  C  C67  1  0.48629000  0.59861000  0.18374000  1.0
  C  C68  1  0.78339000  0.35113000  0.91134000  1.0
  C  C69  1  0.71661000  0.64888000  0.41134000  1.0
  C  C70  1  0.21661000  0.85112000  0.58866000  1.0
  C  C71  1  0.28340000  0.14889000  0.08866000  1.0
  C  C72  1  0.47576000  0.19425000  0.85174000  1.0
  C  C73  1  0.02424000  0.80574000  0.35175000  1.0
  C  C74  1  0.52425000  0.69424000  0.64825000  1.0
  C  C75  1  0.97575000  0.30576000  0.14825000  1.0
  C  C76  1  0.58980000  0.32041000  0.81596000  1.0
  C  C77  1  0.91019000  0.67959000  0.31596000  1.0
  C  C78  1  0.41021000  0.82041000  0.68404000  1.0
  C  C79  1  0.08978000  0.17960000  0.18404000  1.0
  C  C80  1  0.45745000  0.46747000  0.81352000  1.0
  C  C81  1  0.04254000  0.53252000  0.31352000  1.0
  C  C82  1  0.54255000  0.96747000  0.68648000  1.0
  C  C83  1  0.95744000  0.03253000  0.18648000  1.0
  S  S84  1  0.26685000  0.87488000  0.95881000  1.0
  S  S85  1  0.23315000  0.12512000  0.45881000  1.0
  S  S86  1  0.73316000  0.37487000  0.54119000  1.0
  S  S87  1  0.76685000  0.62513000  0.04119000  1.0
  S  S88  1  0.55878000  0.21701000  0.93258000  1.0
  S  S89  1  0.94123000  0.78300000  0.43259000  1.0
  S  S90  1  0.44123000  0.71700000  0.56741000  1.0
  S  S91  1  0.05877000  0.28300000  0.06742000  1.0
  N  N92  1  0.96003000  0.71038000  0.89783000  1.0
  N  N93  1  0.53997000  0.28961000  0.39783000  1.0
  N  N94  1  0.03998000  0.21038000  0.60217000  1.0
  N  N95  1  0.46002000  0.78962000  0.10217000  1.0
  N  N96  1  0.81011000  0.34919000  0.84420000  1.0
  N  N97  1  0.68989000  0.65081000  0.34421000  1.0
  N  N98  1  0.18990000  0.84918000  0.65580000  1.0
  N  N99  1  0.31009000  0.15082000  0.15580000  1.0
  O  O100  1  0.02025000  0.79170000  0.78034000  1.0
  O  O101  1  0.47975000  0.20829000  0.28034000  1.0
  O  O102  1  0.97974000  0.29169000  0.71966000  1.0
  O  O103  1  0.52027000  0.70829000  0.21966000  1.0
  O  O104  1  0.00686000  0.03660000  0.79988000  1.0
  O  O105  1  0.49317000  0.96339000  0.29987000  1.0
  O  O106  1  0.99312000  0.53659000  0.70012000  1.0
  O  O107  1  0.50685000  0.46340000  0.20012000  1.0
  O  O108  1  0.57009000  0.58626000  0.80383000  1.0
  O  O109  1  0.92990000  0.41373000  0.30384000  1.0
  O  O110  1  0.42990000  0.08626000  0.69617000  1.0
  O  O111  1  0.07007000  0.91375000  0.19617000  1.0
  O  O112  1  0.24707000  0.46046000  0.81992000  1.0
  O  O113  1  0.25292000  0.53954000  0.31992000  1.0
  O  O114  1  0.75293000  0.96047000  0.68008000  1.0
  O  O115  1  0.74705000  0.03954000  0.18008000  1.0
