# generated using pymatgen
data_Co3H18(C4O7)2
_symmetry_space_group_name_H-M   'P 1'
_cell_length_a   6.53329000
_cell_length_b   9.84817080
_cell_length_c   9.92478000
_cell_angle_alpha   119.61119178
_cell_angle_beta   107.81330000
_cell_angle_gamma   90.08896989
_symmetry_Int_Tables_number   1
_chemical_formula_structural   Co3H18(C4O7)2
_chemical_formula_sum   'Co3 H18 C8 O14'
_cell_volume   519.48234286
_cell_formula_units_Z   1
loop_
 _symmetry_equiv_pos_site_id
 _symmetry_equiv_pos_as_xyz
  1  'x, y, z'
loop_
 _atom_site_type_symbol
 _atom_site_label
 _atom_site_symmetry_multiplicity
 _atom_site_fract_x
 _atom_site_fract_y
 _atom_site_fract_z
 _atom_site_occupancy
  Co  Co0  1  0.50000000  0.00000000  0.00000000  1.0
  Co  Co1  1  0.99990000  0.12803000  0.00072000  1.0
  Co  Co2  1  0.00010000  0.87197000  0.99928000  1.0
  H  H3  1  0.29036000  0.93226000  0.50460000  1.0
  H  H4  1  0.70997000  0.42863000  0.49566000  1.0
  H  H5  1  0.70964000  0.06772000  0.49539000  1.0
  H  H6  1  0.29003000  0.57137000  0.50435000  1.0
  H  H7  1  0.37687000  0.13317000  0.58282000  1.0
  H  H8  1  0.62220000  0.55043000  0.41631000  1.0
  H  H9  1  0.62312000  0.86681000  0.41716000  1.0
  H  H10  1  0.37781000  0.44958000  0.58371000  1.0
  H  H11  1  0.89022000  0.10475000  0.21248000  1.0
  H  H12  1  0.10978000  0.89525000  0.78752000  1.0
  H  H13  1  0.27065000  0.18865000  0.87554000  1.0
  H  H14  1  0.73035000  0.31448000  0.12684000  1.0
  H  H15  1  0.72935000  0.81137000  0.12447000  1.0
  H  H16  1  0.26965000  0.68553000  0.87316000  1.0
  H  H17  1  0.03493000  0.21982000  0.81325000  1.0
  H  H18  1  0.96679000  0.40694000  0.18851000  1.0
  H  H19  1  0.96506000  0.78016000  0.18673000  1.0
  H  H20  1  0.03322000  0.59306000  0.81151000  1.0
  C  C21  1  0.56925000  0.04469000  0.72678000  1.0
  C  C22  1  0.43076000  0.31775000  0.27367000  1.0
  C  C23  1  0.43075000  0.95531000  0.27322000  1.0
  C  C24  1  0.56924000  0.68225000  0.72633000  1.0
  C  C25  1  0.43790000  0.02215000  0.55930000  1.0
  C  C26  1  0.56195000  0.46309000  0.44060000  1.0
  C  C27  1  0.56210000  0.97784000  0.44069000  1.0
  C  C28  1  0.43805000  0.53691000  0.55940000  1.0
  O  O29  1  0.77302000  0.04332000  0.76253000  1.0
  O  O30  1  0.22735000  0.27935000  0.23891000  1.0
  O  O31  1  0.22698000  0.95668000  0.23747000  1.0
  O  O32  1  0.77264000  0.72066000  0.76110000  1.0
  O  O33  1  0.46235000  0.06386000  0.82134000  1.0
  O  O34  1  0.53730000  0.24296000  0.17893000  1.0
  O  O35  1  0.53766000  0.93614000  0.17866000  1.0
  O  O36  1  0.46270000  0.75705000  0.82108000  1.0
  O  O37  1  0.83039000  0.04490000  0.09183000  1.0
  O  O38  1  0.16962000  0.95509000  0.90817000  1.0
  O  O39  1  0.15953000  0.25137000  0.91383000  1.0
  O  O40  1  0.84187000  0.33818000  0.08813000  1.0
  O  O41  1  0.84046000  0.74864000  0.08617000  1.0
  O  O42  1  0.15813000  0.66183000  0.91187000  1.0
