# generated using pymatgen
data_ZnH8C12(IN2)2
_symmetry_space_group_name_H-M   'P 1'
_cell_length_a   15.10090000
_cell_length_b   15.33410000
_cell_length_c   31.92290000
_cell_angle_alpha   93.83960000
_cell_angle_beta   89.97350000
_cell_angle_gamma   119.49900000
_symmetry_Int_Tables_number   1
_chemical_formula_structural   ZnH8C12(IN2)2
_chemical_formula_sum   'Zn12 H96 C144 I24 N48'
_cell_volume   6414.81397936
_cell_formula_units_Z   12
loop_
 _symmetry_equiv_pos_site_id
 _symmetry_equiv_pos_as_xyz
  1  'x, y, z'
loop_
 _atom_site_type_symbol
 _atom_site_label
 _atom_site_symmetry_multiplicity
 _atom_site_fract_x
 _atom_site_fract_y
 _atom_site_fract_z
 _atom_site_occupancy
  Zn  Zn0  1  0.93667000  0.58084000  0.19815000  1.0
  Zn  Zn1  1  0.55049000  0.86356000  0.88327000  1.0
  Zn  Zn2  1  0.10074000  0.38711000  0.99985000  1.0
  Zn  Zn3  1  0.64458000  0.58133000  0.69822000  1.0
  Zn  Zn4  1  0.31273000  0.86348000  0.38316000  1.0
  Zn  Zn5  1  0.28621000  0.38643000  0.49987000  1.0
  Zn  Zn6  1  0.35541000  0.41866000  0.30177000  1.0
  Zn  Zn7  1  0.68726000  0.13652000  0.61684000  1.0
  Zn  Zn8  1  0.71378000  0.61357000  0.50012000  1.0
  Zn  Zn9  1  0.06333000  0.41915000  0.80185000  1.0
  Zn  Zn10  1  0.44951000  0.13645000  0.11673000  1.0
  Zn  Zn11  1  0.89926000  0.61288000  0.00016000  1.0
  H  H12  1  0.20080000  0.28574000  0.94905000  1.0
  H  H13  1  0.24170000  0.14689000  0.95935000  1.0
  H  H14  1  0.04249000  0.06520000  0.06364000  1.0
  H  H15  1  0.00815000  0.20603000  0.04870000  1.0
  H  H16  1  0.41548000  0.75809000  0.95330000  1.0
  H  H17  1  0.29887000  0.78359000  0.00291000  1.0
  H  H18  1  0.40559000  0.07471000  0.95578000  1.0
  H  H19  1  0.52181000  0.03918000  0.90910000  1.0
  H  H20  1  0.09686000  0.62610000  0.13880000  1.0
  H  H21  1  0.18873000  0.74555000  0.08336000  1.0
  H  H22  1  0.99083000  0.87025000  0.10578000  1.0
  H  H23  1  0.90767000  0.74700000  0.16056000  1.0
  H  H24  1  0.08566000  0.47893000  0.08598000  1.0
  H  H25  1  0.19270000  0.54981000  0.15326000  1.0
  H  H26  1  0.40322000  0.46493000  0.09845000  1.0
  H  H27  1  0.29159000  0.40264000  0.03303000  1.0
  H  H28  1  0.50603000  0.86494000  0.35264000  1.0
  H  H29  1  0.55318000  0.78658000  0.29133000  1.0
  H  H30  1  0.23422000  0.61913000  0.25384000  1.0
  H  H31  1  0.19887000  0.69574000  0.31868000  1.0
  H  H32  1  0.83305000  0.65257000  0.26127000  1.0
  H  H33  1  0.67364000  0.66823000  0.26317000  1.0
  H  H34  1  0.58794000  0.50705000  0.14065000  1.0
  H  H35  1  0.74780000  0.49560000  0.14418000  1.0
  H  H36  1  0.08505000  0.28537000  0.44896000  1.0
  H  H37  1  0.90509000  0.14670000  0.45909000  1.0
  H  H38  1  0.02155000  0.06470000  0.56356000  1.0
  H  H39  1  0.19700000  0.20523000  0.54871000  1.0
  H  H40  1  0.34207000  0.75767000  0.45317000  1.0
  H  H41  1  0.48413000  0.78332000  0.50279000  1.0
  H  H42  1  0.66816000  0.07481000  0.45588000  1.0
  H  H43  1  0.51642000  0.03917000  0.40923000  1.0
  H  H44  1  0.52917000  0.62568000  0.63876000  1.0
  H  H45  1  0.55622000  0.74490000  0.58330000  1.0
  H  H46  1  0.87896000  0.87076000  0.60562000  1.0
  H  H47  1  0.83938000  0.74784000  0.66049000  1.0
  H  H48  1  0.39313000  0.47806000  0.58602000  1.0
  H  H49  1  0.35699000  0.54892000  0.65334000  1.0
  H  H50  1  0.06208000  0.46525000  0.59849000  1.0
  H  H51  1  0.11132000  0.40280000  0.53303000  1.0
  H  H52  1  0.35871000  0.86463000  0.85262000  1.0
  H  H53  1  0.23313000  0.78562000  0.79138000  1.0
  H  H54  1  0.38521000  0.61855000  0.75409000  1.0
  H  H55  1  0.49708000  0.69564000  0.81890000  1.0
  H  H56  1  0.81969000  0.65246000  0.76160000  1.0
  H  H57  1  0.99452000  0.66748000  0.76357000  1.0
  H  H58  1  0.91964000  0.50768000  0.64078000  1.0
  H  H59  1  0.74857000  0.49675000  0.64425000  1.0
  H  H60  1  0.91495000  0.71462000  0.55104000  1.0
  H  H61  1  0.09490000  0.85330000  0.54091000  1.0
  H  H62  1  0.97844000  0.93531000  0.43644000  1.0
  H  H63  1  0.80300000  0.79478000  0.45129000  1.0
  H  H64  1  0.65793000  0.24233000  0.54683000  1.0
  H  H65  1  0.51586000  0.21669000  0.49722000  1.0
  H  H66  1  0.33184000  0.92520000  0.54412000  1.0
  H  H67  1  0.48358000  0.96082000  0.59077000  1.0
  H  H68  1  0.47083000  0.37431000  0.36124000  1.0
  H  H69  1  0.44378000  0.25510000  0.41670000  1.0
  H  H70  1  0.12104000  0.12925000  0.39438000  1.0
  H  H71  1  0.16062000  0.25217000  0.33951000  1.0
  H  H72  1  0.60687000  0.52193000  0.41398000  1.0
  H  H73  1  0.64301000  0.45108000  0.34666000  1.0
  H  H74  1  0.93792000  0.53475000  0.40152000  1.0
  H  H75  1  0.88868000  0.59719000  0.46697000  1.0
  H  H76  1  0.64129000  0.13537000  0.14738000  1.0
  H  H77  1  0.76687000  0.21438000  0.20862000  1.0
  H  H78  1  0.61479000  0.38145000  0.24591000  1.0
  H  H79  1  0.50291000  0.30436000  0.18110000  1.0
  H  H80  1  0.18031000  0.34753000  0.23840000  1.0
  H  H81  1  0.00548000  0.33251000  0.23642000  1.0
  H  H82  1  0.08036000  0.49232000  0.35922000  1.0
  H  H83  1  0.25143000  0.50325000  0.35575000  1.0
  H  H84  1  0.79920000  0.71427000  0.05095000  1.0
  H  H85  1  0.75831000  0.85311000  0.04066000  1.0
  H  H86  1  0.95751000  0.93479000  0.93636000  1.0
  H  H87  1  0.99185000  0.79396000  0.95130000  1.0
  H  H88  1  0.58452000  0.24191000  0.04669000  1.0
  H  H89  1  0.70114000  0.21642000  0.99709000  1.0
  H  H90  1  0.59441000  0.92529000  0.04422000  1.0
  H  H91  1  0.47819000  0.96082000  0.09090000  1.0
  H  H92  1  0.90314000  0.37389000  0.86120000  1.0
  H  H93  1  0.81127000  0.25445000  0.91664000  1.0
  H  H94  1  0.00917000  0.12975000  0.89422000  1.0
  H  H95  1  0.09233000  0.25300000  0.83944000  1.0
  H  H96  1  0.91434000  0.52105000  0.91402000  1.0
  H  H97  1  0.80729000  0.45019000  0.84674000  1.0
  H  H98  1  0.59679000  0.53508000  0.90155000  1.0
  H  H99  1  0.70842000  0.59736000  0.96697000  1.0
  H  H100  1  0.49397000  0.13506000  0.64736000  1.0
  H  H101  1  0.44682000  0.21343000  0.70867000  1.0
  H  H102  1  0.76578000  0.38088000  0.74616000  1.0
  H  H103  1  0.80113000  0.30426000  0.68132000  1.0
  H  H104  1  0.16696000  0.34743000  0.73873000  1.0
  H  H105  1  0.32636000  0.33177000  0.73683000  1.0
  H  H106  1  0.41206000  0.49295000  0.85935000  1.0
  H  H107  1  0.25220000  0.50440000  0.85582000  1.0
  C  C108  1  0.15074000  0.88938000  0.05886000  1.0
  C  C109  1  0.26812000  0.94400000  0.00847000  1.0
  C  C110  1  0.17184000  0.01809000  0.02120000  1.0
  C  C111  1  0.16645000  0.23350000  0.97352000  1.0
  C  C112  1  0.18900000  0.15757000  0.97942000  1.0
  C  C113  1  0.14541000  0.09635000  0.01258000  1.0
  C  C114  1  0.07777000  0.11200000  0.03776000  1.0
  C  C115  1  0.05908000  0.18948000  0.02972000  1.0
  C  C116  1  0.41141000  0.82744000  0.95531000  1.0
  C  C117  1  0.34750000  0.84187000  0.98273000  1.0
  C  C118  1  0.34288000  0.93094000  0.98263000  1.0
  C  C119  1  0.40651000  0.00422000  0.95617000  1.0
  C  C120  1  0.46997000  0.98502000  0.93031000  1.0
  C  C121  1  0.07681000  0.68220000  0.13060000  1.0
  C  C122  1  0.12673000  0.74745000  0.09990000  1.0
  C  C123  1  0.09687000  0.81738000  0.09073000  1.0
  C  C124  1  0.01621000  0.81721000  0.11239000  1.0
  C  C125  1  0.97030000  0.74920000  0.14275000  1.0
  C  C126  1  0.37699000  0.55959000  0.16788000  1.0
  C  C127  1  0.42141000  0.64819000  0.23133000  1.0
  C  C128  1  0.52799000  0.60162000  0.20003000  1.0
  C  C129  1  0.15805000  0.47997000  0.08993000  1.0
  C  C130  1  0.21713000  0.51857000  0.12704000  1.0
  C  C131  1  0.30799000  0.51558000  0.13026000  1.0
  C  C132  1  0.33486000  0.47145000  0.09637000  1.0
  C  C133  1  0.27243000  0.43581000  0.06038000  1.0
  C  C134  1  0.44815000  0.80903000  0.33027000  1.0
  C  C135  1  0.47432000  0.76673000  0.29607000  1.0
  C  C136  1  0.39724000  0.69717000  0.26759000  1.0
  C  C137  1  0.29655000  0.67209000  0.27525000  1.0
  C  C138  1  0.27656000  0.71503000  0.31114000  1.0
  C  C139  1  0.77607000  0.62198000  0.23539000  1.0
  C  C140  1  0.68924000  0.63158000  0.23604000  1.0
  C  C141  1  0.62081000  0.59194000  0.20124000  1.0
  C  C142  1  0.64071000  0.54095000  0.16773000  1.0
  C  C143  1  0.72877000  0.53385000  0.16968000  1.0
  C  C144  1  0.73785000  0.88923000  0.55874000  1.0
  C  C145  1  0.67510000  0.94395000  0.50843000  1.0
  C  C146  1  0.84547000  0.01795000  0.52105000  1.0
  C  C147  1  0.06688000  0.23309000  0.47342000  1.0
  C  C148  1  0.96825000  0.15726000  0.47924000  1.0
  C  C149  1  0.95025000  0.09606000  0.51243000  1.0
  C  C150  1  0.03335000  0.11154000  0.53767000  1.0
  C  C151  1  0.12965000  0.18885000  0.52970000  1.0
  C  C152  1  0.41536000  0.82714000  0.45522000  1.0
  C  C153  1  0.49369000  0.84166000  0.48266000  1.0
  C  C154  1  0.58727000  0.93087000  0.48263000  1.0
  C  C155  1  0.59683000  0.00423000  0.45623000  1.0
  C  C156  1  0.51420000  0.98496000  0.43038000  1.0
  C  C157  1  0.60522000  0.68199000  0.63054000  1.0
  C  C158  1  0.62024000  0.74709000  0.59983000  1.0
  C  C159  1  0.71994000  0.81733000  0.59063000  1.0
  C  C160  1  0.80060000  0.81755000  0.61228000  1.0
  C  C161  1  0.77880000  0.74969000  0.64269000  1.0
  C  C162  1  0.18267000  0.55916000  0.66800000  1.0
  C  C163  1  0.22681000  0.64739000  0.73153000  1.0
  C  C164  1  0.07377000  0.60124000  0.70025000  1.0
  C  C165  1  0.32187000  0.47932000  0.58998000  1.0
  C  C166  1  0.30142000  0.51793000  0.62710000  1.0
  C  C167  1  0.20768000  0.51525000  0.63032000  1.0
  C  C168  1  0.13683000  0.47147000  0.59640000  1.0
  C  C169  1  0.16358000  0.43576000  0.56039000  1.0
  C  C170  1  0.36075000  0.80863000  0.83032000  1.0
  C  C171  1  0.29228000  0.76601000  0.79616000  1.0
  C  C172  1  0.29995000  0.69641000  0.76776000  1.0
  C  C173  1  0.37569000  0.67154000  0.77543000  1.0
  C  C174  1  0.43861000  0.71477000  0.81130000  1.0
  C  C175  1  0.84614000  0.62201000  0.73568000  1.0
  C  C176  1  0.94245000  0.63125000  0.73637000  1.0
  C  C177  1  0.97137000  0.59183000  0.70151000  1.0
  C  C178  1  0.90068000  0.54138000  0.66791000  1.0
  C  C179  1  0.80566000  0.53459000  0.66982000  1.0
  C  C180  1  0.26214000  0.11078000  0.44127000  1.0
  C  C181  1  0.32490000  0.05606000  0.49157000  1.0
  C  C182  1  0.15452000  0.98206000  0.47895000  1.0
  C  C183  1  0.93312000  0.76691000  0.52658000  1.0
  C  C184  1  0.03174000  0.84274000  0.52076000  1.0
  C  C185  1  0.04974000  0.90395000  0.48757000  1.0
  C  C186  1  0.96665000  0.88847000  0.46233000  1.0
  C  C187  1  0.87034000  0.81115000  0.47030000  1.0
  C  C188  1  0.58464000  0.17286000  0.54478000  1.0
  C  C189  1  0.50631000  0.15835000  0.51735000  1.0
  C  C190  1  0.41272000  0.06913000  0.51737000  1.0
  C  C191  1  0.40317000  0.99577000  0.54377000  1.0
  C  C192  1  0.48580000  0.01504000  0.56962000  1.0
  C  C193  1  0.39478000  0.31801000  0.36946000  1.0
  C  C194  1  0.37976000  0.25290000  0.40017000  1.0
  C  C195  1  0.28006000  0.18267000  0.40937000  1.0
  C  C196  1  0.19940000  0.18246000  0.38772000  1.0
  C  C197  1  0.22120000  0.25032000  0.35731000  1.0
  C  C198  1  0.81733000  0.44083000  0.33200000  1.0
  C  C199  1  0.77319000  0.35261000  0.26847000  1.0
  C  C200  1  0.92623000  0.39876000  0.29975000  1.0
  C  C201  1  0.67813000  0.52068000  0.41002000  1.0
  C  C202  1  0.69859000  0.48206000  0.37290000  1.0
  C  C203  1  0.79231000  0.48474000  0.36968000  1.0
  C  C204  1  0.86317000  0.52852000  0.40360000  1.0
  C  C205  1  0.83643000  0.56423000  0.43961000  1.0
  C  C206  1  0.63924000  0.19137000  0.16968000  1.0
  C  C207  1  0.70772000  0.23399000  0.20384000  1.0
  C  C208  1  0.70005000  0.30360000  0.23224000  1.0
  C  C209  1  0.62431000  0.32846000  0.22457000  1.0
  C  C210  1  0.56139000  0.28523000  0.18870000  1.0
  C  C211  1  0.15386000  0.37799000  0.26432000  1.0
  C  C212  1  0.05755000  0.36875000  0.26362000  1.0
  C  C213  1  0.02863000  0.40817000  0.29848000  1.0
  C  C214  1  0.09933000  0.45862000  0.33208000  1.0
  C  C215  1  0.19435000  0.46541000  0.33018000  1.0
  C  C216  1  0.84926000  0.11062000  0.94114000  1.0
  C  C217  1  0.73189000  0.05600000  0.99153000  1.0
  C  C218  1  0.82817000  0.98191000  0.97880000  1.0
  C  C219  1  0.83355000  0.76649000  0.02648000  1.0
  C  C220  1  0.81100000  0.84243000  0.02059000  1.0
  C  C221  1  0.85459000  0.90365000  0.98743000  1.0
  C  C222  1  0.92223000  0.88799000  0.96224000  1.0
  C  C223  1  0.94091000  0.81051000  0.97028000  1.0
  C  C224  1  0.58859000  0.17256000  0.04469000  1.0
  C  C225  1  0.65250000  0.15813000  0.01727000  1.0
  C  C226  1  0.65712000  0.06906000  0.01737000  1.0
  C  C227  1  0.59349000  0.99578000  0.04384000  1.0
  C  C228  1  0.53003000  0.01498000  0.06969000  1.0
  C  C229  1  0.92319000  0.31780000  0.86940000  1.0
  C  C230  1  0.87326000  0.25255000  0.90009000  1.0
  C  C231  1  0.90313000  0.18261000  0.90927000  1.0
  C  C232  1  0.98379000  0.18279000  0.88761000  1.0
  C  C233  1  0.02970000  0.25080000  0.85725000  1.0
  C  C234  1  0.62301000  0.44041000  0.83211000  1.0
  C  C235  1  0.57859000  0.35182000  0.76866000  1.0
  C  C236  1  0.47201000  0.39839000  0.79997000  1.0
  C  C237  1  0.84195000  0.52002000  0.91007000  1.0
  C  C238  1  0.78288000  0.48142000  0.87296000  1.0
  C  C239  1  0.69201000  0.48442000  0.86974000  1.0
  C  C240  1  0.66514000  0.52856000  0.90363000  1.0
  C  C241  1  0.72758000  0.56419000  0.93963000  1.0
  C  C242  1  0.55185000  0.19096000  0.66973000  1.0
  C  C243  1  0.52568000  0.23328000  0.70394000  1.0
  C  C244  1  0.60276000  0.30283000  0.73241000  1.0
  C  C245  1  0.70345000  0.32792000  0.72475000  1.0
  C  C246  1  0.72344000  0.28497000  0.68886000  1.0
  C  C247  1  0.22393000  0.37802000  0.76461000  1.0
  C  C248  1  0.31076000  0.36843000  0.76396000  1.0
  C  C249  1  0.37920000  0.40807000  0.79876000  1.0
  C  C250  1  0.35929000  0.45906000  0.83227000  1.0
  C  C251  1  0.27123000  0.46616000  0.83033000  1.0
  I  I252  1  0.02702000  0.66206000  0.26910000  1.0
  I  I253  1  0.93241000  0.42435000  0.16197000  1.0
  I  I254  1  0.66490000  0.02260000  0.84718000  1.0
  I  I255  1  0.60379000  0.74624000  0.91442000  1.0
  I  I256  1  0.22626000  0.48842000  0.94516000  1.0
  I  I257  1  0.92365000  0.35176000  0.01776000  1.0
  I  I258  1  0.63484000  0.66212000  0.76918000  1.0
  I  I259  1  0.49231000  0.42441000  0.66232000  1.0
  I  I260  1  0.35776000  0.02258000  0.34705000  1.0
  I  I261  1  0.14200000  0.74633000  0.41427000  1.0
  I  I262  1  0.26220000  0.48751000  0.44503000  1.0
  I  I263  1  0.42838000  0.35180000  0.51786000  1.0
  I  I264  1  0.36515000  0.33787000  0.23082000  1.0
  I  I265  1  0.50769000  0.57559000  0.33767000  1.0
  I  I266  1  0.64223000  0.97742000  0.65295000  1.0
  I  I267  1  0.85799000  0.25368000  0.58573000  1.0
  I  I268  1  0.73778000  0.51248000  0.55497000  1.0
  I  I269  1  0.57162000  0.64820000  0.48214000  1.0
  I  I270  1  0.97298000  0.33792000  0.73090000  1.0
  I  I271  1  0.06759000  0.57564000  0.83802000  1.0
  I  I272  1  0.33510000  0.97740000  0.15281000  1.0
  I  I273  1  0.39621000  0.25377000  0.08558000  1.0
  I  I274  1  0.77373000  0.51158000  0.05484000  1.0
  I  I275  1  0.07634000  0.64824000  0.98224000  1.0
  N  N276  1  0.22594000  0.88226000  0.03919000  1.0
  N  N277  1  0.24456000  0.01397000  0.99832000  1.0
  N  N278  1  0.12049000  0.95573000  0.05086000  1.0
  N  N279  1  0.10371000  0.25009000  0.99857000  1.0
  N  N280  1  0.47093000  0.89748000  0.92934000  1.0
  N  N281  1  0.00036000  0.68316000  0.15194000  1.0
  N  N282  1  0.34948000  0.59981000  0.20052000  1.0
  N  N283  1  0.51327000  0.65393000  0.23206000  1.0
  N  N284  1  0.46434000  0.55701000  0.16651000  1.0
  N  N285  1  0.18598000  0.44052000  0.05703000  1.0
  N  N286  1  0.35083000  0.78292000  0.33803000  1.0
  N  N287  1  0.79623000  0.57512000  0.20256000  1.0
  N  N288  1  0.65552000  0.88213000  0.53912000  1.0
  N  N289  1  0.76862000  0.01395000  0.49825000  1.0
  N  N290  1  0.83444000  0.95553000  0.55068000  1.0
  N  N291  1  0.14599000  0.24955000  0.49853000  1.0
  N  N292  1  0.42582000  0.89726000  0.42934000  1.0
  N  N293  1  0.68280000  0.68335000  0.65190000  1.0
  N  N294  1  0.25032000  0.59903000  0.70066000  1.0
  N  N295  1  0.14074000  0.65323000  0.73232000  1.0
  N  N296  1  0.09288000  0.55685000  0.66666667  1.0
  N  N297  1  0.25459000  0.44013000  0.55706000  1.0
  N  N298  1  0.43211000  0.78274000  0.83811000  1.0
  N  N299  1  0.77938000  0.57570000  0.70276000  1.0
  N  N300  1  0.34447000  0.11788000  0.46088000  1.0
  N  N301  1  0.23137000  0.98606000  0.50175000  1.0
  N  N302  1  0.16556000  0.04448000  0.44932000  1.0
  N  N303  1  0.85400000  0.75045000  0.50147000  1.0
  N  N304  1  0.57418000  0.10274000  0.57066000  1.0
  N  N305  1  0.31721000  0.31665000  0.34810000  1.0
  N  N306  1  0.74968000  0.40097000  0.29933000  1.0
  N  N307  1  0.85926000  0.34677000  0.26768000  1.0
  N  N308  1  0.90712000  0.44314000  0.33333333  1.0
  N  N309  1  0.74541000  0.55986000  0.44294000  1.0
  N  N310  1  0.56789000  0.21726000  0.16189000  1.0
  N  N311  1  0.22062000  0.42430000  0.29724000  1.0
  N  N312  1  0.77406000  0.11774000  0.96081000  1.0
  N  N313  1  0.75545000  0.98604000  0.00168000  1.0
  N  N314  1  0.87951000  0.04427000  0.94914000  1.0
  N  N315  1  0.89628000  0.74991000  0.00144000  1.0
  N  N316  1  0.52907000  0.10253000  0.07065000  1.0
  N  N317  1  0.99964000  0.31684000  0.84806000  1.0
  N  N318  1  0.65053000  0.40019000  0.79947000  1.0
  N  N319  1  0.48673000  0.34608000  0.76794000  1.0
  N  N320  1  0.53567000  0.44299000  0.83349000  1.0
  N  N321  1  0.81402000  0.55947000  0.94297000  1.0
  N  N322  1  0.64917000  0.21708000  0.66197000  1.0
  N  N323  1  0.20377000  0.42488000  0.79744000  1.0
