# generated using pymatgen
data_Cd3H28C12N8(Cl3O)2
_symmetry_space_group_name_H-M   'P 1'
_cell_length_a   9.07253000
_cell_length_b   9.88277000
_cell_length_c   15.65600000
_cell_angle_alpha   90.00000000
_cell_angle_beta   90.00000000
_cell_angle_gamma   109.43300000
_symmetry_Int_Tables_number   1
_chemical_formula_structural   Cd3H28C12N8(Cl3O)2
_chemical_formula_sum   'Cd6 H56 C24 N16 Cl12 O4'
_cell_volume   1323.77437796
_cell_formula_units_Z   2
loop_
 _symmetry_equiv_pos_site_id
 _symmetry_equiv_pos_as_xyz
  1  'x, y, z'
loop_
 _atom_site_type_symbol
 _atom_site_label
 _atom_site_symmetry_multiplicity
 _atom_site_fract_x
 _atom_site_fract_y
 _atom_site_fract_z
 _atom_site_occupancy
  Cd  Cd0  1  0.08747000  0.68900000  0.95993000  1.0
  Cd  Cd1  1  0.58746000  0.18900000  0.54007000  1.0
  Cd  Cd2  1  0.91253000  0.31100000  0.04007000  1.0
  Cd  Cd3  1  0.41253000  0.81100000  0.45993000  1.0
  Cd  Cd4  1  0.00000000  0.00000000  0.00000000  1.0
  Cd  Cd5  1  0.50000000  0.50000000  0.50000000  1.0
  H  H6  1  0.37754000  0.63539000  0.00414000  1.0
  H  H7  1  0.87754000  0.13539000  0.49587000  1.0
  H  H8  1  0.62246000  0.36461000  0.99587000  1.0
  H  H9  1  0.12246000  0.86461000  0.50413000  1.0
  H  H10  1  0.26457000  0.50298000  0.95767000  1.0
  H  H11  1  0.76457000  0.00298000  0.54233000  1.0
  H  H12  1  0.73543000  0.49702000  0.04233000  1.0
  H  H13  1  0.23543000  0.99702000  0.45767000  1.0
  H  H14  1  0.99269000  0.00664000  0.61364000  1.0
  H  H15  1  0.49269000  0.50664000  0.88636000  1.0
  H  H16  1  0.00730000  0.99335000  0.38636000  1.0
  H  H17  1  0.50731000  0.49335000  0.11365000  1.0
  H  H18  1  0.18486000  0.04385000  0.61460000  1.0
  H  H19  1  0.68485000  0.54385000  0.88539000  1.0
  H  H20  1  0.81514000  0.95615000  0.38539000  1.0
  H  H21  1  0.31514000  0.45614000  0.11461000  1.0
  H  H22  1  0.15354000  0.63538000  0.75626000  1.0
  H  H23  1  0.65352000  0.13539000  0.74374000  1.0
  H  H24  1  0.84647000  0.36461000  0.24374000  1.0
  H  H25  1  0.34647000  0.86461000  0.25627000  1.0
  H  H26  1  0.20278000  0.73633000  0.66082000  1.0
  H  H27  1  0.70276000  0.23633000  0.83918000  1.0
  H  H28  1  0.79723000  0.26366000  0.33918000  1.0
  H  H29  1  0.29723000  0.76366000  0.16083000  1.0
  H  H30  1  0.98369000  0.51042000  0.63326000  1.0
  H  H31  1  0.48367000  0.01041000  0.86673000  1.0
  H  H32  1  0.01632000  0.48959000  0.36673000  1.0
  H  H33  1  0.51631000  0.98957000  0.13326000  1.0
  H  H34  1  0.91358000  0.65602000  0.62062000  1.0
  H  H35  1  0.41356000  0.15601000  0.87938000  1.0
  H  H36  1  0.08643000  0.34398000  0.37938000  1.0
  H  H37  1  0.58643000  0.84398000  0.12062000  1.0
  H  H38  1  0.87105000  0.55120000  0.71610000  1.0
  H  H39  1  0.37104000  0.05120000  0.78390000  1.0
  H  H40  1  0.12896000  0.44880000  0.28390000  1.0
  H  H41  1  0.62895000  0.94879000  0.21609000  1.0
  H  H42  1  0.96769000  0.18876000  0.82408000  1.0
  H  H43  1  0.46769000  0.68878000  0.67592000  1.0
  H  H44  1  0.03231000  0.81123000  0.17591000  1.0
  H  H45  1  0.53233000  0.31125000  0.32409000  1.0
  H  H46  1  0.94660000  0.15593000  0.71291000  1.0
  H  H47  1  0.44658000  0.65594000  0.78709000  1.0
  H  H48  1  0.05341000  0.84406000  0.28709000  1.0
  H  H49  1  0.55340000  0.34407000  0.21292000  1.0
  H  H50  1  0.15580000  0.38858000  0.74222000  1.0
  H  H51  1  0.65580000  0.88859000  0.75779000  1.0
  H  H52  1  0.84420000  0.61141000  0.25777000  1.0
  H  H53  1  0.34421000  0.11142000  0.24223000  1.0
  H  H54  1  0.24147000  0.26985000  0.69452000  1.0
  H  H55  1  0.74146000  0.76984000  0.80549000  1.0
  H  H56  1  0.75853000  0.73014000  0.30547000  1.0
  H  H57  1  0.25853000  0.23014000  0.19453000  1.0
  H  H58  1  0.25665000  0.30062000  0.80739000  1.0
  H  H59  1  0.75664000  0.80063000  0.69261000  1.0
  H  H60  1  0.74335000  0.69937000  0.19259000  1.0
  H  H61  1  0.24336000  0.19938000  0.30741000  1.0
  C  C62  1  0.08935000  0.81936000  0.75465000  1.0
  C  C63  1  0.58933000  0.31937000  0.74535000  1.0
  C  C64  1  0.91067000  0.18063000  0.24535000  1.0
  C  C65  1  0.41066000  0.68064000  0.25465000  1.0
  C  C66  1  0.04872000  0.02489000  0.78129000  1.0
  C  C67  1  0.54870000  0.52489000  0.71871000  1.0
  C  C68  1  0.95129000  0.97512000  0.21871000  1.0
  C  C69  1  0.45129000  0.47512000  0.28129000  1.0
  C  C70  1  0.11098000  0.69600000  0.70913000  1.0
  C  C71  1  0.61096000  0.19600000  0.79087000  1.0
  C  C72  1  0.88903000  0.30399000  0.29087000  1.0
  C  C73  1  0.38903000  0.80400000  0.20913000  1.0
  C  C74  1  0.96023000  0.59801000  0.66736000  1.0
  C  C75  1  0.46021000  0.09801000  0.83264000  1.0
  C  C76  1  0.03978000  0.40200000  0.33264000  1.0
  C  C77  1  0.53978000  0.90199000  0.16735000  1.0
  C  C78  1  0.02627000  0.16538000  0.76742000  1.0
  C  C79  1  0.52626000  0.66539000  0.73258000  1.0
  C  C80  1  0.97374000  0.83462000  0.23258000  1.0
  C  C81  1  0.47374000  0.33462000  0.26743000  1.0
  C  C82  1  0.18028000  0.28820000  0.75156000  1.0
  C  C83  1  0.68028000  0.78820000  0.74844000  1.0
  C  C84  1  0.81972000  0.71180000  0.24842000  1.0
  C  C85  1  0.31972000  0.21181000  0.25158000  1.0
  N  N86  1  0.07995000  0.96605000  0.62884000  1.0
  N  N87  1  0.57994000  0.46605000  0.87116000  1.0
  N  N88  1  0.92005000  0.03394000  0.37116000  1.0
  N  N89  1  0.42006000  0.53395000  0.12884000  1.0
  N  N90  1  0.07377000  0.93952000  0.71707000  1.0
  N  N91  1  0.57376000  0.43952000  0.78293000  1.0
  N  N92  1  0.92623000  0.06048000  0.28293000  1.0
  N  N93  1  0.42623000  0.56048000  0.21707000  1.0
  N  N94  1  0.07667000  0.83229000  0.83823000  1.0
  N  N95  1  0.57666000  0.33229000  0.66176000  1.0
  N  N96  1  0.92333000  0.16771000  0.16176000  1.0
  N  N97  1  0.42333000  0.66772000  0.33824000  1.0
  N  N98  1  0.04992000  0.95921000  0.85469000  1.0
  N  N99  1  0.54991000  0.45921000  0.64531000  1.0
  N  N100  1  0.95008000  0.04079000  0.14531000  1.0
  N  N101  1  0.45008000  0.54080000  0.35469000  1.0
  Cl  Cl102  1  0.24142000  0.92264000  0.03297000  1.0
  Cl  Cl103  1  0.74142000  0.42264000  0.46703000  1.0
  Cl  Cl104  1  0.75858000  0.07736000  0.96702000  1.0
  Cl  Cl105  1  0.25858000  0.57736000  0.53297000  1.0
  Cl  Cl106  1  0.80728000  0.72199000  0.00066000  1.0
  Cl  Cl107  1  0.30728000  0.22199000  0.49933000  1.0
  Cl  Cl108  1  0.19272000  0.27801000  0.99933000  1.0
  Cl  Cl109  1  0.69272000  0.77801000  0.50067000  1.0
  Cl  Cl110  1  0.95075000  0.45193000  0.88661000  1.0
  Cl  Cl111  1  0.45075000  0.95194000  0.61339000  1.0
  Cl  Cl112  1  0.04925000  0.54806000  0.11339000  1.0
  Cl  Cl113  1  0.54926000  0.04807000  0.38661000  1.0
  O  O114  1  0.32144000  0.60698000  0.94974000  1.0
  O  O115  1  0.82144000  0.10699000  0.55026000  1.0
  O  O116  1  0.67856000  0.39301000  0.05026000  1.0
  O  O117  1  0.17856000  0.89302000  0.44974000  1.0
