# generated using pymatgen
data_CuH6C5N2Cl
_symmetry_space_group_name_H-M   'P 1'
_cell_length_a   7.55491000
_cell_length_b   8.07449000
_cell_length_c   11.07230000
_cell_angle_alpha   90.00060000
_cell_angle_beta   90.00050000
_cell_angle_gamma   70.24100000
_symmetry_Int_Tables_number   1
_chemical_formula_structural   CuH6C5N2Cl
_chemical_formula_sum   'Cu4 H24 C20 N8 Cl4'
_cell_volume   635.66542853
_cell_formula_units_Z   4
loop_
 _symmetry_equiv_pos_site_id
 _symmetry_equiv_pos_as_xyz
  1  'x, y, z'
loop_
 _atom_site_type_symbol
 _atom_site_label
 _atom_site_symmetry_multiplicity
 _atom_site_fract_x
 _atom_site_fract_y
 _atom_site_fract_z
 _atom_site_occupancy
  Cu  Cu0  1  0.82382000  0.99554000  0.96804000  1.0
  Cu  Cu1  1  0.32382000  0.99554000  0.53196000  1.0
  Cu  Cu2  1  0.17617000  0.00446000  0.03196000  1.0
  Cu  Cu3  1  0.67618000  0.00446000  0.46804000  1.0
  H  H4  1  0.16225000  0.54619000  0.46211000  1.0
  H  H5  1  0.66224000  0.54618000  0.03788000  1.0
  H  H6  1  0.83776000  0.45382000  0.53788000  1.0
  H  H7  1  0.33776000  0.45382000  0.96212000  1.0
  H  H8  1  0.15423000  0.76420000  0.43123000  1.0
  H  H9  1  0.65423000  0.76418000  0.06878000  1.0
  H  H10  1  0.84578000  0.23582000  0.56878000  1.0
  H  H11  1  0.34578000  0.23580000  0.93122000  1.0
  H  H12  1  0.95453000  0.70314000  0.39765000  1.0
  H  H13  1  0.45452000  0.70313000  0.10235000  1.0
  H  H14  1  0.04548000  0.29689000  0.60235000  1.0
  H  H15  1  0.54548000  0.29688000  0.89766000  1.0
  H  H16  1  0.68557000  0.07614000  0.72102000  1.0
  H  H17  1  0.18558000  0.07613000  0.77898000  1.0
  H  H18  1  0.31441000  0.92385000  0.27898000  1.0
  H  H19  1  0.81441000  0.92385000  0.22102000  1.0
  H  H20  1  0.19322000  0.51694000  0.67811000  1.0
  H  H21  1  0.69322000  0.51694000  0.82188000  1.0
  H  H22  1  0.80678000  0.48307000  0.32188000  1.0
  H  H23  1  0.30678000  0.48307000  0.17812000  1.0
  H  H24  1  0.06942000  0.63848000  0.88491000  1.0
  H  H25  1  0.56944000  0.63848000  0.61508000  1.0
  H  H26  1  0.93057000  0.36150000  0.11508000  1.0
  H  H27  1  0.43056000  0.36152000  0.38491000  1.0
  C  C28  1  0.99833000  0.74027000  0.58578000  1.0
  C  C29  1  0.49832000  0.74028000  0.91422000  1.0
  C  C30  1  0.00169000  0.25973000  0.41422000  1.0
  C  C31  1  0.50168000  0.25973000  0.08578000  1.0
  C  C32  1  0.07023000  0.68409000  0.46201000  1.0
  C  C33  1  0.57022000  0.68409000  0.03800000  1.0
  C  C34  1  0.92978000  0.31592000  0.53799000  1.0
  C  C35  1  0.42978000  0.31591000  0.96201000  1.0
  C  C36  1  0.80055000  0.95108000  0.71275000  1.0
  C  C37  1  0.30055000  0.95108000  0.78725000  1.0
  C  C38  1  0.19946000  0.04892000  0.28725000  1.0
  C  C39  1  0.69945000  0.04893000  0.21275000  1.0
  C  C40  1  0.07898000  0.64242000  0.68816000  1.0
  C  C41  1  0.57899000  0.64242000  0.81185000  1.0
  C  C42  1  0.92101000  0.35759000  0.31185000  1.0
  C  C43  1  0.42101000  0.35758000  0.18816000  1.0
  C  C44  1  0.01318000  0.70736000  0.80128000  1.0
  C  C45  1  0.51319000  0.70738000  0.69872000  1.0
  C  C46  1  0.98682000  0.29262000  0.19872000  1.0
  C  C47  1  0.48682000  0.29263000  0.30128000  1.0
  N  N48  1  0.87663000  0.86644000  0.81441000  1.0
  N  N49  1  0.37662000  0.86645000  0.68560000  1.0
  N  N50  1  0.12338000  0.13354000  0.18560000  1.0
  N  N51  1  0.62336000  0.13355000  0.31441000  1.0
  N  N52  1  0.85104000  0.89367000  0.59957000  1.0
  N  N53  1  0.35104000  0.89366000  0.90041000  1.0
  N  N54  1  0.14896000  0.10633000  0.40042000  1.0
  N  N55  1  0.64894000  0.10632000  0.09957000  1.0
  Cl  Cl56  1  0.92729000  0.23721000  0.90771000  1.0
  Cl  Cl57  1  0.42730000  0.23721000  0.59229000  1.0
  Cl  Cl58  1  0.07269000  0.76279000  0.09229000  1.0
  Cl  Cl59  1  0.57270000  0.76279000  0.40771000  1.0
