# generated using pymatgen
data_CuH12C10N4(ClO2)2
_symmetry_space_group_name_H-M   'P 1'
_cell_length_a   5.09973000
_cell_length_b   7.38590000
_cell_length_c   9.92249000
_cell_angle_alpha   73.09530000
_cell_angle_beta   83.62390000
_cell_angle_gamma   77.07330000
_symmetry_Int_Tables_number   1
_chemical_formula_structural   CuH12C10N4(ClO2)2
_chemical_formula_sum   'Cu1 H12 C10 N4 Cl2 O4'
_cell_volume   348.10517464
_cell_formula_units_Z   1
loop_
 _symmetry_equiv_pos_site_id
 _symmetry_equiv_pos_as_xyz
  1  'x, y, z'
loop_
 _atom_site_type_symbol
 _atom_site_label
 _atom_site_symmetry_multiplicity
 _atom_site_fract_x
 _atom_site_fract_y
 _atom_site_fract_z
 _atom_site_occupancy
  Cu  Cu0  1  0.00000000  0.00000000  0.00000000  1.0
  H  H1  1  0.35043000  0.27345000  0.01700000  1.0
  H  H2  1  0.64957000  0.72656000  0.98300000  1.0
  H  H3  1  0.67688000  0.14240000  0.26076000  1.0
  H  H4  1  0.32312000  0.85760000  0.73924000  1.0
  H  H5  1  0.81670000  0.42815000  0.34692000  1.0
  H  H6  1  0.18330000  0.57185000  0.65309000  1.0
  H  H7  1  0.26044000  0.51455000  0.17157000  1.0
  H  H8  1  0.73956000  0.48545000  0.82843000  1.0
  H  H9  1  0.72617000  0.08393000  0.66065000  1.0
  H  H10  1  0.27383000  0.91607000  0.33935000  1.0
  H  H11  1  0.67190000  0.33722000  0.63573000  1.0
  H  H12  1  0.32809000  0.66278000  0.36428000  1.0
  C  C13  1  0.83920000  0.21903000  0.22074000  1.0
  C  C14  1  0.16080000  0.78097000  0.77926000  1.0
  C  C15  1  0.91306000  0.36445000  0.26397000  1.0
  C  C16  1  0.08693000  0.63556000  0.73603000  1.0
  C  C17  1  0.13890000  0.40831000  0.17848000  1.0
  C  C18  1  0.86110000  0.59169000  0.82152000  1.0
  C  C19  1  0.43443000  0.18744000  0.80832000  1.0
  C  C20  1  0.56557000  0.81255000  0.19168000  1.0
  C  C21  1  0.57164000  0.21411000  0.66093000  1.0
  C  C22  1  0.42837000  0.78588000  0.33907000  1.0
  N  N23  1  0.00944000  0.17697000  0.11510000  1.0
  N  N24  1  0.99056000  0.82303000  0.88490000  1.0
  N  N25  1  0.18989000  0.29340000  0.09130000  1.0
  N  N26  1  0.81011000  0.70660000  0.90870000  1.0
  Cl  Cl27  1  0.34983000  0.25309000  0.52343000  1.0
  Cl  Cl28  1  0.65017000  0.74690000  0.47657000  1.0
  O  O29  1  0.20623000  0.13909000  0.82835000  1.0
  O  O30  1  0.79377000  0.86091000  0.17165000  1.0
  O  O31  1  0.56751000  0.21390000  0.89904000  1.0
  O  O32  1  0.43249000  0.78610000  0.10096000  1.0
