# generated using pymatgen
data_InH25C38(NO4)2
_symmetry_space_group_name_H-M   'P 1'
_cell_length_a   9.81034000
_cell_length_b   12.86650000
_cell_length_c   13.22970000
_cell_angle_alpha   82.41280000
_cell_angle_beta   85.40760000
_cell_angle_gamma   80.52580000
_symmetry_Int_Tables_number   1
_chemical_formula_structural   InH25C38(NO4)2
_chemical_formula_sum   'In2 H50 C76 N4 O16'
_cell_volume   1629.80841292
_cell_formula_units_Z   2
loop_
 _symmetry_equiv_pos_site_id
 _symmetry_equiv_pos_as_xyz
  1  'x, y, z'
loop_
 _atom_site_type_symbol
 _atom_site_label
 _atom_site_symmetry_multiplicity
 _atom_site_fract_x
 _atom_site_fract_y
 _atom_site_fract_z
 _atom_site_occupancy
  In  In0  1  0.36915000  0.73173000  0.44632000  1.0
  In  In1  1  0.63085000  0.26825000  0.55368000  1.0
  H  H2  1  0.21833000  0.91023000  0.58197000  1.0
  H  H3  1  0.78167000  0.08977000  0.41804000  1.0
  H  H4  1  0.27096000  0.00978000  0.72198000  1.0
  H  H5  1  0.72905000  0.99021000  0.27802000  1.0
  H  H6  1  0.52299000  0.00546000  0.75502000  1.0
  H  H7  1  0.47702000  0.99454000  0.24497000  1.0
  H  H8  1  0.70344000  0.90655000  0.64875000  1.0
  H  H9  1  0.29657000  0.09345000  0.35123000  1.0
  H  H10  1  0.84329000  0.82773000  0.55479000  1.0
  H  H11  1  0.15671000  0.17227000  0.44520000  1.0
  H  H12  1  0.00601000  0.72470000  0.43749000  1.0
  H  H13  1  0.99399000  0.27531000  0.56251000  1.0
  H  H14  1  0.90757000  0.63464000  0.30839000  1.0
  H  H15  1  0.09243000  0.36536000  0.69161000  1.0
  H  H16  1  0.64922000  0.64932000  0.30691000  1.0
  H  H17  1  0.35079000  0.35069000  0.69308000  1.0
  H  H18  1  0.03940000  0.04650000  0.41895000  1.0
  H  H19  1  0.96060000  0.95350000  0.58105000  1.0
  H  H20  1  0.91299000  0.21242000  0.32768000  1.0
  H  H21  1  0.08700000  0.78758000  0.67233000  1.0
  H  H22  1  0.91811000  0.23501000  0.13755000  1.0
  H  H23  1  0.08188000  0.76499000  0.86246000  1.0
  H  H24  1  0.03723000  0.09044000  0.04109000  1.0
  H  H25  1  0.96277000  0.90956000  0.95892000  1.0
  H  H26  1  0.07190000  0.78795000  0.20472000  1.0
  H  H27  1  0.92810000  0.21206000  0.79528000  1.0
  H  H28  1  0.16285000  0.64267000  0.09950000  1.0
  H  H29  1  0.83715000  0.35734000  0.90049000  1.0
  H  H30  1  0.31594000  0.67744000  0.94382000  1.0
  H  H31  1  0.68406000  0.32256000  0.05618000  1.0
  H  H32  1  0.38512000  0.85722000  0.89782000  1.0
  H  H33  1  0.61489000  0.14278000  0.10218000  1.0
  H  H34  1  0.89696000  0.51404000  0.64890000  1.0
  H  H35  1  0.10304000  0.48596000  0.35111000  1.0
  H  H36  1  0.92912000  0.67608000  0.72477000  1.0
  H  H37  1  0.07088000  0.32392000  0.27523000  1.0
  H  H38  1  0.73604000  0.76634000  0.83197000  1.0
  H  H39  1  0.26396000  0.23366000  0.16803000  1.0
  H  H40  1  0.51537000  0.69492000  0.86143000  1.0
  H  H41  1  0.48463000  0.30508000  0.13857000  1.0
  H  H42  1  0.51098000  0.43693000  0.93931000  1.0
  H  H43  1  0.48902000  0.56306000  0.06069000  1.0
  H  H44  1  0.28106000  0.38915000  0.99884000  1.0
  H  H45  1  0.71894000  0.61083000  0.00115000  1.0
  H  H46  1  0.07774000  0.45538000  0.89184000  1.0
  H  H47  1  0.92226000  0.54462000  0.10816000  1.0
  H  H48  1  0.11297000  0.56555000  0.72429000  1.0
  H  H49  1  0.88703000  0.43445000  0.27571000  1.0
  H  H50  1  0.37452000  0.12401000  0.89356000  1.0
  H  H51  1  0.62547000  0.87600000  0.10645000  1.0
  C  C52  1  0.20420000  0.89017000  0.34173000  1.0
  C  C53  1  0.79579000  0.10983000  0.65828000  1.0
  C  C54  1  0.67550000  0.41996000  0.66200000  1.0
  C  C55  1  0.32451000  0.58004000  0.33800000  1.0
  C  C56  1  0.34129000  0.62383000  0.63428000  1.0
  C  C57  1  0.65871000  0.37617000  0.36572000  1.0
  C  C58  1  0.32399000  0.91186000  0.60015000  1.0
  C  C59  1  0.67601000  0.08814000  0.39984000  1.0
  C  C60  1  0.35439000  0.96710000  0.67703000  1.0
  C  C61  1  0.64562000  0.03289000  0.32297000  1.0
  C  C62  1  0.49296000  0.96463000  0.69532000  1.0
  C  C63  1  0.50704000  0.03536000  0.30468000  1.0
  C  C64  1  0.59515000  0.90861000  0.63538000  1.0
  C  C65  1  0.40486000  0.09139000  0.36461000  1.0
  C  C66  1  0.55756000  0.85467000  0.55942000  1.0
  C  C67  1  0.44244000  0.14533000  0.44057000  1.0
  C  C68  1  0.66030000  0.79391000  0.49233000  1.0
  C  C69  1  0.33970000  0.20609000  0.50766000  1.0
  C  C70  1  0.80307000  0.78821000  0.49861000  1.0
  C  C71  1  0.19693000  0.21179000  0.50138000  1.0
  C  C72  1  0.89460000  0.73065000  0.43281000  1.0
  C  C73  1  0.10540000  0.26935000  0.56718000  1.0
  C  C74  1  0.84034000  0.68083000  0.36131000  1.0
  C  C75  1  0.15967000  0.31918000  0.63868000  1.0
  C  C76  1  0.69705000  0.68907000  0.35924000  1.0
  C  C77  1  0.30295000  0.31093000  0.64075000  1.0
  C  C78  1  0.11691000  0.97913000  0.28156000  1.0
  C  C79  1  0.88308000  0.02088000  0.71845000  1.0
  C  C80  1  0.04099000  0.05837000  0.33571000  1.0
  C  C81  1  0.95900000  0.94163000  0.66429000  1.0
  C  C82  1  0.97096000  0.15089000  0.28474000  1.0
  C  C83  1  0.02903000  0.84912000  0.71526000  1.0
  C  C84  1  0.97301000  0.16313000  0.17822000  1.0
  C  C85  1  0.02699000  0.83686000  0.82178000  1.0
  C  C86  1  0.04205000  0.08247000  0.12392000  1.0
  C  C87  1  0.95794000  0.91753000  0.87609000  1.0
  C  C88  1  0.11588000  0.98987000  0.17416000  1.0
  C  C89  1  0.88412000  0.01014000  0.82584000  1.0
  C  C90  1  0.18041000  0.90355000  0.11382000  1.0
  C  C91  1  0.81959000  0.09645000  0.88619000  1.0
  C  C92  1  0.14246000  0.80230000  0.13817000  1.0
  C  C93  1  0.85754000  0.19771000  0.86183000  1.0
  C  C94  1  0.19232000  0.72117000  0.07848000  1.0
  C  C95  1  0.80768000  0.27883000  0.92152000  1.0
  C  C96  1  0.27928000  0.74064000  0.99146000  1.0
  C  C97  1  0.72072000  0.25936000  0.00854000  1.0
  C  C98  1  0.31685000  0.84101000  0.96510000  1.0
  C  C99  1  0.68316000  0.15899000  0.03490000  1.0
  C  C100  1  0.26962000  0.92225000  0.02644000  1.0
  C  C101  1  0.73039000  0.07775000  0.97356000  1.0
  C  C102  1  0.32321000  0.02519000  0.00325000  1.0
  C  C103  1  0.67679000  0.97481000  0.99676000  1.0
  C  C104  1  0.69053000  0.51255000  0.71448000  1.0
  C  C105  1  0.30947000  0.48745000  0.28553000  1.0
  C  C106  1  0.81538000  0.55347000  0.69795000  1.0
  C  C107  1  0.18462000  0.44654000  0.30205000  1.0
  C  C108  1  0.83269000  0.64395000  0.73968000  1.0
  C  C109  1  0.16731000  0.35606000  0.26032000  1.0
  C  C110  1  0.72463000  0.69498000  0.79908000  1.0
  C  C111  1  0.27537000  0.30502000  0.20091000  1.0
  C  C112  1  0.60006000  0.65463000  0.81571000  1.0
  C  C113  1  0.39994000  0.34537000  0.18429000  1.0
  C  C114  1  0.58050000  0.56386000  0.77408000  1.0
  C  C115  1  0.41950000  0.43614000  0.22592000  1.0
  C  C116  1  0.32938000  0.56238000  0.73778000  1.0
  C  C117  1  0.67061000  0.43762000  0.26223000  1.0
  C  C118  1  0.44355000  0.52711000  0.79867000  1.0
  C  C119  1  0.55645000  0.47289000  0.20133000  1.0
  C  C120  1  0.42307000  0.46472000  0.89220000  1.0
  C  C121  1  0.57694000  0.53527000  0.10780000  1.0
  C  C122  1  0.29339000  0.43769000  0.92562000  1.0
  C  C123  1  0.70661000  0.56230000  0.07438000  1.0
  C  C124  1  0.18005000  0.47471000  0.86602000  1.0
  C  C125  1  0.81995000  0.52529000  0.13398000  1.0
  C  C126  1  0.19890000  0.53671000  0.77292000  1.0
  C  C127  1  0.80110000  0.46329000  0.22708000  1.0
  N  N128  1  0.42272000  0.85650000  0.54395000  1.0
  N  N129  1  0.57727000  0.14349000  0.45605000  1.0
  N  N130  1  0.60948000  0.74404000  0.42340000  1.0
  N  N131  1  0.39052000  0.25596000  0.57659000  1.0
  O  O132  1  0.16182000  0.85781000  0.43219000  1.0
  O  O133  1  0.83816000  0.14218000  0.56781000  1.0
  O  O134  1  0.32306000  0.85084000  0.30394000  1.0
  O  O135  1  0.67693000  0.14917000  0.69607000  1.0
  O  O136  1  0.55974000  0.38522000  0.66978000  1.0
  O  O137  1  0.44026000  0.61479000  0.33019000  1.0
  O  O138  1  0.77699000  0.37717000  0.60721000  1.0
  O  O139  1  0.22303000  0.62280000  0.39281000  1.0
  O  O140  1  0.45626000  0.61480000  0.58067000  1.0
  O  O141  1  0.54374000  0.38519000  0.41932000  1.0
  O  O142  1  0.23460000  0.68408000  0.59929000  1.0
  O  O143  1  0.76540000  0.31592000  0.40072000  1.0
  O  O144  1  0.36156000  0.07392000  0.06649000  1.0
  O  O145  1  0.63843000  0.92609000  0.93351000  1.0
  O  O146  1  0.32918000  0.06060000  0.90145000  1.0
  O  O147  1  0.67083000  0.93940000  0.09855000  1.0
