# generated using pymatgen
data_CuH5C4N2O3
_symmetry_space_group_name_H-M   'P 1'
_cell_length_a   6.89729000
_cell_length_b   9.60510000
_cell_length_c   9.88722000
_cell_angle_alpha   89.99950000
_cell_angle_beta   90.00000000
_cell_angle_gamma   101.87700000
_symmetry_Int_Tables_number   1
_chemical_formula_structural   CuH5C4N2O3
_chemical_formula_sum   'Cu4 H20 C16 N8 O12'
_cell_volume   640.99714451
_cell_formula_units_Z   4
loop_
 _symmetry_equiv_pos_site_id
 _symmetry_equiv_pos_as_xyz
  1  'x, y, z'
loop_
 _atom_site_type_symbol
 _atom_site_label
 _atom_site_symmetry_multiplicity
 _atom_site_fract_x
 _atom_site_fract_y
 _atom_site_fract_z
 _atom_site_occupancy
  Cu  Cu0  1  0.65665000  0.81805000  0.72089000  1.0
  Cu  Cu1  1  0.34335000  0.68195000  0.22089000  1.0
  Cu  Cu2  1  0.34335000  0.18195000  0.27912000  1.0
  Cu  Cu3  1  0.65665000  0.31805000  0.77911000  1.0
  H  H4  1  0.62955000  0.28601000  0.03755000  1.0
  H  H5  1  0.37046000  0.21399000  0.53755000  1.0
  H  H6  1  0.37047000  0.71400000  0.96246000  1.0
  H  H7  1  0.62954000  0.78600000  0.46246000  1.0
  H  H8  1  0.69482000  0.47591000  0.98637000  1.0
  H  H9  1  0.30517000  0.02409000  0.48638000  1.0
  H  H10  1  0.30519000  0.52410000  0.01362000  1.0
  H  H11  1  0.69482000  0.97590000  0.51362000  1.0
  H  H12  1  0.99494000  0.43416000  0.86734000  1.0
  H  H13  1  0.00507000  0.06585000  0.36734000  1.0
  H  H14  1  0.00508000  0.56584000  0.13267000  1.0
  H  H15  1  0.99493000  0.93415000  0.63266000  1.0
  H  H16  1  0.84156000  0.11494000  0.93800000  1.0
  H  H17  1  0.15844000  0.38507000  0.43799000  1.0
  H  H18  1  0.15843000  0.88507000  0.06201000  1.0
  H  H19  1  0.84157000  0.61492000  0.56200000  1.0
  H  H20  1  0.03482000  0.18657000  0.82271000  1.0
  H  H21  1  0.96519000  0.31344000  0.32270000  1.0
  H  H22  1  0.96519000  0.81343000  0.17730000  1.0
  H  H23  1  0.03482000  0.68656000  0.67730000  1.0
  C  C24  1  0.71903000  0.36782000  0.97438000  1.0
  C  C25  1  0.28096000  0.13219000  0.47438000  1.0
  C  C26  1  0.28097000  0.63219000  0.02562000  1.0
  C  C27  1  0.71903000  0.86781000  0.52562000  1.0
  C  C28  1  0.88745000  0.34465000  0.90871000  1.0
  C  C29  1  0.11255000  0.15536000  0.40870000  1.0
  C  C30  1  0.11256000  0.65536000  0.09130000  1.0
  C  C31  1  0.88744000  0.84464000  0.59129000  1.0
  C  C32  1  0.96239000  0.20684000  0.91767000  1.0
  C  C33  1  0.03762000  0.29317000  0.41767000  1.0
  C  C34  1  0.03761000  0.79316000  0.08233000  1.0
  C  C35  1  0.96239000  0.70684000  0.58233000  1.0
  C  C36  1  0.10816000  0.21086000  0.02400000  1.0
  C  C37  1  0.89185000  0.28914000  0.52399000  1.0
  C  C38  1  0.89185000  0.78913000  0.97602000  1.0
  C  C39  1  0.10817000  0.71086000  0.47601000  1.0
  N  N40  1  0.22172000  0.21317000  0.11132000  1.0
  N  N41  1  0.77827000  0.28683000  0.61132000  1.0
  N  N42  1  0.77827000  0.78683000  0.88867000  1.0
  N  N43  1  0.22174000  0.71316000  0.38868000  1.0
  N  N44  1  0.38409000  0.97475000  0.79500000  1.0
  N  N45  1  0.61590000  0.52525000  0.29499000  1.0
  N  N46  1  0.61590000  0.02524000  0.20501000  1.0
  N  N47  1  0.38408000  0.47475000  0.70500000  1.0
  O  O48  1  0.38013000  0.84617000  0.75136000  1.0
  O  O49  1  0.61986000  0.65383000  0.25137000  1.0
  O  O50  1  0.61986000  0.15383000  0.24865000  1.0
  O  O51  1  0.38013000  0.34617000  0.74865000  1.0
  O  O52  1  0.22454000  0.01090000  0.81925000  1.0
  O  O53  1  0.77545000  0.48910000  0.31925000  1.0
  O  O54  1  0.77546000  0.98910000  0.18076000  1.0
  O  O55  1  0.22453000  0.51090000  0.68077000  1.0
  O  O56  1  0.55151000  0.05682000  0.81046000  1.0
  O  O57  1  0.44848000  0.44317000  0.31044000  1.0
  O  O58  1  0.44849000  0.94317000  0.18954000  1.0
  O  O59  1  0.55150000  0.55681000  0.68951000  1.0
