# generated using pymatgen
data_Tb2H19C24N3O23
_symmetry_space_group_name_H-M   'P 1'
_cell_length_a   11.41240000
_cell_length_b   11.94000000
_cell_length_c   13.08460000
_cell_angle_alpha   91.23370000
_cell_angle_beta   106.16200000
_cell_angle_gamma   90.19250000
_symmetry_Int_Tables_number   1
_chemical_formula_structural   Tb2H19C24N3O23
_chemical_formula_sum   'Tb4 H38 C48 N6 O46'
_cell_volume   1712.01722067
_cell_formula_units_Z   2
loop_
 _symmetry_equiv_pos_site_id
 _symmetry_equiv_pos_as_xyz
  1  'x, y, z'
loop_
 _atom_site_type_symbol
 _atom_site_label
 _atom_site_symmetry_multiplicity
 _atom_site_fract_x
 _atom_site_fract_y
 _atom_site_fract_z
 _atom_site_occupancy
  Tb  Tb0  1  0.05256000  0.54582000  0.17011000  1.0
  Tb  Tb1  1  0.94744000  0.45418000  0.82988000  1.0
  Tb  Tb2  1  0.55049000  0.16238000  0.49985000  1.0
  Tb  Tb3  1  0.44950000  0.83762000  0.50015000  1.0
  H  H4  1  0.48357000  0.15468000  0.14338000  1.0
  H  H5  1  0.51643000  0.84532000  0.85663000  1.0
  H  H6  1  0.61760000  0.27321000  0.88663000  1.0
  H  H7  1  0.38240000  0.72679000  0.11337000  1.0
  H  H8  1  0.76036000  0.41276000  0.20246000  1.0
  H  H9  1  0.23963000  0.58725000  0.79753000  1.0
  H  H10  1  0.92746000  0.86803000  0.08753000  1.0
  H  H11  1  0.07255000  0.13197000  0.91247000  1.0
  H  H12  1  0.76250000  0.11667000  0.86012000  1.0
  H  H13  1  0.23750000  0.88333000  0.13988000  1.0
  H  H14  1  0.75091000  0.76896000  0.76272000  1.0
  H  H15  1  0.24910000  0.23105000  0.23728000  1.0
  H  H16  1  0.21129000  0.90358000  0.59115000  1.0
  H  H17  1  0.78871000  0.09642000  0.40885000  1.0
  H  H18  1  0.91399000  0.06856000  0.67544000  1.0
  H  H19  1  0.08600000  0.93144000  0.32455000  1.0
  H  H20  1  0.22890000  0.25943000  0.65754000  1.0
  H  H21  1  0.77109000  0.74058000  0.34245000  1.0
  H  H22  1  0.74577000  0.30127000  0.48025000  1.0
  H  H23  1  0.25423000  0.69873000  0.51976000  1.0
  H  H24  1  0.80649000  0.25722000  0.60060000  1.0
  H  H25  1  0.19350000  0.74278000  0.39940000  1.0
  H  H26  1  0.31355000  0.58677000  0.29929000  1.0
  H  H27  1  0.68645000  0.41323000  0.70071000  1.0
  H  H28  1  0.28844000  0.46776000  0.24355000  1.0
  H  H29  1  0.71156000  0.53224000  0.75645000  1.0
  H  H30  1  0.65137000  0.21419000  0.71800000  1.0
  H  H31  1  0.34863000  0.78581000  0.28200000  1.0
  H  H32  1  0.52520000  0.27373000  0.68808000  1.0
  H  H33  1  0.47479000  0.72627000  0.31192000  1.0
  H  H34  1  0.55803000  0.38789000  0.42967000  1.0
  H  H35  1  0.44197000  0.61212000  0.57033000  1.0
  H  H36  1  0.42184000  0.39475000  0.43883000  1.0
  H  H37  1  0.57816000  0.60526000  0.56118000  1.0
  H  H38  1  0.00788000  0.35544000  0.32945000  1.0
  H  H39  1  0.99212000  0.64456000  0.67055000  1.0
  H  H40  1  0.94741000  0.47263000  0.33351000  1.0
  H  H41  1  0.05259000  0.52737000  0.66649000  1.0
  C  C42  1  0.62413000  0.28930000  0.30019000  1.0
  C  C43  1  0.37586000  0.71071000  0.69981000  1.0
  C  C44  1  0.61969000  0.28692000  0.18431000  1.0
  C  C45  1  0.38031000  0.71309000  0.81568000  1.0
  C  C46  1  0.54086000  0.21160000  0.11420000  1.0
  C  C47  1  0.45913000  0.78840000  0.88580000  1.0
  C  C48  1  0.53906000  0.21053000  0.00716000  1.0
  C  C49  1  0.46095000  0.78947000  0.99285000  1.0
  C  C50  1  0.61686000  0.27793000  0.96944000  1.0
  C  C51  1  0.38314000  0.72206000  0.03057000  1.0
  C  C52  1  0.69915000  0.34894000  0.04087000  1.0
  C  C53  1  0.30084000  0.65106000  0.95913000  1.0
  C  C54  1  0.69754000  0.35592000  0.14727000  1.0
  C  C55  1  0.30245000  0.64408000  0.85272000  1.0
  C  C56  1  0.79840000  0.40526000  0.00542000  1.0
  C  C57  1  0.20160000  0.59474000  0.99459000  1.0
  C  C58  1  0.89058000  0.68961000  0.95176000  1.0
  C  C59  1  0.10942000  0.31038000  0.04824000  1.0
  C  C60  1  0.84319000  0.80559000  0.92774000  1.0
  C  C61  1  0.15681000  0.19440000  0.07226000  1.0
  C  C62  1  0.87545000  0.88860000  0.00728000  1.0
  C  C63  1  0.12456000  0.11139000  0.99272000  1.0
  C  C64  1  0.84519000  0.99868000  0.98027000  1.0
  C  C65  1  0.15481000  0.00132000  0.01973000  1.0
  C  C66  1  0.78123000  0.02896000  0.87779000  1.0
  C  C67  1  0.21878000  0.97104000  0.12221000  1.0
  C  C68  1  0.74398000  0.94455000  0.79995000  1.0
  C  C69  1  0.25603000  0.05545000  0.20005000  1.0
  C  C70  1  0.77611000  0.83335000  0.82515000  1.0
  C  C71  1  0.22390000  0.16665000  0.17484000  1.0
  C  C72  1  0.67061000  0.96931000  0.68887000  1.0
  C  C73  1  0.32939000  0.03069000  0.31113000  1.0
  C  C74  1  0.34734000  0.09351000  0.58826000  1.0
  C  C75  1  0.65265000  0.90650000  0.41174000  1.0
  C  C76  1  0.23114000  0.08345000  0.61851000  1.0
  C  C77  1  0.76885000  0.91656000  0.38148000  1.0
  C  C78  1  0.17164000  0.98003000  0.61309000  1.0
  C  C79  1  0.82835000  0.01997000  0.38691000  1.0
  C  C80  1  0.05842000  0.97751000  0.63382000  1.0
  C  C81  1  0.94158000  0.02248000  0.36618000  1.0
  C  C82  1  0.00265000  0.07371000  0.65995000  1.0
  C  C83  1  0.99734000  0.92628000  0.34004000  1.0
  C  C84  1  0.06641000  0.17550000  0.67094000  1.0
  C  C85  1  0.93358000  0.82449000  0.32906000  1.0
  C  C86  1  0.18001000  0.17989000  0.64986000  1.0
  C  C87  1  0.81998000  0.82012000  0.35013000  1.0
  C  C88  1  0.01933000  0.27963000  0.71077000  1.0
  C  C89  1  0.98066000  0.72036000  0.28922000  1.0
  N  N90  1  0.45712000  0.13209000  0.93197000  1.0
  N  N91  1  0.54288000  0.86790000  0.06804000  1.0
  N  N92  1  0.88720000  0.08609000  0.06228000  1.0
  N  N93  1  0.11281000  0.91390000  0.93773000  1.0
  N  N94  1  0.99650000  0.86914000  0.63096000  1.0
  N  N95  1  0.00351000  0.13085000  0.36904000  1.0
  O  O96  1  0.46435000  0.12707000  0.83887000  1.0
  O  O97  1  0.53566000  0.87291000  0.16115000  1.0
  O  O98  1  0.38552000  0.07452000  0.96539000  1.0
  O  O99  1  0.61449000  0.92549000  0.03462000  1.0
  O  O100  1  0.58120000  0.20330000  0.33361000  1.0
  O  O101  1  0.41880000  0.79671000  0.66639000  1.0
  O  O102  1  0.66909000  0.37518000  0.35787000  1.0
  O  O103  1  0.33090000  0.62483000  0.64213000  1.0
  O  O104  1  0.79593000  0.39470000  0.90805000  1.0
  O  O105  1  0.20407000  0.60530000  0.09194000  1.0
  O  O106  1  0.88168000  0.45585000  0.07630000  1.0
  O  O107  1  0.11833000  0.54414000  0.92369000  1.0
  O  O108  1  0.95424000  0.67206000  0.04576000  1.0
  O  O109  1  0.04576000  0.32793000  0.95423000  1.0
  O  O110  1  0.86590000  0.61833000  0.87458000  1.0
  O  O111  1  0.13410000  0.38166000  0.12541000  1.0
  O  O112  1  0.62417000  0.88588000  0.63058000  1.0
  O  O113  1  0.37582000  0.11412000  0.36941000  1.0
  O  O114  1  0.65927000  0.07163000  0.66038000  1.0
  O  O115  1  0.34072000  0.92837000  0.33963000  1.0
  O  O116  1  0.86831000  0.18478000  0.03593000  1.0
  O  O117  1  0.13169000  0.81522000  0.96408000  1.0
  O  O118  1  0.94259000  0.05702000  0.15340000  1.0
  O  O119  1  0.05742000  0.94297000  0.84661000  1.0
  O  O120  1  0.39376000  0.19070000  0.58765000  1.0
  O  O121  1  0.60624000  0.80931000  0.41235000  1.0
  O  O122  1  0.39593000  0.00662000  0.56005000  1.0
  O  O123  1  0.60407000  0.99339000  0.43995000  1.0
  O  O124  1  0.09096000  0.36253000  0.74232000  1.0
  O  O125  1  0.90903000  0.63747000  0.25767000  1.0
  O  O126  1  0.90801000  0.28294000  0.71643000  1.0
  O  O127  1  0.09198000  0.71705000  0.28357000  1.0
  O  O128  1  0.05867000  0.78250000  0.63441000  1.0
  O  O129  1  0.94134000  0.21749000  0.36559000  1.0
  O  O130  1  0.88680000  0.86843000  0.62608000  1.0
  O  O131  1  0.11321000  0.13157000  0.37393000  1.0
  O  O132  1  0.74881000  0.23851000  0.52940000  1.0
  O  O133  1  0.25119000  0.76149000  0.47060000  1.0
  O  O134  1  0.26442000  0.51670000  0.29488000  1.0
  O  O135  1  0.73558000  0.48330000  0.70512000  1.0
  O  O136  1  0.61028000  0.28309000  0.68689000  1.0
  O  O137  1  0.38971000  0.71691000  0.31310000  1.0
  O  O138  1  0.50130000  0.36151000  0.47030000  1.0
  O  O139  1  0.49871000  0.63850000  0.52971000  1.0
  O  O140  1  0.01568000  0.43569000  0.31599000  1.0
  O  O141  1  0.98432000  0.56431000  0.68401000  1.0
