# generated using pymatgen
data_ZnH12C19BrNO6
_symmetry_space_group_name_H-M   'P 1'
_cell_length_a   11.24180000
_cell_length_b   16.40230000
_cell_length_c   17.78850000
_cell_angle_alpha   95.19380000
_cell_angle_beta   90.44630000
_cell_angle_gamma   92.19030000
_symmetry_Int_Tables_number   1
_chemical_formula_structural   ZnH12C19BrNO6
_chemical_formula_sum   'Zn2 H24 C38 Br2 N2 O12'
_cell_volume   3263.98367773
_cell_formula_units_Z   2
loop_
 _symmetry_equiv_pos_site_id
 _symmetry_equiv_pos_as_xyz
  1  'x, y, z'
loop_
 _atom_site_type_symbol
 _atom_site_label
 _atom_site_symmetry_multiplicity
 _atom_site_fract_x
 _atom_site_fract_y
 _atom_site_fract_z
 _atom_site_occupancy
  Zn  Zn0  1  0.49520000  0.41416000  0.49693000  1.0
  Zn  Zn1  1  0.50467000  0.58537000  0.50308000  1.0
  H  H2  1  0.38014000  0.71276000  0.42669000  1.0
  H  H3  1  0.38344000  0.86385000  0.42798000  1.0
  H  H4  1  0.66234000  0.86921000  0.60003000  1.0
  H  H5  1  0.64590000  0.72055000  0.58906000  1.0
  H  H6  1  0.33971000  0.13055000  0.39851000  1.0
  H  H7  1  0.61456000  0.13622000  0.57333000  1.0
  H  H8  1  0.61613000  0.28706000  0.57565000  1.0
  H  H9  1  0.35778000  0.27887000  0.40828000  1.0
  H  H10  1  0.50659000  0.61699000  0.26402000  1.0
  H  H11  1  0.50705000  0.61103000  0.12529000  1.0
  H  H12  1  0.49115000  0.34525000  0.11791000  1.0
  H  H13  1  0.49088000  0.35502000  0.25374000  1.0
  H  H14  1  0.50896000  0.65535000  0.88094000  1.0
  H  H15  1  0.49319000  0.38981000  0.87604000  1.0
  H  H16  1  0.49357000  0.38228000  0.73743000  1.0
  H  H17  1  0.50901000  0.64408000  0.74486000  1.0
  H  H18  1  0.89915000  0.68800000  0.55725000  1.0
  H  H19  1  0.89643000  0.68232000  0.45664000  1.0
  H  H20  1  0.12100000  0.68267000  0.45592000  1.0
  H  H21  1  0.12366000  0.68809000  0.55646000  1.0
  H  H22  1  0.65531000  0.96909000  0.59560000  1.0
  H  H23  1  0.34460000  0.03100000  0.40469000  1.0
  H  H24  1  0.49117000  0.35350000  0.02978000  1.0
  H  H25  1  0.50901000  0.64782000  0.97023000  1.0
  C  C26  1  0.49702000  0.48918000  0.35254000  1.0
  C  C27  1  0.26471000  0.50293000  0.49953000  1.0
  C  C28  1  0.50268000  0.50578000  0.64729000  1.0
  C  C29  1  0.73560000  0.50275000  0.50059000  1.0
  C  C30  1  0.44121000  0.75115000  0.46385000  1.0
  C  C31  1  0.44341000  0.83586000  0.46501000  1.0
  C  C32  1  0.52290000  0.88435000  0.51408000  1.0
  C  C33  1  0.59667000  0.84019000  0.55946000  1.0
  C  C34  1  0.58921000  0.75527000  0.55468000  1.0
  C  C35  1  0.53255000  0.97411000  0.52019000  1.0
  C  C36  1  0.46732000  0.02571000  0.47991000  1.0
  C  C37  1  0.40471000  0.15952000  0.43956000  1.0
  C  C38  1  0.47708000  0.11553000  0.48589000  1.0
  C  C39  1  0.55521000  0.16401000  0.53579000  1.0
  C  C40  1  0.55682000  0.24876000  0.53728000  1.0
  C  C41  1  0.41273000  0.24441000  0.44391000  1.0
  C  C42  1  0.49771000  0.48647000  0.26834000  1.0
  C  C43  1  0.50273000  0.55783000  0.23062000  1.0
  C  C44  1  0.50316000  0.55440000  0.15227000  1.0
  C  C45  1  0.49862000  0.47852000  0.10709000  1.0
  C  C46  1  0.49427000  0.40720000  0.14671000  1.0
  C  C47  1  0.49383000  0.41087000  0.22491000  1.0
  C  C48  1  0.49816000  0.46984000  0.02415000  1.0
  C  C49  1  0.50206000  0.53151000  0.97595000  1.0
  C  C50  1  0.50589000  0.59319000  0.85257000  1.0
  C  C51  1  0.50162000  0.52244000  0.89301000  1.0
  C  C52  1  0.49709000  0.44609000  0.84859000  1.0
  C  C53  1  0.49749000  0.44171000  0.77032000  1.0
  C  C54  1  0.50234000  0.51240000  0.73163000  1.0
  C  C55  1  0.50619000  0.58854000  0.77417000  1.0
  C  C56  1  0.86905000  0.49522000  0.49979000  1.0
  C  C57  1  0.13043000  0.49539000  0.49958000  1.0
  C  C58  1  0.94171000  0.56616000  0.50240000  1.0
  C  C59  1  0.05883000  0.42161000  0.49739000  1.0
  C  C60  1  0.06554000  0.56625000  0.50197000  1.0
  C  C61  1  0.93249000  0.42146000  0.49672000  1.0
  C  C62  1  0.93836000  0.65868000  0.50578000  1.0
  C  C63  1  0.07889000  0.65880000  0.50537000  1.0
  Br  Br64  1  0.13086000  0.31787000  0.49646000  1.0
  Br  Br65  1  0.84898000  0.31742000  0.49056000  1.0
  N  N66  1  0.51252000  0.71095000  0.50766000  1.0
  N  N67  1  0.48747000  0.28879000  0.49219000  1.0
  O  O68  1  0.49225000  0.42082000  0.38110000  1.0
  O  O69  1  0.50154000  0.55995000  0.38944000  1.0
  O  O70  1  0.31189000  0.57493000  0.50182000  1.0
  O  O71  1  0.32077000  0.43715000  0.49717000  1.0
  O  O72  1  0.50615000  0.57281000  0.61547000  1.0
  O  O73  1  0.49922000  0.43404000  0.61355000  1.0
  O  O74  1  0.67217000  0.43694000  0.49792000  1.0
  O  O75  1  0.69649000  0.57481000  0.50389000  1.0
  O  O76  1  0.61486000  0.01101000  0.57108000  1.0
  O  O77  1  0.38513000  0.98889000  0.42895000  1.0
  O  O78  1  0.49318000  0.39071000  0.99020000  1.0
  O  O79  1  0.50691000  0.61069000  0.00987000  1.0
