# generated using pymatgen
data_Al3H31(C24O7)2
_symmetry_space_group_name_H-M   'P 1'
_cell_length_a   13.01229934
_cell_length_b   13.11090000
_cell_length_c   28.48740000
_cell_angle_alpha   90.20950000
_cell_angle_beta   90.09710441
_cell_angle_gamma   119.60439879
_symmetry_Int_Tables_number   1
_chemical_formula_structural   Al3H31(C24O7)2
_chemical_formula_sum   'Al6 H62 C96 O28'
_cell_volume   4225.52864970
_cell_formula_units_Z   2
loop_
 _symmetry_equiv_pos_site_id
 _symmetry_equiv_pos_as_xyz
  1  'x, y, z'
loop_
 _atom_site_type_symbol
 _atom_site_label
 _atom_site_symmetry_multiplicity
 _atom_site_fract_x
 _atom_site_fract_y
 _atom_site_fract_z
 _atom_site_occupancy
  Al  Al0  1  0.47237000  0.24677000  0.50082000  1.0
  Al  Al1  1  0.72503000  0.48205000  0.49999000  1.0
  Al  Al2  1  0.72113000  0.25118000  0.49921000  1.0
  Al  Al3  1  0.22514000  0.75067000  0.99769000  1.0
  Al  Al4  1  0.24260000  0.51479000  0.99947000  1.0
  Al  Al5  1  0.46878000  0.74456000  0.00038000  1.0
  H  H6  1  0.97076000  0.30372000  0.22107000  1.0
  H  H7  1  0.69133000  0.56736000  0.79400000  1.0
  H  H8  1  0.43836000  0.12480000  0.79003000  1.0
  H  H9  1  0.87651000  0.30427000  0.78153000  1.0
  H  H10  1  0.76679000  0.29475000  0.26057000  1.0
  H  H11  1  0.54872000  0.20397000  0.26744000  1.0
  H  H12  1  0.63680000  0.41235000  0.25942000  1.0
  H  H13  1  0.44405000  0.65630000  0.76945000  1.0
  H  H14  1  0.34823000  0.79129000  0.76551000  1.0
  H  H15  1  0.21154000  0.54895000  0.75828000  1.0
  H  H16  1  0.79567000  0.47773000  0.19947000  1.0
  H  H17  1  0.34008000  0.04054000  0.21944000  1.0
  H  H18  1  0.68100000  0.12974000  0.21094000  1.0
  H  H19  1  0.41770000  0.30776000  0.21062000  1.0
  H  H20  1  0.31779000  0.45283000  0.71222000  1.0
  H  H21  1  0.55459000  0.86568000  0.70988000  1.0
  H  H22  1  0.13300000  0.68202000  0.70619000  1.0
  H  H23  1  0.14044000  0.65428000  0.23003000  1.0
  H  H24  1  0.43661000  0.79592000  0.23234000  1.0
  H  H25  1  0.39526000  0.59782000  0.23157000  1.0
  H  H26  1  0.56560000  0.36407000  0.73685000  1.0
  H  H27  1  0.64480000  0.20000000  0.73439000  1.0
  H  H28  1  0.70952000  0.62292000  0.20858000  1.0
  H  H29  1  0.79773000  0.43705000  0.72921000  1.0
  H  H30  1  0.05132000  0.79887000  0.22205000  1.0
  H  H31  1  0.90398000  0.71732000  0.20178000  1.0
  H  H32  1  0.94267000  0.83142000  0.24357000  1.0
  H  H33  1  0.84006000  0.64015000  0.28588000  1.0
  H  H34  1  0.98926000  0.71613000  0.30330000  1.0
  H  H35  1  0.67001000  0.85082000  0.22330000  1.0
  H  H36  1  0.78127000  1.00000000  0.22161000  1.0
  H  H37  1  0.79798000  0.90138000  0.25913000  1.0
  H  H38  1  0.73706000  0.02945000  0.30502000  1.0
  H  H39  1  0.65709000  0.70234000  0.72466000  1.0
  H  H40  1  0.63132000  0.87999000  0.30977000  1.0
  H  H41  1  0.19001000  0.38740000  0.23092000  1.0
  H  H42  1  0.19968000  0.25761000  0.22751000  1.0
  H  H43  1  0.10372000  0.26858000  0.26899000  1.0
  H  H44  1  0.29070000  0.29702000  0.30872000  1.0
  H  H45  1  0.27669000  0.42326000  0.31401000  1.0
  H  H46  1  0.22697000  0.21993000  0.72096000  1.0
  H  H47  1  0.34057000  0.18425000  0.72790000  1.0
  H  H48  1  0.20841000  0.10834000  0.76088000  1.0
  H  H49  1  0.36698000  0.25608000  0.81340000  1.0
  H  H50  1  0.30438000  0.95779000  0.71943000  1.0
  H  H51  1  0.25812000  0.29624000  0.80438000  1.0
  H  H52  1  0.78798000  0.99990000  0.72155000  1.0
  H  H53  1  0.82262000  0.14812000  0.72565000  1.0
  H  H54  1  0.90068000  0.09702000  0.76073000  1.0
  H  H55  1  0.75206000  0.11166000  0.81160000  1.0
  H  H56  1  0.71045000  0.96301000  0.80432000  1.0
  H  H57  1  0.98766000  0.77290000  0.72027000  1.0
  H  H58  1  0.83961000  0.65985000  0.72705000  1.0
  H  H59  1  0.89595000  0.78785000  0.76267000  1.0
  H  H60  1  0.88997000  0.62519000  0.81056000  1.0
  H  H61  1  0.04400000  0.34292000  0.71035000  1.0
  H  H62  1  0.03760000  0.73352000  0.80165000  1.0
  H  H63  1  0.11102000  0.47061000  0.29094000  1.0
  H  H64  1  0.30445000  0.87011000  0.28841000  1.0
  H  H65  1  0.61519000  0.70199000  0.28054000  1.0
  H  H66  1  0.27902000  0.14172000  0.47224000  1.0
  H  H67  1  0.13313000  0.85330000  0.02554000  1.0
  C  C68  1  0.54980000  0.11534000  0.43428000  1.0
  C  C69  1  0.49029000  0.51619000  0.80069000  1.0
  C  C70  1  0.48899000  0.97541000  0.79734000  1.0
  C  C71  1  0.02616000  0.50186000  0.79141000  1.0
  C  C72  1  0.86550000  0.47608000  0.22028000  1.0
  C  C73  1  0.59771000  0.07271000  0.22881000  1.0
  C  C74  1  0.46159000  0.39536000  0.22651000  1.0
  C  C75  1  0.40074000  0.47865000  0.73083000  1.0
  C  C76  1  0.52869000  0.92302000  0.72814000  1.0
  C  C77  1  0.07628000  0.59810000  0.72334000  1.0
  C  C78  1  0.84995000  0.37456000  0.25327000  1.0
  C  C79  1  0.55990000  0.44836000  0.43192000  1.0
  C  C80  1  0.52410000  0.11335000  0.25887000  1.0
  C  C81  1  0.58294000  0.45359000  0.25275000  1.0
  C  C82  1  0.47096000  0.59120000  0.76154000  1.0
  C  C83  1  0.41439000  0.88214000  0.75789000  1.0
  C  C84  1  0.11936000  0.52399000  0.75136000  1.0
  C  C85  1  0.01096000  0.49394000  0.15012000  1.0
  C  C86  1  0.46879000  0.95658000  0.15372000  1.0
  C  C87  1  0.48276000  0.52337000  0.14986000  1.0
  C  C88  1  0.53279000  0.49326000  0.65676000  1.0
  C  C89  1  0.51722000  0.04261000  0.65416000  1.0
  C  C90  1  0.85105000  0.42962000  0.43136000  1.0
  C  C91  1  0.95586000  0.47290000  0.64779000  1.0
  C  C92  1  0.90566000  0.45798000  0.34115000  1.0
  C  C93  1  0.51667000  0.04163000  0.34617000  1.0
  C  C94  1  0.54261000  0.48809000  0.34189000  1.0
  C  C95  1  0.47401000  0.52507000  0.84922000  1.0
  C  C96  1  0.47801000  0.95116000  0.84583000  1.0
  C  C97  1  0.04980000  0.51180000  0.84015000  1.0
  C  C98  1  0.55468000  0.12380000  0.56734000  1.0
  C  C99  1  0.56140000  0.45164000  0.56798000  1.0
  C  C100  1  0.87085000  0.43569000  0.56139000  1.0
  C  C101  1  0.43570000  0.87688000  0.93349000  1.0
  C  C102  1  0.42740000  0.87622000  0.06652000  1.0
  C  C103  1  0.10032000  0.54212000  0.06425000  1.0
  C  C104  1  0.43050000  0.56293000  0.06455000  1.0
  C  C105  1  0.04161000  0.47233000  0.26992000  1.0
  C  C106  1  0.38783000  0.92749000  0.27071000  1.0
  C  C107  1  0.57101000  0.61479000  0.26454000  1.0
  C  C108  1  0.60872000  0.54192000  0.77531000  1.0
  C  C109  1  0.46431000  0.06781000  0.77163000  1.0
  C  C110  1  0.93319000  0.38786000  0.76429000  1.0
  C  C111  1  0.96303000  0.37947000  0.23221000  1.0
  C  C112  1  0.11372000  0.54956000  0.92971000  1.0
  C  C113  1  0.40786000  0.02266000  0.23342000  1.0
  C  C114  1  0.62383000  0.57056000  0.22543000  1.0
  C  C115  1  0.58924000  0.61699000  0.73759000  1.0
  C  C116  1  0.38956000  0.97430000  0.73342000  1.0
  C  C117  1  0.02672000  0.40961000  0.72561000  1.0
  C  C118  1  0.04403000  0.50962000  0.10944000  1.0
  C  C119  1  0.45606000  0.92894000  0.11237000  1.0
  C  C120  1  0.46243000  0.53587000  0.10910000  1.0
  C  C121  1  0.54324000  0.47947000  0.61505000  1.0
  C  C122  1  0.53246000  0.07171000  0.61308000  1.0
  C  C123  1  0.42948000  0.55973000  0.93640000  1.0
  C  C124  1  0.92746000  0.46145000  0.60644000  1.0
  C  C125  1  0.89008000  0.44960000  0.38352000  1.0
  C  C126  1  0.52875000  0.06544000  0.38793000  1.0
  C  C127  1  0.54819000  0.47600000  0.38407000  1.0
  C  C128  1  0.45773000  0.53425000  0.89083000  1.0
  C  C129  1  0.46583000  0.92659000  0.88740000  1.0
  C  C130  1  0.07133000  0.52255000  0.88212000  1.0
  C  C131  1  0.05717000  0.57422000  0.23734000  1.0
  C  C132  1  0.46146000  0.88673000  0.24079000  1.0
  C  C133  1  0.44950000  0.55693000  0.23843000  1.0
  C  C134  1  0.92784000  0.46698000  0.29239000  1.0
  C  C135  1  0.53869000  0.42935000  0.74456000  1.0
  C  C136  1  0.57865000  0.10901000  0.74194000  1.0
  C  C137  1  0.88985000  0.46172000  0.73634000  1.0
  C  C138  1  0.97955000  0.48148000  0.19813000  1.0
  C  C139  1  0.48139000  0.98165000  0.20225000  1.0
  C  C140  1  0.50191000  0.51238000  0.19799000  1.0
  C  C141  1  0.51919000  0.50423000  0.70547000  1.0
  C  C142  1  0.50420000  0.01572000  0.70248000  1.0
  C  C143  1  0.98327000  0.48361000  0.69623000  1.0
  C  C144  1  0.94345000  0.56954000  0.25833000  1.0
  C  C145  1  0.50421000  0.01848000  0.29747000  1.0
  C  C146  1  0.57845000  0.97744000  0.26628000  1.0
  C  C147  1  0.40794000  0.43940000  0.26565000  1.0
  C  C148  1  0.41972000  0.40277000  0.76863000  1.0
  C  C149  1  0.60427000  0.01692000  0.76647000  1.0
  C  C150  1  0.98244000  0.57660000  0.76220000  1.0
  C  C151  1  0.93084000  0.67257000  0.27297000  1.0
  C  C152  1  0.95858000  0.75983000  0.23300000  1.0
  C  C153  1  0.67203000  0.95301000  0.28456000  1.0
  C  C154  1  0.73367000  0.92465000  0.24507000  1.0
  C  C155  1  0.29005000  0.36786000  0.28824000  1.0
  C  C156  1  0.53057000  0.49817000  0.29307000  1.0
  C  C157  1  0.19025000  0.31742000  0.25199000  1.0
  C  C158  1  0.32714000  0.28572000  0.78624000  1.0
  C  C159  1  0.27273000  0.19451000  0.74689000  1.0
  C  C160  1  0.72172000  0.04077000  0.78514000  1.0
  C  C161  1  0.81340000  0.07326000  0.74621000  1.0
  C  C162  1  0.95781000  0.66717000  0.78313000  1.0
  C  C163  1  0.91809000  0.72522000  0.74632000  1.0
  O  O164  1  0.48333000  0.34926000  0.44697000  1.0
  O  O165  1  0.33547000  0.85208000  0.94918000  1.0
  O  O166  1  0.13235000  0.47347000  0.95107000  1.0
  O  O167  1  0.50184000  0.65943000  0.95442000  1.0
  O  O168  1  0.48305000  0.35625000  0.55028000  1.0
  O  O169  1  0.84590000  0.51086000  0.54414000  1.0
  O  O170  1  0.65179000  0.14343000  0.54739000  1.0
  O  O171  1  0.12385000  0.64087000  0.04827000  1.0
  O  O172  1  0.33016000  0.48877000  0.04718000  1.0
  O  O173  1  0.50562000  0.85673000  0.04713000  1.0
  O  O174  1  0.48000000  0.14964000  0.55131000  1.0
  O  O175  1  0.83512000  0.50830000  0.45134000  1.0
  O  O176  1  0.65978000  0.52587000  0.54849000  1.0
  O  O177  1  0.84393000  0.33644000  0.54277000  1.0
  O  O178  1  0.32706000  0.84941000  0.04993000  1.0
  O  O179  1  0.12598000  0.46833000  0.04473000  1.0
  O  O180  1  0.50302000  0.66228000  0.04663000  1.0
  O  O181  1  0.64133000  0.32752000  0.49981000  1.0
  O  O182  1  0.31302000  0.66917000  0.99948000  1.0
  O  O183  1  0.64641000  0.13381000  0.45455000  1.0
  O  O184  1  0.13289000  0.64697000  0.94614000  1.0
  O  O185  1  0.33145000  0.48384000  0.95471000  1.0
  O  O186  1  0.51277000  0.85741000  0.95423000  1.0
  O  O187  1  0.47564000  0.14152000  0.45060000  1.0
  O  O188  1  0.65087000  0.52593000  0.45498000  1.0
  O  O189  1  0.82982000  0.33233000  0.44975000  1.0
  O  O190  1  0.31792000  0.17576000  0.50173000  1.0
  O  O191  1  0.14322000  0.82360000  0.99582000  1.0
