# generated using pymatgen
data_CuH12C10(NO4)2
_symmetry_space_group_name_H-M   'P 1'
_cell_length_a   5.46542000
_cell_length_b   7.88410000
_cell_length_c   8.29775000
_cell_angle_alpha   80.93060000
_cell_angle_beta   77.97900000
_cell_angle_gamma   73.16330000
_symmetry_Int_Tables_number   1
_chemical_formula_structural   CuH12C10(NO4)2
_chemical_formula_sum   'Cu1 H12 C10 N2 O8'
_cell_volume   332.90512290
_cell_formula_units_Z   1
loop_
 _symmetry_equiv_pos_site_id
 _symmetry_equiv_pos_as_xyz
  1  'x, y, z'
loop_
 _atom_site_type_symbol
 _atom_site_label
 _atom_site_symmetry_multiplicity
 _atom_site_fract_x
 _atom_site_fract_y
 _atom_site_fract_z
 _atom_site_occupancy
  Cu  Cu0  1  0.00002000  0.99999000  0.00001000  1.0
  H  H1  1  0.78196000  0.83565000  0.56986000  1.0
  H  H2  1  0.21804000  0.16437000  0.43012000  1.0
  H  H3  1  0.89533000  0.76111000  0.75888000  1.0
  H  H4  1  0.10470000  0.23892000  0.24109000  1.0
  H  H5  1  0.66290000  0.66723000  0.70828000  1.0
  H  H6  1  0.33714000  0.33277000  0.29170000  1.0
  H  H7  1  0.52964000  0.43183000  0.83037000  1.0
  H  H8  1  0.47031000  0.56819000  0.16964000  1.0
  H  H9  1  0.29063000  0.50418000  0.70173000  1.0
  H  H10  1  0.70932000  0.49579000  0.29827000  1.0
  H  H11  1  0.19590000  0.50818000  0.92089000  1.0
  H  H12  1  0.80405000  0.49182000  0.07910000  1.0
  C  C13  1  0.72363000  0.78915000  0.70008000  1.0
  C  C14  1  0.27639000  0.21086000  0.29991000  1.0
  C  C15  1  0.50509000  0.92517000  0.78787000  1.0
  C  C16  1  0.49492000  0.07482000  0.21212000  1.0
  C  C17  1  0.49601000  0.10976000  0.76176000  1.0
  C  C18  1  0.50400000  0.89024000  0.23825000  1.0
  C  C19  1  0.30068000  0.24857000  0.84088000  1.0
  C  C20  1  0.69933000  0.75143000  0.15914000  1.0
  C  C21  1  0.33054000  0.43434000  0.82265000  1.0
  C  C22  1  0.66945000  0.56566000  0.17735000  1.0
  N  N23  1  0.71272000  0.16099000  0.65296000  1.0
  N  N24  1  0.28728000  0.83901000  0.34706000  1.0
  O  O25  1  0.93757000  0.07557000  0.67408000  1.0
  O  O26  1  0.06243000  0.92444000  0.32593000  1.0
  O  O27  1  0.66684000  0.28892000  0.54480000  1.0
  O  O28  1  0.33316000  0.71110000  0.45521000  1.0
  O  O29  1  0.32692000  0.86544000  0.88383000  1.0
  O  O30  1  0.67308000  0.13454000  0.11615000  1.0
  O  O31  1  0.09898000  0.22193000  0.93912000  1.0
  O  O32  1  0.90106000  0.77804000  0.06092000  1.0
