# generated using pymatgen
data_CaP2H20(C4O3)4
_symmetry_space_group_name_H-M   'P 1'
_cell_length_a   5.23535000
_cell_length_b   5.76895000
_cell_length_c   16.43410000
_cell_angle_alpha   92.68640000
_cell_angle_beta   91.77540000
_cell_angle_gamma   93.03000000
_symmetry_Int_Tables_number   1
_chemical_formula_structural   CaP2H20(C4O3)4
_chemical_formula_sum   'Ca1 P2 H20 C16 O12'
_cell_volume   494.83323029
_cell_formula_units_Z   1
loop_
 _symmetry_equiv_pos_site_id
 _symmetry_equiv_pos_as_xyz
  1  'x, y, z'
loop_
 _atom_site_type_symbol
 _atom_site_label
 _atom_site_symmetry_multiplicity
 _atom_site_fract_x
 _atom_site_fract_y
 _atom_site_fract_z
 _atom_site_occupancy
  Ca  Ca0  1  0.50000000  0.49999000  0.50000000  1.0
  P  P1  1  0.80051000  0.01658000  0.40119000  1.0
  P  P2  1  0.19949000  0.98342000  0.59881000  1.0
  H  H3  1  0.19728000  0.04865000  0.44580000  1.0
  H  H4  1  0.80272000  0.95135000  0.55420000  1.0
  H  H5  1  0.04997000  0.85469000  0.19354000  1.0
  H  H6  1  0.95005000  0.14531000  0.80646000  1.0
  H  H7  1  0.96643000  0.47811000  0.06332000  1.0
  H  H8  1  0.03356000  0.52188000  0.93668000  1.0
  H  H9  1  0.60661000  0.58195000  0.14987000  1.0
  H  H10  1  0.39339000  0.41805000  0.85013000  1.0
  H  H11  1  0.47128000  0.32684000  0.26045000  1.0
  H  H12  1  0.52873000  0.67316000  0.73955000  1.0
  H  H13  1  0.71922000  0.74022000  0.28974000  1.0
  H  H14  1  0.28077000  0.25978000  0.71026000  1.0
  H  H15  1  0.45977000  0.92053000  0.30769000  1.0
  H  H16  1  0.54024000  0.07947000  0.69231000  1.0
  H  H17  1  0.44051000  0.17020000  0.97699000  1.0
  H  H18  1  0.55948000  0.82980000  0.02301000  1.0
  H  H19  1  0.16097000  0.68594000  0.38394000  1.0
  H  H20  1  0.83904000  0.31405000  0.61607000  1.0
  H  H21  1  0.03661000  0.43415000  0.39324000  1.0
  H  H22  1  0.96340000  0.56585000  0.60676000  1.0
  C  C23  1  0.75360000  0.07512000  0.23542000  1.0
  C  C24  1  0.24640000  0.92488000  0.76458000  1.0
  C  C25  1  0.95370000  0.01562000  0.18572000  1.0
  C  C26  1  0.04630000  0.98438000  0.81428000  1.0
  C  C27  1  0.03028000  0.15926000  0.12337000  1.0
  C  C28  1  0.96972000  0.84075000  0.87663000  1.0
  C  C29  1  0.90761000  0.36572000  0.11134000  1.0
  C  C30  1  0.09239000  0.63427000  0.88866000  1.0
  C  C31  1  0.70684000  0.42484000  0.16068000  1.0
  C  C32  1  0.29315000  0.57515000  0.83932000  1.0
  C  C33  1  0.63017000  0.28112000  0.22240000  1.0
  C  C34  1  0.36984000  0.71889000  0.77759000  1.0
  C  C35  1  0.66840000  0.92065000  0.30182000  1.0
  C  C36  1  0.33161000  0.07935000  0.69818000  1.0
  C  C37  1  0.23679000  0.08559000  0.06973000  1.0
  C  C38  1  0.76320000  0.91442000  0.93026000  1.0
  O  O39  1  0.75858000  0.27213000  0.42003000  1.0
  O  O40  1  0.24142000  0.72787000  0.57997000  1.0
  O  O41  1  0.70264000  0.85152000  0.46515000  1.0
  O  O42  1  0.29736000  0.14848000  0.53485000  1.0
  O  O43  1  0.10374000  0.98803000  0.39264000  1.0
  O  O44  1  0.89626000  0.01197000  0.60736000  1.0
  O  O45  1  0.29279000  0.22896000  0.01174000  1.0
  O  O46  1  0.70721000  0.77105000  0.98826000  1.0
  O  O47  1  0.34502000  0.89995000  0.07889000  1.0
  O  O48  1  0.65497000  0.10006000  0.92110000  1.0
  O  O49  1  0.20317000  0.52196000  0.38761000  1.0
  O  O50  1  0.79684000  0.47803000  0.61239000  1.0
