# generated using pymatgen
data_Dy2Cd3H36(C2O3)12
_symmetry_space_group_name_H-M   'P 1'
_cell_length_a   18.51370000
_cell_length_b   18.51367202
_cell_length_c   18.51367202
_cell_angle_alpha   60.00000000
_cell_angle_beta   60.00005000
_cell_angle_gamma   60.00005000
_symmetry_Int_Tables_number   1
_chemical_formula_structural   Dy2Cd3H36(C2O3)12
_chemical_formula_sum   'Dy8 Cd12 H144 C96 O144'
_cell_volume   4487.07866754
_cell_formula_units_Z   4
loop_
 _symmetry_equiv_pos_site_id
 _symmetry_equiv_pos_as_xyz
  1  'x, y, z'
loop_
 _atom_site_type_symbol
 _atom_site_label
 _atom_site_symmetry_multiplicity
 _atom_site_fract_x
 _atom_site_fract_y
 _atom_site_fract_z
 _atom_site_occupancy
  Dy  Dy0  1  0.75000000  0.25000000  0.25000000  1.0
  Dy  Dy1  1  0.25000000  0.75000000  0.25000000  1.0
  Dy  Dy2  1  0.75000000  0.75000000  0.75000000  1.0
  Dy  Dy3  1  0.75000000  0.75000000  0.25000000  1.0
  Dy  Dy4  1  0.25000000  0.75000000  0.75000000  1.0
  Dy  Dy5  1  0.75000000  0.25000000  0.75000000  1.0
  Dy  Dy6  1  0.25000000  0.25000000  0.25000000  1.0
  Dy  Dy7  1  0.25000000  0.25000000  0.75000000  1.0
  Cd  Cd8  1  0.87500000  0.87500000  0.37500000  1.0
  Cd  Cd9  1  0.62500000  0.62500000  0.12500000  1.0
  Cd  Cd10  1  0.12500000  0.12500000  0.62500000  1.0
  Cd  Cd11  1  0.37500000  0.37500000  0.87500000  1.0
  Cd  Cd12  1  0.50000000  0.50000000  0.50000000  1.0
  Cd  Cd13  1  1.00000000  0.00000000  0.50000000  1.0
  Cd  Cd14  1  0.50000000  0.00000000  0.00000000  1.0
  Cd  Cd15  1  0.50000000  0.00000000  0.50000000  1.0
  Cd  Cd16  1  0.50000000  0.50000000  0.00000000  1.0
  Cd  Cd17  1  0.00000000  0.50000000  0.50000000  1.0
  Cd  Cd18  1  0.00000000  0.50000000  0.00000000  1.0
  Cd  Cd19  1  0.00000000  0.00000000  0.00000000  1.0
  H  H20  1  0.94493000  0.02376000  0.28467000  1.0
  H  H21  1  0.47624000  0.75335000  0.05508000  1.0
  H  H22  1  0.74665000  0.78467000  0.52376000  1.0
  H  H23  1  0.71533000  0.55507000  0.25336000  1.0
  H  H24  1  0.02376000  0.94492000  0.24665000  1.0
  H  H25  1  0.55507000  0.71533000  0.97624000  1.0
  H  H26  1  0.78467000  0.74665000  0.44492000  1.0
  H  H27  1  0.75336000  0.47623000  0.21533000  1.0
  H  H28  1  0.74664000  0.94493000  0.28467000  1.0
  H  H29  1  0.55508000  0.47624000  0.25335000  1.0
  H  H30  1  0.02376000  0.78467000  0.44492000  1.0
  H  H31  1  0.71533000  0.75336000  0.97624000  1.0
  H  H32  1  0.94493000  0.74664000  0.52376000  1.0
  H  H33  1  0.75335000  0.71534000  0.05508000  1.0
  H  H34  1  0.78467000  0.02376000  0.24665000  1.0
  H  H35  1  0.47624000  0.55507000  0.21533000  1.0
  H  H36  1  0.02376000  0.74665000  0.28467000  1.0
  H  H37  1  0.55508000  0.75335000  0.21533000  1.0
  H  H38  1  0.75335000  0.55508000  0.97624000  1.0
  H  H39  1  0.47624000  0.71533000  0.25335000  1.0
  H  H40  1  0.71533000  0.47624000  0.05507000  1.0
  H  H41  1  0.74664000  0.02376000  0.44493000  1.0
  H  H42  1  0.94493000  0.78467000  0.24664000  1.0
  H  H43  1  0.78467000  0.94492000  0.52376000  1.0
  H  H44  1  0.05507000  0.97624000  0.71533000  1.0
  H  H45  1  0.52376000  0.24664000  0.94493000  1.0
  H  H46  1  0.25335000  0.21533000  0.47624000  1.0
  H  H47  1  0.28467000  0.44492000  0.74665000  1.0
  H  H48  1  0.97624000  0.05508000  0.75335000  1.0
  H  H49  1  0.44492000  0.28467000  0.02376000  1.0
  H  H50  1  0.21533000  0.25335000  0.55508000  1.0
  H  H51  1  0.24665000  0.52376000  0.78467000  1.0
  H  H52  1  0.25335000  0.05508000  0.71533000  1.0
  H  H53  1  0.44492000  0.52376000  0.74665000  1.0
  H  H54  1  0.97623000  0.21534000  0.55508000  1.0
  H  H55  1  0.28467000  0.24665000  0.02376000  1.0
  H  H56  1  0.05507000  0.25336000  0.47624000  1.0
  H  H57  1  0.24664000  0.28467000  0.94493000  1.0
  H  H58  1  0.21533000  0.97624000  0.75335000  1.0
  H  H59  1  0.52376000  0.44493000  0.78467000  1.0
  H  H60  1  0.97624000  0.25335000  0.71533000  1.0
  H  H61  1  0.44492000  0.24665000  0.78467000  1.0
  H  H62  1  0.24664000  0.44493000  0.02376000  1.0
  H  H63  1  0.52376000  0.28467000  0.74664000  1.0
  H  H64  1  0.28466000  0.52377000  0.94492000  1.0
  H  H65  1  0.25335000  0.97624000  0.55508000  1.0
  H  H66  1  0.05508000  0.21533000  0.75335000  1.0
  H  H67  1  0.21533000  0.05507000  0.47624000  1.0
  H  H68  1  0.70849000  0.35597000  0.42125000  1.0
  H  H69  1  0.14404000  0.98571000  0.29150000  1.0
  H  H70  1  0.51429000  0.92124000  0.85597000  1.0
  H  H71  1  0.57875000  0.79150000  0.48571000  1.0
  H  H72  1  0.35596000  0.70850000  0.01429000  1.0
  H  H73  1  0.79150000  0.57876000  0.64403000  1.0
  H  H74  1  0.92124000  0.51429000  0.20850000  1.0
  H  H75  1  0.98570000  0.14404000  0.07876000  1.0
  H  H76  1  0.51428000  0.70850000  0.42125000  1.0
  H  H77  1  0.79150000  0.14403000  0.48571000  1.0
  H  H78  1  0.35596000  0.92125000  0.20850000  1.0
  H  H79  1  0.57876000  0.98571000  0.64403000  1.0
  H  H80  1  0.70850000  0.51429000  0.85596000  1.0
  H  H81  1  0.98570000  0.57876000  0.29150000  1.0
  H  H82  1  0.92124000  0.35597000  0.01429000  1.0
  H  H83  1  0.14404000  0.79150000  0.07875000  1.0
  H  H84  1  0.35596000  0.51429000  0.42125000  1.0
  H  H85  1  0.79150000  0.98571000  0.07876000  1.0
  H  H86  1  0.98570000  0.79150000  0.64404000  1.0
  H  H87  1  0.14404000  0.57875000  0.48571000  1.0
  H  H88  1  0.57875000  0.14404000  0.29150000  1.0
  H  H89  1  0.51428000  0.35597000  0.20850000  1.0
  H  H90  1  0.70849000  0.92125000  0.01429000  1.0
  H  H91  1  0.92124000  0.70850000  0.85597000  1.0
  H  H92  1  0.29150000  0.64403000  0.57876000  1.0
  H  H93  1  0.85596000  0.01429000  0.70850000  1.0
  H  H94  1  0.48571000  0.07876000  0.14403000  1.0
  H  H95  1  0.42124000  0.20850000  0.51429000  1.0
  H  H96  1  0.64403000  0.29150000  0.98571000  1.0
  H  H97  1  0.20849000  0.42125000  0.35597000  1.0
  H  H98  1  0.07875000  0.48571000  0.79150000  1.0
  H  H99  1  0.01429000  0.85597000  0.92124000  1.0
  H  H100  1  0.48572000  0.29150000  0.57875000  1.0
  H  H101  1  0.20850000  0.85597000  0.51429000  1.0
  H  H102  1  0.64403000  0.07876000  0.79150000  1.0
  H  H103  1  0.42124000  0.01429000  0.35597000  1.0
  H  H104  1  0.29150000  0.48571000  0.14403000  1.0
  H  H105  1  0.01428000  0.42125000  0.70850000  1.0
  H  H106  1  0.07876000  0.64403000  0.98571000  1.0
  H  H107  1  0.85596000  0.20850000  0.92125000  1.0
  H  H108  1  0.64403000  0.48571000  0.57876000  1.0
  H  H109  1  0.20849000  0.01429000  0.92125000  1.0
  H  H110  1  0.01430000  0.20850000  0.35596000  1.0
  H  H111  1  0.85596000  0.42125000  0.51429000  1.0
  H  H112  1  0.42124000  0.85597000  0.70850000  1.0
  H  H113  1  0.48571000  0.64404000  0.79150000  1.0
  H  H114  1  0.29150000  0.07876000  0.98571000  1.0
  H  H115  1  0.07876000  0.29150000  0.14403000  1.0
  H  H116  1  0.65164000  0.27770000  0.49563000  1.0
  H  H117  1  0.22231000  0.92497000  0.34835000  1.0
  H  H118  1  0.57502000  0.99563000  0.77770000  1.0
  H  H119  1  0.50438000  0.84835000  0.42497000  1.0
  H  H120  1  0.27769000  0.65165000  0.07503000  1.0
  H  H121  1  0.84836000  0.50437000  0.72230000  1.0
  H  H122  1  0.99562000  0.57503000  0.15165000  1.0
  H  H123  1  0.92498000  0.22230000  0.00437000  1.0
  H  H124  1  0.57502000  0.65165000  0.49563000  1.0
  H  H125  1  0.84836000  0.22230000  0.42497000  1.0
  H  H126  1  0.27770000  0.99562000  0.15165000  1.0
  H  H127  1  0.50438000  0.92497000  0.72230000  1.0
  H  H128  1  0.65164000  0.57503000  0.77770000  1.0
  H  H129  1  0.92498000  0.50437000  0.34835000  1.0
  H  H130  1  0.99562000  0.27770000  0.07503000  1.0
  H  H131  1  0.22231000  0.84835000  0.00437000  1.0
  H  H132  1  0.27769000  0.57503000  0.49563000  1.0
  H  H133  1  0.84835000  0.92498000  0.00437000  1.0
  H  H134  1  0.92497000  0.84835000  0.72231000  1.0
  H  H135  1  0.22231000  0.50437000  0.42497000  1.0
  H  H136  1  0.50438000  0.22230000  0.34835000  1.0
  H  H137  1  0.57503000  0.27769000  0.15165000  1.0
  H  H138  1  0.65165000  0.99562000  0.07503000  1.0
  H  H139  1  0.99562000  0.65165000  0.77770000  1.0
  H  H140  1  0.34835000  0.72231000  0.50437000  1.0
  H  H141  1  0.77770000  0.07503000  0.65165000  1.0
  H  H142  1  0.42497000  0.00438000  0.22230000  1.0
  H  H143  1  0.49562000  0.15165000  0.57503000  1.0
  H  H144  1  0.72231000  0.34835000  0.92497000  1.0
  H  H145  1  0.15164000  0.49563000  0.27770000  1.0
  H  H146  1  0.00438000  0.42497000  0.84835000  1.0
  H  H147  1  0.07502000  0.77770000  0.99563000  1.0
  H  H148  1  0.42498000  0.34835000  0.50437000  1.0
  H  H149  1  0.15164000  0.77770000  0.57503000  1.0
  H  H150  1  0.72231000  0.00437000  0.84835000  1.0
  H  H151  1  0.49562000  0.07503000  0.27770000  1.0
  H  H152  1  0.34835000  0.42498000  0.22230000  1.0
  H  H153  1  0.07503000  0.49562000  0.65165000  1.0
  H  H154  1  0.00437000  0.72231000  0.92497000  1.0
  H  H155  1  0.77769000  0.15165000  0.99563000  1.0
  H  H156  1  0.72231000  0.42497000  0.50437000  1.0
  H  H157  1  0.15164000  0.07503000  0.99563000  1.0
  H  H158  1  0.07502000  0.15165000  0.27770000  1.0
  H  H159  1  0.77769000  0.49563000  0.57503000  1.0
  H  H160  1  0.49562000  0.77770000  0.65165000  1.0
  H  H161  1  0.42496000  0.72231000  0.84835000  1.0
  H  H162  1  0.34836000  0.00437000  0.92497000  1.0
  H  H163  1  0.00438000  0.34835000  0.22230000  1.0
  C  C164  1  0.68182000  0.31200000  0.42517000  1.0
  C  C165  1  0.18800000  0.91898000  0.31819000  1.0
  C  C166  1  0.58102000  0.92517000  0.81200000  1.0
  C  C167  1  0.57483000  0.81818000  0.41899000  1.0
  C  C168  1  0.31199000  0.68182000  0.08102000  1.0
  C  C169  1  0.81818000  0.57483000  0.68800000  1.0
  C  C170  1  0.92517000  0.58102000  0.18181000  1.0
  C  C171  1  0.91898000  0.18800000  0.07483000  1.0
  C  C172  1  0.58102000  0.68181000  0.42517000  1.0
  C  C173  1  0.81819000  0.18800000  0.41898000  1.0
  C  C174  1  0.31199000  0.92517000  0.18182000  1.0
  C  C175  1  0.57484000  0.91898000  0.68800000  1.0
  C  C176  1  0.68182000  0.58101000  0.81200000  1.0
  C  C177  1  0.91899000  0.57483000  0.31818000  1.0
  C  C178  1  0.92517000  0.31200000  0.08101000  1.0
  C  C179  1  0.18801000  0.81818000  0.07483000  1.0
  C  C180  1  0.31199000  0.58102000  0.42517000  1.0
  C  C181  1  0.81818000  0.91899000  0.07483000  1.0
  C  C182  1  0.91899000  0.81818000  0.68800000  1.0
  C  C183  1  0.18800000  0.57483000  0.41898000  1.0
  C  C184  1  0.57484000  0.18800000  0.31818000  1.0
  C  C185  1  0.58101000  0.31200000  0.18182000  1.0
  C  C186  1  0.68181000  0.92517000  0.08102000  1.0
  C  C187  1  0.92517000  0.68182000  0.81200000  1.0
  C  C188  1  0.31819000  0.68800000  0.57483000  1.0
  C  C189  1  0.81200000  0.08102000  0.68181000  1.0
  C  C190  1  0.41898000  0.07483000  0.18800000  1.0
  C  C191  1  0.42517000  0.18182000  0.58101000  1.0
  C  C192  1  0.68801000  0.31818000  0.91898000  1.0
  C  C193  1  0.18182000  0.42517000  0.31200000  1.0
  C  C194  1  0.07483000  0.41898000  0.81819000  1.0
  C  C195  1  0.08102000  0.81200000  0.92517000  1.0
  C  C196  1  0.41898000  0.31819000  0.57483000  1.0
  C  C197  1  0.18181000  0.81200000  0.58102000  1.0
  C  C198  1  0.68800000  0.07483000  0.81818000  1.0
  C  C199  1  0.42517000  0.08102000  0.31200000  1.0
  C  C200  1  0.31819000  0.41898000  0.18800000  1.0
  C  C201  1  0.08102000  0.42517000  0.68181000  1.0
  C  C202  1  0.07483000  0.68800000  0.91898000  1.0
  C  C203  1  0.81200000  0.18181000  0.92517000  1.0
  C  C204  1  0.68801000  0.41898000  0.57483000  1.0
  C  C205  1  0.18182000  0.08101000  0.92517000  1.0
  C  C206  1  0.08102000  0.18181000  0.31200000  1.0
  C  C207  1  0.81200000  0.42517000  0.58102000  1.0
  C  C208  1  0.42517000  0.81200000  0.68181000  1.0
  C  C209  1  0.41899000  0.68800000  0.81818000  1.0
  C  C210  1  0.31819000  0.07483000  0.91898000  1.0
  C  C211  1  0.07483000  0.31819000  0.18800000  1.0
  C  C212  1  0.61137000  0.36839000  0.38023000  1.0
  C  C213  1  0.13162000  0.85999000  0.38863000  1.0
  C  C214  1  0.64000000  0.88024000  0.86839000  1.0
  C  C215  1  0.61977000  0.88863000  0.35999000  1.0
  C  C216  1  0.36839000  0.61137000  0.14001000  1.0
  C  C217  1  0.88863000  0.61976000  0.63161000  1.0
  C  C218  1  0.88024000  0.64000000  0.11137000  1.0
  C  C219  1  0.85999000  0.13161000  0.11977000  1.0
  C  C220  1  0.64000000  0.61137000  0.38024000  1.0
  C  C221  1  0.88863000  0.13161000  0.36000000  1.0
  C  C222  1  0.36838000  0.88024000  0.11137000  1.0
  C  C223  1  0.61976000  0.86000000  0.63161000  1.0
  C  C224  1  0.61136000  0.64001000  0.86839000  1.0
  C  C225  1  0.85999000  0.61977000  0.38863000  1.0
  C  C226  1  0.88023000  0.36839000  0.14001000  1.0
  C  C227  1  0.13161000  0.88863000  0.11977000  1.0
  C  C228  1  0.36838000  0.64001000  0.38024000  1.0
  C  C229  1  0.88864000  0.85999000  0.11976000  1.0
  C  C230  1  0.85999000  0.88863000  0.63161000  1.0
  C  C231  1  0.13161000  0.61977000  0.35999000  1.0
  C  C232  1  0.61976000  0.13161000  0.38863000  1.0
  C  C233  1  0.64000000  0.36839000  0.11137000  1.0
  C  C234  1  0.61138000  0.88023000  0.14000000  1.0
  C  C235  1  0.88023000  0.61137000  0.86839000  1.0
  C  C236  1  0.38864000  0.63161000  0.61976000  1.0
  C  C237  1  0.86840000  0.14000000  0.61137000  1.0
  C  C238  1  0.36000000  0.11976000  0.13161000  1.0
  C  C239  1  0.38023000  0.11137000  0.64001000  1.0
  C  C240  1  0.63161000  0.38863000  0.85999000  1.0
  C  C241  1  0.11137000  0.38024000  0.36839000  1.0
  C  C242  1  0.11977000  0.35999000  0.88863000  1.0
  C  C243  1  0.14000000  0.86839000  0.88024000  1.0
  C  C244  1  0.36000000  0.38863000  0.61976000  1.0
  C  C245  1  0.11137000  0.86839000  0.64001000  1.0
  C  C246  1  0.63161000  0.11976000  0.88863000  1.0
  C  C247  1  0.38023000  0.14001000  0.36839000  1.0
  C  C248  1  0.38863000  0.35999000  0.13161000  1.0
  C  C249  1  0.14000000  0.38024000  0.61137000  1.0
  C  C250  1  0.11977000  0.63161000  0.85999000  1.0
  C  C251  1  0.86839000  0.11137000  0.88023000  1.0
  C  C252  1  0.63161000  0.36000000  0.61976000  1.0
  C  C253  1  0.11137000  0.14000000  0.88024000  1.0
  C  C254  1  0.14000000  0.11137000  0.36839000  1.0
  C  C255  1  0.86839000  0.38023000  0.64001000  1.0
  C  C256  1  0.38023000  0.86839000  0.61137000  1.0
  C  C257  1  0.36000000  0.63161000  0.88863000  1.0
  C  C258  1  0.38863000  0.11977000  0.85999000  1.0
  C  C259  1  0.11977000  0.38863000  0.13161000  1.0
  O  O260  1  0.96303000  0.96304000  0.28696000  1.0
  O  O261  1  0.53697000  0.71304000  0.03696000  1.0
  O  O262  1  0.78697000  0.78696000  0.46304000  1.0
  O  O263  1  0.71304000  0.53696000  0.21304000  1.0
  O  O264  1  0.78697000  0.96303000  0.28696000  1.0
  O  O265  1  0.53696000  0.53696000  0.21304000  1.0
  O  O266  1  0.96304000  0.78697000  0.46304000  1.0
  O  O267  1  0.71305000  0.71303000  0.03696000  1.0
  O  O268  1  0.96303000  0.78696000  0.28697000  1.0
  O  O269  1  0.53697000  0.71303000  0.21304000  1.0
  O  O270  1  0.71304000  0.53696000  0.03696000  1.0
  O  O271  1  0.78697000  0.96304000  0.46303000  1.0
  O  O272  1  0.03697000  0.03696000  0.71304000  1.0
  O  O273  1  0.46304000  0.28696000  0.96304000  1.0
  O  O274  1  0.21304000  0.21304000  0.53696000  1.0
  O  O275  1  0.28696000  0.46304000  0.78696000  1.0
  O  O276  1  0.21304000  0.03696000  0.71304000  1.0
  O  O277  1  0.46303000  0.46304000  0.78696000  1.0
  O  O278  1  0.03697000  0.21303000  0.53696000  1.0
  O  O279  1  0.28697000  0.28696000  0.96303000  1.0
  O  O280  1  0.03697000  0.21304000  0.71303000  1.0
  O  O281  1  0.46304000  0.28696000  0.78696000  1.0
  O  O282  1  0.28697000  0.46303000  0.96304000  1.0
  O  O283  1  0.21304000  0.03696000  0.53696000  1.0
  O  O284  1  0.75001000  0.25000000  0.38111000  1.0
  O  O285  1  0.25001000  0.88111000  0.25000000  1.0
  O  O286  1  0.61888000  0.88112000  0.75000000  1.0
  O  O287  1  0.61888000  0.75000000  0.38112000  1.0
  O  O288  1  0.25000000  0.75000000  0.11889000  1.0
  O  O289  1  0.74999000  0.61889000  0.75000000  1.0
  O  O290  1  0.88112000  0.61888000  0.25000000  1.0
  O  O291  1  0.88112000  0.25000000  0.11888000  1.0
  O  O292  1  0.24999000  0.61889000  0.38112000  1.0
  O  O293  1  0.75001000  0.88111000  0.11888000  1.0
  O  O294  1  0.88111000  0.75000000  0.75000000  1.0
  O  O295  1  0.61889000  0.25000000  0.25000000  1.0
  O  O296  1  0.24999000  0.75000000  0.61889000  1.0
  O  O297  1  0.75001000  0.11888000  0.75000000  1.0
  O  O298  1  0.38111000  0.11889000  0.25000000  1.0
  O  O299  1  0.38112000  0.25000000  0.61888000  1.0
  O  O300  1  0.75001000  0.25000000  0.88111000  1.0
  O  O301  1  0.25001000  0.38111000  0.25000000  1.0
  O  O302  1  0.11889000  0.38111000  0.75000000  1.0
  O  O303  1  0.11888000  0.75000000  0.88112000  1.0
  O  O304  1  0.75001000  0.38111000  0.61888000  1.0
  O  O305  1  0.25001000  0.11888000  0.88111000  1.0
  O  O306  1  0.11888000  0.25000000  0.25000000  1.0
  O  O307  1  0.38111000  0.75000000  0.75000000  1.0
  O  O308  1  0.62673000  0.35742000  0.31054000  1.0
  O  O309  1  0.14259000  0.79469000  0.37326000  1.0
  O  O310  1  0.70531000  0.81054000  0.85741000  1.0
  O  O311  1  0.68946000  0.87326000  0.29469000  1.0
  O  O312  1  0.35741000  0.62674000  0.20531000  1.0
  O  O313  1  0.87326000  0.68946000  0.64259000  1.0
  O  O314  1  0.81053000  0.70531000  0.12674000  1.0
  O  O315  1  0.79470000  0.14258000  0.18946000  1.0
  O  O316  1  0.70531000  0.62674000  0.31054000  1.0
  O  O317  1  0.87326000  0.14259000  0.29469000  1.0
  O  O318  1  0.35742000  0.81053000  0.12674000  1.0
  O  O319  1  0.68947000  0.79469000  0.64258000  1.0
  O  O320  1  0.62674000  0.70531000  0.85741000  1.0
  O  O321  1  0.79470000  0.68946000  0.37326000  1.0
  O  O322  1  0.81053000  0.35742000  0.20531000  1.0
  O  O323  1  0.14259000  0.87326000  0.18946000  1.0
  O  O324  1  0.35741000  0.70531000  0.31054000  1.0
  O  O325  1  0.87326000  0.79469000  0.18946000  1.0
  O  O326  1  0.79470000  0.87326000  0.64258000  1.0
  O  O327  1  0.14259000  0.68946000  0.29469000  1.0
  O  O328  1  0.68947000  0.14258000  0.37326000  1.0
  O  O329  1  0.70530000  0.35742000  0.12674000  1.0
  O  O330  1  0.62673000  0.81054000  0.20531000  1.0
  O  O331  1  0.81053000  0.62674000  0.85742000  1.0
  O  O332  1  0.37327000  0.64258000  0.68946000  1.0
  O  O333  1  0.85742000  0.20531000  0.62674000  1.0
  O  O334  1  0.29470000  0.18946000  0.14258000  1.0
  O  O335  1  0.31053000  0.12674000  0.70531000  1.0
  O  O336  1  0.64259000  0.37326000  0.79469000  1.0
  O  O337  1  0.12674000  0.31054000  0.35741000  1.0
  O  O338  1  0.18946000  0.29469000  0.87326000  1.0
  O  O339  1  0.20530000  0.85742000  0.81054000  1.0
  O  O340  1  0.29470000  0.37326000  0.68946000  1.0
  O  O341  1  0.12674000  0.85741000  0.70531000  1.0
  O  O342  1  0.64259000  0.18946000  0.87326000  1.0
  O  O343  1  0.31053000  0.20531000  0.35742000  1.0
  O  O344  1  0.37327000  0.29469000  0.14258000  1.0
  O  O345  1  0.20530000  0.31054000  0.62674000  1.0
  O  O346  1  0.18947000  0.64258000  0.79469000  1.0
  O  O347  1  0.85741000  0.12674000  0.81054000  1.0
  O  O348  1  0.64259000  0.29469000  0.68946000  1.0
  O  O349  1  0.12673000  0.20531000  0.81054000  1.0
  O  O350  1  0.20530000  0.12674000  0.35742000  1.0
  O  O351  1  0.85741000  0.31054000  0.70531000  1.0
  O  O352  1  0.31053000  0.85742000  0.62674000  1.0
  O  O353  1  0.29469000  0.64258000  0.87326000  1.0
  O  O354  1  0.37326000  0.18946000  0.79469000  1.0
  O  O355  1  0.18946000  0.37326000  0.14259000  1.0
  O  O356  1  0.54103000  0.42242000  0.41333000  1.0
  O  O357  1  0.07758000  0.87678000  0.45898000  1.0
  O  O358  1  0.62322000  0.91333000  0.92243000  1.0
  O  O359  1  0.58667000  0.95898000  0.37678000  1.0
  O  O360  1  0.42243000  0.54102000  0.12322000  1.0
  O  O361  1  0.95898000  0.58667000  0.57757000  1.0
  O  O362  1  0.91334000  0.62322000  0.04102000  1.0
  O  O363  1  0.87677000  0.07758000  0.08667000  1.0
  O  O364  1  0.62322000  0.54102000  0.41333000  1.0
  O  O365  1  0.95897000  0.07758000  0.37678000  1.0
  O  O366  1  0.42243000  0.91333000  0.04102000  1.0
  O  O367  1  0.58667000  0.87678000  0.57757000  1.0
  O  O368  1  0.54102000  0.62322000  0.92243000  1.0
  O  O369  1  0.87677000  0.58667000  0.45898000  1.0
  O  O370  1  0.91333000  0.42243000  0.12322000  1.0
  O  O371  1  0.07757000  0.95898000  0.08667000  1.0
  O  O372  1  0.42243000  0.62322000  0.41333000  1.0
  O  O373  1  0.95898000  0.87678000  0.08667000  1.0
  O  O374  1  0.87677000  0.95898000  0.57758000  1.0
  O  O375  1  0.07757000  0.58667000  0.37678000  1.0
  O  O376  1  0.58667000  0.07757000  0.45898000  1.0
  O  O377  1  0.62322000  0.42243000  0.04102000  1.0
  O  O378  1  0.54102000  0.91333000  0.12322000  1.0
  O  O379  1  0.91333000  0.54102000  0.92243000  1.0
  O  O380  1  0.45897000  0.57758000  0.58667000  1.0
  O  O381  1  0.92243000  0.12322000  0.54102000  1.0
  O  O382  1  0.37677000  0.08667000  0.07758000  1.0
  O  O383  1  0.41334000  0.04102000  0.62322000  1.0
  O  O384  1  0.57757000  0.45898000  0.87678000  1.0
  O  O385  1  0.04102000  0.41333000  0.42243000  1.0
  O  O386  1  0.08667000  0.37678000  0.95898000  1.0
  O  O387  1  0.12323000  0.92242000  0.91333000  1.0
  O  O388  1  0.37678000  0.45898000  0.58667000  1.0
  O  O389  1  0.04102000  0.92243000  0.62322000  1.0
  O  O390  1  0.57757000  0.08667000  0.95898000  1.0
  O  O391  1  0.41333000  0.12322000  0.42243000  1.0
  O  O392  1  0.45897000  0.37678000  0.07758000  1.0
  O  O393  1  0.12323000  0.41333000  0.54102000  1.0
  O  O394  1  0.08666000  0.57758000  0.87678000  1.0
  O  O395  1  0.92243000  0.04102000  0.91333000  1.0
  O  O396  1  0.57757000  0.37678000  0.58667000  1.0
  O  O397  1  0.04102000  0.12322000  0.91333000  1.0
  O  O398  1  0.12322000  0.04102000  0.42243000  1.0
  O  O399  1  0.92243000  0.41333000  0.62322000  1.0
  O  O400  1  0.41334000  0.92242000  0.54102000  1.0
  O  O401  1  0.37677000  0.57758000  0.95898000  1.0
  O  O402  1  0.45897000  0.08667000  0.87678000  1.0
  O  O403  1  0.08667000  0.45898000  0.07757000  1.0
