# generated using pymatgen
data_Cu2H12C9SN4
_symmetry_space_group_name_H-M   'P 1'
_cell_length_a   6.83069000
_cell_length_b   12.46430000
_cell_length_c   13.76000000
_cell_angle_alpha   90.00000000
_cell_angle_beta   90.00000000
_cell_angle_gamma   97.31580000
_symmetry_Int_Tables_number   1
_chemical_formula_structural   Cu2H12C9SN4
_chemical_formula_sum   'Cu8 H48 C36 S4 N16'
_cell_volume   1161.98628384
_cell_formula_units_Z   4
loop_
 _symmetry_equiv_pos_site_id
 _symmetry_equiv_pos_as_xyz
  1  'x, y, z'
loop_
 _atom_site_type_symbol
 _atom_site_label
 _atom_site_symmetry_multiplicity
 _atom_site_fract_x
 _atom_site_fract_y
 _atom_site_fract_z
 _atom_site_occupancy
  Cu  Cu0  1  0.91133000  0.96402000  0.11367000  1.0
  Cu  Cu1  1  0.58867000  0.53598000  0.61367000  1.0
  Cu  Cu2  1  0.08867000  0.03597000  0.88634000  1.0
  Cu  Cu3  1  0.41134000  0.46402000  0.38634000  1.0
  Cu  Cu4  1  0.74426000  0.91399000  0.82918000  1.0
  Cu  Cu5  1  0.75576000  0.58600000  0.32918000  1.0
  Cu  Cu6  1  0.25575000  0.08601000  0.17082000  1.0
  Cu  Cu7  1  0.24425000  0.41400000  0.67082000  1.0
  H  H8  1  0.59545000  0.78362000  0.69456000  1.0
  H  H9  1  0.90455000  0.71638000  0.19456000  1.0
  H  H10  1  0.40454000  0.21638000  0.30544000  1.0
  H  H11  1  0.09545000  0.28362000  0.80544000  1.0
  H  H12  1  0.74083000  0.90622000  0.64069000  1.0
  H  H13  1  0.75917000  0.59379000  0.14069000  1.0
  H  H14  1  0.25918000  0.09379000  0.35931000  1.0
  H  H15  1  0.24083000  0.40622000  0.85931000  1.0
  H  H16  1  0.03912000  0.86751000  0.72564000  1.0
  H  H17  1  0.46088000  0.63249000  0.22563000  1.0
  H  H18  1  0.96088000  0.13249000  0.27437000  1.0
  H  H19  1  0.53913000  0.36751000  0.77437000  1.0
  H  H20  1  0.76871000  0.68064000  0.82482000  1.0
  H  H21  1  0.73128000  0.81936000  0.32482000  1.0
  H  H22  1  0.23128000  0.31936000  0.17518000  1.0
  H  H23  1  0.26872000  0.18064000  0.67519000  1.0
  H  H24  1  0.95866000  0.65383000  0.74507000  1.0
  H  H25  1  0.54134000  0.84617000  0.24508000  1.0
  H  H26  1  0.04134000  0.34617000  0.25492000  1.0
  H  H27  1  0.45866000  0.15383000  0.75492000  1.0
  H  H28  1  0.18707000  0.68743000  0.85451000  1.0
  H  H29  1  0.31293000  0.81258000  0.35451000  1.0
  H  H30  1  0.81293000  0.31257000  0.14549000  1.0
  H  H31  1  0.68707000  0.18743000  0.64549000  1.0
  H  H32  1  0.19493000  0.84080000  0.07362000  1.0
  H  H33  1  0.30507000  0.65920000  0.57362000  1.0
  H  H34  1  0.80507000  0.15920000  0.92638000  1.0
  H  H35  1  0.69493000  0.34080000  0.42638000  1.0
  H  H36  1  0.49632000  0.78216000  0.05272000  1.0
  H  H37  1  0.00368000  0.71784000  0.55272000  1.0
  H  H38  1  0.50367000  0.21784000  0.94728000  1.0
  H  H39  1  0.99633000  0.28216000  0.44728000  1.0
  H  H40  1  0.44103000  0.75482000  0.93052000  1.0
  H  H41  1  0.05897000  0.74518000  0.43052000  1.0
  H  H42  1  0.55897000  0.24518000  0.06948000  1.0
  H  H43  1  0.94103000  0.25482000  0.56948000  1.0
  H  H44  1  0.49837000  0.58389000  0.00696000  1.0
  H  H45  1  0.00163000  0.91611000  0.50696000  1.0
  H  H46  1  0.50163000  0.41611000  0.99304000  1.0
  H  H47  1  0.99836000  0.08389000  0.49304000  1.0
  H  H48  1  0.07436000  0.59258000  0.08158000  1.0
  H  H49  1  0.42564000  0.90742000  0.58158000  1.0
  H  H50  1  0.92563000  0.40741000  0.91842000  1.0
  H  H51  1  0.57436000  0.09258000  0.41842000  1.0
  H  H52  1  0.20989000  0.47296000  0.07598000  1.0
  H  H53  1  0.29012000  0.02703000  0.57597000  1.0
  H  H54  1  0.79011000  0.52703000  0.92402000  1.0
  H  H55  1  0.70989000  0.97297000  0.42402000  1.0
  C  C56  1  0.66156000  0.01243000  0.13268000  1.0
  C  C57  1  0.83844000  0.48758000  0.63266000  1.0
  C  C58  1  0.33844000  0.98757000  0.86733000  1.0
  C  C59  1  0.16157000  0.51243000  0.36734000  1.0
  C  C60  1  0.07401000  0.91652000  0.21268000  1.0
  C  C61  1  0.42599000  0.58345000  0.71268000  1.0
  C  C62  1  0.92600000  0.08347000  0.78732000  1.0
  C  C63  1  0.57400000  0.41653000  0.28732000  1.0
  C  C64  1  0.73102000  0.84028000  0.69328000  1.0
  C  C65  1  0.76897000  0.65973000  0.19328000  1.0
  C  C66  1  0.26898000  0.15972000  0.30672000  1.0
  C  C67  1  0.23103000  0.34028000  0.80673000  1.0
  C  C68  1  0.89845000  0.81855000  0.74179000  1.0
  C  C69  1  0.60155000  0.68145000  0.24178000  1.0
  C  C70  1  0.10155000  0.18145000  0.25822000  1.0
  C  C71  1  0.39845000  0.31855000  0.75822000  1.0
  C  C72  1  0.91338000  0.71448000  0.79566000  1.0
  C  C73  1  0.58662000  0.78552000  0.29566000  1.0
  C  C74  1  0.08662000  0.28552000  0.20434000  1.0
  C  C75  1  0.41339000  0.21449000  0.70434000  1.0
  C  C76  1  0.06081000  0.78570000  0.95072000  1.0
  C  C77  1  0.43918000  0.71430000  0.45071000  1.0
  C  C78  1  0.93918000  0.21430000  0.04928000  1.0
  C  C79  1  0.56082000  0.28570000  0.54928000  1.0
  C  C80  1  0.38383000  0.73902000  0.00480000  1.0
  C  C81  1  0.11616000  0.76097000  0.50480000  1.0
  C  C82  1  0.61616000  0.26098000  0.99520000  1.0
  C  C83  1  0.88384000  0.23902000  0.49520000  1.0
  C  C84  1  0.36532000  0.61989000  0.02513000  1.0
  C  C85  1  0.13468000  0.88010000  0.52513000  1.0
  C  C86  1  0.63468000  0.38010000  0.97487000  1.0
  C  C87  1  0.86532000  0.11990000  0.47487000  1.0
  C  C88  1  0.20881000  0.55896000  0.06244000  1.0
  C  C89  1  0.29120000  0.94103000  0.56244000  1.0
  C  C90  1  0.79120000  0.44103000  0.93756000  1.0
  C  C91  1  0.70880000  0.05897000  0.43756000  1.0
  S  S92  1  0.86928000  0.86214000  0.97329000  1.0
  S  S93  1  0.63073000  0.63786000  0.47329000  1.0
  S  S94  1  0.13072000  0.13786000  0.02671000  1.0
  S  S95  1  0.36928000  0.36214000  0.52671000  1.0
  N  N96  1  0.50289000  0.03669000  0.14560000  1.0
  N  N97  1  0.99710000  0.46331000  0.64560000  1.0
  N  N98  1  0.49711000  0.96331000  0.85440000  1.0
  N  N99  1  0.00290000  0.53669000  0.35440000  1.0
  N  N100  1  0.13921000  0.87221000  0.27874000  1.0
  N  N101  1  0.36078000  0.62780000  0.77874000  1.0
  N  N102  1  0.86079000  0.12779000  0.72126000  1.0
  N  N103  1  0.63919000  0.37220000  0.22126000  1.0
  N  N104  1  0.06367000  0.72495000  0.87160000  1.0
  N  N105  1  0.43633000  0.77505000  0.37160000  1.0
  N  N106  1  0.93632000  0.27504000  0.12840000  1.0
  N  N107  1  0.56367000  0.22496000  0.62840000  1.0
  N  N108  1  0.20465000  0.78888000  0.01696000  1.0
  N  N109  1  0.29535000  0.71112000  0.51696000  1.0
  N  N110  1  0.79535000  0.21112000  0.98304000  1.0
  N  N111  1  0.70465000  0.28888000  0.48304000  1.0
