# generated using pymatgen
data_ZnH2C19Br2(O2F3)2
_symmetry_space_group_name_H-M   'P 1'
_cell_length_a   15.02420000
_cell_length_b   15.14420000
_cell_length_c   39.14500000
_cell_angle_alpha   89.86540000
_cell_angle_beta   89.67160000
_cell_angle_gamma   89.23350000
_symmetry_Int_Tables_number   1
_chemical_formula_structural   ZnH2C19Br2(O2F3)2
_chemical_formula_sum   'Zn4 H8 C76 Br8 O16 F24'
_cell_volume   8905.67558714
_cell_formula_units_Z   4
loop_
 _symmetry_equiv_pos_site_id
 _symmetry_equiv_pos_as_xyz
  1  'x, y, z'
loop_
 _atom_site_type_symbol
 _atom_site_label
 _atom_site_symmetry_multiplicity
 _atom_site_fract_x
 _atom_site_fract_y
 _atom_site_fract_z
 _atom_site_occupancy
  Zn  Zn0  1  0.58599000  0.99784000  0.49925000  1.0
  Zn  Zn1  1  0.41398000  0.00010000  0.49992000  1.0
  Zn  Zn2  1  0.50086000  0.90608000  0.99967000  1.0
  Zn  Zn3  1  0.49850000  0.08627000  0.99954000  1.0
  H  H4  1  0.35791000  0.27662000  0.50119000  1.0
  H  H5  1  0.64308000  0.27275000  0.49777000  1.0
  H  H6  1  0.64350000  0.72104000  0.50056000  1.0
  H  H7  1  0.35825000  0.72514000  0.49893000  1.0
  H  H8  1  0.22375000  0.17539000  0.99851000  1.0
  H  H9  1  0.22690000  0.89254000  0.99884000  1.0
  H  H10  1  0.77515000  0.89267000  0.00133000  1.0
  H  H11  1  0.77085000  0.17552000  0.00134000  1.0
  C  C12  1  0.49877000  0.00070000  0.43329000  1.0
  C  C13  1  0.50055000  0.16821000  0.49942000  1.0
  C  C14  1  0.49942000  0.00095000  0.56589000  1.0
  C  C15  1  0.50107000  0.82973000  0.49971000  1.0
  C  C16  1  0.49819000  0.95765000  0.06382000  1.0
  C  C17  1  0.33240000  0.03209000  0.99817000  1.0
  C  C18  1  0.50241000  0.95810000  0.93546000  1.0
  C  C19  1  0.66597000  0.03225000  0.00129000  1.0
  C  C20  1  0.41975000  0.31308000  0.50040000  1.0
  C  C21  1  0.41806000  0.40552000  0.50015000  1.0
  C  C22  1  0.33578000  0.45591000  0.50045000  1.0
  C  C23  1  0.58129000  0.31088000  0.49859000  1.0
  C  C24  1  0.58307000  0.40325000  0.49900000  1.0
  C  C25  1  0.66544000  0.45131000  0.49891000  1.0
  C  C26  1  0.58159000  0.68470000  0.50012000  1.0
  C  C27  1  0.58322000  0.59226000  0.49977000  1.0
  C  C28  1  0.66551000  0.54189000  0.49949000  1.0
  C  C29  1  0.42006000  0.68702000  0.49932000  1.0
  C  C30  1  0.41822000  0.59463000  0.49963000  1.0
  C  C31  1  0.33585000  0.54651000  0.49999000  1.0
  C  C32  1  0.50052000  0.26661000  0.49945000  1.0
  C  C33  1  0.50059000  0.45205000  0.49960000  1.0
  C  C34  1  0.50090000  0.73129000  0.49971000  1.0
  C  C35  1  0.50067000  0.54576000  0.49965000  1.0
  C  C36  1  0.49848000  0.96064000  0.89722000  1.0
  C  C37  1  0.54109000  0.89730000  0.87654000  1.0
  C  C38  1  0.54185000  0.90576000  0.84103000  1.0
  C  C39  1  0.45529000  0.03162000  0.88074000  1.0
  C  C40  1  0.45668000  0.03964000  0.84533000  1.0
  C  C41  1  0.50014000  0.97719000  0.82476000  1.0
  C  C42  1  0.49998000  0.98602000  0.78708000  1.0
  C  C43  1  0.55521000  0.04572000  0.77019000  1.0
  C  C44  1  0.44329000  0.93503000  0.76726000  1.0
  C  C45  1  0.49988000  0.00324000  0.60429000  1.0
  C  C46  1  0.43119000  0.04493000  0.62282000  1.0
  C  C47  1  0.43140000  0.04596000  0.65844000  1.0
  C  C48  1  0.56895000  0.96330000  0.62294000  1.0
  C  C49  1  0.56869000  0.96448000  0.65853000  1.0
  C  C50  1  0.49983000  0.00540000  0.67701000  1.0
  C  C51  1  0.49842000  0.00164000  0.71484000  1.0
  C  C52  1  0.44207000  0.94313000  0.73183000  1.0
  C  C53  1  0.55488000  0.05294000  0.73467000  1.0
  C  C54  1  0.50224000  0.96018000  0.10206000  1.0
  C  C55  1  0.54531000  0.03018000  0.11833000  1.0
  C  C56  1  0.54385000  0.03856000  0.15372000  1.0
  C  C57  1  0.45958000  0.89814000  0.12289000  1.0
  C  C58  1  0.45860000  0.90698000  0.15837000  1.0
  C  C59  1  0.50030000  0.97742000  0.17444000  1.0
  C  C60  1  0.50038000  0.98634000  0.21211000  1.0
  C  C61  1  0.55729000  0.93410000  0.23205000  1.0
  C  C62  1  0.44467000  0.04706000  0.22890000  1.0
  C  C63  1  0.49874000  0.00308000  0.39489000  1.0
  C  C64  1  0.43008000  0.96463000  0.37620000  1.0
  C  C65  1  0.43077000  0.96569000  0.34061000  1.0
  C  C66  1  0.56754000  0.04310000  0.37639000  1.0
  C  C67  1  0.56773000  0.04410000  0.34077000  1.0
  C  C68  1  0.49963000  0.00511000  0.32217000  1.0
  C  C69  1  0.50135000  0.00150000  0.28436000  1.0
  C  C70  1  0.44464000  0.05401000  0.26442000  1.0
  C  C71  1  0.55827000  0.94202000  0.26747000  1.0
  C  C72  1  0.18675000  0.11416000  0.99880000  1.0
  C  C73  1  0.09348000  0.11593000  0.99945000  1.0
  C  C74  1  0.04269000  0.19755000  0.99978000  1.0
  C  C75  1  0.18842000  0.95385000  0.99898000  1.0
  C  C76  1  0.09539000  0.95223000  0.99962000  1.0
  C  C77  1  0.04694000  0.87053000  0.00007000  1.0
  C  C78  1  0.81203000  0.95396000  0.00121000  1.0
  C  C79  1  0.90511000  0.95231000  0.00082000  1.0
  C  C80  1  0.95566000  0.87057000  0.00062000  1.0
  C  C81  1  0.80945000  0.11427000  0.00120000  1.0
  C  C82  1  0.90268000  0.11600000  0.00079000  1.0
  C  C83  1  0.95134000  0.19759000  0.00048000  1.0
  C  C84  1  0.23331000  0.03388000  0.99857000  1.0
  C  C85  1  0.04638000  0.03416000  0.99988000  1.0
  C  C86  1  0.76502000  0.03400000  0.00133000  1.0
  C  C87  1  0.95194000  0.03420000  0.00052000  1.0
  Br  Br88  1  0.22728000  0.61177000  0.50001000  1.0
  Br  Br89  1  0.22712000  0.39370000  0.50140000  1.0
  Br  Br90  1  0.77418000  0.60409000  0.49983000  1.0
  Br  Br91  1  0.77399000  0.38605000  0.49809000  1.0
  Br  Br92  1  0.88565000  0.30534000  0.00104000  1.0
  Br  Br93  1  0.10553000  0.30527000  0.99919000  1.0
  Br  Br94  1  0.89268000  0.76291000  0.00108000  1.0
  Br  Br95  1  0.11274000  0.76281000  0.99987000  1.0
  O  O96  1  0.57317000  0.98421000  0.44747000  1.0
  O  O97  1  0.42439000  0.01515000  0.44808000  1.0
  O  O98  1  0.42600000  0.13065000  0.50480000  1.0
  O  O99  1  0.57516000  0.12875000  0.49403000  1.0
  O  O100  1  0.42496000  0.98636000  0.55179000  1.0
  O  O101  1  0.57369000  0.01364000  0.55101000  1.0
  O  O102  1  0.57584000  0.86723000  0.50444000  1.0
  O  O103  1  0.42641000  0.86935000  0.49497000  1.0
  O  O104  1  0.50139000  0.88219000  0.04890000  1.0
  O  O105  1  0.49145000  0.03181000  0.04913000  1.0
  O  O106  1  0.37213000  0.10721000  0.99803000  1.0
  O  O107  1  0.37143000  0.95718000  0.99808000  1.0
  O  O108  1  0.50700000  0.03222000  0.95007000  1.0
  O  O109  1  0.50125000  0.88257000  0.95046000  1.0
  O  O110  1  0.62894000  0.95735000  0.00123000  1.0
  O  O111  1  0.62424000  0.10738000  0.00122000  1.0
  F  F112  1  0.40940000  0.09328000  0.89854000  1.0
  F  F113  1  0.41403000  0.10888000  0.83061000  1.0
  F  F114  1  0.58523000  0.82822000  0.89044000  1.0
  F  F115  1  0.58499000  0.84395000  0.82212000  1.0
  F  F116  1  0.61053000  0.09676000  0.78841000  1.0
  F  F117  1  0.61021000  0.11055000  0.71934000  1.0
  F  F118  1  0.38838000  0.87713000  0.78264000  1.0
  F  F119  1  0.38650000  0.89225000  0.71364000  1.0
  F  F120  1  0.63553000  0.92325000  0.67548000  1.0
  F  F121  1  0.63603000  0.91988000  0.60696000  1.0
  F  F122  1  0.36396000  0.08722000  0.67523000  1.0
  F  F123  1  0.36399000  0.08706000  0.60663000  1.0
  F  F124  1  0.41561000  0.83007000  0.10915000  1.0
  F  F125  1  0.41534000  0.84653000  0.17746000  1.0
  F  F126  1  0.59114000  0.09046000  0.10030000  1.0
  F  F127  1  0.58643000  0.10682000  0.16823000  1.0
  F  F128  1  0.61258000  0.87504000  0.21679000  1.0
  F  F129  1  0.61411000  0.89000000  0.28576000  1.0
  F  F130  1  0.38917000  0.09936000  0.21057000  1.0
  F  F131  1  0.38868000  0.11248000  0.27966000  1.0
  F  F132  1  0.63521000  0.08380000  0.32401000  1.0
  F  F133  1  0.63447000  0.08365000  0.39260000  1.0
  F  F134  1  0.36437000  0.92579000  0.32364000  1.0
  F  F135  1  0.36303000  0.92269000  0.39215000  1.0
