# generated using pymatgen
data_AlH4C10SO6F
_symmetry_space_group_name_H-M   'P 1'
_cell_length_a   6.59186000
_cell_length_b   11.00407581
_cell_length_c   12.41460000
_cell_angle_alpha   96.72312710
_cell_angle_beta   101.00010000
_cell_angle_gamma   105.37905032
_symmetry_Int_Tables_number   1
_chemical_formula_structural   AlH4C10SO6F
_chemical_formula_sum   'Al2 H8 C20 S2 O12 F2'
_cell_volume   838.84185922
_cell_formula_units_Z   2
loop_
 _symmetry_equiv_pos_site_id
 _symmetry_equiv_pos_as_xyz
  1  'x, y, z'
loop_
 _atom_site_type_symbol
 _atom_site_label
 _atom_site_symmetry_multiplicity
 _atom_site_fract_x
 _atom_site_fract_y
 _atom_site_fract_z
 _atom_site_occupancy
  Al  Al0  1  0.00295000  0.50274000  0.50193000  1.0
  Al  Al1  1  0.50568000  0.50663000  0.50467000  1.0
  H  H2  1  0.34098000  0.61355000  0.62998000  1.0
  H  H3  1  0.65243000  0.34133000  0.44776000  1.0
  H  H4  1  0.51886000  0.75446000  0.35604000  1.0
  H  H5  1  0.29203000  0.86167000  0.24482000  1.0
  H  H6  1  0.79419000  0.22080000  0.35032000  1.0
  H  H7  1  0.43306000  0.09545000  0.24012000  1.0
  H  H8  1  0.41970000  0.58044000  0.89279000  1.0
  H  H9  1  0.59706000  0.42710000  0.11502000  1.0
  C  C10  1  0.85986000  0.72487000  0.48643000  1.0
  C  C11  1  0.83523000  0.52959000  0.70295000  1.0
  C  C12  1  0.14494000  0.27782000  0.50664000  1.0
  C  C13  1  0.17960000  0.48245000  0.30544000  1.0
  C  C14  1  0.11361000  0.54869000  0.88441000  1.0
  C  C15  1  0.90309000  0.46027000  0.12319000  1.0
  C  C16  1  0.90312000  0.52406000  0.82090000  1.0
  C  C17  1  0.11361000  0.48585000  0.18708000  1.0
  C  C18  1  0.90446000  0.48364000  0.01292000  1.0
  C  C19  1  0.11276000  0.52586000  0.99488000  1.0
  C  C20  1  0.92674000  0.86553000  0.48392000  1.0
  C  C21  1  0.78820000  0.92661000  0.42218000  1.0
  C  C22  1  0.12999000  0.93827000  0.54425000  1.0
  C  C23  1  0.57924000  0.85664000  0.35631000  1.0
  C  C24  1  0.45265000  0.91695000  0.29399000  1.0
  C  C25  1  0.07181000  0.13485000  0.49281000  1.0
  C  C26  1  0.20105000  0.07203000  0.54952000  1.0
  C  C27  1  0.86417000  0.06221000  0.42431000  1.0
  C  C28  1  0.73287000  0.11996000  0.35539000  1.0
  C  C29  1  0.53106000  0.04900000  0.29222000  1.0
  S  S30  1  0.70684000  0.46991000  0.89516000  1.0
  S  S31  1  0.31039000  0.53999000  0.11293000  1.0
  O  O32  1  0.98760000  0.66344000  0.46208000  1.0
  O  O33  1  0.63299000  0.50683000  0.66115000  1.0
  O  O34  1  0.32957000  0.32992000  0.48904000  1.0
  O  O35  1  0.02794000  0.44927000  0.35579000  1.0
  O  O36  1  0.01293000  0.33525000  0.53318000  1.0
  O  O37  1  0.38173000  0.51286000  0.35026000  1.0
  O  O38  1  0.68383000  0.67843000  0.51488000  1.0
  O  O39  1  0.98573000  0.55682000  0.65086000  1.0
  O  O40  1  0.30059000  0.57023000  0.55292000  1.0
  O  O41  1  0.70441000  0.43411000  0.45779000  1.0
  O  O42  1  0.29119000  0.59022000  0.84415000  1.0
  O  O43  1  0.72618000  0.41758000  0.16324000  1.0
  F  F44  1  0.39678000  0.13682000  0.61678000  1.0
  F  F45  1  0.26506000  0.88583000  0.60590000  1.0
