# generated using pymatgen
data_CdH14C12S2NCl2
_symmetry_space_group_name_H-M   'P 1'
_cell_length_a   8.23570000
_cell_length_b   14.84410000
_cell_length_c   18.50850000
_cell_angle_alpha   83.38150000
_cell_angle_beta   77.78150000
_cell_angle_gamma   73.93290000
_symmetry_Int_Tables_number   1
_chemical_formula_structural   CdH14C12S2NCl2
_chemical_formula_sum   'Cd4 H56 C48 S8 N4 Cl8'
_cell_volume   2121.18080391
_cell_formula_units_Z   4
loop_
 _symmetry_equiv_pos_site_id
 _symmetry_equiv_pos_as_xyz
  1  'x, y, z'
loop_
 _atom_site_type_symbol
 _atom_site_label
 _atom_site_symmetry_multiplicity
 _atom_site_fract_x
 _atom_site_fract_y
 _atom_site_fract_z
 _atom_site_occupancy
  Cd  Cd0  1  0.11712000  0.88343000  0.95031000  1.0
  Cd  Cd1  1  0.95103000  0.61714000  0.54919000  1.0
  Cd  Cd2  1  0.88289000  0.11657000  0.04969000  1.0
  Cd  Cd3  1  0.04898000  0.38285000  0.45081000  1.0
  H  H4  1  0.37916000  0.88673000  0.74556000  1.0
  H  H5  1  0.01702000  0.61270000  0.75371000  1.0
  H  H6  1  0.62084000  0.11328000  0.25444000  1.0
  H  H7  1  0.98300000  0.38729000  0.24629000  1.0
  H  H8  1  0.59442000  0.86166000  0.76227000  1.0
  H  H9  1  0.22257000  0.63819000  0.73854000  1.0
  H  H10  1  0.40558000  0.13835000  0.23772000  1.0
  H  H11  1  0.77744000  0.36181000  0.26147000  1.0
  H  H12  1  0.45004000  0.79252000  0.80921000  1.0
  H  H13  1  0.05532000  0.70734000  0.69080000  1.0
  H  H14  1  0.54997000  0.20749000  0.19078000  1.0
  H  H15  1  0.94468000  0.29266000  0.30920000  1.0
  H  H16  1  0.48386000  0.94367000  0.96708000  1.0
  H  H17  1  0.39486000  0.55706000  0.53342000  1.0
  H  H18  1  0.51616000  0.05632000  0.03292000  1.0
  H  H19  1  0.60516000  0.44294000  0.46658000  1.0
  H  H20  1  0.65780000  0.89995000  0.89445000  1.0
  H  H21  1  0.45334000  0.60104000  0.60668000  1.0
  H  H22  1  0.34221000  0.10005000  0.10555000  1.0
  H  H23  1  0.54667000  0.39897000  0.39331000  1.0
  H  H24  1  0.80613000  0.75004000  0.93424000  1.0
  H  H25  1  0.49146000  0.75047000  0.56602000  1.0
  H  H26  1  0.19387000  0.24996000  0.06578000  1.0
  H  H27  1  0.50853000  0.24954000  0.43397000  1.0
  H  H28  1  0.51681000  0.55575000  0.04883000  1.0
  H  H29  1  0.11853000  0.94467000  0.45076000  1.0
  H  H30  1  0.48319000  0.44424000  0.95117000  1.0
  H  H31  1  0.88145000  0.05534000  0.54924000  1.0
  H  H32  1  0.21166000  0.60658000  0.07384000  1.0
  H  H33  1  0.88757000  0.89402000  0.42584000  1.0
  H  H34  1  0.78834000  0.39342000  0.92615000  1.0
  H  H35  1  0.11241000  0.10598000  0.57416000  1.0
  H  H36  1  0.16789000  0.64983000  0.98428000  1.0
  H  H37  1  0.80104000  0.85016000  0.51511000  1.0
  H  H38  1  0.83211000  0.35018000  0.01571000  1.0
  H  H39  1  0.19894000  0.14984000  0.48489000  1.0
  H  H40  1  0.98210000  0.84478000  0.17561000  1.0
  H  H41  1  0.99949000  0.65521000  0.32376000  1.0
  H  H42  1  0.01791000  0.15522000  0.82440000  1.0
  H  H43  1  0.00053000  0.34479000  0.67624000  1.0
  H  H44  1  0.11087000  0.72670000  0.18693000  1.0
  H  H45  1  0.02073000  0.77339000  0.31301000  1.0
  H  H46  1  0.88914000  0.27329000  0.81306000  1.0
  H  H47  1  0.97928000  0.22660000  0.68699000  1.0
  H  H48  1  0.20231000  0.81576000  0.13155000  1.0
  H  H49  1  0.14587000  0.68451000  0.36941000  1.0
  H  H50  1  0.79769000  0.18423000  0.86845000  1.0
  H  H51  1  0.85414000  0.31549000  0.63059000  1.0
  H  H52  1  0.76024000  0.51814000  0.10891000  1.0
  H  H53  1  0.38364000  0.98139000  0.39075000  1.0
  H  H54  1  0.23976000  0.48186000  0.89110000  1.0
  H  H55  1  0.61635000  0.01861000  0.60926000  1.0
  H  H56  1  0.97139000  0.60652000  0.88696000  1.0
  H  H57  1  0.46744000  0.89435000  0.61343000  1.0
  H  H58  1  0.02861000  0.39348000  0.11305000  1.0
  H  H59  1  0.53255000  0.10565000  0.38658000  1.0
  C  C60  1  0.46074000  0.86286000  0.78736000  1.0
  C  C61  1  0.11530000  0.63693000  0.71260000  1.0
  C  C62  1  0.53926000  0.13714000  0.21264000  1.0
  C  C63  1  0.88471000  0.36306000  0.28740000  1.0
  C  C64  1  0.52785000  0.89586000  0.92157000  1.0
  C  C65  1  0.34615000  0.60486000  0.57896000  1.0
  C  C66  1  0.47216000  0.10413000  0.07843000  1.0
  C  C67  1  0.65386000  0.39515000  0.42103000  1.0
  C  C68  1  0.52917000  0.79743000  0.95300000  1.0
  C  C69  1  0.27940000  0.70323000  0.54732000  1.0
  C  C70  1  0.47084000  0.20257000  0.04700000  1.0
  C  C71  1  0.72060000  0.29677000  0.45268000  1.0
  C  C72  1  0.68509000  0.73151000  0.95732000  1.0
  C  C73  1  0.37396000  0.76903000  0.54289000  1.0
  C  C74  1  0.31492000  0.26849000  0.04268000  1.0
  C  C75  1  0.62603000  0.23097000  0.45711000  1.0
  C  C76  1  0.68393000  0.64276000  0.99257000  1.0
  C  C77  1  0.31825000  0.85769000  0.50743000  1.0
  C  C78  1  0.31608000  0.35724000  0.00743000  1.0
  C  C79  1  0.68173000  0.14232000  0.49258000  1.0
  C  C80  1  0.52409000  0.62414000  0.02167000  1.0
  C  C81  1  0.16771000  0.87637000  0.47817000  1.0
  C  C82  1  0.47591000  0.37585000  0.97833000  1.0
  C  C83  1  0.83227000  0.12363000  0.52184000  1.0
  C  C84  1  0.37332000  0.69186000  0.01200000  1.0
  C  C85  1  0.07506000  0.80877000  0.48795000  1.0
  C  C86  1  0.62668000  0.30814000  0.98799000  1.0
  C  C87  1  0.92492000  0.19123000  0.51204000  1.0
  C  C88  1  0.20232000  0.66791000  0.03413000  1.0
  C  C89  1  0.90168000  0.83250000  0.46541000  1.0
  C  C90  1  0.79768000  0.33209000  0.96586000  1.0
  C  C91  1  0.09830000  0.16751000  0.53459000  1.0
  C  C92  1  0.08765000  0.78907000  0.14867000  1.0
  C  C93  1  0.02199000  0.71106000  0.35123000  1.0
  C  C94  1  0.91236000  0.21093000  0.85133000  1.0
  C  C95  1  0.97801000  0.28894000  0.64877000  1.0
  C  C96  1  0.84574000  0.57032000  0.99711000  1.0
  C  C97  1  0.41258000  0.92992000  0.50288000  1.0
  C  C98  1  0.15427000  0.42967000  0.00289000  1.0
  C  C99  1  0.58739000  0.07008000  0.49712000  1.0
  C  C100  1  0.86465000  0.51001000  0.06080000  1.0
  C  C101  1  0.43338000  0.98972000  0.43900000  1.0
  C  C102  1  0.13535000  0.48999000  0.93921000  1.0
  C  C103  1  0.56660000  0.01028000  0.56101000  1.0
  C  C104  1  0.98336000  0.55947000  0.93637000  1.0
  C  C105  1  0.48066000  0.94105000  0.56383000  1.0
  C  C106  1  0.01664000  0.44052000  0.06363000  1.0
  C  C107  1  0.51931000  0.05896000  0.43618000  1.0
  S  S108  1  0.37925000  0.94570000  0.85904000  1.0
  S  S109  1  0.18736000  0.55452000  0.64060000  1.0
  S  S110  1  0.62075000  0.05430000  0.14096000  1.0
  S  S111  1  0.81267000  0.44548000  0.35940000  1.0
  S  S112  1  0.01906000  0.76160000  0.06934000  1.0
  S  S113  1  0.84765000  0.73855000  0.42949000  1.0
  S  S114  1  0.98094000  0.23841000  0.93066000  1.0
  S  S115  1  0.15234000  0.26145000  0.57051000  1.0
  N  N116  1  0.37745000  0.77670000  0.97880000  1.0
  N  N117  1  0.13172000  0.72401000  0.52139000  1.0
  N  N118  1  0.62257000  0.22330000  0.02120000  1.0
  N  N119  1  0.86827000  0.27599000  0.47860000  1.0
  Cl  Cl120  1  0.09210000  0.77191000  0.86157000  1.0
  Cl  Cl121  1  0.72916000  0.72836000  0.63797000  1.0
  Cl  Cl122  1  0.90789000  0.22809000  0.13843000  1.0
  Cl  Cl123  1  0.27085000  0.27164000  0.36203000  1.0
  Cl  Cl124  1  0.83493000  0.00847000  0.94838000  1.0
  Cl  Cl125  1  0.79343000  0.49146000  0.55132000  1.0
  Cl  Cl126  1  0.16507000  0.99153000  0.05162000  1.0
  Cl  Cl127  1  0.20658000  0.50853000  0.44868000  1.0
