# generated using pymatgen
data_ZnH6C12N2(ClO2)2
_symmetry_space_group_name_H-M   'P 1'
_cell_length_a   7.86085000
_cell_length_b   7.86090000
_cell_length_c   11.77970000
_cell_angle_alpha   86.84030000
_cell_angle_beta   86.84010000
_cell_angle_gamma   76.58940000
_symmetry_Int_Tables_number   1
_chemical_formula_structural   ZnH6C12N2(ClO2)2
_chemical_formula_sum   'Zn2 H12 C24 N4 Cl4 O8'
_cell_volume   706.31088284
_cell_formula_units_Z   2
loop_
 _symmetry_equiv_pos_site_id
 _symmetry_equiv_pos_as_xyz
  1  'x, y, z'
loop_
 _atom_site_type_symbol
 _atom_site_label
 _atom_site_symmetry_multiplicity
 _atom_site_fract_x
 _atom_site_fract_y
 _atom_site_fract_z
 _atom_site_occupancy
  Zn  Zn0  1  0.60016000  0.39984000  0.25000000  1.0
  Zn  Zn1  1  0.39984000  0.60016000  0.75000000  1.0
  H  H2  1  0.57005000  0.03024000  0.22113000  1.0
  H  H3  1  0.96976000  0.42995000  0.27887000  1.0
  H  H4  1  0.42995000  0.96976000  0.77887000  1.0
  H  H5  1  0.03023000  0.57004000  0.72113000  1.0
  H  H6  1  0.72856000  0.27989000  0.48506000  1.0
  H  H7  1  0.72011000  0.27144000  0.01494000  1.0
  H  H8  1  0.27144000  0.72011000  0.51494000  1.0
  H  H9  1  0.27989000  0.72856000  0.98506000  1.0
  H  H10  1  0.75009000  0.72353000  0.52471000  1.0
  H  H11  1  0.27647000  0.24992000  0.97529000  1.0
  H  H12  1  0.24991000  0.27647000  0.47529000  1.0
  H  H13  1  0.72353000  0.75008000  0.02471000  1.0
  C  C14  1  0.62434000  0.70157000  0.31072000  1.0
  C  C15  1  0.29844000  0.37568000  0.18928000  1.0
  C  C16  1  0.37567000  0.29843000  0.68927000  1.0
  C  C17  1  0.70156000  0.62433000  0.81072000  1.0
  C  C18  1  0.65785000  0.85763000  0.36568000  1.0
  C  C19  1  0.14237000  0.34216000  0.13432000  1.0
  C  C20  1  0.34215000  0.14237000  0.63432000  1.0
  C  C21  1  0.85762000  0.65785000  0.86568000  1.0
  C  C22  1  0.62215000  0.01915000  0.30570000  1.0
  C  C23  1  0.98085000  0.37785000  0.19430000  1.0
  C  C24  1  0.37785000  0.98085000  0.69430000  1.0
  C  C25  1  0.01915000  0.62215000  0.80570000  1.0
  C  C26  1  0.71161000  0.15763000  0.45296000  1.0
  C  C27  1  0.84237000  0.28839000  0.04704000  1.0
  C  C28  1  0.28839000  0.84237000  0.54704000  1.0
  C  C29  1  0.15763000  0.71161000  0.95296000  1.0
  C  C30  1  0.75060000  0.00003000  0.51721000  1.0
  C  C31  1  0.99998000  0.24940000  0.98280000  1.0
  C  C32  1  0.24940000  0.99997000  0.48279000  1.0
  C  C33  1  0.00003000  0.75060000  0.01720000  1.0
  C  C34  1  0.72361000  0.84685000  0.47439000  1.0
  C  C35  1  0.15315000  0.27639000  0.02561000  1.0
  C  C36  1  0.27639000  0.15315000  0.52561000  1.0
  C  C37  1  0.84685000  0.72361000  0.97439000  1.0
  N  N38  1  0.64844000  0.16515000  0.34863000  1.0
  N  N39  1  0.83485000  0.35157000  0.15138000  1.0
  N  N40  1  0.35156000  0.83485000  0.65137000  1.0
  N  N41  1  0.16514000  0.64843000  0.84862000  1.0
  Cl  Cl42  1  0.82863000  0.99980000  0.65101000  1.0
  Cl  Cl43  1  0.00021000  0.17138000  0.84900000  1.0
  Cl  Cl44  1  0.17137000  0.00020000  0.34899000  1.0
  Cl  Cl45  1  0.99979000  0.82863000  0.15100000  1.0
  O  O46  1  0.56996000  0.71747000  0.21139000  1.0
  O  O47  1  0.28254000  0.43005000  0.28861000  1.0
  O  O48  1  0.43005000  0.28253000  0.78860000  1.0
  O  O49  1  0.71746000  0.56995000  0.71139000  1.0
  O  O50  1  0.65555000  0.55476000  0.36933000  1.0
  O  O51  1  0.44525000  0.34446000  0.13067000  1.0
  O  O52  1  0.34445000  0.44524000  0.63067000  1.0
  O  O53  1  0.55475000  0.65554000  0.86933000  1.0
