# generated using pymatgen
data_CdH8C10SN4O3
_symmetry_space_group_name_H-M   'P 1'
_cell_length_a   9.15639000
_cell_length_b   10.09190000
_cell_length_c   15.04210000
_cell_angle_alpha   73.29890000
_cell_angle_beta   86.50980000
_cell_angle_gamma   83.34610000
_symmetry_Int_Tables_number   1
_chemical_formula_structural   CdH8C10SN4O3
_chemical_formula_sum   'Cd4 H32 C40 S4 N16 O12'
_cell_volume   1321.81431858
_cell_formula_units_Z   4
loop_
 _symmetry_equiv_pos_site_id
 _symmetry_equiv_pos_as_xyz
  1  'x, y, z'
loop_
 _atom_site_type_symbol
 _atom_site_label
 _atom_site_symmetry_multiplicity
 _atom_site_fract_x
 _atom_site_fract_y
 _atom_site_fract_z
 _atom_site_occupancy
  Cd  Cd0  1  0.14239000  0.57700000  0.26768000  1.0
  Cd  Cd1  1  0.85761000  0.42300000  0.73232000  1.0
  Cd  Cd2  1  0.53849000  0.74634000  0.28162000  1.0
  Cd  Cd3  1  0.46151000  0.25366000  0.71838000  1.0
  H  H4  1  0.81096000  0.53410000  0.18394000  1.0
  H  H5  1  0.18903000  0.46589000  0.81606000  1.0
  H  H6  1  0.03112000  0.25812000  0.04328000  1.0
  H  H7  1  0.96888000  0.74188000  0.95672000  1.0
  H  H8  1  0.80770000  0.34217000  0.94733000  1.0
  H  H9  1  0.19230000  0.65782000  0.05267000  1.0
  H  H10  1  0.34992000  0.30184000  0.01848000  1.0
  H  H11  1  0.65008000  0.69816000  0.98152000  1.0
  H  H12  1  0.38604000  0.33194000  0.17306000  1.0
  H  H13  1  0.61396000  0.66806000  0.82694000  1.0
  H  H14  1  0.63468000  0.36371000  0.21748000  1.0
  H  H15  1  0.36532000  0.63629000  0.78251000  1.0
  H  H16  1  0.99233000  0.71734000  0.44484000  1.0
  H  H17  1  0.00767000  0.28266000  0.55517000  1.0
  H  H18  1  0.40763000  0.84646000  0.47359000  1.0
  H  H19  1  0.59237000  0.15355000  0.52641000  1.0
  H  H20  1  0.28719000  0.00289000  0.53588000  1.0
  H  H21  1  0.71280000  0.99712000  0.46412000  1.0
  H  H22  1  0.99245000  0.98701000  0.77105000  1.0
  H  H23  1  0.00755000  0.01299000  0.22895000  1.0
  H  H24  1  0.85159000  0.82198000  0.72484000  1.0
  H  H25  1  0.14841000  0.17801000  0.27516000  1.0
  H  H26  1  0.93946000  0.73086000  0.59339000  1.0
  H  H27  1  0.06054000  0.26914000  0.40661000  1.0
  H  H28  1  0.94098000  0.82712000  0.19034000  1.0
  H  H29  1  0.05903000  0.17288000  0.80966000  1.0
  H  H30  1  0.10877000  0.84228000  0.15310000  1.0
  H  H31  1  0.89123000  0.15771000  0.84690000  1.0
  H  H32  1  0.43145000  0.04057000  0.25109000  1.0
  H  H33  1  0.56855000  0.95943000  0.74891000  1.0
  H  H34  1  0.49965000  0.03231000  0.15543000  1.0
  H  H35  1  0.50035000  0.96770000  0.84457000  1.0
  C  C36  1  0.89843000  0.47193000  0.15770000  1.0
  C  C37  1  0.10156000  0.52807000  0.84230000  1.0
  C  C38  1  0.01218000  0.33160000  0.08419000  1.0
  C  C39  1  0.98782000  0.66840000  0.91581000  1.0
  C  C40  1  0.73478000  0.35549000  0.08448000  1.0
  C  C41  1  0.26522000  0.64451000  0.91552000  1.0
  C  C42  1  0.71657000  0.33671000  0.99775000  1.0
  C  C43  1  0.28342000  0.66328000  0.00225000  1.0
  C  C44  1  0.57702000  0.31625000  0.97442000  1.0
  C  C45  1  0.42297000  0.68374000  0.02558000  1.0
  C  C46  1  0.45864000  0.31465000  0.03814000  1.0
  C  C47  1  0.54136000  0.68534000  0.96186000  1.0
  C  C48  1  0.47939000  0.33183000  0.12489000  1.0
  C  C49  1  0.52061000  0.66817000  0.87511000  1.0
  C  C50  1  0.61805000  0.35132000  0.14923000  1.0
  C  C51  1  0.38195000  0.64868000  0.85077000  1.0
  C  C52  1  0.55178000  0.30160000  0.88056000  1.0
  C  C53  1  0.44822000  0.69840000  0.11944000  1.0
  C  C54  1  0.10580000  0.73997000  0.43333000  1.0
  C  C55  1  0.89420000  0.26003000  0.56667000  1.0
  C  C56  1  0.31875000  0.80771000  0.44700000  1.0
  C  C57  1  0.68125000  0.19230000  0.55300000  1.0
  C  C58  1  0.12207000  0.85782000  0.55828000  1.0
  C  C59  1  0.87793000  0.14218000  0.44172000  1.0
  C  C60  1  0.19533000  0.95830000  0.57909000  1.0
  C  C61  1  0.80467000  0.04170000  0.42092000  1.0
  C  C62  1  0.15029000  0.00345000  0.65697000  1.0
  C  C63  1  0.84971000  0.99655000  0.34303000  1.0
  C  C64  1  0.02705000  0.95265000  0.71006000  1.0
  C  C65  1  0.97295000  0.04735000  0.28995000  1.0
  C  C66  1  0.94909000  0.85910000  0.68479000  1.0
  C  C67  1  0.05091000  0.14090000  0.31521000  1.0
  C  C68  1  0.99752000  0.80872000  0.60974000  1.0
  C  C69  1  0.00248000  0.19128000  0.39026000  1.0
  C  C70  1  0.23982000  0.10096000  0.68356000  1.0
  C  C71  1  0.76019000  0.89904000  0.31644000  1.0
  C  C72  1  0.80777000  0.51907000  0.36489000  1.0
  C  C73  1  0.19224000  0.48094000  0.63511000  1.0
  C  C74  1  0.35988000  0.28003000  0.35128000  1.0
  C  C75  1  0.64012000  0.71997000  0.64872000  1.0
  S  S76  1  0.63728000  0.48482000  0.36925000  1.0
  S  S77  1  0.36273000  0.51518000  0.63075000  1.0
  S  S78  1  0.45066000  0.12712000  0.37372000  1.0
  S  S79  1  0.54934000  0.87288000  0.62628000  1.0
  N  N80  1  0.19599000  0.70792000  0.36926000  1.0
  N  N81  1  0.80401000  0.29209000  0.63074000  1.0
  N  N82  1  0.33010000  0.75084000  0.37800000  1.0
  N  N83  1  0.66990000  0.24916000  0.62199000  1.0
  N  N84  1  0.17785000  0.80491000  0.48326000  1.0
  N  N85  1  0.82215000  0.19510000  0.51674000  1.0
  N  N86  1  0.04159000  0.47102000  0.16568000  1.0
  N  N87  1  0.95840000  0.52898000  0.83433000  1.0
  N  N88  1  0.11442000  0.38208000  0.11917000  1.0
  N  N89  1  0.88558000  0.61792000  0.88083000  1.0
  N  N90  1  0.87456000  0.38431000  0.10709000  1.0
  N  N91  1  0.12544000  0.61568000  0.89291000  1.0
  N  N92  1  0.29535000  0.39285000  0.33409000  1.0
  N  N93  1  0.70466000  0.60715000  0.66591000  1.0
  N  N94  1  0.93265000  0.54109000  0.36179000  1.0
  N  N95  1  0.06737000  0.45892000  0.63821000  1.0
  O  O96  1  0.34564000  0.14768000  0.62849000  1.0
  O  O97  1  0.65437000  0.85232000  0.37151000  1.0
  O  O98  1  0.21270000  0.12977000  0.76045000  1.0
  O  O99  1  0.78731000  0.87023000  0.23955000  1.0
  O  O100  1  0.65827000  0.30571000  0.82124000  1.0
  O  O101  1  0.34173000  0.69429000  0.17876000  1.0
  O  O102  1  0.42205000  0.28291000  0.86336000  1.0
  O  O103  1  0.57794000  0.71708000  0.13665000  1.0
  O  O104  1  0.02942000  0.78290000  0.16185000  1.0
  O  O105  1  0.97058000  0.21710000  0.83815000  1.0
  O  O106  1  0.43310000  0.98698000  0.20503000  1.0
  O  O107  1  0.56691000  0.01302000  0.79497000  1.0
