# generated using pymatgen
data_CuH12C6N2ClO
_symmetry_space_group_name_H-M   'P 1'
_cell_length_a   6.70814000
_cell_length_b   7.20913000
_cell_length_c   9.58324000
_cell_angle_alpha   93.80680000
_cell_angle_beta   103.21000000
_cell_angle_gamma   103.85200000
_symmetry_Int_Tables_number   1
_chemical_formula_structural   CuH12C6N2ClO
_chemical_formula_sum   'Cu2 H24 C12 N4 Cl2 O2'
_cell_volume   434.44912267
_cell_formula_units_Z   2
loop_
 _symmetry_equiv_pos_site_id
 _symmetry_equiv_pos_as_xyz
  1  'x, y, z'
loop_
 _atom_site_type_symbol
 _atom_site_label
 _atom_site_symmetry_multiplicity
 _atom_site_fract_x
 _atom_site_fract_y
 _atom_site_fract_z
 _atom_site_occupancy
  Cu  Cu0  1  0.16910000  0.20574000  0.48478000  1.0
  Cu  Cu1  1  0.83087000  0.79431000  0.51525000  1.0
  H  H2  1  0.86930000  0.09103000  0.66905000  1.0
  H  H3  1  0.13062000  0.90892000  0.33089000  1.0
  H  H4  1  0.62150000  0.96402000  0.64350000  1.0
  H  H5  1  0.37853000  0.03595000  0.35647000  1.0
  H  H6  1  0.77527000  0.99018000  0.89160000  1.0
  H  H7  1  0.22474000  0.00983000  0.10835000  1.0
  H  H8  1  0.00139000  0.92855000  0.85448000  1.0
  H  H9  1  0.99856000  0.07146000  0.14547000  1.0
  H  H10  1  0.40379000  0.72741000  0.78252000  1.0
  H  H11  1  0.59621000  0.27256000  0.21751000  1.0
  H  H12  1  0.41366000  0.48233000  0.76101000  1.0
  H  H13  1  0.58636000  0.51769000  0.23902000  1.0
  H  H14  1  0.46777000  0.63221000  0.62823000  1.0
  H  H15  1  0.53219000  0.36778000  0.37182000  1.0
  H  H16  1  0.65647000  0.74598000  0.03617000  1.0
  H  H17  1  0.34362000  0.25402000  0.96386000  1.0
  H  H18  1  0.68628000  0.51081000  0.99962000  1.0
  H  H19  1  0.31379000  0.48923000  0.00039000  1.0
  H  H20  1  0.91231000  0.71105000  0.04908000  1.0
  H  H21  1  0.08772000  0.28895000  0.95089000  1.0
  H  H22  1  0.99500000  0.56731000  0.84651000  1.0
  H  H23  1  0.00496000  0.43266000  0.15347000  1.0
  H  H24  1  0.74662000  0.40205000  0.76379000  1.0
  H  H25  1  0.25339000  0.59799000  0.23618000  1.0
  C  C26  1  0.97554000  0.47337000  0.56956000  1.0
  C  C27  1  0.02444000  0.52665000  0.43050000  1.0
  C  C28  1  0.82782000  0.89891000  0.81789000  1.0
  C  C29  1  0.17215000  0.10108000  0.18208000  1.0
  C  C30  1  0.72375000  0.68688000  0.82663000  1.0
  C  C31  1  0.27625000  0.31313000  0.17337000  1.0
  C  C32  1  0.48909000  0.62933000  0.74523000  1.0
  C  C33  1  0.51093000  0.37067000  0.25481000  1.0
  C  C34  1  0.74583000  0.66277000  0.98677000  1.0
  C  C35  1  0.25421000  0.33725000  0.01322000  1.0
  C  C36  1  0.84084000  0.55182000  0.76879000  1.0
  C  C37  1  0.15913000  0.44821000  0.23122000  1.0
  N  N38  1  0.77662000  0.95519000  0.67159000  1.0
  N  N39  1  0.22335000  0.04477000  0.32839000  1.0
  N  N40  1  0.87855000  0.58341000  0.62750000  1.0
  N  N41  1  0.12143000  0.41660000  0.37252000  1.0
  Cl  Cl42  1  0.31427000  0.05222000  0.66151000  1.0
  Cl  Cl43  1  0.68576000  0.94775000  0.33852000  1.0
  O  O44  1  0.03060000  0.32722000  0.61948000  1.0
  O  O45  1  0.96942000  0.67275000  0.38049000  1.0
