# generated using pymatgen
data_NiH11C17SN5O4
_symmetry_space_group_name_H-M   'P 1'
_cell_length_a   12.73180000
_cell_length_b   13.74360000
_cell_length_c   13.99599437
_cell_angle_alpha   119.40568548
_cell_angle_beta   105.04699783
_cell_angle_gamma   89.99990000
_symmetry_Int_Tables_number   1
_chemical_formula_structural   NiH11C17SN5O4
_chemical_formula_sum   'Ni4 H44 C68 S4 N20 O16'
_cell_volume   2036.57269582
_cell_formula_units_Z   4
loop_
 _symmetry_equiv_pos_site_id
 _symmetry_equiv_pos_as_xyz
  1  'x, y, z'
loop_
 _atom_site_type_symbol
 _atom_site_label
 _atom_site_symmetry_multiplicity
 _atom_site_fract_x
 _atom_site_fract_y
 _atom_site_fract_z
 _atom_site_occupancy
  Ni  Ni0  1  0.39260000  0.65269000  0.53071000  1.0
  Ni  Ni1  1  0.10741000  0.12198000  0.46930000  1.0
  Ni  Ni2  1  0.60740000  0.34731000  0.46929000  1.0
  Ni  Ni3  1  0.89259000  0.87802000  0.53070000  1.0
  H  H4  1  0.19580000  0.77289000  0.52205000  1.0
  H  H5  1  0.30420000  0.25084000  0.47795000  1.0
  H  H6  1  0.80419000  0.22712000  0.47795000  1.0
  H  H7  1  0.69580000  0.74916000  0.52205000  1.0
  H  H8  1  0.47293000  0.75707000  0.41681000  1.0
  H  H9  1  0.02707000  0.34026000  0.58319000  1.0
  H  H10  1  0.52707000  0.24293000  0.58319000  1.0
  H  H11  1  0.97293000  0.65974000  0.41681000  1.0
  H  H12  1  0.40871000  0.88095000  0.33510000  1.0
  H  H13  1  0.09129000  0.54585000  0.66490000  1.0
  H  H14  1  0.59129000  0.11905000  0.66490000  1.0
  H  H15  1  0.90871000  0.45415000  0.33510000  1.0
  H  H16  1  0.53463000  0.91113000  0.63483000  1.0
  H  H17  1  0.96538000  0.27630000  0.36518000  1.0
  H  H18  1  0.46537000  0.08887000  0.36517000  1.0
  H  H19  1  0.03462000  0.72370000  0.63482000  1.0
  H  H20  1  0.63340000  0.04583000  0.86905000  1.0
  H  H21  1  0.86661000  0.17678000  0.13097000  1.0
  H  H22  1  0.36660000  0.95418000  0.13096000  1.0
  H  H23  1  0.13339000  0.82323000  0.86904000  1.0
  H  H24  1  0.65513000  0.11377000  0.07258000  1.0
  H  H25  1  0.84487000  0.04118000  0.92742000  1.0
  H  H26  1  0.34486000  0.88623000  0.92742000  1.0
  H  H27  1  0.15513000  0.95881000  0.07258000  1.0
  H  H28  1  0.71461000  0.11581000  0.26468000  1.0
  H  H29  1  0.78539000  0.85113000  0.73532000  1.0
  H  H30  1  0.28539000  0.88419000  0.73532000  1.0
  H  H31  1  0.21461000  0.14887000  0.26468000  1.0
  H  H32  1  0.86946000  0.94236000  0.32606000  1.0
  H  H33  1  0.63053000  0.61630000  0.67394000  1.0
  H  H34  1  0.13054000  0.05764000  0.67394000  1.0
  H  H35  1  0.36947000  0.38370000  0.32606000  1.0
  H  H36  1  0.63242000  0.80603000  0.40687000  1.0
  H  H37  1  0.86758000  0.39916000  0.59312000  1.0
  H  H38  1  0.36758000  0.19396000  0.59313000  1.0
  H  H39  1  0.13242000  0.60083000  0.40687000  1.0
  H  H40  1  0.52521000  0.83736000  0.22534000  1.0
  H  H41  1  0.97478000  0.61201000  0.77466000  1.0
  H  H42  1  0.47479000  0.16264000  0.77466000  1.0
  H  H43  1  0.02522000  0.38799000  0.22534000  1.0
  H  H44  1  0.49377000  0.72622000  0.79297000  1.0
  H  H45  1  0.00623000  0.93324000  0.20703000  1.0
  H  H46  1  0.50623000  0.27378000  0.20703000  1.0
  H  H47  1  0.99377000  0.06676000  0.79297000  1.0
  C  C48  1  0.07790000  0.88324000  0.42823000  1.0
  C  C49  1  0.42210000  0.45500000  0.57177000  1.0
  C  C50  1  0.92210000  0.11676000  0.57176000  1.0
  C  C51  1  0.57790000  0.54500000  0.42823000  1.0
  C  C52  1  0.19285000  0.85825000  0.42689000  1.0
  C  C53  1  0.30715000  0.43135000  0.57310000  1.0
  C  C54  1  0.80715000  0.14174000  0.57310000  1.0
  C  C55  1  0.69285000  0.56864000  0.42690000  1.0
  C  C56  1  0.23946000  0.79525000  0.47650000  1.0
  C  C57  1  0.26054000  0.31875000  0.52350000  1.0
  C  C58  1  0.76054000  0.20475000  0.52350000  1.0
  C  C59  1  0.73946000  0.68125000  0.47650000  1.0
  C  C60  1  0.39542000  0.79009000  0.42053000  1.0
  C  C61  1  0.10458000  0.36956000  0.57947000  1.0
  C  C62  1  0.60458000  0.20991000  0.57946000  1.0
  C  C63  1  0.89542000  0.63044000  0.42053000  1.0
  C  C64  1  0.35821000  0.85719000  0.37454000  1.0
  C  C65  1  0.14179000  0.48265000  0.62546000  1.0
  C  C66  1  0.64179000  0.14281000  0.62546000  1.0
  C  C67  1  0.85821000  0.51735000  0.37453000  1.0
  C  C68  1  0.25450000  0.89166000  0.37481000  1.0
  C  C69  1  0.24550000  0.51685000  0.62519000  1.0
  C  C70  1  0.74550000  0.10834000  0.62519000  1.0
  C  C71  1  0.75450000  0.48314000  0.37480000  1.0
  C  C72  1  0.21909000  0.95704000  0.31361000  1.0
  C  C73  1  0.28091000  0.64343000  0.68639000  1.0
  C  C74  1  0.78091000  0.04297000  0.68639000  1.0
  C  C75  1  0.71909000  0.35657000  0.31361000  1.0
  C  C76  1  0.54013000  0.89234000  0.70246000  1.0
  C  C77  1  0.95988000  0.18987000  0.29755000  1.0
  C  C78  1  0.45987000  0.10766000  0.29754000  1.0
  C  C79  1  0.04012000  0.81012000  0.70245000  1.0
  C  C80  1  0.58817000  0.96103000  0.81853000  1.0
  C  C81  1  0.91184000  0.14249000  0.18148000  1.0
  C  C82  1  0.41183000  0.03898000  0.18148000  1.0
  C  C83  1  0.08816000  0.85751000  0.81852000  1.0
  C  C84  1  0.61230000  0.92932000  0.98352000  1.0
  C  C85  1  0.88771000  0.94579000  0.01648000  1.0
  C  C86  1  0.38771000  0.07068000  0.01648000  1.0
  C  C87  1  0.11229000  0.05421000  0.98352000  1.0
  C  C88  1  0.65158000  0.03651000  0.07616000  1.0
  C  C89  1  0.84842000  0.96035000  0.92385000  1.0
  C  C90  1  0.34842000  0.96349000  0.92384000  1.0
  C  C91  1  0.15158000  0.03964000  0.07615000  1.0
  C  C92  1  0.68509000  0.03786000  0.18186000  1.0
  C  C93  1  0.81491000  0.85600000  0.81814000  1.0
  C  C94  1  0.31491000  0.96214000  0.81814000  1.0
  C  C95  1  0.18509000  0.14400000  0.18186000  1.0
  C  C96  1  0.67101000  0.93176000  0.16669000  1.0
  C  C97  1  0.82898000  0.76507000  0.83332000  1.0
  C  C98  1  0.32899000  0.06824000  0.83331000  1.0
  C  C99  1  0.17102000  0.23493000  0.16668000  1.0
  C  C100  1  0.79088000  0.90968000  0.32428000  1.0
  C  C101  1  0.70911000  0.58541000  0.67573000  1.0
  C  C102  1  0.20912000  0.09031000  0.67572000  1.0
  C  C103  1  0.29089000  0.41459000  0.32427000  1.0
  C  C104  1  0.66569000  0.83828000  0.36251000  1.0
  C  C105  1  0.83431000  0.47577000  0.63749000  1.0
  C  C106  1  0.33431000  0.16171000  0.63749000  1.0
  C  C107  1  0.16569000  0.52423000  0.36251000  1.0
  C  C108  1  0.61107000  0.85390000  0.27409000  1.0
  C  C109  1  0.88893000  0.57980000  0.72590000  1.0
  C  C110  1  0.38893000  0.14610000  0.72591000  1.0
  C  C111  1  0.11107000  0.42019000  0.27409000  1.0
  C  C112  1  0.51945000  0.79255000  0.77958000  1.0
  C  C113  1  0.98055000  0.01297000  0.22043000  1.0
  C  C114  1  0.48055000  0.20745000  0.22042000  1.0
  C  C115  1  0.01945000  0.98703000  0.77957000  1.0
  S  S116  1  0.61551000  0.82807000  0.02313000  1.0
  S  S117  1  0.88448000  0.80494000  0.97687000  1.0
  S  S118  1  0.38449000  0.17193000  0.97687000  1.0
  S  S119  1  0.11552000  0.19506000  0.02313000  1.0
  N  N120  1  0.33692000  0.75935000  0.47175000  1.0
  N  N121  1  0.16308000  0.28760000  0.52825000  1.0
  N  N122  1  0.66308000  0.24065000  0.52825000  1.0
  N  N123  1  0.83692000  0.71240000  0.47175000  1.0
  N  N124  1  0.49767000  0.78787000  0.67943000  1.0
  N  N125  1  0.00234000  0.10842000  0.32057000  1.0
  N  N126  1  0.50233000  0.21214000  0.32057000  1.0
  N  N127  1  0.99766000  0.89157000  0.67942000  1.0
  N  N128  1  0.57456000  0.89651000  0.86705000  1.0
  N  N129  1  0.92545000  0.02945000  0.13295000  1.0
  N  N130  1  0.42544000  0.10349000  0.13295000  1.0
  N  N131  1  0.07455000  0.97055000  0.86705000  1.0
  N  N132  1  0.69118000  0.90039000  0.25091000  1.0
  N  N133  1  0.80882000  0.64947000  0.74909000  1.0
  N  N134  1  0.30882000  0.09961000  0.74909000  1.0
  N  N135  1  0.19118000  0.35052000  0.25091000  1.0
  N  N136  1  0.77730000  0.87311000  0.39285000  1.0
  N  N137  1  0.72270000  0.48026000  0.60715000  1.0
  N  N138  1  0.22271000  0.12689000  0.60715000  1.0
  N  N139  1  0.27730000  0.51974000  0.39285000  1.0
  O  O140  1  0.22239000  0.06438000  0.37553000  1.0
  O  O141  1  0.27761000  0.68885000  0.62448000  1.0
  O  O142  1  0.77761000  0.93563000  0.62448000  1.0
  O  O143  1  0.72238000  0.31115000  0.37552000  1.0
  O  O144  1  0.19813000  0.90135000  0.20661000  1.0
  O  O145  1  0.30185000  0.69474000  0.79339000  1.0
  O  O146  1  0.80186000  0.09866000  0.79339000  1.0
  O  O147  1  0.69814000  0.30526000  0.20661000  1.0
  O  O148  1  0.04100000  0.95318000  0.39803000  1.0
  O  O149  1  0.45900000  0.55515000  0.60198000  1.0
  O  O150  1  0.95900000  0.04682000  0.60197000  1.0
  O  O151  1  0.54100000  0.44485000  0.39802000  1.0
  O  O152  1  0.02392000  0.82982000  0.45758000  1.0
  O  O153  1  0.47608000  0.37224000  0.54242000  1.0
  O  O154  1  0.97608000  0.17018000  0.54242000  1.0
  O  O155  1  0.52392000  0.62776000  0.45758000  1.0
