# generated using pymatgen
data_Cu3H10C12(IN2)3
_symmetry_space_group_name_H-M   'P 1'
_cell_length_a   7.40455000
_cell_length_b   7.64098000
_cell_length_c   15.94180000
_cell_angle_alpha   79.28780000
_cell_angle_beta   88.82200000
_cell_angle_gamma   89.22820000
_symmetry_Int_Tables_number   1
_chemical_formula_structural   Cu3H10C12(IN2)3
_chemical_formula_sum   'Cu6 H20 C24 I6 N12'
_cell_volume   886.00724872
_cell_formula_units_Z   2
loop_
 _symmetry_equiv_pos_site_id
 _symmetry_equiv_pos_as_xyz
  1  'x, y, z'
loop_
 _atom_site_type_symbol
 _atom_site_label
 _atom_site_symmetry_multiplicity
 _atom_site_fract_x
 _atom_site_fract_y
 _atom_site_fract_z
 _atom_site_occupancy
  Cu  Cu0  1  0.18675000  0.42330000  0.87357000  1.0
  Cu  Cu1  1  0.81326000  0.57671000  0.12643000  1.0
  Cu  Cu2  1  0.16836000  0.27190000  0.67308000  1.0
  Cu  Cu3  1  0.83164000  0.72810000  0.32692000  1.0
  Cu  Cu4  1  0.26339000  0.98306000  0.76792000  1.0
  Cu  Cu5  1  0.73660000  0.01694000  0.23207000  1.0
  H  H6  1  0.69311000  0.88015000  0.66826000  1.0
  H  H7  1  0.30689000  0.11985000  0.33174000  1.0
  H  H8  1  0.54787000  0.75710000  0.73624000  1.0
  H  H9  1  0.45213000  0.24290000  0.26376000  1.0
  H  H10  1  0.86578000  0.73144000  0.51638000  1.0
  H  H11  1  0.13422000  0.26855000  0.48362000  1.0
  H  H12  1  0.58667000  0.15856000  0.50000000  1.0
  H  H13  1  0.41333000  0.84144000  0.50000000  1.0
  H  H14  1  0.69063000  0.21126000  0.64351000  1.0
  H  H15  1  0.30938000  0.78874000  0.35649000  1.0
  H  H16  1  0.83804000  0.98846000  0.77728000  1.0
  H  H17  1  0.16195000  0.01155000  0.22272000  1.0
  H  H18  1  0.79237000  0.14050000  0.90257000  1.0
  H  H19  1  0.20759000  0.85950000  0.09743000  1.0
  H  H20  1  0.78204000  0.95818000  0.04915000  1.0
  H  H21  1  0.21793000  0.04181000  0.95085000  1.0
  H  H22  1  0.84470000  0.48809000  0.95619000  1.0
  H  H23  1  0.15532000  0.51191000  0.04381000  1.0
  H  H24  1  0.63078000  0.39807000  0.37280000  1.0
  H  H25  1  0.36922000  0.60193000  0.62720000  1.0
  C  C26  1  0.84457000  0.50955000  0.67281000  1.0
  C  C27  1  0.15544000  0.49045000  0.32719000  1.0
  C  C28  1  0.87190000  0.62024000  0.79022000  1.0
  C  C29  1  0.12811000  0.37976000  0.20978000  1.0
  C  C30  1  0.78332000  0.47589000  0.59061000  1.0
  C  C31  1  0.21669000  0.52411000  0.40939000  1.0
  C  C32  1  0.80392000  0.60267000  0.51581000  1.0
  C  C33  1  0.19608000  0.39734000  0.48419000  1.0
  C  C34  1  0.67471000  0.41581000  0.43545000  1.0
  C  C35  1  0.32529000  0.58419000  0.56455000  1.0
  C  C36  1  0.65001000  0.28258000  0.50696000  1.0
  C  C37  1  0.34999000  0.71742000  0.49304000  1.0
  C  C38  1  0.70755000  0.31100000  0.58567000  1.0
  C  C39  1  0.29245000  0.68900000  0.41434000  1.0
  C  C40  1  0.84437000  0.72484000  0.85729000  1.0
  C  C41  1  0.15563000  0.27517000  0.14271000  1.0
  C  C42  1  0.82902000  0.91113000  0.84184000  1.0
  C  C43  1  0.17098000  0.08887000  0.15816000  1.0
  C  C44  1  0.80627000  0.99614000  0.91145000  1.0
  C  C45  1  0.19372000  0.00386000  0.08855000  1.0
  C  C46  1  0.80104000  0.89533000  0.99348000  1.0
  C  C47  1  0.19895000  0.10466000  0.00652000  1.0
  C  C48  1  0.83730000  0.63316000  0.94182000  1.0
  C  C49  1  0.16270000  0.36685000  0.05818000  1.0
  I  I50  1  0.43240000  0.26905000  0.78491000  1.0
  I  I51  1  0.56761000  0.73095000  0.21509000  1.0
  I  I52  1  0.34590000  0.72766000  0.88554000  1.0
  I  I53  1  0.65411000  0.27234000  0.11446000  1.0
  I  I54  1  0.09467000  0.96531000  0.63168000  1.0
  I  I55  1  0.90533000  0.03470000  0.36832000  1.0
  N  N56  1  0.98988000  0.48602000  0.79288000  1.0
  N  N57  1  0.01012000  0.51398000  0.20712000  1.0
  N  N58  1  0.97370000  0.41758000  0.71906000  1.0
  N  N59  1  0.02631000  0.58242000  0.28094000  1.0
  N  N60  1  0.77888000  0.63773000  0.71529000  1.0
  N  N61  1  0.22112000  0.36227000  0.28471000  1.0
  N  N62  1  0.63846000  0.75583000  0.68621000  1.0
  N  N63  1  0.36154000  0.24417000  0.31379000  1.0
  N  N64  1  0.81715000  0.71558000  0.00901000  1.0
  N  N65  1  0.18284000  0.28442000  0.99099000  1.0
  N  N66  1  0.75319000  0.57251000  0.43916000  1.0
  N  N67  1  0.24682000  0.42749000  0.56084000  1.0
