# generated using pymatgen
data_CoAgH9C11NO5
_symmetry_space_group_name_H-M   'P 1'
_cell_length_a   5.92752000
_cell_length_b   7.64978000
_cell_length_c   13.07810000
_cell_angle_alpha   103.74600000
_cell_angle_beta   99.30760000
_cell_angle_gamma   92.34610000
_symmetry_Int_Tables_number   1
_chemical_formula_structural   CoAgH9C11NO5
_chemical_formula_sum   'Co2 Ag2 H18 C22 N2 O10'
_cell_volume   566.49583252
_cell_formula_units_Z   2
loop_
 _symmetry_equiv_pos_site_id
 _symmetry_equiv_pos_as_xyz
  1  'x, y, z'
loop_
 _atom_site_type_symbol
 _atom_site_label
 _atom_site_symmetry_multiplicity
 _atom_site_fract_x
 _atom_site_fract_y
 _atom_site_fract_z
 _atom_site_occupancy
  Co  Co0  1  0.02100000  0.87481000  0.22951000  1.0
  Co  Co1  1  0.97901000  0.12519000  0.77048000  1.0
  Ag  Ag2  1  0.67698000  0.42519000  0.44776000  1.0
  Ag  Ag3  1  0.32300000  0.57478000  0.55223000  1.0
  H  H4  1  0.71267000  0.00436000  0.08296000  1.0
  H  H5  1  0.28734000  0.99562000  0.91703000  1.0
  H  H6  1  0.79706000  0.65189000  0.03380000  1.0
  H  H7  1  0.20296000  0.34810000  0.96620000  1.0
  H  H8  1  0.25502000  0.63293000  0.10083000  1.0
  H  H9  1  0.74500000  0.36708000  0.89918000  1.0
  H  H10  1  0.44460000  0.97518000  0.18771000  1.0
  H  H11  1  0.55542000  0.02483000  0.81229000  1.0
  H  H12  1  0.10780000  0.20184000  0.17905000  1.0
  H  H13  1  0.89221000  0.79816000  0.82095000  1.0
  H  H14  1  0.71701000  0.07011000  0.34645000  1.0
  H  H15  1  0.28297000  0.92988000  0.65354000  1.0
  H  H16  1  0.62707000  0.70717000  0.27125000  1.0
  H  H17  1  0.37291000  0.29282000  0.72874000  1.0
  H  H18  1  0.02739000  0.55285000  0.29675000  1.0
  H  H19  1  0.97259000  0.44714000  0.70325000  1.0
  H  H20  1  0.36548000  0.82037000  0.38980000  1.0
  H  H21  1  0.63451000  0.17961000  0.61020000  1.0
  C  C22  1  0.87839000  0.95044000  0.09607000  1.0
  C  C23  1  0.12163000  0.04957000  0.90392000  1.0
  C  C24  1  0.92553000  0.76432000  0.06975000  1.0
  C  C25  1  0.07451000  0.23567000  0.93025000  1.0
  C  C26  1  0.16634000  0.75504000  0.10318000  1.0
  C  C27  1  0.83367000  0.24496000  0.89683000  1.0
  C  C28  1  0.26682000  0.93576000  0.15031000  1.0
  C  C29  1  0.73318000  0.06424000  0.84970000  1.0
  C  C30  1  0.08884000  0.05659000  0.14604000  1.0
  C  C31  1  0.91117000  0.94340000  0.85396000  1.0
  C  C32  1  0.84058000  0.96960000  0.34785000  1.0
  C  C33  1  0.15942000  0.03040000  0.65215000  1.0
  C  C34  1  0.79364000  0.77851000  0.30806000  1.0
  C  C35  1  0.20636000  0.22148000  0.69193000  1.0
  C  C36  1  0.00565000  0.69602000  0.32187000  1.0
  C  C37  1  0.99432000  0.30396000  0.67812000  1.0
  C  C38  1  0.18419000  0.83615000  0.36960000  1.0
  C  C39  1  0.81579000  0.16384000  0.63040000  1.0
  C  C40  1  0.08316000  0.00648000  0.38582000  1.0
  C  C41  1  0.91681000  0.99350000  0.61417000  1.0
  C  C42  1  0.21645000  0.18649000  0.42834000  1.0
  C  C43  1  0.78351000  0.81346000  0.57165000  1.0
  N  N44  1  0.54889000  0.35979000  0.18881000  1.0
  N  N45  1  0.45110000  0.64027000  0.81120000  1.0
  O  O46  1  0.43217000  0.18477000  0.43318000  1.0
  O  O47  1  0.56787000  0.81521000  0.56683000  1.0
  O  O48  1  0.10639000  0.32372000  0.45769000  1.0
  O  O49  1  0.89358000  0.67628000  0.54231000  1.0
  O  O50  1  0.70282000  0.31038000  0.25463000  1.0
  O  O51  1  0.29715000  0.68958000  0.74535000  1.0
  O  O52  1  0.39366000  0.45439000  0.22407000  1.0
  O  O53  1  0.60632000  0.54560000  0.77597000  1.0
  O  O54  1  0.55429000  0.31413000  0.09015000  1.0
  O  O55  1  0.44579000  0.68611000  0.90987000  1.0
