# generated using pymatgen
data_MnH28C26(NO)6
_symmetry_space_group_name_H-M   'P 1'
_cell_length_a   8.83039000
_cell_length_b   9.93932000
_cell_length_c   11.32946204
_cell_angle_alpha   66.41591662
_cell_angle_beta   78.06994330
_cell_angle_gamma   73.28030000
_symmetry_Int_Tables_number   1
_chemical_formula_structural   MnH28C26(NO)6
_chemical_formula_sum   'Mn1 H28 C26 N6 O6'
_cell_volume   868.01548085
_cell_formula_units_Z   1
loop_
 _symmetry_equiv_pos_site_id
 _symmetry_equiv_pos_as_xyz
  1  'x, y, z'
loop_
 _atom_site_type_symbol
 _atom_site_label
 _atom_site_symmetry_multiplicity
 _atom_site_fract_x
 _atom_site_fract_y
 _atom_site_fract_z
 _atom_site_occupancy
  Mn  Mn0  1  0.50000000  0.00000000  0.50000000  1.0
  H  H1  1  0.13970000  0.16268000  0.41467000  1.0
  H  H2  1  0.86029000  0.83731000  0.58534000  1.0
  H  H3  1  0.96941000  0.41892000  0.33690000  1.0
  H  H4  1  0.03058000  0.58109000  0.66310000  1.0
  H  H5  1  0.33303000  0.58314000  0.40574000  1.0
  H  H6  1  0.66697000  0.41686000  0.59426000  1.0
  H  H7  1  0.48983000  0.31749000  0.48391000  1.0
  H  H8  1  0.51018000  0.68251000  0.51609000  1.0
  H  H9  1  0.04661000  0.74961000  0.36130000  1.0
  H  H10  1  0.95339000  0.25039000  0.63870000  1.0
  H  H11  1  0.92467000  0.68848000  0.29535000  1.0
  H  H12  1  0.07533000  0.31152000  0.70465000  1.0
  H  H13  1  0.05770000  0.88222000  0.12519000  1.0
  H  H14  1  0.94230000  0.11777000  0.87481000  1.0
  H  H15  1  0.24629000  0.77173000  0.17246000  1.0
  H  H16  1  0.75371000  0.22827000  0.82754000  1.0
  H  H17  1  0.20456000  0.56696000  0.11308000  1.0
  H  H18  1  0.79544000  0.43304000  0.88692000  1.0
  H  H19  1  0.01829000  0.68114000  0.06100000  1.0
  H  H20  1  0.98171000  0.31886000  0.93900000  1.0
  H  H21  1  0.45767000  0.67797000  0.00129000  1.0
  H  H22  1  0.54233000  0.32203000  0.99870000  1.0
  H  H23  1  0.58446000  0.81048000  0.78200000  1.0
  H  H24  1  0.41554000  0.18952000  0.21800000  1.0
  H  H25  1  0.14987000  0.98770000  0.63053000  1.0
  H  H26  1  0.85013000  0.01230000  0.36947000  1.0
  H  H27  1  0.00660000  0.86494000  0.83958000  1.0
  H  H28  1  0.99340000  0.13506000  0.16042000  1.0
  C  C29  1  0.17924000  0.25780000  0.41303000  1.0
  C  C30  1  0.82076000  0.74221000  0.58697000  1.0
  C  C31  1  0.08502000  0.40319000  0.36668000  1.0
  C  C32  1  0.91498000  0.59681000  0.63332000  1.0
  C  C33  1  0.13864000  0.52580000  0.36008000  1.0
  C  C34  1  0.86136000  0.47421000  0.63991000  1.0
  C  C35  1  0.28636000  0.49320000  0.40507000  1.0
  C  C36  1  0.71364000  0.50681000  0.59492000  1.0
  C  C37  1  0.37316000  0.34512000  0.45104000  1.0
  C  C38  1  0.62684000  0.65489000  0.54895000  1.0
  C  C39  1  0.04852000  0.68592000  0.30076000  1.0
  C  C40  1  0.95148000  0.31408000  0.69924000  1.0
  C  C41  1  0.12644000  0.76518000  0.16468000  1.0
  C  C42  1  0.87356000  0.23482000  0.83532000  1.0
  C  C43  1  0.13833000  0.68465000  0.07096000  1.0
  C  C44  1  0.86167000  0.31534000  0.92904000  1.0
  C  C45  1  0.21974000  0.75958000  0.94020000  1.0
  C  C46  1  0.78026000  0.24041000  0.05980000  1.0
  C  C47  1  0.38491000  0.74569000  0.92125000  1.0
  C  C48  1  0.61509000  0.25430000  0.07875000  1.0
  C  C49  1  0.45667000  0.81824000  0.79962000  1.0
  C  C50  1  0.54333000  0.18176000  0.20038000  1.0
  C  C51  1  0.21578000  0.91786000  0.71401000  1.0
  C  C52  1  0.78422000  0.08214000  0.28599000  1.0
  C  C53  1  0.13511000  0.84884000  0.83288000  1.0
  C  C54  1  0.86489000  0.15116000  0.16712000  1.0
  N  N55  1  0.32226000  0.22769000  0.45444000  1.0
  N  N56  1  0.67774000  0.77232000  0.54556000  1.0
  N  N57  1  0.37413000  0.90305000  0.69645000  1.0
  N  N58  1  0.62587000  0.09695000  0.30355000  1.0
  N  N59  1  0.24064000  0.88337000  0.42934000  1.0
  N  N60  1  0.75937000  0.11663000  0.57066000  1.0
  O  O61  1  0.36662000  0.93854000  0.39711000  1.0
  O  O62  1  0.63338000  0.06146000  0.60289000  1.0
  O  O63  1  0.11934000  0.96146333  0.37187000  1.0
  O  O64  1  0.88067000  0.03853667  0.62813000  1.0
  O  O65  1  0.24414000  0.75467000  0.51533000  1.0
  O  O66  1  0.75586000  0.24533000  0.48467000  1.0
