# generated using pymatgen
data_ZnH12C29SN2Cl2O9
_symmetry_space_group_name_H-M   'P 1'
_cell_length_a   9.69813000
_cell_length_b   10.96350000
_cell_length_c   27.99640000
_cell_angle_alpha   88.42710000
_cell_angle_beta   89.71770000
_cell_angle_gamma   88.21140000
_symmetry_Int_Tables_number   1
_chemical_formula_structural   ZnH12C29SN2Cl2O9
_chemical_formula_sum   'Zn2 H24 C58 S2 N4 Cl4 O18'
_cell_volume   2974.13375168
_cell_formula_units_Z   2
loop_
 _symmetry_equiv_pos_site_id
 _symmetry_equiv_pos_as_xyz
  1  'x, y, z'
loop_
 _atom_site_type_symbol
 _atom_site_label
 _atom_site_symmetry_multiplicity
 _atom_site_fract_x
 _atom_site_fract_y
 _atom_site_fract_z
 _atom_site_occupancy
  Zn  Zn0  1  0.64433000  0.49729000  0.49999000  1.0
  Zn  Zn1  1  0.35880000  0.50067000  0.50050000  1.0
  H  H2  1  0.28212000  0.50847000  0.64293000  1.0
  H  H3  1  0.24256000  0.52288000  0.73086000  1.0
  H  H4  1  0.27037000  0.26933000  0.87950000  1.0
  H  H5  1  0.72163000  0.46886000  0.34893000  1.0
  H  H6  1  0.40301000  0.21678000  0.03485000  1.0
  H  H7  1  0.68257000  0.52663000  0.75095000  1.0
  H  H8  1  0.58422000  0.80555000  0.87621000  1.0
  H  H9  1  0.53357000  0.81988000  0.03327000  1.0
  H  H10  1  0.28397000  0.54032000  0.34809000  1.0
  H  H11  1  0.54959000  0.80876000  0.12141000  1.0
  H  H12  1  0.58341000  0.80518000  0.96473000  1.0
  H  H13  1  0.28756000  0.12101000  0.49717000  1.0
  H  H14  1  0.77104000  0.20591000  0.48451000  1.0
  H  H15  1  0.98657000  0.08553000  0.49786000  1.0
  H  H16  1  0.97681000  0.86814000  0.52778000  1.0
  H  H17  1  0.75311000  0.76689000  0.53139000  1.0
  H  H18  1  0.28326000  0.89194000  0.49974000  1.0
  H  H19  1  0.12906000  0.63144000  0.45396000  1.0
  H  H20  1  0.26386000  0.32603000  0.56430000  1.0
  H  H21  1  0.13798000  0.18232000  0.61745000  1.0
  H  H22  1  0.74855000  0.33202000  0.56620000  1.0
  H  H23  1  0.86705000  0.62933000  0.45281000  1.0
  H  H24  1  0.04587000  0.50059000  0.28261000  1.0
  H  H25  1  0.29883000  0.04235000  0.08947000  1.0
  C  C26  1  0.49808000  0.26283000  0.49772000  1.0
  C  C27  1  0.51165000  0.50415000  0.59355000  1.0
  C  C28  1  0.49244000  0.73345000  0.50245000  1.0
  C  C29  1  0.50386000  0.50447000  0.40718000  1.0
  C  C30  1  0.38123000  0.43233000  0.82082000  1.0
  C  C31  1  0.49566000  0.63448000  0.81981000  1.0
  C  C32  1  0.59388000  0.52331000  0.72741000  1.0
  C  C33  1  0.61492000  0.51721000  0.67818000  1.0
  C  C34  1  0.36891000  0.51338000  0.66726000  1.0
  C  C35  1  0.34661000  0.52143000  0.71611000  1.0
  C  C36  1  0.46064000  0.52603000  0.74606000  1.0
  C  C37  1  0.43889000  0.53088000  0.89851000  1.0
  C  C38  1  0.38067000  0.43448000  0.87367000  1.0
  C  C39  1  0.32083000  0.33993000  0.89901000  1.0
  C  C40  1  0.49170000  0.63171000  0.87258000  1.0
  C  C41  1  0.50185000  0.51148000  0.64693000  1.0
  C  C42  1  0.50304000  0.50491000  0.35342000  1.0
  C  C43  1  0.42529000  0.41085000  0.02701000  1.0
  C  C44  1  0.49106000  0.62857000  0.02593000  1.0
  C  C45  1  0.46516000  0.51686000  0.05133000  1.0
  C  C46  1  0.42220000  0.30027000  0.05301000  1.0
  C  C47  1  0.44541000  0.29173000  0.10233000  1.0
  C  C48  1  0.47183000  0.39647000  0.12783000  1.0
  C  C49  1  0.48235000  0.50980000  0.10212000  1.0
  C  C50  1  0.51301000  0.61765000  0.12648000  1.0
  C  C51  1  0.52801000  0.61730000  0.17888000  1.0
  C  C52  1  0.49170000  0.39145000  0.18027000  1.0
  C  C53  1  0.62750000  0.48425000  0.27907000  1.0
  C  C54  1  0.62681000  0.48459000  0.32879000  1.0
  C  C55  1  0.37933000  0.52420000  0.32843000  1.0
  C  C56  1  0.38076000  0.52273000  0.27875000  1.0
  C  C57  1  0.50466000  0.50319000  0.25351000  1.0
  C  C58  1  0.39597000  0.41991000  0.97568000  1.0
  C  C59  1  0.44288000  0.52578000  0.94956000  1.0
  C  C60  1  0.49276000  0.62872000  0.97381000  1.0
  C  C61  1  0.32628000  0.33341000  0.94907000  1.0
  C  C62  1  0.54344000  0.72902000  0.89690000  1.0
  C  C63  1  0.51888000  0.73246000  0.05169000  1.0
  C  C64  1  0.52828000  0.72748000  0.10143000  1.0
  C  C65  1  0.54237000  0.72754000  0.94670000  1.0
  C  C66  1  0.76695000  0.11011000  0.49492000  1.0
  C  C67  1  0.88726000  0.04251000  0.50268000  1.0
  C  C68  1  0.88206000  0.91913000  0.51812000  1.0
  C  C69  1  0.75727000  0.86247000  0.52041000  1.0
  C  C70  1  0.63161000  0.92723000  0.50897000  1.0
  C  C71  1  0.63540000  0.05729000  0.50073000  1.0
  C  C72  1  0.50706000  0.12628000  0.49802000  1.0
  C  C73  1  0.38320000  0.06631000  0.49909000  1.0
  C  C74  1  0.38057000  0.93862000  0.50160000  1.0
  C  C75  1  0.50165000  0.86891000  0.50596000  1.0
  C  C76  1  0.15195000  0.32647000  0.56442000  1.0
  C  C77  1  0.08194000  0.24768000  0.59417000  1.0
  C  C78  1  0.93580000  0.25129000  0.59492000  1.0
  C  C79  1  0.86032000  0.33181000  0.56592000  1.0
  C  C80  1  0.93012000  0.41220000  0.53467000  1.0
  C  C81  1  0.07828000  0.41130000  0.53427000  1.0
  C  C82  1  0.07230000  0.56828000  0.47686000  1.0
  C  C83  1  0.92711000  0.56708000  0.47627000  1.0
  S  S84  1  0.22661000  0.54912000  0.24429000  1.0
  S  S85  1  0.43958000  0.14040000  0.13055000  1.0
  N  N86  1  0.44402000  0.53147000  0.79706000  1.0
  N  N87  1  0.50357000  0.50455000  0.20239000  1.0
  N  N88  1  0.14557000  0.49163000  0.50497000  1.0
  N  N89  1  0.85800000  0.49077000  0.50432000  1.0
  Cl  Cl90  1  0.85145000  0.15187000  0.63256000  1.0
  Cl  Cl91  1  0.78050000  0.45985000  0.24841000  1.0
  Cl  Cl92  1  0.23507000  0.21380000  0.97437000  1.0
  Cl  Cl93  1  0.78551000  0.51441000  0.65964000  1.0
  O  O94  1  0.60455000  0.31909000  0.51061000  1.0
  O  O95  1  0.38338000  0.31576000  0.48689000  1.0
  O  O96  1  0.62347000  0.53126000  0.57274000  1.0
  O  O97  1  0.40328000  0.47097000  0.57233000  1.0
  O  O98  1  0.60015000  0.67587000  0.48772000  1.0
  O  O99  1  0.37747000  0.68486000  0.51222000  1.0
  O  O100  1  0.61842000  0.47624000  0.42725000  1.0
  O  O101  1  0.39037000  0.53145000  0.42805000  1.0
  O  O102  1  0.33311000  0.34852000  0.79855000  1.0
  O  O103  1  0.49743000  0.29635000  0.20423000  1.0
  O  O104  1  0.54264000  0.71978000  0.79616000  1.0
  O  O105  1  0.55864000  0.70638000  0.20156000  1.0
  O  O106  1  0.23683000  0.66468000  0.21950000  1.0
  O  O107  1  0.19533000  0.44082000  0.21883000  1.0
  O  O108  1  0.11255000  0.56526000  0.28607000  1.0
  O  O109  1  0.57794000  0.09947000  0.14109000  1.0
  O  O110  1  0.32459000  0.13267000  0.16284000  1.0
  O  O111  1  0.39649000  0.05955000  0.08460000  1.0
