# generated using pymatgen
data_Al6H74C90O31
_symmetry_space_group_name_H-M   'P 1'
_cell_length_a   13.12680000
_cell_length_b   13.15363246
_cell_length_c   27.53060000
_cell_angle_alpha   88.84775664
_cell_angle_beta   89.27400000
_cell_angle_gamma   61.41060634
_symmetry_Int_Tables_number   1
_chemical_formula_structural   Al6H74C90O31
_chemical_formula_sum   'Al6 H74 C90 O31'
_cell_volume   4173.10892695
_cell_formula_units_Z   1
loop_
 _symmetry_equiv_pos_site_id
 _symmetry_equiv_pos_as_xyz
  1  'x, y, z'
loop_
 _atom_site_type_symbol
 _atom_site_label
 _atom_site_symmetry_multiplicity
 _atom_site_fract_x
 _atom_site_fract_y
 _atom_site_fract_z
 _atom_site_occupancy
  Al  Al0  1  0.58602000  0.56736000  0.50646000  1.0
  Al  Al1  1  0.81582000  0.59476000  0.50152000  1.0
  Al  Al2  1  0.58539000  0.80968000  0.50083000  1.0
  Al  Al3  1  0.09091000  0.08143000  0.01580000  1.0
  Al  Al4  1  0.84962000  0.07543000  0.01594000  1.0
  Al  Al5  1  0.07041000  0.84893000  0.01531000  1.0
  H  H6  1  0.69059000  0.80938000  0.82077000  1.0
  H  H7  1  0.99672000  0.83111000  0.77854000  1.0
  H  H8  1  0.20028000  0.00312000  0.78949000  1.0
  H  H9  1  0.65525000  0.38463000  0.80275000  1.0
  H  H10  1  0.96392000  0.67158000  0.22313000  1.0
  H  H11  1  0.36641000  0.95392000  0.21871000  1.0
  H  H12  1  0.67826000  0.32633000  0.23103000  1.0
  H  H13  1  0.98327000  0.69325000  0.13421000  1.0
  H  H14  1  0.31418000  0.97377000  0.13092000  1.0
  H  H15  1  0.70043000  0.27834000  0.14317000  1.0
  H  H16  1  0.66483000  0.98743000  0.28983000  1.0
  H  H17  1  0.47643000  0.65463000  0.81380000  1.0
  H  H18  1  0.33681000  0.66233000  0.29381000  1.0
  H  H19  1  0.98560000  0.34404000  0.28761000  1.0
  H  H20  1  0.74191000  0.04069000  0.23272000  1.0
  H  H21  1  0.19226000  0.75043000  0.24290000  1.0
  H  H22  1  0.04864000  0.18691000  0.24230000  1.0
  H  H23  1  0.75272000  0.05909000  0.14348000  1.0
  H  H24  1  0.15078000  0.76162000  0.15460000  1.0
  H  H25  1  0.06844000  0.14772000  0.15369000  1.0
  H  H26  1  0.00852000  0.69624000  0.29974000  1.0
  H  H27  1  0.30643000  0.00279000  0.29689000  1.0
  H  H28  1  0.01202000  0.30776000  0.80977000  1.0
  H  H29  1  0.70843000  0.26250000  0.31265000  1.0
  H  H30  1  0.64331000  0.84080000  0.73810000  1.0
  H  H31  1  0.47254000  0.64018000  0.72924000  1.0
  H  H32  1  0.00910000  0.35765000  0.72755000  1.0
  H  H33  1  0.97057000  0.67014000  0.38602000  1.0
  H  H34  1  0.38036000  0.96298000  0.38129000  1.0
  H  H35  1  0.67970000  0.34752000  0.39469000  1.0
  H  H36  1  0.82762000  0.97657000  0.70715000  1.0
  H  H37  1  0.17388000  0.88309000  0.71203000  1.0
  H  H38  1  0.83067000  0.20924000  0.70691000  1.0
  H  H39  1  0.75154000  0.69484000  0.73087000  1.0
  H  H40  1  0.68142000  0.00512000  0.71061000  1.0
  H  H41  1  0.25909000  0.73094000  0.70545000  1.0
  H  H42  1  0.97342000  0.18673000  0.71613000  1.0
  H  H43  1  0.80854000  0.01502000  0.79031000  1.0
  H  H44  1  0.15488000  0.83771000  0.79292000  1.0
  H  H45  1  0.80984000  0.18745000  0.78984000  1.0
  H  H46  1  0.96208000  0.65552000  0.72321000  1.0
  H  H47  1  0.41897000  0.94415000  0.73270000  1.0
  H  H48  1  0.68640000  0.53081000  0.72938000  1.0
  H  H49  1  0.99213000  0.76492000  0.70081000  1.0
  H  H50  1  0.54491000  0.72437000  0.72741000  1.0
  H  H51  1  0.27394000  0.01044000  0.71220000  1.0
  H  H52  1  0.65824000  0.41515000  0.71870000  1.0
  H  H53  1  0.01076000  0.69779000  0.79963000  1.0
  H  H54  1  0.33461000  0.98287000  0.81124000  1.0
  H  H55  1  0.68677000  0.49833000  0.81322000  1.0
  H  H56  1  0.54733000  0.06116000  0.35251000  1.0
  H  H57  1  0.54451000  0.95529000  0.39343000  1.0
  H  H58  1  0.60818000  0.03874000  0.41192000  1.0
  H  H59  1  0.38555000  0.54283000  0.35772000  1.0
  H  H60  1  0.50466000  0.53733000  0.39059000  1.0
  H  H61  1  0.89032000  0.49631000  0.73721000  1.0
  H  H62  1  0.36831000  0.59786000  0.41809000  1.0
  H  H63  1  0.04513000  0.42611000  0.34155000  1.0
  H  H64  1  0.94048000  0.52281000  0.38355000  1.0
  H  H65  1  0.04261000  0.38389000  0.40346000  1.0
  H  H66  1  0.58722000  0.17256000  0.76092000  1.0
  H  H67  1  0.64605000  0.17010000  0.81993000  1.0
  H  H68  1  0.51075000  0.16901000  0.81477000  1.0
  H  H69  1  0.16682000  0.69631000  0.84595000  1.0
  H  H70  1  0.31777000  0.62328000  0.85983000  1.0
  H  H71  1  0.25560000  0.54875000  0.82796000  1.0
  H  H72  1  0.82412000  0.68330000  0.80983000  1.0
  H  H73  1  0.99128000  0.96942000  0.81913000  1.0
  H  H74  1  0.90576000  0.08908000  0.85735000  1.0
  H  H75  1  0.06011000  0.02415000  0.85878000  1.0
  H  H76  1  0.50580000  0.77258000  0.81014000  1.0
  H  H77  1  0.90354000  0.45117000  0.82073000  1.0
  H  H78  1  0.54245000  0.41775000  0.49066000  1.0
  H  H79  1  0.17059000  0.19627000  0.98638000  1.0
  C  C80  1  0.45709000  0.76656000  0.57123000  1.0
  C  C81  1  0.85213000  0.85525000  0.85633000  1.0
  C  C82  1  0.29795000  0.83246000  0.85885000  1.0
  C  C83  1  0.83875000  0.30716000  0.86264000  1.0
  C  C84  1  0.79171000  0.81125000  0.66091000  1.0
  C  C85  1  0.38295000  0.81431000  0.66178000  1.0
  C  C86  1  0.83875000  0.38924000  0.66530000  1.0
  C  C87  1  0.77858000  0.80226000  0.61786000  1.0
  C  C88  1  0.40737000  0.79966000  0.61886000  1.0
  C  C89  1  0.82876000  0.41115000  0.62197000  1.0
  C  C90  1  0.87590000  0.22257000  0.95187000  1.0
  C  C91  1  0.79865000  0.45665000  0.57320000  1.0
  C  C92  1  0.89612000  0.89582000  0.94543000  1.0
  C  C93  1  0.20896000  0.88462000  0.94711000  1.0
  C  C94  1  0.79689000  0.81239000  0.38684000  1.0
  C  C95  1  0.40098000  0.79103000  0.38524000  1.0
  C  C96  1  0.81711000  0.39125000  0.38793000  1.0
  C  C97  1  0.71087000  0.90751000  0.36007000  1.0
  C  C98  1  0.38473000  0.70554000  0.36113000  1.0
  C  C99  1  0.90785000  0.38701000  0.35816000  1.0
  C  C100  1  0.73366000  0.91832000  0.31104000  1.0
  C  C101  1  0.34431000  0.72985000  0.31329000  1.0
  C  C102  1  0.75494000  0.78036000  0.56952000  1.0
  C  C103  1  0.92013000  0.34154000  0.31167000  1.0
  C  C104  1  0.83727000  0.84222000  0.28758000  1.0
  C  C105  1  0.31849000  0.83376000  0.28868000  1.0
  C  C106  1  0.84864000  0.29888000  0.29373000  1.0
  C  C107  1  0.45712000  0.76900000  0.43368000  1.0
  C  C108  1  0.78401000  0.45146000  0.43537000  1.0
  C  C109  1  0.77377000  0.77754000  0.43562000  1.0
  C  C110  1  0.92457000  0.75400000  0.31586000  1.0
  C  C111  1  0.32991000  0.91923000  0.31419000  1.0
  C  C112  1  0.76290000  0.29877000  0.32476000  1.0
  C  C113  1  0.95438000  0.77650000  0.77878000  1.0
  C  C114  1  0.90384000  0.73982000  0.36440000  1.0
  C  C115  1  0.37059000  0.89736000  0.36153000  1.0
  C  C116  1  0.74757000  0.34500000  0.37079000  1.0
  C  C117  1  0.91916000  0.75725000  0.20603000  1.0
  C  C118  1  0.31712000  0.91346000  0.20497000  1.0
  C  C119  1  0.76436000  0.28448000  0.21446000  1.0
  C  C120  1  0.92874000  0.76846000  0.15606000  1.0
  C  C121  1  0.29021000  0.92321000  0.15584000  1.0
  C  C122  1  0.77616000  0.25917000  0.16519000  1.0
  C  C123  1  0.79785000  0.97446000  0.16128000  1.0
  C  C124  1  0.29452000  0.94633000  0.78732000  1.0
  C  C125  1  0.19861000  0.80278000  0.16903000  1.0
  C  C126  1  0.98359000  0.18646000  0.17121000  1.0
  C  C127  1  0.79149000  0.96328000  0.21131000  1.0
  C  C128  1  0.22289000  0.79602000  0.21827000  1.0
  C  C129  1  0.97171000  0.20969000  0.22049000  1.0
  C  C130  1  0.85052000  0.85437000  0.23473000  1.0
  C  C131  1  0.28466000  0.84911000  0.23707000  1.0
  C  C132  1  0.86173000  0.26184000  0.24280000  1.0
  C  C133  1  0.86700000  0.87724000  0.13315000  1.0
  C  C134  1  0.23248000  0.86611000  0.13739000  1.0
  C  C135  1  0.71563000  0.41775000  0.79312000  1.0
  C  C136  1  0.88572000  0.21186000  0.14302000  1.0
  C  C137  1  0.90339000  0.18248000  0.09066000  1.0
  C  C138  1  0.88372000  0.89517000  0.08097000  1.0
  C  C139  1  0.19848000  0.88058000  0.08553000  1.0
  C  C140  1  0.73573000  0.77981000  0.74359000  1.0
  C  C141  1  0.46581000  0.72310000  0.73993000  1.0
  C  C142  1  0.92205000  0.40328000  0.74373000  1.0
  C  C143  1  0.76899000  0.94920000  0.72487000  1.0
  C  C144  1  0.25239000  0.80607000  0.72479000  1.0
  C  C145  1  0.88273000  0.23782000  0.72790000  1.0
  C  C146  1  0.93742000  0.74758000  0.72649000  1.0
  C  C147  1  0.76701000  0.96253000  0.78060000  1.0
  C  C148  1  0.24447000  0.78508000  0.77955000  1.0
  C  C149  1  0.87618000  0.21468000  0.78269000  1.0
  C  C150  1  0.86805000  0.87043000  0.89841000  1.0
  C  C151  1  0.26748000  0.84906000  0.90113000  1.0
  C  C152  1  0.84528000  0.28270000  0.90573000  1.0
  C  C153  1  0.80830000  0.82154000  0.71220000  1.0
  C  C154  1  0.35974000  0.82201000  0.71351000  1.0
  C  C155  1  0.84101000  0.36761000  0.71725000  1.0
  C  C156  1  0.76830000  0.77328000  0.79776000  1.0
  C  C157  1  0.33796000  0.93877000  0.73459000  1.0
  C  C158  1  0.45125000  0.73804000  0.79546000  1.0
  C  C159  1  0.92537000  0.37481000  0.79861000  1.0
  C  C160  1  0.83579000  0.84146000  0.80523000  1.0
  C  C161  1  0.32337000  0.82392000  0.80728000  1.0
  C  C162  1  0.83861000  0.32966000  0.81090000  1.0
  C  C163  1  0.59631000  0.99556000  0.38045000  1.0
  C  C164  1  0.41159000  0.58981000  0.38293000  1.0
  C  C165  1  0.98854000  0.43240000  0.37234000  1.0
  C  C166  1  0.59697000  0.13800000  0.79849000  1.0
  C  C167  1  0.25322000  0.63254000  0.83256000  1.0
  C  C168  1  0.71650000  0.43900000  0.73779000  1.0
  C  C169  1  0.98497000  0.04827000  0.83523000  1.0
  O  O170  1  0.70414000  0.46949000  0.55652000  1.0
  O  O171  1  0.68536000  0.47474000  0.45277000  1.0
  O  O172  1  0.84764000  0.67683000  0.45217000  1.0
  O  O173  1  0.48624000  0.84503000  0.44842000  1.0
  O  O174  1  0.47805000  0.67786000  0.45716000  1.0
  O  O175  1  0.85488000  0.47989000  0.45540000  1.0
  O  O176  1  0.67940000  0.84409000  0.45769000  1.0
  O  O177  1  0.66380000  0.65751000  0.50301000  1.0
  O  O178  1  0.00211000  0.00125000  0.01505000  1.0
  O  O179  1  0.97476000  0.19569000  0.96857000  1.0
  O  O180  1  0.82486000  0.99187000  0.96450000  1.0
  O  O181  1  0.83368000  0.69207000  0.54803000  1.0
  O  O182  1  0.19327000  0.80882000  0.97201000  1.0
  O  O183  1  0.19671000  0.96435000  0.06158000  1.0
  O  O184  1  0.82083000  0.17703000  0.06771000  1.0
  O  O185  1  0.97370000  0.81831000  0.05928000  1.0
  O  O186  1  0.00019000  0.16092000  0.07231000  1.0
  O  O187  1  0.81046000  0.99153000  0.06111000  1.0
  O  O188  1  0.16771000  0.80829000  0.06863000  1.0
  O  O189  1  0.65213000  0.01493000  0.80004000  1.0
  O  O190  1  0.27727000  0.66549000  0.78577000  1.0
  O  O191  1  0.98690000  0.12444000  0.79767000  1.0
  O  O192  1  0.46429000  0.84464000  0.54448000  1.0
  O  O193  1  0.17316000  0.98898000  0.95829000  1.0
  O  O194  1  0.80153000  0.19501000  0.97088000  1.0
  O  O195  1  0.99397000  0.82150000  0.96346000  1.0
  O  O196  1  0.49386000  0.66208000  0.56007000  1.0
  O  O197  1  0.86937000  0.48529000  0.55139000  1.0
  O  O198  1  0.65391000  0.84859000  0.55255000  1.0
  O  O199  1  0.51115000  0.48702000  0.50981000  1.0
  O  O200  1  0.17257000  0.15483000  0.01604000  1.0
