# generated using pymatgen
data_ZnH16C26(NO2)4
_symmetry_space_group_name_H-M   'P 1'
_cell_length_a   11.47730000
_cell_length_b   18.72670000
_cell_length_c   26.52400000
_cell_angle_alpha   89.99990000
_cell_angle_beta   89.99970000
_cell_angle_gamma   88.08590000
_symmetry_Int_Tables_number   1
_chemical_formula_structural   ZnH16C26(NO2)4
_chemical_formula_sum   'Zn4 H64 C104 N16 O32'
_cell_volume   5697.67421917
_cell_formula_units_Z   4
loop_
 _symmetry_equiv_pos_site_id
 _symmetry_equiv_pos_as_xyz
  1  'x, y, z'
loop_
 _atom_site_type_symbol
 _atom_site_label
 _atom_site_symmetry_multiplicity
 _atom_site_fract_x
 _atom_site_fract_y
 _atom_site_fract_z
 _atom_site_occupancy
  Zn  Zn0  1  0.52680000  0.14072000  0.97423000  1.0
  Zn  Zn1  1  0.97320000  0.85928000  0.47423000  1.0
  Zn  Zn2  1  0.47320000  0.85928000  0.02577000  1.0
  Zn  Zn3  1  0.02680000  0.14072000  0.52577000  1.0
  H  H4  1  0.40513000  0.03849000  0.03787000  1.0
  H  H5  1  0.09487000  0.96151000  0.53787000  1.0
  H  H6  1  0.59487000  0.96151000  0.96213000  1.0
  H  H7  1  0.90513000  0.03849000  0.46213000  1.0
  H  H8  1  0.20946000  0.98890000  0.04667000  1.0
  H  H9  1  0.29054000  0.01110000  0.54667000  1.0
  H  H10  1  0.79055000  0.01110000  0.95333000  1.0
  H  H11  1  0.70946000  0.98891000  0.45332000  1.0
  H  H12  1  0.09025000  0.13620000  0.93017000  1.0
  H  H13  1  0.40975000  0.86380000  0.43017000  1.0
  H  H14  1  0.90975000  0.86380000  0.06984000  1.0
  H  H15  1  0.59025000  0.13620000  0.56983000  1.0
  H  H16  1  0.29502000  0.17726000  0.92440000  1.0
  H  H17  1  0.20498000  0.82275000  0.42440000  1.0
  H  H18  1  0.70497000  0.82275000  0.07560000  1.0
  H  H19  1  0.79503000  0.17725000  0.57560000  1.0
  H  H20  1  0.94790000  0.06413000  0.96992000  1.0
  H  H21  1  0.55211000  0.93587000  0.46992000  1.0
  H  H22  1  0.05211000  0.93587000  0.03008000  1.0
  H  H23  1  0.44789000  0.06413000  0.53008000  1.0
  H  H24  1  0.62049000  0.23730000  0.05095000  1.0
  H  H25  1  0.87951000  0.76270000  0.55096000  1.0
  H  H26  1  0.37951000  0.76270000  0.94905000  1.0
  H  H27  1  0.12049000  0.23730000  0.44905000  1.0
  H  H28  1  0.62206000  0.36752000  0.06970000  1.0
  H  H29  1  0.87794000  0.63248000  0.56970000  1.0
  H  H30  1  0.37794000  0.63248000  0.93029000  1.0
  H  H31  1  0.12206000  0.36752000  0.43030000  1.0
  H  H32  1  0.43411000  0.40334000  0.92983000  1.0
  H  H33  1  0.06589000  0.59666000  0.42984000  1.0
  H  H34  1  0.56589000  0.59665000  0.07016000  1.0
  H  H35  1  0.93411000  0.40334000  0.57017000  1.0
  H  H36  1  0.44392000  0.27165000  0.91676000  1.0
  H  H37  1  0.05608000  0.72834000  0.41676000  1.0
  H  H38  1  0.55607000  0.72834000  0.08324000  1.0
  H  H39  1  0.94393000  0.27165000  0.58324000  1.0
  H  H40  1  0.57821000  0.48749000  0.04662000  1.0
  H  H41  1  0.92180000  0.51251000  0.54662000  1.0
  H  H42  1  0.42180000  0.51251000  0.95338000  1.0
  H  H43  1  0.07820000  0.48749000  0.45338000  1.0
  H  H44  1  0.58426000  0.02183000  0.11247000  1.0
  H  H45  1  0.91574000  0.97817000  0.61247000  1.0
  H  H46  1  0.41574000  0.97817000  0.88753000  1.0
  H  H47  1  0.08426000  0.02183000  0.38754000  1.0
  H  H48  1  0.66723000  0.96400000  0.18964000  1.0
  H  H49  1  0.83277000  0.03600000  0.68964000  1.0
  H  H50  1  0.33277000  0.03600000  0.81036000  1.0
  H  H51  1  0.16723000  0.96400000  0.31036000  1.0
  H  H52  1  0.91248000  0.11748000  0.08356000  1.0
  H  H53  1  0.58752000  0.88252000  0.58356000  1.0
  H  H54  1  0.08752000  0.88252000  0.91644000  1.0
  H  H55  1  0.41248000  0.11748000  0.41644000  1.0
  H  H56  1  0.79543000  0.98583000  0.35361000  1.0
  H  H57  1  0.70457000  0.01417000  0.85361000  1.0
  H  H58  1  0.20456000  0.01416000  0.64639000  1.0
  H  H59  1  0.29544000  0.98583000  0.14639000  1.0
  H  H60  1  0.74999000  0.03947000  0.27035000  1.0
  H  H61  1  0.75000000  0.96053000  0.77035000  1.0
  H  H62  1  0.25001000  0.96053000  0.72965000  1.0
  H  H63  1  0.24999000  0.03947000  0.22965000  1.0
  H  H64  1  0.04981000  0.84381000  0.28420000  1.0
  H  H65  1  0.45019000  0.15619000  0.78420000  1.0
  H  H66  1  0.95019000  0.15619000  0.71580000  1.0
  H  H67  1  0.54981000  0.84381000  0.21580000  1.0
  C  C68  1  0.33284000  0.05840000  0.01465000  1.0
  C  C69  1  0.16716000  0.94160000  0.51465000  1.0
  C  C70  1  0.66716000  0.94160000  0.98535000  1.0
  C  C71  1  0.83284000  0.05840000  0.48535000  1.0
  C  C72  1  0.22267000  0.03126000  0.01937000  1.0
  C  C73  1  0.27733000  0.96874000  0.51937000  1.0
  C  C74  1  0.77733000  0.96874000  0.98063000  1.0
  C  C75  1  0.72267000  0.03127000  0.48063000  1.0
  C  C76  1  0.13151000  0.05836000  0.98863000  1.0
  C  C77  1  0.36849000  0.94164000  0.48863000  1.0
  C  C78  1  0.86849000  0.94164000  0.01137000  1.0
  C  C79  1  0.63151000  0.05836000  0.51137000  1.0
  C  C80  1  0.15757000  0.11371000  0.95502000  1.0
  C  C81  1  0.34243000  0.88630000  0.45502000  1.0
  C  C82  1  0.84243000  0.88630000  0.04498000  1.0
  C  C83  1  0.65757000  0.11371000  0.54498000  1.0
  C  C84  1  0.27052000  0.13720000  0.95186000  1.0
  C  C85  1  0.22948000  0.86281000  0.45185000  1.0
  C  C86  1  0.72948000  0.86280000  0.04815000  1.0
  C  C87  1  0.77052000  0.13720000  0.54815000  1.0
  C  C88  1  0.01444000  0.03111000  0.98915000  1.0
  C  C89  1  0.48556000  0.96889000  0.48915000  1.0
  C  C90  1  0.98556000  0.96889000  0.01085000  1.0
  C  C91  1  0.51444000  0.03111000  0.51085000  1.0
  C  C92  1  0.57935000  0.27611000  0.02552000  1.0
  C  C93  1  0.92065000  0.72389000  0.52552000  1.0
  C  C94  1  0.42065000  0.72389000  0.97448000  1.0
  C  C95  1  0.07935000  0.27611000  0.47448000  1.0
  C  C96  1  0.58000000  0.34879000  0.03552000  1.0
  C  C97  1  0.92000000  0.65121000  0.53552000  1.0
  C  C98  1  0.42000000  0.65121000  0.96448000  1.0
  C  C99  1  0.08000000  0.34879000  0.46448000  1.0
  C  C100  1  0.52674000  0.39773000  0.00178000  1.0
  C  C101  1  0.97326000  0.60227000  0.50178000  1.0
  C  C102  1  0.47326000  0.60227000  0.99822000  1.0
  C  C103  1  0.02674000  0.39773000  0.49822000  1.0
  C  C104  1  0.47570000  0.36914000  0.95827000  1.0
  C  C105  1  0.02430000  0.63086000  0.45828000  1.0
  C  C106  1  0.52430000  0.63086000  0.04172000  1.0
  C  C107  1  0.97570000  0.36914000  0.54173000  1.0
  C  C108  1  0.47939000  0.29592000  0.95058000  1.0
  C  C109  1  0.02061000  0.70408000  0.45058000  1.0
  C  C110  1  0.52060000  0.70408000  0.04942000  1.0
  C  C111  1  0.97940000  0.29591000  0.54942000  1.0
  C  C112  1  0.52766000  0.47373000  0.01325000  1.0
  C  C113  1  0.97234000  0.52627000  0.51325000  1.0
  C  C114  1  0.47234000  0.52627000  0.98675000  1.0
  C  C115  1  0.02766000  0.47373000  0.48675000  1.0
  C  C116  1  0.69596000  0.10797000  0.04589000  1.0
  C  C117  1  0.80404000  0.89203000  0.54589000  1.0
  C  C118  1  0.30404000  0.89203000  0.95411000  1.0
  C  C119  1  0.19596000  0.10797000  0.45411000  1.0
  C  C120  1  0.74313000  0.07315000  0.09300000  1.0
  C  C121  1  0.75686000  0.92685000  0.59300000  1.0
  C  C122  1  0.25687000  0.92685000  0.90700000  1.0
  C  C123  1  0.24313000  0.07315000  0.40700000  1.0
  C  C124  1  0.67439000  0.03011000  0.12327000  1.0
  C  C125  1  0.82561000  0.96989000  0.62327000  1.0
  C  C126  1  0.32561000  0.96989000  0.87673000  1.0
  C  C127  1  0.17439000  0.03011000  0.37673000  1.0
  C  C128  1  0.72076000  0.99826000  0.16662000  1.0
  C  C129  1  0.77923000  0.00174000  0.66662000  1.0
  C  C130  1  0.27924000  0.00174000  0.83338000  1.0
  C  C131  1  0.22076000  0.99826000  0.33333333  1.0
  C  C132  1  0.83623000  0.00851000  0.18147000  1.0
  C  C133  1  0.66377000  0.99149000  0.68147000  1.0
  C  C134  1  0.16377000  0.99149000  0.81853000  1.0
  C  C135  1  0.33623000  0.00851000  0.31853000  1.0
  C  C136  1  0.90287000  0.05286000  0.15068000  1.0
  C  C137  1  0.59713000  0.94714000  0.65067000  1.0
  C  C138  1  0.09713000  0.94714000  0.84933000  1.0
  C  C139  1  0.40287000  0.05286000  0.34932000  1.0
  C  C140  1  0.85847000  0.08402000  0.10686000  1.0
  C  C141  1  0.64153000  0.91597000  0.60686000  1.0
  C  C142  1  0.14154000  0.91597000  0.89314000  1.0
  C  C143  1  0.35846000  0.08403000  0.39314000  1.0
  C  C144  1  0.95797000  0.87826000  0.37439000  1.0
  C  C145  1  0.54203000  0.12174000  0.87439000  1.0
  C  C146  1  0.04203000  0.12174000  0.62561000  1.0
  C  C147  1  0.45797000  0.87826000  0.12561000  1.0
  C  C148  1  0.92660000  0.91153000  0.32455000  1.0
  C  C149  1  0.57340000  0.08847000  0.82455000  1.0
  C  C150  1  0.07340000  0.08847000  0.67545000  1.0
  C  C151  1  0.42660000  0.91153000  0.17545000  1.0
  C  C152  1  0.84190000  0.96672000  0.32015000  1.0
  C  C153  1  0.65810000  0.03328000  0.82014000  1.0
  C  C154  1  0.15810000  0.03327000  0.67985000  1.0
  C  C155  1  0.34190000  0.96672000  0.17985000  1.0
  C  C156  1  0.81669000  0.99686000  0.27326000  1.0
  C  C157  1  0.68331000  0.00314000  0.77326000  1.0
  C  C158  1  0.18331000  0.00314000  0.72674000  1.0
  C  C159  1  0.31669000  0.99686000  0.22674000  1.0
  C  C160  1  0.87506000  0.97397000  0.22933000  1.0
  C  C161  1  0.62494000  0.02603000  0.72932000  1.0
  C  C162  1  0.12495000  0.02603000  0.77068000  1.0
  C  C163  1  0.37505000  0.97397000  0.27068000  1.0
  C  C164  1  0.95960000  0.91805000  0.23468000  1.0
  C  C165  1  0.54040000  0.08195000  0.73468000  1.0
  C  C166  1  0.04041000  0.08195000  0.76532000  1.0
  C  C167  1  0.45959000  0.91805000  0.26532000  1.0
  C  C168  1  0.98481000  0.88724000  0.28136000  1.0
  C  C169  1  0.51519000  0.11276000  0.78136000  1.0
  C  C170  1  0.01519000  0.11276000  0.71864000  1.0
  C  C171  1  0.48481000  0.88724000  0.21864000  1.0
  N  N172  1  0.35745000  0.11021000  0.98114000  1.0
  N  N173  1  0.14255000  0.88979000  0.48114000  1.0
  N  N174  1  0.64255000  0.88979000  0.01886000  1.0
  N  N175  1  0.85745000  0.11021000  0.51886000  1.0
  N  N176  1  0.52984000  0.24969000  0.98375000  1.0
  N  N177  1  0.97016000  0.75031000  0.48375000  1.0
  N  N178  1  0.47016000  0.75031000  0.01625000  1.0
  N  N179  1  0.02984000  0.24969000  0.51625000  1.0
  N  N180  1  0.02350000  0.06797000  0.16394000  1.0
  N  N181  1  0.47650000  0.93203000  0.66394000  1.0
  N  N182  1  0.97650000  0.93203000  0.83606000  1.0
  N  N183  1  0.52350000  0.06797000  0.33606000  1.0
  N  N184  1  0.02529000  0.88883000  0.19121000  1.0
  N  N185  1  0.47470000  0.11117000  0.69121000  1.0
  N  N186  1  0.97471000  0.11117000  0.80879000  1.0
  N  N187  1  0.52529000  0.88883000  0.30879000  1.0
  O  O188  1  0.58546000  0.09882000  0.03801000  1.0
  O  O189  1  0.91454000  0.90118000  0.53801000  1.0
  O  O190  1  0.41454000  0.90118000  0.96199000  1.0
  O  O191  1  0.08546000  0.09882000  0.46199000  1.0
  O  O192  1  0.76068000  0.14303000  0.01814000  1.0
  O  O193  1  0.73933000  0.85697000  0.51814000  1.0
  O  O194  1  0.23932000  0.85697000  0.98186000  1.0
  O  O195  1  0.26068000  0.14303000  0.48186000  1.0
  O  O196  1  0.03134000  0.82713000  0.37608000  1.0
  O  O197  1  0.46866000  0.17286000  0.87608000  1.0
  O  O198  1  0.96866000  0.17286000  0.62392000  1.0
  O  O199  1  0.53134000  0.82714000  0.12392000  1.0
  O  O200  1  0.90704000  0.90655000  0.41362000  1.0
  O  O201  1  0.59297000  0.09345000  0.91362000  1.0
  O  O202  1  0.09297000  0.09345000  0.58638000  1.0
  O  O203  1  0.40703000  0.90655000  0.08638000  1.0
  O  O204  1  0.05151000  0.06427000  0.20926000  1.0
  O  O205  1  0.44849000  0.93573000  0.70926000  1.0
  O  O206  1  0.94849000  0.93573000  0.79074000  1.0
  O  O207  1  0.55151000  0.06427000  0.29074000  1.0
  O  O208  1  0.09097000  0.08408000  0.12950000  1.0
  O  O209  1  0.40903000  0.91591000  0.62950000  1.0
  O  O210  1  0.90903000  0.91591000  0.87050000  1.0
  O  O211  1  0.59097000  0.08409000  0.37050000  1.0
  O  O212  1  0.10995000  0.84771000  0.19960000  1.0
  O  O213  1  0.39005000  0.15229000  0.69959000  1.0
  O  O214  1  0.89005000  0.15229000  0.80041000  1.0
  O  O215  1  0.60995000  0.84771000  0.30041000  1.0
  O  O216  1  0.99235000  0.90676000  0.14815000  1.0
  O  O217  1  0.50765000  0.09324000  0.64815000  1.0
  O  O218  1  0.00765000  0.09324000  0.85185000  1.0
  O  O219  1  0.49234000  0.90676000  0.35185000  1.0
