# generated using pymatgen
data_Al2H14C23N2(ClO5)2
_symmetry_space_group_name_H-M   'P 1'
_cell_length_a   6.64929000
_cell_length_b   11.13306822
_cell_length_c   16.97530000
_cell_angle_alpha   90.16556494
_cell_angle_beta   97.62190000
_cell_angle_gamma   107.35867203
_symmetry_Int_Tables_number   1
_chemical_formula_structural   Al2H14C23N2(ClO5)2
_chemical_formula_sum   'Al2 H14 C23 N2 Cl2 O10'
_cell_volume   1187.60338966
_cell_formula_units_Z   1
loop_
 _symmetry_equiv_pos_site_id
 _symmetry_equiv_pos_as_xyz
  1  'x, y, z'
loop_
 _atom_site_type_symbol
 _atom_site_label
 _atom_site_symmetry_multiplicity
 _atom_site_fract_x
 _atom_site_fract_y
 _atom_site_fract_z
 _atom_site_occupancy
  Al  Al0  1  0.00915000  0.49851000  0.50391000  1.0
  Al  Al1  1  0.50955000  0.49711000  0.50703000  1.0
  H  H2  1  0.17056000  0.35218000  0.45622000  1.0
  H  H3  1  0.82565000  0.55239000  0.60289000  1.0
  H  H4  1  0.65444000  0.55790000  0.74711000  1.0
  H  H5  1  0.71940000  0.56875000  0.89611000  1.0
  H  H6  1  0.05296000  0.38340000  0.89904000  1.0
  H  H7  1  0.94090000  0.63667000  0.11324000  1.0
  H  H8  1  0.27807000  0.44776000  0.12231000  1.0
  H  H9  1  0.35629000  0.45255000  0.27142000  1.0
  H  H10  1  0.29111000  0.11616000  0.55282000  1.0
  H  H11  1  0.83292000  0.11040000  0.44189000  1.0
  H  H12  1  0.17966000  0.87996000  0.55267000  1.0
  H  H13  1  0.86713000  0.92717000  0.39016000  1.0
  H  H14  1  0.65050000  0.78528000  0.38086000  1.0
  H  H15  1  0.84448000  0.81393000  0.46527000  1.0
  C  C16  1  0.64340000  0.26722000  0.49993000  1.0
  C  C17  1  0.72181000  0.52486000  0.36379000  1.0
  C  C18  1  0.37108000  0.72441000  0.50348000  1.0
  C  C19  1  0.29619000  0.47796000  0.65009000  1.0
  C  C20  1  0.31821000  0.46998000  0.73866000  1.0
  C  C21  1  0.52358000  0.52152000  0.78140000  1.0
  C  C22  1  0.56070000  0.52750000  0.86361000  1.0
  C  C23  1  0.38831000  0.47898000  0.90608000  1.0
  C  C24  1  0.18365000  0.42331000  0.86516000  1.0
  C  C25  1  0.14793000  0.41926000  0.78217000  1.0
  C  C26  1  0.81409000  0.59449000  0.14841000  1.0
  C  C27  1  0.60726000  0.53871000  0.10924000  1.0
  C  C28  1  0.43886000  0.48804000  0.15330000  1.0
  C  C29  1  0.48292000  0.49011000  0.23533000  1.0
  C  C30  1  0.69154000  0.53961000  0.27588000  1.0
  C  C31  1  0.85693000  0.59498000  0.23111000  1.0
  C  C32  1  0.44349000  0.86404000  0.49751000  1.0
  C  C33  1  0.57173000  0.12687000  0.49871000  1.0
  C  C34  1  0.62843000  0.92707000  0.46376000  1.0
  C  C35  1  0.38423000  0.06287000  0.52875000  1.0
  C  C36  1  0.69011000  0.05880000  0.46659000  1.0
  C  C37  1  0.32275000  0.93222000  0.52849000  1.0
  C  C38  1  0.75492000  0.86010000  0.42297000  1.0
  N  N39  1  0.40435000  0.47963000  0.99000000  1.0
  N  N40  1  0.58758000  0.53916000  0.02541000  1.0
  Cl  Cl41  1  0.89073000  0.34542000  0.73721000  1.0
  Cl  Cl42  1  0.11485000  0.67002000  0.27441000  1.0
  O  O43  1  0.84083000  0.32191000  0.49835000  1.0
  O  O44  1  0.56208000  0.51875000  0.39910000  1.0
  O  O45  1  0.51290000  0.66817000  0.51069000  1.0
  O  O46  1  0.12175000  0.48833000  0.61470000  1.0
  O  O47  1  0.17294000  0.67128000  0.50361000  1.0
  O  O48  1  0.45888000  0.47917000  0.61750000  1.0
  O  O49  1  0.50049000  0.32202000  0.50191000  1.0
  O  O50  1  0.89831000  0.51401000  0.39613000  1.0
  O  O51  1  0.22022000  0.44167000  0.47035000  1.0
  O  O52  1  0.79809000  0.54676000  0.54518000  1.0
