# generated using pymatgen
data_ZnH20C16(N2Cl)2
_symmetry_space_group_name_H-M   'P 1'
_cell_length_a   5.76985000
_cell_length_b   11.24580000
_cell_length_c   14.34210000
_cell_angle_alpha   72.90600000
_cell_angle_beta   89.99020000
_cell_angle_gamma   75.16200000
_symmetry_Int_Tables_number   1
_chemical_formula_structural   ZnH20C16(N2Cl)2
_chemical_formula_sum   'Zn2 H40 C32 N8 Cl4'
_cell_volume   856.99227409
_cell_formula_units_Z   2
loop_
 _symmetry_equiv_pos_site_id
 _symmetry_equiv_pos_as_xyz
  1  'x, y, z'
loop_
 _atom_site_type_symbol
 _atom_site_label
 _atom_site_symmetry_multiplicity
 _atom_site_fract_x
 _atom_site_fract_y
 _atom_site_fract_z
 _atom_site_occupancy
  Zn  Zn0  1  0.90780000  0.99987000  0.25004000  1.0
  Zn  Zn1  1  0.09219000  0.00013000  0.74997000  1.0
  H  H2  1  0.66314000  0.79640000  0.35089000  1.0
  H  H3  1  0.53986000  0.79694000  0.85065000  1.0
  H  H4  1  0.33683000  0.20360000  0.64912000  1.0
  H  H5  1  0.46014000  0.20305000  0.14936000  1.0
  H  H6  1  0.41810000  0.66770000  0.30316000  1.0
  H  H7  1  0.91312000  0.66801000  0.80297000  1.0
  H  H8  1  0.58190000  0.33229000  0.69684000  1.0
  H  H9  1  0.08688000  0.33199000  0.19703000  1.0
  H  H10  1  0.27904000  0.58961000  0.18007000  1.0
  H  H11  1  0.13001000  0.58975000  0.68008000  1.0
  H  H12  1  0.72098000  0.41037000  0.81993000  1.0
  H  H13  1  0.86998000  0.41026000  0.31992000  1.0
  H  H14  1  0.14939000  0.73237000  0.08207000  1.0
  H  H15  1  0.11772000  0.73250000  0.58215000  1.0
  H  H16  1  0.85063000  0.26762000  0.91793000  1.0
  H  H17  1  0.88228000  0.26751000  0.41785000  1.0
  H  H18  1  0.59469000  0.41972000  0.14285000  1.0
  H  H19  1  0.98513000  0.41990000  0.64287000  1.0
  H  H20  1  0.40534000  0.58027000  0.85715000  1.0
  H  H21  1  0.01486000  0.58011000  0.35713000  1.0
  H  H22  1  0.77389000  0.53191000  0.11348000  1.0
  H  H23  1  0.69365000  0.53178000  0.61328000  1.0
  H  H24  1  0.22614000  0.46809000  0.88651000  1.0
  H  H25  1  0.30634000  0.46823000  0.38673000  1.0
  H  H26  1  0.09760000  0.64504000  0.96390000  1.0
  H  H27  1  0.25693000  0.64542000  0.46386000  1.0
  H  H28  1  0.90242000  0.35496000  0.03609000  1.0
  H  H29  1  0.74306000  0.35459000  0.53614000  1.0
  H  H30  1  0.18614000  0.48712000  0.05162000  1.0
  H  H31  1  0.32632000  0.48757000  0.55172000  1.0
  H  H32  1  0.81388000  0.51288000  0.94837000  1.0
  H  H33  1  0.67368000  0.51244000  0.44829000  1.0
  H  H34  1  0.57668000  0.82083000  0.00471000  1.0
  H  H35  1  0.60174000  0.82094000  0.50456000  1.0
  H  H36  1  0.42333000  0.17916000  0.99530000  1.0
  H  H37  1  0.39825000  0.17908000  0.49544000  1.0
  H  H38  1  0.80767000  0.94853000  0.06341000  1.0
  H  H39  1  0.24353000  0.94881000  0.56322000  1.0
  H  H40  1  0.19231000  0.05148000  0.93660000  1.0
  H  H41  1  0.75644000  0.05122000  0.43678000  1.0
  C  C42  1  0.63758000  0.80017000  0.27471000  1.0
  C  C43  1  0.56157000  0.80063000  0.77450000  1.0
  C  C44  1  0.36241000  0.19982000  0.72529000  1.0
  C  C45  1  0.43844000  0.19936000  0.22551000  1.0
  C  C46  1  0.50324000  0.72751000  0.24742000  1.0
  C  C47  1  0.76828000  0.72782000  0.74724000  1.0
  C  C48  1  0.49677000  0.27248000  0.75259000  1.0
  C  C49  1  0.23170000  0.27219000  0.25274000  1.0
  C  C50  1  0.47555000  0.73390000  0.14920000  1.0
  C  C51  1  0.78970000  0.73409000  0.64906000  1.0
  C  C52  1  0.52445000  0.26609000  0.85080000  1.0
  C  C53  1  0.21031000  0.26592000  0.35095000  1.0
  C  C54  1  0.32157000  0.66219000  0.11561000  1.0
  C  C55  1  0.01539000  0.66235000  0.61555000  1.0
  C  C56  1  0.67845000  0.33780000  0.88439000  1.0
  C  C57  1  0.98460000  0.33766000  0.38445000  1.0
  C  C58  1  0.64037000  0.49638000  0.08261000  1.0
  C  C59  1  0.86292000  0.49633000  0.58254000  1.0
  C  C60  1  0.35965000  0.50362000  0.91738000  1.0
  C  C61  1  0.13706000  0.50368000  0.41746000  1.0
  C  C62  1  0.25156000  0.56103000  0.99627000  1.0
  C  C63  1  0.18715000  0.56131000  0.49627000  1.0
  C  C64  1  0.74846000  0.43897000  0.00373000  1.0
  C  C65  1  0.81285000  0.43870000  0.50373000  1.0
  C  C66  1  0.58957000  0.81362000  0.08193000  1.0
  C  C67  1  0.59617000  0.81383000  0.58176000  1.0
  C  C68  1  0.41044000  0.18637000  0.91807000  1.0
  C  C69  1  0.40382000  0.18619000  0.41823000  1.0
  C  C70  1  0.71890000  0.88440000  0.11396000  1.0
  C  C71  1  0.39627000  0.88470000  0.61378000  1.0
  C  C72  1  0.28109000  0.11559000  0.88604000  1.0
  C  C73  1  0.60374000  0.11531000  0.38623000  1.0
  N  N74  1  0.74292000  0.87804000  0.20915000  1.0
  N  N75  1  0.37853000  0.87854000  0.70892000  1.0
  N  N76  1  0.25706000  0.12196000  0.79086000  1.0
  N  N77  1  0.62145000  0.12147000  0.29107000  1.0
  N  N78  1  0.42779000  0.60408000  0.04187000  1.0
  N  N79  1  0.96761000  0.60422000  0.54177000  1.0
  N  N80  1  0.57223000  0.39591000  0.95813000  1.0
  N  N81  1  0.03239000  0.39578000  0.45823000  1.0
  Cl  Cl82  1  0.14598000  0.90066000  0.38837000  1.0
  Cl  Cl83  1  0.95397000  0.90050000  0.88845000  1.0
  Cl  Cl84  1  0.85401000  0.09934000  0.61164000  1.0
  Cl  Cl85  1  0.04603000  0.09950000  0.11156000  1.0
