# generated using pymatgen
data_ZnH6C13N(OF)4
_symmetry_space_group_name_H-M   'P 1'
_cell_length_a   10.21120000
_cell_length_b   10.98950000
_cell_length_c   11.25740000
_cell_angle_alpha   88.19540000
_cell_angle_beta   84.04170000
_cell_angle_gamma   81.69370000
_symmetry_Int_Tables_number   1
_chemical_formula_structural   ZnH6C13N(OF)4
_chemical_formula_sum   'Zn2 H12 C26 N2 O8 F8'
_cell_volume   1243.08094476
_cell_formula_units_Z   2
loop_
 _symmetry_equiv_pos_site_id
 _symmetry_equiv_pos_as_xyz
  1  'x, y, z'
loop_
 _atom_site_type_symbol
 _atom_site_label
 _atom_site_symmetry_multiplicity
 _atom_site_fract_x
 _atom_site_fract_y
 _atom_site_fract_z
 _atom_site_occupancy
  Zn  Zn0  1  0.36089000  0.51553000  0.49280000  1.0
  Zn  Zn1  1  0.63912000  0.48447000  0.50720000  1.0
  H  H2  1  0.39892000  0.77554000  0.32255000  1.0
  H  H3  1  0.94790000  0.71531000  0.46100000  1.0
  H  H4  1  0.93053000  0.63340000  0.33093000  1.0
  H  H5  1  0.78981000  0.67526000  0.43696000  1.0
  H  H6  1  0.60106000  0.22446000  0.67745000  1.0
  H  H7  1  0.32395000  0.47008000  0.90006000  1.0
  H  H8  1  0.67605000  0.52992000  0.09995000  1.0
  H  H9  1  0.13095000  0.61810000  0.42463000  1.0
  H  H10  1  0.86906000  0.38190000  0.57539000  1.0
  H  H11  1  0.05210000  0.28468000  0.53900000  1.0
  H  H12  1  0.21019000  0.32473000  0.56304000  1.0
  H  H13  1  0.06947000  0.36659000  0.66907000  1.0
  C  C14  1  0.55172000  0.52834000  0.27084000  1.0
  C  C15  1  0.52516000  0.26110000  0.47476000  1.0
  C  C16  1  0.41717000  0.87062000  0.31114000  1.0
  C  C17  1  0.58283000  0.12939000  0.68885000  1.0
  C  C18  1  0.39729000  0.92967000  0.20469000  1.0
  C  C19  1  0.60272000  0.07033000  0.79530000  1.0
  C  C20  1  0.42081000  0.05299000  0.18393000  1.0
  C  C21  1  0.57920000  0.94701000  0.81606000  1.0
  C  C22  1  0.46285000  0.11534000  0.27348000  1.0
  C  C23  1  0.53715000  0.88466000  0.72651000  1.0
  C  C24  1  0.48032000  0.06130000  0.38893000  1.0
  C  C25  1  0.44828000  0.47166000  0.72916000  1.0
  C  C26  1  0.51968000  0.93871000  0.61107000  1.0
  C  C27  1  0.45859000  0.93437000  0.40626000  1.0
  C  C28  1  0.54140000  0.06563000  0.59373000  1.0
  C  C29  1  0.51947000  0.12486000  0.48286000  1.0
  C  C30  1  0.48053000  0.87514000  0.51714000  1.0
  C  C31  1  0.10289000  0.35598000  0.57329000  1.0
  C  C32  1  0.89711000  0.64401000  0.42670000  1.0
  C  C33  1  0.57510000  0.52481000  0.13935000  1.0
  C  C34  1  0.42491000  0.47520000  0.86066000  1.0
  C  C35  1  0.48554000  0.50614000  0.06445000  1.0
  C  C36  1  0.51445000  0.49388000  0.93556000  1.0
  C  C37  1  0.92863000  0.52439000  0.49162000  1.0
  C  C38  1  0.07137000  0.47560000  0.50838000  1.0
  C  C39  1  0.47484000  0.73890000  0.52524000  1.0
  N  N40  1  0.83577000  0.46253000  0.53274000  1.0
  N  N41  1  0.16424000  0.53747000  0.46727000  1.0
  O  O42  1  0.43228000  0.54714000  0.31975000  1.0
  O  O43  1  0.56773000  0.45285000  0.68026000  1.0
  O  O44  1  0.65647000  0.51116000  0.32549000  1.0
  O  O45  1  0.34354000  0.48884000  0.67451000  1.0
  O  O46  1  0.36310000  0.70191000  0.52435000  1.0
  O  O47  1  0.63691000  0.29809000  0.47564000  1.0
  O  O48  1  0.58769000  0.67228000  0.52498000  1.0
  O  O49  1  0.41231000  0.32772000  0.47502000  1.0
  F  F50  1  0.59625000  0.89304000  0.92372000  1.0
  F  F51  1  0.40377000  0.10695000  0.07626000  1.0
  F  F52  1  0.35477000  0.87228000  0.11415000  1.0
  F  F53  1  0.64525000  0.12771000  0.88583000  1.0
  F  F54  1  0.49119000  0.23041000  0.24775000  1.0
  F  F55  1  0.50881000  0.76959000  0.75224000  1.0
  F  F56  1  0.64197000  0.50572000  0.89682000  1.0
  F  F57  1  0.35803000  0.49431000  0.10320000  1.0
