# generated using pymatgen
data_ErH27C22(NO5)2
_symmetry_space_group_name_H-M   'P 1'
_cell_length_a   9.12522000
_cell_length_b   11.86840000
_cell_length_c   12.72210000
_cell_angle_alpha   85.66760000
_cell_angle_beta   71.07850000
_cell_angle_gamma   68.91560000
_symmetry_Int_Tables_number   1
_chemical_formula_structural   ErH27C22(NO5)2
_chemical_formula_sum   'Er2 H54 C44 N4 O20'
_cell_volume   1214.79446792
_cell_formula_units_Z   2
loop_
 _symmetry_equiv_pos_site_id
 _symmetry_equiv_pos_as_xyz
  1  'x, y, z'
loop_
 _atom_site_type_symbol
 _atom_site_label
 _atom_site_symmetry_multiplicity
 _atom_site_fract_x
 _atom_site_fract_y
 _atom_site_fract_z
 _atom_site_occupancy
  Er  Er0  1  0.84622000  0.89649000  0.52272000  1.0
  Er  Er1  1  0.15378000  0.10351000  0.47728000  1.0
  H  H2  1  0.88183000  0.26926000  0.32985000  1.0
  H  H3  1  0.11816000  0.73075000  0.67015000  1.0
  H  H4  1  0.63899000  0.19158000  0.25691000  1.0
  H  H5  1  0.36102000  0.80843000  0.74308000  1.0
  H  H6  1  0.78461000  0.39555000  0.18559000  1.0
  H  H7  1  0.21539000  0.60445000  0.81440000  1.0
  H  H8  1  0.58542000  0.40186000  0.18557000  1.0
  H  H9  1  0.41459000  0.59814000  0.81443000  1.0
  H  H10  1  0.76617000  0.30256000  0.09027000  1.0
  H  H11  1  0.23383000  0.69744000  0.90973000  1.0
  H  H12  1  0.27867000  0.57956000  0.25197000  1.0
  H  H13  1  0.72133000  0.42044000  0.74803000  1.0
  H  H14  1  0.27321000  0.82253000  0.14608000  1.0
  H  H15  1  0.72678000  0.17747000  0.85391000  1.0
  H  H16  1  0.57164000  0.67745000  0.06687000  1.0
  H  H17  1  0.42835000  0.32255000  0.93313000  1.0
  H  H18  1  0.45616000  0.68437000  0.97866000  1.0
  H  H19  1  0.54383000  0.31563000  0.02134000  1.0
  H  H20  1  0.49661000  0.55740000  0.06548000  1.0
  H  H21  1  0.50339000  0.44260000  0.93451000  1.0
  H  H22  1  0.74270000  0.62443000  0.89210000  1.0
  H  H23  1  0.25729000  0.37557000  0.10790000  1.0
  H  H24  1  0.04794000  0.54929000  0.68254000  1.0
  H  H25  1  0.95205000  0.45071000  0.31746000  1.0
  H  H26  1  0.95544000  0.43027000  0.91024000  1.0
  H  H27  1  0.04456000  0.56974000  0.08976000  1.0
  H  H28  1  0.16088000  0.42327000  0.83275000  1.0
  H  H29  1  0.83912000  0.57674000  0.16724000  1.0
  H  H30  1  0.06331000  0.34817000  0.77967000  1.0
  H  H31  1  0.93669000  0.65184000  0.22032000  1.0
  H  H32  1  0.49829000  0.81889000  0.36300000  1.0
  H  H33  1  0.50171000  0.18111000  0.63700000  1.0
  H  H34  1  0.36741000  0.66274000  0.40277000  1.0
  H  H35  1  0.63259000  0.33726000  0.59723000  1.0
  H  H36  1  0.74461000  0.45836000  0.55227000  1.0
  H  H37  1  0.25538000  0.54164000  0.44775000  1.0
  H  H38  1  0.85308000  0.62595000  0.51006000  1.0
  H  H39  1  0.14692000  0.37406000  0.48995000  1.0
  H  H40  1  0.47177000  0.93476000  0.60137000  1.0
  H  H41  1  0.52823000  0.06524000  0.39863000  1.0
  H  H42  1  0.56571000  0.89162000  0.69397000  1.0
  H  H43  1  0.43428000  0.10838000  0.30603000  1.0
  H  H44  1  0.83521000  0.06125000  0.68773000  1.0
  H  H45  1  0.16479000  0.93874000  0.31227000  1.0
  H  H46  1  0.65465000  0.04748000  0.74165000  1.0
  H  H47  1  0.34534000  0.95252000  0.25835000  1.0
  H  H48  1  0.69667000  0.89569000  0.26363000  1.0
  H  H49  1  0.30334000  0.10431000  0.73637000  1.0
  H  H50  1  0.93720000  0.95767000  0.19350000  1.0
  H  H51  1  0.06281000  0.04232000  0.80650000  1.0
  H  H52  1  0.87995000  0.97189000  0.86580000  1.0
  H  H53  1  0.12006000  0.02810000  0.13420000  1.0
  H  H54  1  0.63878000  0.90806000  0.95110000  1.0
  H  H55  1  0.36123000  0.09193000  0.04890000  1.0
  C  C56  1  0.80378000  0.12195000  0.40683000  1.0
  C  C57  1  0.19622000  0.87805000  0.59317000  1.0
  C  C58  1  0.80194000  0.21976000  0.32863000  1.0
  C  C59  1  0.19806000  0.78024000  0.67136000  1.0
  C  C60  1  0.71468000  0.24482000  0.25731000  1.0
  C  C61  1  0.28532000  0.75518000  0.74268000  1.0
  C  C62  1  0.71358000  0.34179000  0.17608000  1.0
  C  C63  1  0.28643000  0.65821000  0.82392000  1.0
  C  C64  1  0.10469000  0.75183000  0.33749000  1.0
  C  C65  1  0.89531000  0.24817000  0.66252000  1.0
  C  C66  1  0.23886000  0.67716000  0.24221000  1.0
  C  C67  1  0.76114000  0.32284000  0.75779000  1.0
  C  C68  1  0.31708000  0.72445000  0.15192000  1.0
  C  C69  1  0.68292000  0.27555000  0.84808000  1.0
  C  C70  1  0.46713000  0.65530000  0.06076000  1.0
  C  C71  1  0.53286000  0.34470000  0.93924000  1.0
  C  C72  1  0.75709000  0.73493000  0.74590000  1.0
  C  C73  1  0.24290000  0.26507000  0.25410000  1.0
  C  C74  1  0.82436000  0.62871000  0.80871000  1.0
  C  C75  1  0.17563000  0.37129000  0.19130000  1.0
  C  C76  1  0.97229000  0.54053000  0.76710000  1.0
  C  C77  1  0.02771000  0.45948000  0.23290000  1.0
  C  C78  1  0.04020000  0.43065000  0.82627000  1.0
  C  C79  1  0.95980000  0.56935000  0.17372000  1.0
  C  C80  1  0.54412000  0.73697000  0.40513000  1.0
  C  C81  1  0.45588000  0.26303000  0.59488000  1.0
  C  C82  1  0.47501000  0.64854000  0.42843000  1.0
  C  C83  1  0.52499000  0.35146000  0.57158000  1.0
  C  C84  1  0.53840000  0.54605000  0.48569000  1.0
  C  C85  1  0.46159000  0.45395000  0.51431000  1.0
  C  C86  1  0.67889000  0.53719000  0.51396000  1.0
  C  C87  1  0.32110000  0.46281000  0.48605000  1.0
  C  C88  1  0.74506000  0.62746000  0.49027000  1.0
  C  C89  1  0.25494000  0.37255000  0.50974000  1.0
  C  C90  1  0.74105000  0.91621000  0.17690000  1.0
  C  C91  1  0.25896000  0.08378000  0.82310000  1.0
  C  C92  1  0.87552000  0.95251000  0.13472000  1.0
  C  C93  1  0.12450000  0.04748000  0.86528000  1.0
  C  C94  1  0.93024000  0.97858000  0.02209000  1.0
  C  C95  1  0.06977000  0.02142000  0.97791000  1.0
  C  C96  1  0.84383000  0.95964000  0.95507000  1.0
  C  C97  1  0.15618000  0.04035000  0.04493000  1.0
  C  C98  1  0.70898000  0.92363000  0.99964000  1.0
  C  C99  1  0.29103000  0.07637000  0.00036000  1.0
  N  N100  1  0.67630000  0.72723000  0.43774000  1.0
  N  N101  1  0.32371000  0.27277000  0.56226000  1.0
  N  N102  1  0.65497000  0.90475000  0.11083000  1.0
  N  N103  1  0.34504000  0.09525000  0.88917000  1.0
  O  O104  1  0.70915000  0.06040000  0.42214000  1.0
  O  O105  1  0.29085000  0.93960000  0.57786000  1.0
  O  O106  1  0.90692000  0.09533000  0.46171000  1.0
  O  O107  1  0.09308000  0.90467000  0.53829000  1.0
  O  O108  1  0.03549000  0.86703000  0.33115000  1.0
  O  O109  1  0.96451000  0.13297000  0.66885000  1.0
  O  O110  1  0.06053000  0.70248000  0.42896000  1.0
  O  O111  1  0.93946000  0.29752000  0.57104000  1.0
  O  O112  1  0.85172000  0.74909000  0.64982000  1.0
  O  O113  1  0.14826000  0.25092000  0.35018000  1.0
  O  O114  1  0.60790000  0.80472000  0.79079000  1.0
  O  O115  1  0.39209000  0.19528000  0.20921000  1.0
  O  O116  1  0.73733000  0.81416000  0.41538000  1.0
  O  O117  1  0.26267000  0.18584000  0.58462000  1.0
  O  O118  1  0.56473000  0.93813000  0.62342000  1.0
  O  O119  1  0.43526000  0.06187000  0.37658000  1.0
  O  O120  1  0.76744000  0.01168000  0.68669000  1.0
  O  O121  1  0.23256000  0.98833000  0.31331000  1.0
  O  O122  1  0.52469000  0.87327000  0.15252000  1.0
  O  O123  1  0.47532000  0.12673000  0.84748000  1.0
