# generated using pymatgen
data_CdH10C16N2O5
_symmetry_space_group_name_H-M   'P 1'
_cell_length_a   7.77709000
_cell_length_b   9.18885000
_cell_length_c   19.72800000
_cell_angle_alpha   90.00000000
_cell_angle_beta   90.12060000
_cell_angle_gamma   90.00000000
_symmetry_Int_Tables_number   1
_chemical_formula_structural   CdH10C16N2O5
_chemical_formula_sum   'Cd4 H40 C64 N8 O20'
_cell_volume   1409.80934221
_cell_formula_units_Z   4
loop_
 _symmetry_equiv_pos_site_id
 _symmetry_equiv_pos_as_xyz
  1  'x, y, z'
loop_
 _atom_site_type_symbol
 _atom_site_label
 _atom_site_symmetry_multiplicity
 _atom_site_fract_x
 _atom_site_fract_y
 _atom_site_fract_z
 _atom_site_occupancy
  Cd  Cd0  1  0.15348000  0.03948000  0.92526000  1.0
  Cd  Cd1  1  0.84652000  0.53948000  0.07474000  1.0
  Cd  Cd2  1  0.65420000  0.65149000  0.57465000  1.0
  Cd  Cd3  1  0.34580000  0.15149000  0.42535000  1.0
  H  H4  1  0.04866000  0.22370000  0.02854000  1.0
  H  H5  1  0.95134000  0.72371000  0.97146000  1.0
  H  H6  1  0.25444000  0.24129000  0.01820000  1.0
  H  H7  1  0.74556000  0.74130000  0.98180000  1.0
  H  H8  1  0.05768000  0.40120000  0.93058000  1.0
  H  H9  1  0.94232000  0.90119000  0.06942000  1.0
  H  H10  1  0.95622000  0.59781000  0.85318000  1.0
  H  H11  1  0.04379000  0.09781000  0.14682000  1.0
  H  H12  1  0.93043000  0.54301000  0.72776000  1.0
  H  H13  1  0.06957000  0.04301000  0.27224000  1.0
  H  H14  1  0.93996000  0.36045000  0.63520000  1.0
  H  H15  1  0.06004000  0.86045000  0.36480000  1.0
  H  H16  1  0.01633000  0.11350000  0.59536000  1.0
  H  H17  1  0.98367000  0.61351000  0.40464000  1.0
  H  H18  1  0.12165000  0.86093000  0.62133000  1.0
  H  H19  1  0.87836000  0.36093000  0.37867000  1.0
  H  H20  1  0.22038000  0.68119000  0.70739000  1.0
  H  H21  1  0.77963000  0.18119000  0.29261000  1.0
  H  H22  1  0.22331000  0.75395000  0.83062000  1.0
  H  H23  1  0.77670000  0.25394000  0.16938000  1.0
  H  H24  1  0.54818000  0.46748000  0.47139000  1.0
  H  H25  1  0.45182000  0.96748000  0.52861000  1.0
  H  H26  1  0.75408000  0.44988000  0.48176000  1.0
  H  H27  1  0.24592000  0.94988000  0.51824000  1.0
  H  H28  1  0.72434000  0.93674000  0.66948000  1.0
  H  H29  1  0.27566000  0.43674000  0.33052000  1.0
  H  H30  1  0.71981000  0.00970000  0.79268000  1.0
  H  H31  1  0.28020000  0.50971000  0.20732000  1.0
  H  H32  1  0.61996000  0.83003000  0.87841000  1.0
  H  H33  1  0.38004000  0.33003000  0.12159000  1.0
  H  H34  1  0.51438000  0.57766000  0.90406000  1.0
  H  H35  1  0.48561000  0.07766000  0.09594000  1.0
  H  H36  1  0.43844000  0.33059000  0.86406000  1.0
  H  H37  1  0.56155000  0.83059000  0.13594000  1.0
  H  H38  1  0.42961000  0.14797000  0.77167000  1.0
  H  H39  1  0.57038000  0.64796000  0.22833000  1.0
  H  H40  1  0.45669000  0.09263000  0.64638000  1.0
  H  H41  1  0.54330000  0.59263000  0.35361000  1.0
  H  H42  1  0.55929000  0.28885000  0.56916000  1.0
  H  H43  1  0.44071000  0.78885000  0.43084000  1.0
  C  C44  1  0.09351000  0.06525000  0.76615000  1.0
  C  C45  1  0.90649000  0.56526000  0.23385000  1.0
  C  C46  1  0.05522000  0.21174000  0.78899000  1.0
  C  C47  1  0.94478000  0.71173000  0.21102000  1.0
  C  C48  1  0.04038000  0.37978000  0.87657000  1.0
  C  C49  1  0.95962000  0.87978000  0.12343000  1.0
  C  C50  1  0.98529000  0.49076000  0.83249000  1.0
  C  C51  1  0.01471000  0.99075000  0.16751000  1.0
  C  C52  1  0.96827000  0.45973000  0.76426000  1.0
  C  C53  1  0.03173000  0.95972000  0.23574000  1.0
  C  C54  1  0.00191000  0.31736000  0.74059000  1.0
  C  C55  1  0.99810000  0.81736000  0.25941000  1.0
  C  C56  1  0.98524000  0.27814000  0.67067000  1.0
  C  C57  1  0.01476000  0.77814000  0.32934000  1.0
  C  C58  1  0.02586000  0.14140000  0.64894000  1.0
  C  C59  1  0.97413000  0.64140000  0.35106000  1.0
  C  C60  1  0.08269000  0.03233000  0.69575000  1.0
  C  C61  1  0.91731000  0.53233000  0.30425000  1.0
  C  C62  1  0.12937000  0.89071000  0.67472000  1.0
  C  C63  1  0.87064000  0.39072000  0.32528000  1.0
  C  C64  1  0.18249000  0.79038000  0.72256000  1.0
  C  C65  1  0.81751000  0.29038000  0.27744000  1.0
  C  C66  1  0.18513000  0.83074000  0.79114000  1.0
  C  C67  1  0.81488000  0.33073000  0.20886000  1.0
  C  C68  1  0.74335000  0.10346000  0.95098000  1.0
  C  C69  1  0.25665000  0.60346000  0.04902000  1.0
  C  C70  1  0.55684000  0.12157000  0.93772000  1.0
  C  C71  1  0.44316000  0.62158000  0.06228000  1.0
  C  C72  1  0.55195000  0.24693000  0.98474000  1.0
  C  C73  1  0.44805000  0.74693000  0.01525000  1.0
  C  C74  1  0.73807000  0.23195000  0.99635000  1.0
  C  C75  1  0.26194000  0.73196000  0.00364000  1.0
  C  C76  1  0.55594000  0.47884000  0.71064000  1.0
  C  C77  1  0.44405000  0.97884000  0.28936000  1.0
  C  C78  1  0.59405000  0.62537000  0.73355000  1.0
  C  C79  1  0.40595000  0.12537000  0.26645000  1.0
  C  C80  1  0.68578000  0.85998000  0.70883000  1.0
  C  C81  1  0.31423000  0.35998000  0.29117000  1.0
  C  C82  1  0.68217000  0.90047000  0.77739000  1.0
  C  C83  1  0.31783000  0.40047000  0.22261000  1.0
  C  C84  1  0.62842000  0.80015000  0.82505000  1.0
  C  C85  1  0.37158000  0.30015000  0.17495000  1.0
  C  C86  1  0.58222000  0.65847000  0.80389000  1.0
  C  C87  1  0.41778000  0.15847000  0.19611000  1.0
  C  C88  1  0.52468000  0.54956000  0.85055000  1.0
  C  C89  1  0.47531000  0.04957000  0.14945000  1.0
  C  C90  1  0.48428000  0.41279000  0.82873000  1.0
  C  C91  1  0.51571000  0.91280000  0.17127000  1.0
  C  C92  1  0.50190000  0.37340000  0.75891000  1.0
  C  C93  1  0.49809000  0.87340000  0.24109000  1.0
  C  C94  1  0.46818000  0.23099000  0.73523000  1.0
  C  C95  1  0.53181000  0.73099000  0.26477000  1.0
  C  C96  1  0.48588000  0.19972000  0.66708000  1.0
  C  C97  1  0.51411000  0.69972000  0.33292000  1.0
  C  C98  1  0.54164000  0.31051000  0.62312000  1.0
  C  C99  1  0.45836000  0.81051000  0.37688000  1.0
  C  C100  1  0.24380000  0.58844000  0.54865000  1.0
  C  C101  1  0.75620000  0.08844000  0.45135000  1.0
  C  C102  1  0.23797000  0.45977000  0.50337000  1.0
  C  C103  1  0.76203000  0.95977000  0.49663000  1.0
  C  C104  1  0.05204000  0.44481000  0.51506000  1.0
  C  C105  1  0.94796000  0.94481000  0.48493000  1.0
  C  C106  1  0.05743000  0.57039000  0.56194000  1.0
  C  C107  1  0.94257000  0.07039000  0.43806000  1.0
  N  N108  1  0.14178000  0.96338000  0.81213000  1.0
  N  N109  1  0.85822000  0.46338000  0.18787000  1.0
  N  N110  1  0.07490000  0.24539000  0.85551000  1.0
  N  N111  1  0.92510000  0.74539000  0.14449000  1.0
  N  N112  1  0.57626000  0.44499000  0.64419000  1.0
  N  N113  1  0.42374000  0.94499000  0.35581000  1.0
  N  N114  1  0.64287000  0.72722000  0.68772000  1.0
  N  N115  1  0.35713000  0.22722000  0.31228000  1.0
  O  O116  1  0.15896000  0.16786000  0.02432000  1.0
  O  O117  1  0.84104000  0.66786000  0.97568000  1.0
  O  O118  1  0.85481000  0.01344000  0.93168000  1.0
  O  O119  1  0.14519000  0.51344000  0.06832000  1.0
  O  O120  1  0.44690000  0.06071000  0.90037000  1.0
  O  O121  1  0.55310000  0.56071000  0.09963000  1.0
  O  O122  1  0.43374000  0.32864000  0.00564000  1.0
  O  O123  1  0.56627000  0.82865000  0.99437000  1.0
  O  O124  1  0.85081000  0.29919000  0.03166000  1.0
  O  O125  1  0.14920000  0.79919000  0.96834000  1.0
  O  O126  1  0.65856000  0.52331000  0.47560000  1.0
  O  O127  1  0.34144000  0.02331000  0.52440000  1.0
  O  O128  1  0.35551000  0.67841000  0.56792000  1.0
  O  O129  1  0.64449000  0.17841000  0.43208000  1.0
  O  O130  1  0.35038000  0.39225000  0.46821000  1.0
  O  O131  1  0.64962000  0.89226000  0.53179000  1.0
  O  O132  1  0.93362000  0.36281000  0.49441000  1.0
  O  O133  1  0.06638000  0.86281000  0.50559000  1.0
  O  O134  1  0.94783000  0.63113000  0.59933000  1.0
  O  O135  1  0.05217000  0.13114000  0.40067000  1.0
