# generated using pymatgen
data_NaH18AuC18S6(N3O)2
_symmetry_space_group_name_H-M   'P 1'
_cell_length_a   8.49310000
_cell_length_b   8.72855000
_cell_length_c   8.99553000
_cell_angle_alpha   107.16300000
_cell_angle_beta   94.50970000
_cell_angle_gamma   97.80700000
_symmetry_Int_Tables_number   1
_chemical_formula_structural   NaH18AuC18S6(N3O)2
_chemical_formula_sum   'Na1 H18 Au1 C18 S6 N6 O2'
_cell_volume   626.27548859
_cell_formula_units_Z   1
loop_
 _symmetry_equiv_pos_site_id
 _symmetry_equiv_pos_as_xyz
  1  'x, y, z'
loop_
 _atom_site_type_symbol
 _atom_site_label
 _atom_site_symmetry_multiplicity
 _atom_site_fract_x
 _atom_site_fract_y
 _atom_site_fract_z
 _atom_site_occupancy
  Na  Na0  1  0.50000000  0.00000000  0.50000000  1.0
  H  H1  1  0.53250000  0.40652000  0.76566000  1.0
  H  H2  1  0.46749000  0.59348000  0.23436000  1.0
  H  H3  1  0.14991000  0.67047000  0.50394000  1.0
  H  H4  1  0.85010000  0.32953000  0.49606000  1.0
  H  H5  1  0.70479000  0.24223000  0.90972000  1.0
  H  H6  1  0.29520000  0.75775000  0.09024000  1.0
  H  H7  1  0.89957000  0.30042000  0.09500000  1.0
  H  H8  1  0.10041000  0.69958000  0.90498000  1.0
  H  H9  1  0.06776000  0.20348000  0.04151000  1.0
  H  H10  1  0.93222000  0.79652000  0.95851000  1.0
  H  H11  1  0.07874000  0.41273000  0.06173000  1.0
  H  H12  1  0.92124000  0.58726000  0.93828000  1.0
  H  H13  1  0.98935000  0.19824000  0.62796000  1.0
  H  H14  1  0.01068000  0.80178000  0.37205000  1.0
  H  H15  1  0.13167000  0.35383000  0.77036000  1.0
  H  H16  1  0.86835000  0.64617000  0.22967000  1.0
  H  H17  1  0.12669000  0.14584000  0.75867000  1.0
  H  H18  1  0.87333000  0.85416000  0.24134000  1.0
  Au  Au19  1  0.50000000  0.00001000  0.00000000  1.0
  C  C20  1  0.33320000  0.70332000  0.69565000  1.0
  C  C21  1  0.66679000  0.29668000  0.30435000  1.0
  C  C22  1  0.44133000  0.62794000  0.77196000  1.0
  C  C23  1  0.55866000  0.37206000  0.22805000  1.0
  C  C24  1  0.45083000  0.46410000  0.70894000  1.0
  C  C25  1  0.54915000  0.53590000  0.29107000  1.0
  C  C26  1  0.34924000  0.37165000  0.57104000  1.0
  C  C27  1  0.65075000  0.62835000  0.42897000  1.0
  C  C28  1  0.23751000  0.44696000  0.49743000  1.0
  C  C29  1  0.76249000  0.55305000  0.50257000  1.0
  C  C30  1  0.23155000  0.61357000  0.56098000  1.0
  C  C31  1  0.76845000  0.38642000  0.43902000  1.0
  C  C32  1  0.77770000  0.22165000  0.81106000  1.0
  C  C33  1  0.22232000  0.77833000  0.18892000  1.0
  C  C34  1  0.99808000  0.29494000  0.02295000  1.0
  C  C35  1  0.00191000  0.70506000  0.97706000  1.0
  C  C36  1  0.05255000  0.23658000  0.74713000  1.0
  C  C37  1  0.94747000  0.76342000  0.25288000  1.0
  S  S38  1  0.32561000  0.91194000  0.76781000  1.0
  S  S39  1  0.67439000  0.08806000  0.23218000  1.0
  S  S40  1  0.56289000  0.73887000  0.94797000  1.0
  S  S41  1  0.43710000  0.26114000  0.05202000  1.0
  S  S42  1  0.19701000  0.16578000  0.34884000  1.0
  S  S43  1  0.80299000  0.83423000  0.65117000  1.0
  N  N44  1  0.14441000  0.34126000  0.36955000  1.0
  N  N45  1  0.85559000  0.65875000  0.63045000  1.0
  N  N46  1  0.33761000  0.21028000  0.49624000  1.0
  N  N47  1  0.66238000  0.78972000  0.50376000  1.0
  N  N48  1  0.93594000  0.25201000  0.85813000  1.0
  N  N49  1  0.06406000  0.74799000  0.14187000  1.0
  O  O50  1  0.71435000  0.17372000  0.67173000  1.0
  O  O51  1  0.28567000  0.82627000  0.32824000  1.0
