# generated using pymatgen
data_MnH4C4N3ClO2
_symmetry_space_group_name_H-M   'P 1'
_cell_length_a   8.00666000
_cell_length_b   9.50993669
_cell_length_c   11.65200000
_cell_angle_alpha   91.24654948
_cell_angle_beta   110.08540000
_cell_angle_gamma   114.88329402
_symmetry_Int_Tables_number   1
_chemical_formula_structural   MnH4C4N3ClO2
_chemical_formula_sum   'Mn4 H16 C16 N12 Cl4 O8'
_cell_volume   741.37177747
_cell_formula_units_Z   4
loop_
 _symmetry_equiv_pos_site_id
 _symmetry_equiv_pos_as_xyz
  1  'x, y, z'
loop_
 _atom_site_type_symbol
 _atom_site_label
 _atom_site_symmetry_multiplicity
 _atom_site_fract_x
 _atom_site_fract_y
 _atom_site_fract_z
 _atom_site_occupancy
  Mn  Mn0  1  0.92059000  0.94566000  0.68976000  1.0
  Mn  Mn1  1  0.78503000  0.55413000  0.81012000  1.0
  Mn  Mn2  1  0.07941000  0.05434000  0.31024000  1.0
  Mn  Mn3  1  0.21496000  0.44587000  0.18988000  1.0
  H  H4  1  0.29334000  0.27414000  0.66313000  1.0
  H  H5  1  0.85608000  0.22585000  0.83696000  1.0
  H  H6  1  0.70666000  0.72586000  0.33687000  1.0
  H  H7  1  0.14392000  0.77415000  0.16304000  1.0
  H  H8  1  0.66594000  0.34485000  0.03811000  1.0
  H  H9  1  0.78294000  0.15496000  0.46193000  1.0
  H  H10  1  0.33406000  0.65515000  0.96189000  1.0
  H  H11  1  0.21706000  0.84504000  0.53806000  1.0
  H  H12  1  0.44210000  0.07305000  0.08006000  1.0
  H  H13  1  0.78928000  0.42694000  0.42003000  1.0
  H  H14  1  0.55791000  0.92695000  0.91994000  1.0
  H  H15  1  0.21072000  0.57306000  0.57997000  1.0
  H  H16  1  0.20073000  0.95428000  0.96152000  1.0
  H  H17  1  0.78507000  0.54574000  0.53854000  1.0
  H  H18  1  0.79927000  0.04572000  0.03848000  1.0
  H  H19  1  0.21493000  0.45426000  0.46146000  1.0
  C  C20  1  0.34793000  0.26185000  0.75938000  1.0
  C  C21  1  0.82666000  0.23809000  0.74070000  1.0
  C  C22  1  0.65206000  0.73814000  0.24062000  1.0
  C  C23  1  0.17335000  0.76192000  0.25930000  1.0
  C  C24  1  0.53994000  0.30014000  0.94888000  1.0
  C  C25  1  0.79090000  0.19973000  0.55117000  1.0
  C  C26  1  0.46006000  0.69986000  0.05112000  1.0
  C  C27  1  0.20910000  0.80027000  0.44883000  1.0
  C  C28  1  0.30813000  0.07526000  0.01244000  1.0
  C  C29  1  0.72064000  0.42476000  0.48762000  1.0
  C  C30  1  0.69187000  0.92474000  0.98756000  1.0
  C  C31  1  0.27936000  0.57524000  0.51237000  1.0
  C  C32  1  0.21975000  0.13875000  0.08608000  1.0
  C  C33  1  0.49528000  0.36135000  0.41395000  1.0
  C  C34  1  0.78025000  0.86125000  0.91392000  1.0
  C  C35  1  0.50472000  0.63865000  0.58605000  1.0
  N  N36  1  0.24118000  0.14486000  0.80412000  1.0
  N  N37  1  0.79231000  0.35515000  0.69596000  1.0
  N  N38  1  0.75882000  0.85514000  0.19588000  1.0
  N  N39  1  0.20770000  0.64486000  0.30404000  1.0
  N  N40  1  0.36705000  0.17055000  0.92513000  1.0
  N  N41  1  0.77150000  0.32944000  0.57494000  1.0
  N  N42  1  0.63295000  0.82945000  0.07487000  1.0
  N  N43  1  0.22851000  0.67057000  0.42506000  1.0
  N  N44  1  0.53311000  0.35992000  0.84554000  1.0
  N  N45  1  0.82753000  0.13992000  0.65452000  1.0
  N  N46  1  0.46689000  0.64008000  0.15446000  1.0
  N  N47  1  0.17247000  0.86008000  0.34548000  1.0
  Cl  Cl48  1  0.00000000  0.00000000  0.50000000  1.0
  Cl  Cl49  1  0.00000000  0.50000000  1.00000000  1.0
  Cl  Cl50  1  0.06733000  0.74992000  0.74996000  1.0
  Cl  Cl51  1  0.93267000  0.25008000  0.25004000  1.0
  O  O52  1  0.14697000  0.04451000  0.15101000  1.0
  O  O53  1  0.45193000  0.45551000  0.34890000  1.0
  O  O54  1  0.85303000  0.95549000  0.84899000  1.0
  O  O55  1  0.54807000  0.54449000  0.65110000  1.0
  O  O56  1  0.23063000  0.27411000  0.07854000  1.0
  O  O57  1  0.37827000  0.22606000  0.42161000  1.0
  O  O58  1  0.76936000  0.72588000  0.92146000  1.0
  O  O59  1  0.62173000  0.77394000  0.57839000  1.0
