# generated using pymatgen
data_NdH8C6SNO9
_symmetry_space_group_name_H-M   'P 1'
_cell_length_a   7.31151000
_cell_length_b   10.39008245
_cell_length_c   15.92750000
_cell_angle_alpha   78.27551935
_cell_angle_beta   77.33500000
_cell_angle_gamma   69.48250612
_symmetry_Int_Tables_number   1
_chemical_formula_structural   NdH8C6SNO9
_chemical_formula_sum   'Nd4 H32 C24 S4 N4 O36'
_cell_volume   1095.01865447
_cell_formula_units_Z   4
loop_
 _symmetry_equiv_pos_site_id
 _symmetry_equiv_pos_as_xyz
  1  'x, y, z'
loop_
 _atom_site_type_symbol
 _atom_site_label
 _atom_site_symmetry_multiplicity
 _atom_site_fract_x
 _atom_site_fract_y
 _atom_site_fract_z
 _atom_site_occupancy
  Nd  Nd0  1  0.29343000  0.50937000  0.92847000  1.0
  Nd  Nd1  1  0.73348000  0.99070000  0.57131000  1.0
  Nd  Nd2  1  0.70657000  0.49063000  0.07152000  1.0
  Nd  Nd3  1  0.26652000  0.00930000  0.42869000  1.0
  H  H4  1  0.37733000  0.39409000  0.76335000  1.0
  H  H5  1  0.54093000  0.10643000  0.73655000  1.0
  H  H6  1  0.62267000  0.60591000  0.23665000  1.0
  H  H7  1  0.45907000  0.89357000  0.26345000  1.0
  H  H8  1  0.15697000  0.39603000  0.79663000  1.0
  H  H9  1  0.35554000  0.10400000  0.70255000  1.0
  H  H10  1  0.84303000  0.60397000  0.20337000  1.0
  H  H11  1  0.64446000  0.89600000  0.29745000  1.0
  H  H12  1  0.15145000  0.72504000  0.77153000  1.0
  H  H13  1  0.65098000  0.77466000  0.72765000  1.0
  H  H14  1  0.84855000  0.27496000  0.22847000  1.0
  H  H15  1  0.34902000  0.22534000  0.27235000  1.0
  H  H16  1  0.97307000  0.66179000  0.80902000  1.0
  H  H17  1  0.44745000  0.83920000  0.68953000  1.0
  H  H18  1  0.02693000  0.33821000  0.19097000  1.0
  H  H19  1  0.55255000  0.16080000  0.31047000  1.0
  H  H20  1  0.76848000  0.80304000  0.89182000  1.0
  H  H21  1  0.46715000  0.69649000  0.60746000  1.0
  H  H22  1  0.23153000  0.19696000  0.10818000  1.0
  H  H23  1  0.53284000  0.30350000  0.39254000  1.0
  H  H24  1  0.98371000  0.74790000  0.12114000  1.0
  H  H25  1  0.84975000  0.75223000  0.37930000  1.0
  H  H26  1  0.01629000  0.25210000  0.87886000  1.0
  H  H27  1  0.15025000  0.24776000  0.62071000  1.0
  H  H28  1  0.63157000  0.06382000  0.89041000  1.0
  H  H29  1  0.58997000  0.43592000  0.60894000  1.0
  H  H30  1  0.36842000  0.93619000  0.10959000  1.0
  H  H31  1  0.41004000  0.56407000  0.39106000  1.0
  H  H32  1  0.84611000  0.00412000  0.13158000  1.0
  H  H33  1  0.97903000  0.49595000  0.36897000  1.0
  H  H34  1  0.15389000  0.99588000  0.86842000  1.0
  H  H35  1  0.02097000  0.50405000  0.63104000  1.0
  C  C36  1  0.63824000  0.20831000  0.01375000  1.0
  C  C37  1  0.86065000  0.29159000  0.48601000  1.0
  C  C38  1  0.36177000  0.79169000  0.98625000  1.0
  C  C39  1  0.13935000  0.70841000  0.51399000  1.0
  C  C40  1  0.78264000  0.85524000  0.94138000  1.0
  C  C41  1  0.58136000  0.64457000  0.55803000  1.0
  C  C42  1  0.21737000  0.14476000  0.05862000  1.0
  C  C43  1  0.41863000  0.35543000  0.44197000  1.0
  C  C44  1  0.90098000  0.82349000  0.07348000  1.0
  C  C45  1  0.79621000  0.67657000  0.42661000  1.0
  C  C46  1  0.09902000  0.17651000  0.92652000  1.0
  C  C47  1  0.20379000  0.32343000  0.57339000  1.0
  C  C48  1  0.70784000  0.99691000  0.94264000  1.0
  C  C49  1  0.64970000  0.50287000  0.55681000  1.0
  C  C50  1  0.29216000  0.00310000  0.05735000  1.0
  C  C51  1  0.35031000  0.49712000  0.44319000  1.0
  C  C52  1  0.72533000  0.05413000  0.01157000  1.0
  C  C53  1  0.79129000  0.44581000  0.48818000  1.0
  C  C54  1  0.27468000  0.94587000  0.98843000  1.0
  C  C55  1  0.20871000  0.55419000  0.51183000  1.0
  C  C56  1  0.82518000  0.96478000  0.07720000  1.0
  C  C57  1  0.86543000  0.53528000  0.42289000  1.0
  C  C58  1  0.17483000  0.03522000  0.92280000  1.0
  C  C59  1  0.13458000  0.46471000  0.57711000  1.0
  S  S60  1  0.71682000  0.52720000  0.82595000  1.0
  S  S61  1  0.07473000  0.97279000  0.67421000  1.0
  S  S62  1  0.28318000  0.47280000  0.17405000  1.0
  S  S63  1  0.92527000  0.02721000  0.32579000  1.0
  N  N64  1  0.87516000  0.77131000  0.00706000  1.0
  N  N65  1  0.65358000  0.72864000  0.49265000  1.0
  N  N66  1  0.12484000  0.22869000  0.99294000  1.0
  N  N67  1  0.34642000  0.27135000  0.50736000  1.0
  O  O68  1  0.28957000  0.36654000  0.81384000  1.0
  O  O69  1  0.47549000  0.13326000  0.68565000  1.0
  O  O70  1  0.71042000  0.63347000  0.18616000  1.0
  O  O71  1  0.52451000  0.86674000  0.31435000  1.0
  O  O72  1  0.10437000  0.65897000  0.81864000  1.0
  O  O73  1  0.58578000  0.84093000  0.67991000  1.0
  O  O74  1  0.89563000  0.34103000  0.18136000  1.0
  O  O75  1  0.41422000  0.15907000  0.32009000  1.0
  O  O76  1  0.89826000  0.42211000  0.79169000  1.0
  O  O77  1  0.11877000  0.07797000  0.70839000  1.0
  O  O78  1  0.10174000  0.57789000  0.20831000  1.0
  O  O79  1  0.88124000  0.92202000  0.29161000  1.0
  O  O80  1  0.50514000  0.27315000  0.96686000  1.0
  O  O81  1  0.74732000  0.22664000  0.53267000  1.0
  O  O82  1  0.49486000  0.72685000  0.03314000  1.0
  O  O83  1  0.25268000  0.77336000  0.46733000  1.0
  O  O84  1  0.70502000  0.25933000  0.06160000  1.0
  O  O85  1  0.02448000  0.24072000  0.43840000  1.0
  O  O86  1  0.29498000  0.74067000  0.93839000  1.0
  O  O87  1  0.97552000  0.75928000  0.56160000  1.0
  O  O88  1  0.93951000  0.63332000  0.00692000  1.0
  O  O89  1  0.57997000  0.86660000  0.49271000  1.0
  O  O90  1  0.06048000  0.36669000  0.99308000  1.0
  O  O91  1  0.42002000  0.13340000  0.50729000  1.0
  O  O92  1  0.66271000  0.49364000  0.92343000  1.0
  O  O93  1  0.08209000  0.00580000  0.57665000  1.0
  O  O94  1  0.33728000  0.50637000  0.07657000  1.0
  O  O95  1  0.91791000  0.99420000  0.42335000  1.0
  O  O96  1  0.74488000  0.66641000  0.80727000  1.0
  O  O97  1  0.22210000  0.83332000  0.69373000  1.0
  O  O98  1  0.25513000  0.33359000  0.19273000  1.0
  O  O99  1  0.77790000  0.16668000  0.30627000  1.0
  O  O100  1  0.54094000  0.53194000  0.79087000  1.0
  O  O101  1  0.86940000  0.96897000  0.70878000  1.0
  O  O102  1  0.45906000  0.46806000  0.20912000  1.0
  O  O103  1  0.13060000  0.03103000  0.29122000  1.0
