# generated using pymatgen
data_Zn3H34C46(NO7)2
_symmetry_space_group_name_H-M   'P 1'
_cell_length_a   14.96900000
_cell_length_b   14.97210000
_cell_length_c   15.84390000
_cell_angle_alpha   103.48200000
_cell_angle_beta   103.49300000
_cell_angle_gamma   116.68000000
_symmetry_Int_Tables_number   1
_chemical_formula_structural   Zn3H34C46(NO7)2
_chemical_formula_sum   'Zn6 H68 C92 N4 O28'
_cell_volume   2842.37223690
_cell_formula_units_Z   2
loop_
 _symmetry_equiv_pos_site_id
 _symmetry_equiv_pos_as_xyz
  1  'x, y, z'
loop_
 _atom_site_type_symbol
 _atom_site_label
 _atom_site_symmetry_multiplicity
 _atom_site_fract_x
 _atom_site_fract_y
 _atom_site_fract_z
 _atom_site_occupancy
  Zn  Zn0  1  0.55717000  0.93527000  0.04715000  1.0
  Zn  Zn1  1  0.06441000  0.44257000  0.45234000  1.0
  Zn  Zn2  1  0.44287000  0.06493000  0.95280000  1.0
  Zn  Zn3  1  0.93532000  0.55730000  0.54756000  1.0
  Zn  Zn4  1  0.83138000  0.16846000  0.24984000  1.0
  Zn  Zn5  1  0.16868000  0.83151000  0.75018000  1.0
  H  H6  1  0.96028000  0.01643000  0.16001000  1.0
  H  H7  1  0.05310000  0.91486000  0.15261000  1.0
  H  H8  1  0.75008000  0.61908000  0.08040000  1.0
  H  H9  1  0.65944000  0.72431000  0.09071000  1.0
  H  H10  1  0.90509000  0.36778000  0.08203000  1.0
  H  H11  1  0.93419000  0.51326000  0.01974000  1.0
  H  H12  1  0.92184000  0.69783000  0.26543000  1.0
  H  H13  1  0.89163000  0.55132000  0.32671000  1.0
  H  H14  1  0.15887000  0.87957000  0.95549000  1.0
  H  H15  1  0.98749000  0.79061000  0.98142000  1.0
  H  H16  1  0.13555000  0.69320000  0.17898000  1.0
  H  H17  1  0.30328000  0.77466000  0.14542000  1.0
  H  H18  1  0.40023000  0.67035000  0.81493000  1.0
  H  H19  1  0.34372000  0.73063000  0.87637000  1.0
  H  H20  1  0.31808000  0.56618000  0.90534000  1.0
  H  H21  1  0.46191000  0.62412000  0.95219000  1.0
  H  H22  1  0.40326000  0.68380000  0.01293000  1.0
  H  H23  1  0.98346000  0.03974000  0.33996000  1.0
  H  H24  1  0.08500000  0.94689000  0.34738000  1.0
  H  H25  1  0.38089000  0.24973000  0.41939000  1.0
  H  H26  1  0.27568000  0.34039000  0.40906000  1.0
  H  H27  1  0.63221000  0.09481000  0.41774000  1.0
  H  H28  1  0.48672000  0.06571000  0.48007000  1.0
  H  H29  1  0.30199000  0.07804000  0.23438000  1.0
  H  H30  1  0.44851000  0.10827000  0.17307000  1.0
  H  H31  1  0.12051000  0.84111000  0.54451000  1.0
  H  H32  1  0.20934000  0.01240000  0.51847000  1.0
  H  H33  1  0.30672000  0.86438000  0.32089000  1.0
  H  H34  1  0.22532000  0.69673000  0.35449000  1.0
  H  H35  1  0.32925000  0.59954000  0.68487000  1.0
  H  H36  1  0.26912000  0.65615000  0.62345000  1.0
  H  H37  1  0.43374000  0.68188000  0.59475000  1.0
  H  H38  1  0.37584000  0.53811000  0.54780000  1.0
  H  H39  1  0.31629000  0.59684000  0.48702000  1.0
  H  H40  1  0.03976000  0.98357000  0.84010000  1.0
  H  H41  1  0.94692000  0.08512000  0.84745000  1.0
  H  H42  1  0.24987000  0.38086000  0.91941000  1.0
  H  H43  1  0.34054000  0.27566000  0.90915000  1.0
  H  H44  1  0.09524000  0.63230000  0.91793000  1.0
  H  H45  1  0.06607000  0.48678000  0.98021000  1.0
  H  H46  1  0.07815000  0.30208000  0.73440000  1.0
  H  H47  1  0.10837000  0.44859000  0.67311000  1.0
  H  H48  1  0.84098000  0.12052000  0.04434000  1.0
  H  H49  1  0.01237000  0.20934000  0.01842000  1.0
  H  H50  1  0.86454000  0.30694000  0.82089000  1.0
  H  H51  1  0.69680000  0.22561000  0.85442000  1.0
  H  H52  1  0.59996000  0.33000000  0.18497000  1.0
  H  H53  1  0.65652000  0.26974000  0.12362000  1.0
  H  H54  1  0.68199000  0.43402000  0.09439000  1.0
  H  H55  1  0.53816000  0.37602000  0.04757000  1.0
  H  H56  1  0.59682000  0.31631000  0.98689000  1.0
  H  H57  1  0.01660000  0.96023000  0.66000000  1.0
  H  H58  1  0.91508000  0.05309000  0.65263000  1.0
  H  H59  1  0.61921000  0.75032000  0.58082000  1.0
  H  H60  1  0.72438000  0.65961000  0.59108000  1.0
  H  H61  1  0.36779000  0.90495000  0.58238000  1.0
  H  H62  1  0.51330000  0.93412000  0.52006000  1.0
  H  H63  1  0.69815000  0.92198000  0.76582000  1.0
  H  H64  1  0.55161000  0.89169000  0.82713000  1.0
  H  H65  1  0.87945000  0.15899000  0.45563000  1.0
  H  H66  1  0.79075000  0.98771000  0.48170000  1.0
  H  H67  1  0.69321000  0.13556000  0.67925000  1.0
  H  H68  1  0.77449000  0.30321000  0.64563000  1.0
  H  H69  1  0.67020000  0.40011000  0.31516000  1.0
  H  H70  1  0.73042000  0.34353000  0.37649000  1.0
  H  H71  1  0.56599000  0.31796000  0.40556000  1.0
  H  H72  1  0.62400000  0.46175000  0.45248000  1.0
  H  H73  1  0.68365000  0.40302000  0.51314000  1.0
  C  C74  1  0.75367000  0.94297000  0.13430000  1.0
  C  C75  1  0.80439000  0.87689000  0.12557000  1.0
  C  C76  1  0.91504000  0.92929000  0.14166000  1.0
  C  C77  1  0.96656000  0.87239000  0.13730000  1.0
  C  C78  1  0.90759000  0.75975000  0.11475000  1.0
  C  C79  1  0.79617000  0.70633000  0.09846000  1.0
  C  C80  1  0.74564000  0.76471000  0.10399000  1.0
  C  C81  1  0.89137000  0.36967000  0.24965000  1.0
  C  C82  1  0.89949000  0.45234000  0.20889000  1.0
  C  C83  1  0.90984000  0.44075000  0.12177000  1.0
  C  C84  1  0.92609000  0.52148000  0.08730000  1.0
  C  C85  1  0.93219000  0.61518000  0.13984000  1.0
  C  C86  1  0.91701000  0.62493000  0.22501000  1.0
  C  C87  1  0.90137000  0.54409000  0.25959000  1.0
  C  C88  1  0.34501000  0.89195000  0.03618000  1.0
  C  C89  1  0.24201000  0.83443000  0.05066000  1.0
  C  C90  1  0.15264000  0.83869000  0.00433000  1.0
  C  C91  1  0.05762000  0.78958000  0.01922000  1.0
  C  C92  1  0.05177000  0.73981000  0.08479000  1.0
  C  C93  1  0.14015000  0.73248000  0.12902000  1.0
  C  C94  1  0.23386000  0.77872000  0.11100000  1.0
  C  C95  1  0.41128000  0.71577000  0.88760000  1.0
  C  C96  1  0.39777000  0.64241000  0.94312000  1.0
  C  C97  1  0.05693000  0.24622000  0.36547000  1.0
  C  C98  1  0.12306000  0.19554000  0.37429000  1.0
  C  C99  1  0.07063000  0.08494000  0.35828000  1.0
  C  C100  1  0.12750000  0.03339000  0.36265000  1.0
  C  C101  1  0.24016000  0.09229000  0.38512000  1.0
  C  C102  1  0.29361000  0.20366000  0.40135000  1.0
  C  C103  1  0.23525000  0.25422000  0.39581000  1.0
  C  C104  1  0.63020000  0.10849000  0.25005000  1.0
  C  C105  1  0.54753000  0.10034000  0.29085000  1.0
  C  C106  1  0.55917000  0.09002000  0.37798000  1.0
  C  C107  1  0.47845000  0.07378000  0.41248000  1.0
  C  C108  1  0.38470000  0.06765000  0.35994000  1.0
  C  C109  1  0.37492000  0.08285000  0.27478000  1.0
  C  C110  1  0.45575000  0.09849000  0.24018000  1.0
  C  C111  1  0.10803000  0.65496000  0.46375000  1.0
  C  C112  1  0.16557000  0.75796000  0.44929000  1.0
  C  C113  1  0.16133000  0.84731000  0.49562000  1.0
  C  C114  1  0.21038000  0.94229000  0.48069000  1.0
  C  C115  1  0.26012000  0.94814000  0.41507000  1.0
  C  C116  1  0.26746000  0.85977000  0.37087000  1.0
  C  C117  1  0.22125000  0.76612000  0.38892000  1.0
  C  C118  1  0.28397000  0.58859000  0.61217000  1.0
  C  C119  1  0.35752000  0.60221000  0.55684000  1.0
  C  C120  1  0.24633000  0.05702000  0.86568000  1.0
  C  C121  1  0.19562000  0.12311000  0.87441000  1.0
  C  C122  1  0.08499000  0.07071000  0.85838000  1.0
  C  C123  1  0.03346000  0.12759000  0.86273000  1.0
  C  C124  1  0.09240000  0.24021000  0.88518000  1.0
  C  C125  1  0.20379000  0.29362000  0.90141000  1.0
  C  C126  1  0.25435000  0.23526000  0.89591000  1.0
  C  C127  1  0.10874000  0.63031000  0.75027000  1.0
  C  C128  1  0.10066000  0.54764000  0.79101000  1.0
  C  C129  1  0.09040000  0.55926000  0.87815000  1.0
  C  C130  1  0.07411000  0.47853000  0.91262000  1.0
  C  C131  1  0.06789000  0.38479000  0.86002000  1.0
  C  C132  1  0.08304000  0.37502000  0.77485000  1.0
  C  C133  1  0.09870000  0.45584000  0.74027000  1.0
  C  C134  1  0.65495000  0.10828000  0.96370000  1.0
  C  C135  1  0.75794000  0.16575000  0.94920000  1.0
  C  C136  1  0.84726000  0.16142000  0.99551000  1.0
  C  C137  1  0.94229000  0.21045000  0.98063000  1.0
  C  C138  1  0.94822000  0.26024000  0.91505000  1.0
  C  C139  1  0.85988000  0.26764000  0.87085000  1.0
  C  C140  1  0.76617000  0.22148000  0.88886000  1.0
  C  C141  1  0.58892000  0.28455000  0.11231000  1.0
  C  C142  1  0.60234000  0.35777000  0.05668000  1.0
  C  C143  1  0.94308000  0.75371000  0.63456000  1.0
  C  C144  1  0.87700000  0.80444000  0.62576000  1.0
  C  C145  1  0.92944000  0.91503000  0.64173000  1.0
  C  C146  1  0.87258000  0.96660000  0.63739000  1.0
  C  C147  1  0.75992000  0.90772000  0.61501000  1.0
  C  C148  1  0.70647000  0.79636000  0.59880000  1.0
  C  C149  1  0.76481000  0.74577000  0.60430000  1.0
  C  C150  1  0.36987000  0.89141000  0.75005000  1.0
  C  C151  1  0.45253000  0.89949000  0.70928000  1.0
  C  C152  1  0.44086000  0.90977000  0.62214000  1.0
  C  C153  1  0.52159000  0.92607000  0.58766000  1.0
  C  C154  1  0.61538000  0.93229000  0.64023000  1.0
  C  C155  1  0.62519000  0.91712000  0.72540000  1.0
  C  C156  1  0.54437000  0.90144000  0.76000000  1.0
  C  C157  1  0.89170000  0.34504000  0.53627000  1.0
  C  C158  1  0.83429000  0.24207000  0.55082000  1.0
  C  C159  1  0.83860000  0.15274000  0.50451000  1.0
  C  C160  1  0.78964000  0.05778000  0.51947000  1.0
  C  C161  1  0.73990000  0.05189000  0.58509000  1.0
  C  C162  1  0.73248000  0.14019000  0.62927000  1.0
  C  C163  1  0.77861000  0.23385000  0.61120000  1.0
  C  C164  1  0.71560000  0.41110000  0.38783000  1.0
  C  C165  1  0.64227000  0.39760000  0.44336000  1.0
  N  N166  1  0.96004000  0.70193000  0.10871000  1.0
  N  N167  1  0.29794000  0.03979000  0.39109000  1.0
  N  N168  1  0.03993000  0.29801000  0.89114000  1.0
  N  N169  1  0.70216000  0.96021000  0.60909000  1.0
  O  O170  1  0.81627000  0.04410000  0.15393000  1.0
  O  O171  1  0.65395000  0.89578000  0.12232000  1.0
  O  O172  1  0.85910000  0.27511000  0.19128000  1.0
  O  O173  1  0.91606000  0.39544000  0.33715000  1.0
  O  O174  1  0.35270000  0.96145000  0.00109000  1.0
  O  O175  1  0.41604000  0.86834000  0.06268000  1.0
  O  O176  1  0.51060000  0.81132000  0.92804000  1.0
  O  O177  1  0.95580000  0.18362000  0.34584000  1.0
  O  O178  1  0.10410000  0.34588000  0.37734000  1.0
  O  O179  1  0.72479000  0.14078000  0.30842000  1.0
  O  O180  1  0.60440000  0.08381000  0.16256000  1.0
  O  O181  1  0.03877000  0.64739000  0.49915000  1.0
  O  O182  1  0.13138000  0.58378000  0.43693000  1.0
  O  O183  1  0.18834000  0.48928000  0.57161000  1.0
  O  O184  1  0.18377000  0.95593000  0.84606000  1.0
  O  O185  1  0.34604000  0.10423000  0.87761000  1.0
  O  O186  1  0.14115000  0.72489000  0.80871000  1.0
  O  O187  1  0.08391000  0.60456000  0.66275000  1.0
  O  O188  1  0.64728000  0.03889000  0.99894000  1.0
  O  O189  1  0.58386000  0.13180000  0.93707000  1.0
  O  O190  1  0.48962000  0.18891000  0.07190000  1.0
  O  O191  1  0.04423000  0.81629000  0.65423000  1.0
  O  O192  1  0.89589000  0.65406000  0.62266000  1.0
  O  O193  1  0.27531000  0.85907000  0.69164000  1.0
  O  O194  1  0.39567000  0.91623000  0.83756000  1.0
  O  O195  1  0.96088000  0.35261000  0.50075000  1.0
  O  O196  1  0.86834000  0.41617000  0.56311000  1.0
  O  O197  1  0.81128000  0.51040000  0.42826000  1.0
