# generated using pymatgen
data_AlH5C13Br2NClO5
_symmetry_space_group_name_H-M   'P 1'
_cell_length_a   6.62662000
_cell_length_b   11.10180000
_cell_length_c   16.97130000
_cell_angle_alpha   84.21080000
_cell_angle_beta   82.31680000
_cell_angle_gamma   73.64560000
_symmetry_Int_Tables_number   1
_chemical_formula_structural   AlH5C13Br2NClO5
_chemical_formula_sum   'Al2 H10 C26 Br4 N2 Cl2 O10'
_cell_volume   1184.63460921
_cell_formula_units_Z   2
loop_
 _symmetry_equiv_pos_site_id
 _symmetry_equiv_pos_as_xyz
  1  'x, y, z'
loop_
 _atom_site_type_symbol
 _atom_site_label
 _atom_site_symmetry_multiplicity
 _atom_site_fract_x
 _atom_site_fract_y
 _atom_site_fract_z
 _atom_site_occupancy
  Al  Al0  1  0.49206000  0.50418000  0.49825000  1.0
  Al  Al1  1  0.99214000  0.50331000  0.50005000  1.0
  H  H2  1  0.18503000  0.65668000  0.45221000  1.0
  H  H3  1  0.74547000  0.42484000  0.59325000  1.0
  H  H4  1  0.90593000  0.41939000  0.74439000  1.0
  H  H5  1  0.86085000  0.40578000  0.89340000  1.0
  H  H6  1  0.40181000  0.54924000  0.89036000  1.0
  H  H7  1  0.57394000  0.55643000  0.09978000  1.0
  H  H8  1  0.23862000  0.40320000  0.12217000  1.0
  H  H9  1  0.16012000  0.41983000  0.26989000  1.0
  H  H10  1  0.82206000  0.77147000  0.61416000  1.0
  H  H11  1  0.62391000  0.23898000  0.58878000  1.0
  C  C12  1  0.62125000  0.73078000  0.50506000  1.0
  C  C13  1  0.79895000  0.50513000  0.35699000  1.0
  C  C14  1  0.36034000  0.28080000  0.48877000  1.0
  C  C15  1  0.19415000  0.49303000  0.64410000  1.0
  C  C16  1  0.17868000  0.48978000  0.73286000  1.0
  C  C17  1  0.01483000  0.44645000  0.77720000  1.0
  C  C18  1  0.98831000  0.43936000  0.85969000  1.0
  C  C19  1  0.12866000  0.47755000  0.90038000  1.0
  C  C20  1  0.29547000  0.51903000  0.85790000  1.0
  C  C21  1  0.31968000  0.52600000  0.77482000  1.0
  C  C22  1  0.70199000  0.52643000  0.13759000  1.0
  C  C23  1  0.90975000  0.48090000  0.10234000  1.0
  C  C24  1  0.07764000  0.44041000  0.14985000  1.0
  C  C25  1  0.03342000  0.44948000  0.23150000  1.0
  C  C26  1  0.82636000  0.49846000  0.26856000  1.0
  C  C27  1  0.65964000  0.53708000  0.21968000  1.0
  C  C28  1  0.55369000  0.87243000  0.50088000  1.0
  C  C29  1  0.63617000  0.93808000  0.55138000  1.0
  C  C30  1  0.41623000  0.93955000  0.44687000  1.0
  C  C31  1  0.77626000  0.87376000  0.60780000  1.0
  C  C32  1  0.85989000  0.93875000  0.65416000  1.0
  C  C33  1  0.42908000  0.13932000  0.49083000  1.0
  C  C34  1  0.35134000  0.07331000  0.44252000  1.0
  C  C35  1  0.57608000  0.07288000  0.54520000  1.0
  C  C36  1  0.66392000  0.13702000  0.59395000  1.0
  C  C37  1  0.80491000  0.07211000  0.64624000  1.0
  Br  Br38  1  0.16578000  0.16188000  0.36739000  1.0
  Br  Br39  1  0.32788000  0.85305000  0.37264000  1.0
  Br  Br40  1  0.04914000  0.84665000  0.72680000  1.0
  Br  Br41  1  0.92459000  0.16564000  0.70543000  1.0
  N  N42  1  0.11298000  0.47898000  0.98436000  1.0
  N  N43  1  0.93047000  0.48036000  0.01849000  1.0
  Cl  Cl44  1  0.51971000  0.58782000  0.72745000  1.0
  Cl  Cl45  1  0.39737000  0.60038000  0.25442000  1.0
  O  O46  1  0.47574000  0.67541000  0.52006000  1.0
  O  O47  1  0.96610000  0.48728000  0.39102000  1.0
  O  O48  1  0.16513000  0.33269000  0.50674000  1.0
  O  O49  1  0.37883000  0.46925000  0.60635000  1.0
  O  O50  1  0.50501000  0.33682000  0.47298000  1.0
  O  O51  1  0.02157000  0.51563000  0.61267000  1.0
  O  O52  1  0.81915000  0.67833000  0.49301000  1.0
  O  O53  1  0.61275000  0.52838000  0.39282000  1.0
  O  O54  1  0.22176000  0.56724000  0.46811000  1.0
  O  O55  1  0.75643000  0.44598000  0.53615000  1.0
