# generated using pymatgen
data_CuHCIN
_symmetry_space_group_name_H-M   'P 1'
_cell_length_a   6.82561000
_cell_length_b   9.80186000
_cell_length_c   15.63760000
_cell_angle_alpha   90.00000000
_cell_angle_beta   90.00130000
_cell_angle_gamma   89.99850000
_symmetry_Int_Tables_number   1
_chemical_formula_structural   CuHCIN
_chemical_formula_sum   'Cu12 H12 C12 I12 N12'
_cell_volume   1046.21288620
_cell_formula_units_Z   12
loop_
 _symmetry_equiv_pos_site_id
 _symmetry_equiv_pos_as_xyz
  1  'x, y, z'
loop_
 _atom_site_type_symbol
 _atom_site_label
 _atom_site_symmetry_multiplicity
 _atom_site_fract_x
 _atom_site_fract_y
 _atom_site_fract_z
 _atom_site_occupancy
  Cu  Cu0  1  0.02964000  0.25001000  0.59327000  1.0
  Cu  Cu1  1  0.52964000  0.25000000  0.90673000  1.0
  Cu  Cu2  1  0.47036000  0.74999000  0.09327000  1.0
  Cu  Cu3  1  0.97038000  0.75000000  0.40673000  1.0
  Cu  Cu4  1  0.52722000  0.04512000  0.67067000  1.0
  Cu  Cu5  1  0.02722000  0.04512000  0.82933000  1.0
  Cu  Cu6  1  0.52720000  0.45488000  0.67067000  1.0
  Cu  Cu7  1  0.97279000  0.54513000  0.17067000  1.0
  Cu  Cu8  1  0.47280000  0.95487000  0.32933000  1.0
  Cu  Cu9  1  0.97277000  0.95488000  0.17067000  1.0
  Cu  Cu10  1  0.47278000  0.54511000  0.32933000  1.0
  Cu  Cu11  1  0.02720000  0.45488000  0.82933000  1.0
  H  H12  1  0.47118000  0.74999000  0.70404000  1.0
  H  H13  1  0.97114000  0.75000000  0.79595000  1.0
  H  H14  1  0.02881000  0.25001000  0.20405000  1.0
  H  H15  1  0.52884000  0.24999000  0.29597000  1.0
  H  H16  1  0.80692000  0.96294000  0.52598000  1.0
  H  H17  1  0.30694000  0.96294000  0.97401000  1.0
  H  H18  1  0.80692000  0.53704000  0.52597000  1.0
  H  H19  1  0.69310000  0.46297000  0.02597000  1.0
  H  H20  1  0.19308000  0.03705000  0.47402000  1.0
  H  H21  1  0.69304000  0.03706000  0.02599000  1.0
  H  H22  1  0.19308000  0.46295000  0.47402000  1.0
  H  H23  1  0.30692000  0.53704000  0.97401000  1.0
  C  C24  1  0.57418000  0.75000000  0.65069000  1.0
  C  C25  1  0.07417000  0.75001000  0.84930000  1.0
  C  C26  1  0.92581000  0.25001000  0.15070000  1.0
  C  C27  1  0.42583000  0.25000000  0.34931000  1.0
  C  C28  1  0.75906000  0.86645000  0.55361000  1.0
  C  C29  1  0.25906000  0.86644000  0.94638000  1.0
  C  C30  1  0.75904000  0.63355000  0.55362000  1.0
  C  C31  1  0.74095000  0.36646000  0.05362000  1.0
  C  C32  1  0.24095000  0.13354000  0.44639000  1.0
  C  C33  1  0.74093000  0.13355000  0.05361000  1.0
  C  C34  1  0.24095000  0.36645000  0.44639000  1.0
  C  C35  1  0.25904000  0.63354000  0.94638000  1.0
  I  I36  1  0.14673000  0.02845000  0.67091000  1.0
  I  I37  1  0.64673000  0.02844000  0.82909000  1.0
  I  I38  1  0.14671000  0.47158000  0.67091000  1.0
  I  I39  1  0.35328000  0.52842000  0.17091000  1.0
  I  I40  1  0.85329000  0.97157000  0.32909000  1.0
  I  I41  1  0.35327000  0.97155000  0.17092000  1.0
  I  I42  1  0.85328000  0.52843000  0.32909000  1.0
  I  I43  1  0.64671000  0.47157000  0.82909000  1.0
  I  I44  1  0.65347000  0.25000000  0.58293000  1.0
  I  I45  1  0.15347000  0.25000000  0.91707000  1.0
  I  I46  1  0.84653000  0.75001000  0.08293000  1.0
  I  I47  1  0.34654000  0.75000000  0.41707000  1.0
  N  N48  1  0.63347000  0.87077000  0.61965000  1.0
  N  N49  1  0.13347000  0.87078000  0.88034000  1.0
  N  N50  1  0.63348000  0.62921000  0.61964000  1.0
  N  N51  1  0.86653000  0.37080000  0.11965000  1.0
  N  N52  1  0.36654000  0.12921000  0.38036000  1.0
  N  N53  1  0.86652000  0.12923000  0.11966000  1.0
  N  N54  1  0.36654000  0.37077000  0.38036000  1.0
  N  N55  1  0.13347000  0.62922000  0.88035000  1.0
  N  N56  1  0.82411000  0.75000000  0.51806000  1.0
  N  N57  1  0.32412000  0.75000000  0.98192000  1.0
  N  N58  1  0.67590000  0.25002000  0.01807000  1.0
  N  N59  1  0.17591000  0.25000000  0.48194000  1.0
