# generated using pymatgen
data_ZnH2C10(N2F3)2
_symmetry_space_group_name_H-M   'P 1'
_cell_length_a   16.19300000
_cell_length_b   16.28550000
_cell_length_c   19.13350000
_cell_angle_alpha   89.75360000
_cell_angle_beta   89.86920000
_cell_angle_gamma   89.95280000
_symmetry_Int_Tables_number   1
_chemical_formula_structural   ZnH2C10(N2F3)2
_chemical_formula_sum   'Zn8 H16 C80 N32 F48'
_cell_volume   5045.65488278
_cell_formula_units_Z   8
loop_
 _symmetry_equiv_pos_site_id
 _symmetry_equiv_pos_as_xyz
  1  'x, y, z'
loop_
 _atom_site_type_symbol
 _atom_site_label
 _atom_site_symmetry_multiplicity
 _atom_site_fract_x
 _atom_site_fract_y
 _atom_site_fract_z
 _atom_site_occupancy
  Zn  Zn0  1  0.50263000  0.35286000  0.00268000  1.0
  Zn  Zn1  1  0.35596000  0.49903000  0.99867000  1.0
  Zn  Zn2  1  0.50109000  0.64586000  0.99387000  1.0
  Zn  Zn3  1  0.64895000  0.50050000  0.00250000  1.0
  Zn  Zn4  1  0.99671000  0.85306000  0.49820000  1.0
  Zn  Zn5  1  0.85189000  0.00126000  0.50688000  1.0
  Zn  Zn6  1  0.99764000  0.14919000  0.50373000  1.0
  Zn  Zn7  1  0.14177000  0.00078000  0.49988000  1.0
  H  H8  1  0.12527000  0.70779000  0.13185000  1.0
  H  H9  1  0.03994000  0.19788000  0.80080000  1.0
  H  H10  1  0.37447000  0.78899000  0.62958000  1.0
  H  H11  1  0.95940000  0.77552000  0.77870000  1.0
  H  H12  1  0.62074000  0.80321000  0.36376000  1.0
  H  H13  1  0.03916000  0.79782000  0.20301000  1.0
  H  H14  1  0.37443000  0.21009000  0.36605000  1.0
  H  H15  1  0.96330000  0.20007000  0.20970000  1.0
  H  H16  1  0.53328000  0.71291000  0.29225000  1.0
  H  H17  1  0.87791000  0.29023000  0.13842000  1.0
  H  H18  1  0.46190000  0.30019000  0.29622000  1.0
  H  H19  1  0.12515000  0.28744000  0.87247000  1.0
  H  H20  1  0.53123000  0.30659000  0.70330000  1.0
  H  H21  1  0.89957000  0.72745000  0.89160000  1.0
  H  H22  1  0.46035000  0.69850000  0.70019000  1.0
  H  H23  1  0.61661000  0.21314000  0.63322000  1.0
  C  C24  1  0.35100000  0.25111000  0.95902000  1.0
  C  C25  1  0.86757000  0.03468000  0.35219000  1.0
  C  C26  1  0.14997000  0.24860000  0.45513000  1.0
  C  C27  1  0.13122000  0.96206000  0.34674000  1.0
  C  C28  1  0.84427000  0.24867000  0.54759000  1.0
  C  C29  1  0.88495000  0.97161000  0.66073000  1.0
  C  C30  1  0.15032000  0.75224000  0.54073000  1.0
  C  C31  1  0.13226000  0.03696000  0.65448000  1.0
  C  C32  1  0.46312000  0.62510000  0.83919000  1.0
  C  C33  1  0.74808000  0.64899000  0.94353000  1.0
  C  C34  1  0.53493000  0.37351000  0.84738000  1.0
  C  C35  1  0.36673000  0.53345000  0.84386000  1.0
  C  C36  1  0.25781000  0.34577000  0.95185000  1.0
  C  C37  1  0.46635000  0.37406000  0.15659000  1.0
  C  C38  1  0.74720000  0.34876000  0.05569000  1.0
  C  C39  1  0.53689000  0.63828000  0.15048000  1.0
  C  C40  1  0.25659000  0.65082000  0.04926000  1.0
  C  C41  1  0.96349000  0.12693000  0.34916000  1.0
  C  C42  1  0.24149000  0.15240000  0.44740000  1.0
  C  C43  1  0.03516000  0.87007000  0.34350000  1.0
  C  C44  1  0.74915000  0.85284000  0.45575000  1.0
  C  C45  1  0.97405000  0.87286000  0.65557000  1.0
  C  C46  1  0.65060000  0.73915000  0.93482000  1.0
  C  C47  1  0.24183000  0.84809000  0.54955000  1.0
  C  C48  1  0.03915000  0.13213000  0.65818000  1.0
  C  C49  1  0.75222000  0.15312000  0.55587000  1.0
  C  C50  1  0.26869000  0.26187000  0.93732000  1.0
  C  C51  1  0.40015000  0.59191000  0.79731000  1.0
  C  C52  1  0.73384000  0.72785000  0.91588000  1.0
  C  C53  1  0.59681000  0.40624000  0.80367000  1.0
  C  C54  1  0.26732000  0.73457000  0.06436000  1.0
  C  C55  1  0.40377000  0.40775000  0.19887000  1.0
  C  C56  1  0.73706000  0.26456000  0.06991000  1.0
  C  C57  1  0.63231000  0.46421000  0.84896000  1.0
  C  C58  1  0.59685000  0.60583000  0.19611000  1.0
  C  C59  1  0.75896000  0.77058000  0.43547000  1.0
  C  C60  1  0.90207000  0.09300000  0.30607000  1.0
  C  C61  1  0.23206000  0.23666000  0.43300000  1.0
  C  C62  1  0.09905000  0.90212000  0.30149000  1.0
  C  C63  1  0.76169000  0.23753000  0.56874000  1.0
  C  C64  1  0.92181000  0.91188000  0.70405000  1.0
  C  C65  1  0.23240000  0.76357000  0.56269000  1.0
  C  C66  1  0.10101000  0.09691000  0.70034000  1.0
  C  C67  1  0.14680000  0.77058000  0.13976000  1.0
  C  C68  1  0.34898000  0.74602000  0.04087000  1.0
  C  C69  1  0.59608000  0.69350000  0.30464000  1.0
  C  C70  1  0.85724000  0.22680000  0.14477000  1.0
  C  C71  1  0.39912000  0.32043000  0.30772000  1.0
  C  C72  1  0.14733000  0.22492000  0.86391000  1.0
  C  C73  1  0.59535000  0.32306000  0.69276000  1.0
  C  C74  1  0.86719000  0.77351000  0.86042000  1.0
  C  C75  1  0.39774000  0.67856000  0.68813000  1.0
  C  C76  1  0.63887000  0.27578000  0.64069000  1.0
  C  C77  1  0.10343000  0.17923000  0.81133000  1.0
  C  C78  1  0.35362000  0.72566000  0.63624000  1.0
  C  C79  1  0.37136000  0.46727000  0.15283000  1.0
  C  C80  1  0.91157000  0.81251000  0.80375000  1.0
  C  C81  1  0.63961000  0.73923000  0.35756000  1.0
  C  C82  1  0.10253000  0.81665000  0.19210000  1.0
  C  C83  1  0.35392000  0.27351000  0.35923000  1.0
  C  C84  1  0.90100000  0.17975000  0.19691000  1.0
  C  C85  1  0.21488000  0.79089000  0.10232000  1.0
  C  C86  1  0.62973000  0.63766000  0.26083000  1.0
  C  C87  1  0.78999000  0.20720000  0.10645000  1.0
  C  C88  1  0.36812000  0.37769000  0.26347000  1.0
  C  C89  1  0.21604000  0.20503000  0.90042000  1.0
  C  C90  1  0.65510000  0.25337000  0.04762000  1.0
  C  C91  1  0.63001000  0.37599000  0.73842000  1.0
  C  C92  1  0.78482000  0.77871000  0.87136000  1.0
  C  C93  1  0.36565000  0.62173000  0.73231000  1.0
  C  C94  1  0.70789000  0.29489000  0.60410000  1.0
  C  C95  1  0.13615000  0.12528000  0.76533000  1.0
  C  C96  1  0.28584000  0.70614000  0.59857000  1.0
  C  C97  1  0.89648000  0.88620000  0.77342000  1.0
  C  C98  1  0.70487000  0.71635000  0.39714000  1.0
  C  C99  1  0.13473000  0.87172000  0.23723000  1.0
  C  C100  1  0.28582000  0.29350000  0.39665000  1.0
  C  C101  1  0.63025000  0.54334000  0.15397000  1.0
  C  C102  1  0.86865000  0.12255000  0.24059000  1.0
  C  C103  1  0.84215000  0.75772000  0.45356000  1.0
  N  N104  1  0.38477000  0.32006000  0.98307000  1.0
  N  N105  1  0.90338000  0.03498000  0.41497000  1.0
  N  N106  1  0.11514000  0.18003000  0.47936000  1.0
  N  N107  1  0.09181000  0.96460000  0.40808000  1.0
  N  N108  1  0.87933000  0.17951000  0.52513000  1.0
  N  N109  1  0.91128000  0.96734000  0.59455000  1.0
  N  N110  1  0.11544000  0.82134000  0.51768000  1.0
  N  N111  1  0.09411000  0.03719000  0.59262000  1.0
  N  N112  1  0.46617000  0.59147000  0.90287000  1.0
  N  N113  1  0.68208000  0.61700000  0.97498000  1.0
  N  N114  1  0.53437000  0.40699000  0.91092000  1.0
  N  N115  1  0.40463000  0.53294000  0.90578000  1.0
  N  N116  1  0.32467000  0.38082000  0.97873000  1.0
  N  N117  1  0.47002000  0.40837000  0.09321000  1.0
  N  N118  1  0.68026000  0.38355000  0.02826000  1.0
  N  N119  1  0.53541000  0.60042000  0.08874000  1.0
  N  N120  1  0.32291000  0.61650000  0.02048000  1.0
  N  N121  1  0.96464000  0.09381000  0.41305000  1.0
  N  N122  1  0.17408000  0.11823000  0.47468000  1.0
  N  N123  1  0.03041000  0.90583000  0.40602000  1.0
  N  N124  1  0.81741000  0.88522000  0.48271000  1.0
  N  N125  1  0.96855000  0.90481000  0.59147000  1.0
  N  N126  1  0.61933000  0.67515000  0.96934000  1.0
  N  N127  1  0.17439000  0.88294000  0.52313000  1.0
  N  N128  1  0.03463000  0.09792000  0.59510000  1.0
  N  N129  1  0.81995000  0.11821000  0.53010000  1.0
  N  N130  1  0.59656000  0.46492000  0.91191000  1.0
  N  N131  1  0.38252000  0.67760000  0.01532000  1.0
  N  N132  1  0.40927000  0.46789000  0.09071000  1.0
  N  N133  1  0.62091000  0.32227000  0.02335000  1.0
  N  N134  1  0.59504000  0.53984000  0.09105000  1.0
  N  N135  1  0.87738000  0.82414000  0.48087000  1.0
  F  F136  1  0.39730000  0.18326000  0.95676000  1.0
  F  F137  1  0.80527000  0.98290000  0.33980000  1.0
  F  F138  1  0.10478000  0.31723000  0.45302000  1.0
  F  F139  1  0.19440000  0.01314000  0.33481000  1.0
  F  F140  1  0.88971000  0.31703000  0.54913000  1.0
  F  F141  1  0.82774000  0.02724000  0.67806000  1.0
  F  F142  1  0.10507000  0.68369000  0.54222000  1.0
  F  F143  1  0.19346000  0.98353000  0.66633000  1.0
  F  F144  1  0.51558000  0.68549000  0.82181000  1.0
  F  F145  1  0.81778000  0.60480000  0.94010000  1.0
  F  F146  1  0.48144000  0.31355000  0.83190000  1.0
  F  F147  1  0.30376000  0.48202000  0.83276000  1.0
  F  F148  1  0.18987000  0.39145000  0.94193000  1.0
  F  F149  1  0.51795000  0.31257000  0.17311000  1.0
  F  F150  1  0.81455000  0.39482000  0.06636000  1.0
  F  F151  1  0.48584000  0.70144000  0.16272000  1.0
  F  F152  1  0.18922000  0.60471000  0.06038000  1.0
  F  F153  1  0.01600000  0.18765000  0.33273000  1.0
  F  F154  1  0.30868000  0.10578000  0.43708000  1.0
  F  F155  1  0.98316000  0.80895000  0.32754000  1.0
  F  F156  1  0.68103000  0.89934000  0.45075000  1.0
  F  F157  1  0.02488000  0.80933000  0.66773000  1.0
  F  F158  1  0.60222000  0.80408000  0.92259000  1.0
  F  F159  1  0.30904000  0.89439000  0.56025000  1.0
  F  F160  1  0.98881000  0.19456000  0.67458000  1.0
  F  F161  1  0.68490000  0.10680000  0.56658000  1.0
  F  F162  1  0.24399000  0.86931000  0.10019000  1.0
  F  F163  1  0.70979000  0.61319000  0.27001000  1.0
  F  F164  1  0.76193000  0.12855000  0.10211000  1.0
  F  F165  1  0.28856000  0.40423000  0.27115000  1.0
  F  F166  1  0.24603000  0.12689000  0.90200000  1.0
  F  F167  1  0.71141000  0.39680000  0.73137000  1.0
  F  F168  1  0.73791000  0.83082000  0.83178000  1.0
  F  F169  1  0.69537000  0.51491000  0.83559000  1.0
  F  F170  1  0.28612000  0.59557000  0.72405000  1.0
  F  F171  1  0.73718000  0.37320000  0.60101000  1.0
  F  F172  1  0.21653000  0.10076000  0.77191000  1.0
  F  F173  1  0.25765000  0.62752000  0.59464000  1.0
  F  F174  1  0.84614000  0.94225000  0.80483000  1.0
  F  F175  1  0.72996000  0.63658000  0.40102000  1.0
  F  F176  1  0.21510000  0.89609000  0.23030000  1.0
  F  F177  1  0.25787000  0.37228000  0.40028000  1.0
  F  F178  1  0.78950000  0.09583000  0.23126000  1.0
  F  F179  1  0.39487000  0.81410000  0.04273000  1.0
  F  F180  1  0.30899000  0.51934000  0.16463000  1.0
  F  F181  1  0.60934000  0.18519000  0.04978000  1.0
  F  F182  1  0.69110000  0.49093000  0.16984000  1.0
  F  F183  1  0.88789000  0.69017000  0.44524000  1.0
