# generated using pymatgen
data_Cu2H10C11Se(IN)2
_symmetry_space_group_name_H-M   'P 1'
_cell_length_a   8.30154000
_cell_length_b   9.37199000
_cell_length_c   9.53505000
_cell_angle_alpha   105.16000000
_cell_angle_beta   89.99980000
_cell_angle_gamma   90.00000000
_symmetry_Int_Tables_number   1
_chemical_formula_structural   Cu2H10C11Se(IN)2
_chemical_formula_sum   'Cu4 H20 C22 Se2 I4 N4'
_cell_volume   716.02874137
_cell_formula_units_Z   2
loop_
 _symmetry_equiv_pos_site_id
 _symmetry_equiv_pos_as_xyz
  1  'x, y, z'
loop_
 _atom_site_type_symbol
 _atom_site_label
 _atom_site_symmetry_multiplicity
 _atom_site_fract_x
 _atom_site_fract_y
 _atom_site_fract_z
 _atom_site_occupancy
  Cu  Cu0  1  0.54539000  0.30595000  0.51005000  1.0
  Cu  Cu1  1  0.04539000  0.69405000  0.48995000  1.0
  Cu  Cu2  1  0.17545000  0.53994000  0.63981000  1.0
  Cu  Cu3  1  0.67545000  0.46006000  0.36019000  1.0
  H  H4  1  0.56481000  0.92985000  0.80443000  1.0
  H  H5  1  0.06483000  0.07015000  0.19557000  1.0
  H  H6  1  0.80997000  0.03496000  0.95050000  1.0
  H  H7  1  0.30998000  0.96502000  0.04949000  1.0
  H  H8  1  0.95413000  0.24639000  0.89040000  1.0
  H  H9  1  0.45413000  0.75359000  0.10960000  1.0
  H  H10  1  0.84780000  0.34569000  0.68897000  1.0
  H  H11  1  0.34780000  0.65430000  0.31103000  1.0
  H  H12  1  0.32091000  0.10987000  0.85738000  1.0
  H  H13  1  0.82090000  0.89014000  0.14262000  1.0
  H  H14  1  0.25588000  0.24888000  0.11245000  1.0
  H  H15  1  0.75588000  0.75113000  0.88756000  1.0
  H  H16  1  0.12741000  0.49893000  0.15581000  1.0
  H  H17  1  0.62742000  0.50107000  0.84419000  1.0
  H  H18  1  0.09731000  0.61101000  0.94488000  1.0
  H  H19  1  0.59732000  0.38900000  0.05512000  1.0
  H  H20  1  0.35972000  0.95099000  0.63287000  1.0
  H  H21  1  0.85974000  0.04901000  0.36713000  1.0
  H  H22  1  0.45956000  0.97817000  0.47565000  1.0
  H  H23  1  0.95957000  0.02183000  0.52434000  1.0
  C  C24  1  0.57504000  0.08731000  0.67609000  1.0
  C  C25  1  0.07505000  0.91269000  0.32391000  1.0
  C  C26  1  0.62993000  0.02364000  0.78427000  1.0
  C  C27  1  0.12995000  0.97636000  0.21572000  1.0
  C  C28  1  0.76706000  0.08059000  0.86355000  1.0
  C  C29  1  0.26708000  0.91940000  0.13644000  1.0
  C  C30  1  0.84757000  0.19811000  0.83042000  1.0
  C  C31  1  0.34757000  0.80188000  0.16957000  1.0
  C  C32  1  0.78790000  0.25491000  0.72008000  1.0
  C  C33  1  0.28791000  0.74507000  0.27992000  1.0
  C  C34  1  0.24784000  0.29006000  0.76866000  1.0
  C  C35  1  0.74785000  0.70994000  0.23134000  1.0
  C  C36  1  0.27457000  0.22204000  0.88092000  1.0
  C  C37  1  0.77457000  0.77797000  0.11909000  1.0
  C  C38  1  0.23460000  0.29832000  0.02247000  1.0
  C  C39  1  0.73460000  0.70169000  0.97753000  1.0
  C  C40  1  0.16606000  0.43882000  0.04742000  1.0
  C  C41  1  0.66608000  0.56119000  0.95258000  1.0
  C  C42  1  0.14660000  0.50025000  0.93101000  1.0
  C  C43  1  0.64661000  0.49976000  0.06899000  1.0
  C  C44  1  0.42772000  0.03038000  0.58961000  1.0
  C  C45  1  0.92773000  0.96962000  0.41038000  1.0
  Se  Se46  1  0.28500000  0.19312000  0.56684000  1.0
  Se  Se47  1  0.78501000  0.80689000  0.43316000  1.0
  I  I48  1  0.59022000  0.18118000  0.23516000  1.0
  I  I49  1  0.09023000  0.81883000  0.76484000  1.0
  I  I50  1  0.49186000  0.58899000  0.58417000  1.0
  I  I51  1  0.99185000  0.41101000  0.41583000  1.0
  N  N52  1  0.65273000  0.20305000  0.64564000  1.0
  N  N53  1  0.15274000  0.79694000  0.35436000  1.0
  N  N54  1  0.18863000  0.42904000  0.79325000  1.0
  N  N55  1  0.68864000  0.57097000  0.20675000  1.0
