# generated using pymatgen
data_DyH7C8(NO2)3
_symmetry_space_group_name_H-M   'P 1'
_cell_length_a   6.15119000
_cell_length_b   9.20604000
_cell_length_c   9.32333000
_cell_angle_alpha   85.11100000
_cell_angle_beta   71.80370000
_cell_angle_gamma   85.47220000
_symmetry_Int_Tables_number   1
_chemical_formula_structural   DyH7C8(NO2)3
_chemical_formula_sum   'Dy2 H14 C16 N6 O12'
_cell_volume   498.97112131
_cell_formula_units_Z   2
loop_
 _symmetry_equiv_pos_site_id
 _symmetry_equiv_pos_as_xyz
  1  'x, y, z'
loop_
 _atom_site_type_symbol
 _atom_site_label
 _atom_site_symmetry_multiplicity
 _atom_site_fract_x
 _atom_site_fract_y
 _atom_site_fract_z
 _atom_site_occupancy
  Dy  Dy0  1  0.37797000  0.68309000  0.47067000  1.0
  Dy  Dy1  1  0.62203000  0.31690000  0.52933000  1.0
  H  H2  1  0.72070000  0.88917000  0.75131000  1.0
  H  H3  1  0.27931000  0.11082000  0.24869000  1.0
  H  H4  1  0.92961000  0.97059000  0.91656000  1.0
  H  H5  1  0.07040000  0.02940000  0.08344000  1.0
  H  H6  1  0.80142000  0.89233000  0.19553000  1.0
  H  H7  1  0.19858000  0.10767000  0.80447000  1.0
  H  H8  1  0.85110000  0.57272000  0.36771000  1.0
  H  H9  1  0.14890000  0.42728000  0.63229000  1.0
  H  H10  1  0.89441000  0.43929000  0.12499000  1.0
  H  H11  1  0.10559000  0.56071000  0.87501000  1.0
  H  H12  1  0.87668000  0.75397000  0.53898000  1.0
  H  H13  1  0.12333000  0.24603000  0.46102000  1.0
  H  H14  1  0.89568000  0.59993000  0.62710000  1.0
  H  H15  1  0.10431000  0.40007000  0.37290000  1.0
  C  C16  1  0.43632000  0.72123000  0.09148000  1.0
  C  C17  1  0.56368000  0.27878000  0.90852000  1.0
  C  C18  1  0.37376000  0.02441000  0.50531000  1.0
  C  C19  1  0.62624000  0.97559000  0.49469000  1.0
  C  C20  1  0.67197000  0.85501000  0.87093000  1.0
  C  C21  1  0.32803000  0.14498000  0.12907000  1.0
  C  C22  1  0.49213000  0.76189000  0.93597000  1.0
  C  C23  1  0.50787000  0.23811000  0.06403000  1.0
  C  C24  1  0.36153000  0.70475000  0.84868000  1.0
  C  C25  1  0.63847000  0.29525000  0.15132000  1.0
  C  C26  1  0.78673000  0.90069000  0.96372000  1.0
  C  C27  1  0.21327000  0.09931000  0.03628000  1.0
  C  C28  1  0.25573000  0.62040000  0.16149000  1.0
  C  C29  1  0.74427000  0.37960000  0.83851000  1.0
  C  C30  1  0.71726000  0.85695000  0.11840000  1.0
  C  C31  1  0.28274000  0.14305000  0.88160000  1.0
  N  N32  1  0.54426000  0.77016000  0.18257000  1.0
  N  N33  1  0.45574000  0.22984000  0.81743000  1.0
  N  N34  1  0.14676000  0.56595000  0.07802000  1.0
  N  N35  1  0.85324000  0.43404000  0.92199000  1.0
  N  N36  1  0.20419000  0.60951000  0.92742000  1.0
  N  N37  1  0.79581000  0.39049000  0.07258000  1.0
  O  O38  1  0.25749000  0.93519000  0.46914000  1.0
  O  O39  1  0.74251000  0.06481000  0.53086000  1.0
  O  O40  1  0.30607000  0.15198000  0.54965000  1.0
  O  O41  1  0.69393000  0.84802000  0.45035000  1.0
  O  O42  1  0.39018000  0.74159000  0.71075000  1.0
  O  O43  1  0.60982000  0.25840000  0.28926000  1.0
  O  O44  1  0.20436000  0.58479000  0.30565000  1.0
  O  O45  1  0.79564000  0.41521000  0.69435000  1.0
  O  O46  1  0.69570000  0.53918000  0.40726000  1.0
  O  O47  1  0.30430000  0.46082000  0.59274000  1.0
  O  O48  1  0.96919000  0.69430000  0.59566000  1.0
  O  O49  1  0.03081000  0.30570000  0.40434000  1.0
