# generated using pymatgen
data_CdH7C3N(ClO)2
_symmetry_space_group_name_H-M   'P 1'
_cell_length_a   6.98236000
_cell_length_b   8.26585000
_cell_length_c   12.44880000
_cell_angle_alpha   90.00010000
_cell_angle_beta   90.00010000
_cell_angle_gamma   90.00000000
_symmetry_Int_Tables_number   1
_chemical_formula_structural   CdH7C3N(ClO)2
_chemical_formula_sum   'Cd4 H28 C12 N4 Cl8 O8'
_cell_volume   718.48423988
_cell_formula_units_Z   4
loop_
 _symmetry_equiv_pos_site_id
 _symmetry_equiv_pos_as_xyz
  1  'x, y, z'
loop_
 _atom_site_type_symbol
 _atom_site_label
 _atom_site_symmetry_multiplicity
 _atom_site_fract_x
 _atom_site_fract_y
 _atom_site_fract_z
 _atom_site_occupancy
  Cd  Cd0  1  0.18477000  0.25000000  0.22344000  1.0
  Cd  Cd1  1  0.68477000  0.25000000  0.27656000  1.0
  Cd  Cd2  1  0.31524000  0.75000000  0.72344000  1.0
  Cd  Cd3  1  0.81523000  0.75000000  0.77656000  1.0
  H  H4  1  0.92847000  0.35536000  0.62830000  1.0
  H  H5  1  0.42846000  0.35536000  0.87169000  1.0
  H  H6  1  0.92846000  0.14465000  0.62830000  1.0
  H  H7  1  0.57154000  0.85534000  0.12831000  1.0
  H  H8  1  0.07153000  0.64465000  0.37169000  1.0
  H  H9  1  0.57154000  0.64464000  0.12831000  1.0
  H  H10  1  0.07153000  0.85536000  0.37169000  1.0
  H  H11  1  0.42845000  0.14465000  0.87169000  1.0
  H  H12  1  0.24552000  0.35642000  0.66900000  1.0
  H  H13  1  0.74551000  0.35642000  0.83100000  1.0
  H  H14  1  0.24551000  0.14358000  0.66900000  1.0
  H  H15  1  0.25448000  0.85642000  0.16900000  1.0
  H  H16  1  0.75449000  0.64358000  0.33099000  1.0
  H  H17  1  0.25448000  0.64358000  0.16900000  1.0
  H  H18  1  0.75449000  0.85643000  0.33100000  1.0
  H  H19  1  0.74551000  0.14358000  0.83100000  1.0
  H  H20  1  0.49299000  0.25000000  0.55887000  1.0
  H  H21  1  0.99298000  0.25000000  0.94113000  1.0
  H  H22  1  0.00702000  0.75000000  0.05887000  1.0
  H  H23  1  0.50701000  0.75000000  0.44112000  1.0
  H  H24  1  0.34093000  0.34860000  0.47928000  1.0
  H  H25  1  0.84093000  0.34860000  0.02072000  1.0
  H  H26  1  0.34093000  0.15140000  0.47928000  1.0
  H  H27  1  0.15907000  0.84860000  0.97927000  1.0
  H  H28  1  0.65908000  0.65139000  0.52072000  1.0
  H  H29  1  0.15907000  0.65140000  0.97927000  1.0
  H  H30  1  0.65908000  0.84861000  0.52072000  1.0
  H  H31  1  0.84093000  0.15140000  0.02072000  1.0
  C  C32  1  0.93480000  0.25000000  0.47362000  1.0
  C  C33  1  0.43476000  0.25000000  0.02639000  1.0
  C  C34  1  0.56523000  0.74999000  0.97362000  1.0
  C  C35  1  0.06523000  0.75000000  0.52639000  1.0
  C  C36  1  0.99758000  0.25000000  0.59062000  1.0
  C  C37  1  0.49755000  0.25001000  0.90939000  1.0
  C  C38  1  0.50244000  0.74999000  0.09061000  1.0
  C  C39  1  0.00245000  0.75000000  0.40940000  1.0
  C  C40  1  0.21221000  0.25000000  0.62011000  1.0
  C  C41  1  0.71219000  0.25000000  0.87988000  1.0
  C  C42  1  0.28780000  0.74999000  0.12012000  1.0
  C  C43  1  0.78780000  0.75000000  0.37988000  1.0
  N  N44  1  0.35409000  0.25000000  0.53019000  1.0
  N  N45  1  0.85407000  0.25000000  0.96981000  1.0
  N  N46  1  0.14592000  0.75000000  0.03018000  1.0
  N  N47  1  0.64591000  0.75000000  0.46981000  1.0
  Cl  Cl48  1  0.41260000  0.46871000  0.31636000  1.0
  Cl  Cl49  1  0.91260000  0.46870000  0.18364000  1.0
  Cl  Cl50  1  0.41260000  0.03129000  0.31636000  1.0
  Cl  Cl51  1  0.08740000  0.96871000  0.81636000  1.0
  Cl  Cl52  1  0.58739000  0.53129000  0.68364000  1.0
  Cl  Cl53  1  0.08740000  0.53129000  0.81636000  1.0
  Cl  Cl54  1  0.58740000  0.96871000  0.68364000  1.0
  Cl  Cl55  1  0.91260000  0.03129000  0.18364000  1.0
  O  O56  1  0.05942000  0.25000000  0.40034000  1.0
  O  O57  1  0.55944000  0.25000000  0.09967000  1.0
  O  O58  1  0.44056000  0.75000000  0.90033000  1.0
  O  O59  1  0.94057000  0.75000000  0.59967000  1.0
  O  O60  1  0.75348000  0.25000000  0.45650000  1.0
  O  O61  1  0.25345000  0.25000000  0.04347000  1.0
  O  O62  1  0.74654000  0.75000000  0.95653000  1.0
  O  O63  1  0.24655000  0.75000000  0.54348000  1.0
