# generated using pymatgen
data_MnH22C22S2(N4O3)2
_symmetry_space_group_name_H-M   'P 1'
_cell_length_a   8.21249000
_cell_length_b   9.81108000
_cell_length_c   9.81675000
_cell_angle_alpha   60.42890000
_cell_angle_beta   86.05690000
_cell_angle_gamma   74.38180000
_symmetry_Int_Tables_number   1
_chemical_formula_structural   MnH22C22S2(N4O3)2
_chemical_formula_sum   'Mn1 H22 C22 S2 N8 O6'
_cell_volume   660.59696938
_cell_formula_units_Z   1
loop_
 _symmetry_equiv_pos_site_id
 _symmetry_equiv_pos_as_xyz
  1  'x, y, z'
loop_
 _atom_site_type_symbol
 _atom_site_label
 _atom_site_symmetry_multiplicity
 _atom_site_fract_x
 _atom_site_fract_y
 _atom_site_fract_z
 _atom_site_occupancy
  Mn  Mn0  1  0.50000000  0.50000000  0.50000000  1.0
  H  H1  1  0.70243000  0.78176000  0.93472000  1.0
  H  H2  1  0.29757000  0.21824000  0.06528000  1.0
  H  H3  1  0.81929000  0.86182000  0.58216000  1.0
  H  H4  1  0.18071000  0.13817000  0.41784000  1.0
  H  H5  1  0.90477000  0.05744000  0.33590000  1.0
  H  H6  1  0.09524000  0.94255000  0.66410000  1.0
  H  H7  1  0.63859000  0.14611000  0.16966000  1.0
  H  H8  1  0.36141000  0.85389000  0.83034000  1.0
  H  H9  1  0.65036000  0.13022000  0.92729000  1.0
  H  H10  1  0.34964000  0.86978000  0.07271000  1.0
  H  H11  1  0.63414000  0.78731000  0.18789000  1.0
  H  H12  1  0.36586000  0.21269000  0.81211000  1.0
  H  H13  1  0.73339000  0.49655000  0.96941000  1.0
  H  H14  1  0.26661000  0.50346000  0.03059000  1.0
  H  H15  1  0.64810000  0.31782000  0.27702000  1.0
  H  H16  1  0.35190000  0.68218000  0.72297000  1.0
  H  H17  1  0.55826000  0.85251000  0.46686000  1.0
  H  H18  1  0.44174000  0.14748000  0.53314000  1.0
  H  H19  1  0.03811000  0.58065000  0.71663000  1.0
  H  H20  1  0.96189000  0.41935000  0.28337000  1.0
  H  H21  1  0.88546000  0.37670000  0.68041000  1.0
  H  H22  1  0.11454000  0.62330000  0.31959000  1.0
  C  C23  1  0.07686000  0.97291000  0.04805000  1.0
  C  C24  1  0.92313000  0.02709000  0.95195000  1.0
  C  C25  1  0.06378000  0.98575000  0.18760000  1.0
  C  C26  1  0.93622000  0.01425000  0.81240000  1.0
  C  C27  1  0.90993000  0.04862000  0.22939000  1.0
  C  C28  1  0.09007000  0.95137000  0.77061000  1.0
  C  C29  1  0.76046000  0.09973000  0.13466000  1.0
  C  C30  1  0.23954000  0.90027000  0.86534000  1.0
  C  C31  1  0.76668000  0.08958000  0.99930000  1.0
  C  C32  1  0.23332000  0.91041000  0.00070000  1.0
  C  C33  1  0.64994000  0.68182000  0.17340000  1.0
  C  C34  1  0.35006000  0.31818000  0.82660000  1.0
  C  C35  1  0.70039000  0.52825000  0.06103000  1.0
  C  C36  1  0.29961000  0.47175000  0.93896000  1.0
  C  C37  1  0.65716000  0.44207000  0.21242000  1.0
  C  C38  1  0.34284000  0.55793000  0.78758000  1.0
  C  C39  1  0.66525000  0.74805000  0.53176000  1.0
  C  C40  1  0.33475000  0.25195000  0.46824000  1.0
  C  C41  1  0.91580000  0.60370000  0.66262000  1.0
  C  C42  1  0.08420000  0.39630000  0.33738000  1.0
  C  C43  1  0.83912000  0.50508000  0.64337000  1.0
  C  C44  1  0.16088000  0.49492000  0.35663000  1.0
  S  S45  1  0.24727000  0.91821000  0.31539000  1.0
  S  S46  1  0.75273000  0.08179000  0.68461000  1.0
  N  N47  1  0.62566000  0.53930000  0.28120000  1.0
  N  N48  1  0.37434000  0.46069000  0.71880000  1.0
  N  N49  1  0.69550000  0.67942000  0.03912000  1.0
  N  N50  1  0.30450000  0.32058000  0.96088000  1.0
  N  N51  1  0.68236000  0.59648000  0.56137000  1.0
  N  N52  1  0.31764000  0.40352000  0.43863000  1.0
  N  N53  1  0.80362000  0.75658000  0.59128000  1.0
  N  N54  1  0.19637000  0.24342000  0.40873000  1.0
  O  O55  1  0.31978000  0.74521000  0.36308000  1.0
  O  O56  1  0.68022000  0.25478000  0.63692000  1.0
  O  O57  1  0.36292000  0.01745000  0.22323000  1.0
  O  O58  1  0.63708000  0.98255000  0.77677000  1.0
  O  O59  1  0.18948000  0.94304000  0.44851000  1.0
  O  O60  1  0.81052000  0.05696000  0.55149000  1.0
