# generated using pymatgen
data_Hf3H16C20(N3O8)2
_symmetry_space_group_name_H-M   'P 1'
_cell_length_a   15.82390000
_cell_length_b   15.83860000
_cell_length_c   34.30460000
_cell_angle_alpha   89.70160000
_cell_angle_beta   90.07820000
_cell_angle_gamma   89.84170000
_symmetry_Int_Tables_number   1
_chemical_formula_structural   Hf3H16C20(N3O8)2
_chemical_formula_sum   'Hf12 H64 C80 N24 O64'
_cell_volume   8597.55019026
_cell_formula_units_Z   4
loop_
 _symmetry_equiv_pos_site_id
 _symmetry_equiv_pos_as_xyz
  1  'x, y, z'
loop_
 _atom_site_type_symbol
 _atom_site_label
 _atom_site_symmetry_multiplicity
 _atom_site_fract_x
 _atom_site_fract_y
 _atom_site_fract_z
 _atom_site_occupancy
  Hf  Hf0  1  0.90423000  0.94637000  0.45290000  1.0
  Hf  Hf1  1  0.91190000  0.95009000  0.55491000  1.0
  Hf  Hf2  1  0.06041000  0.10005000  0.44729000  1.0
  Hf  Hf3  1  0.06658000  0.10899000  0.55074000  1.0
  Hf  Hf4  1  0.87442000  0.13809000  0.50099000  1.0
  Hf  Hf5  1  0.09741000  0.91430000  0.50115000  1.0
  Hf  Hf6  1  0.41240000  0.60092000  0.95219000  1.0
  Hf  Hf7  1  0.41851000  0.59474000  0.05435000  1.0
  Hf  Hf8  1  0.56705000  0.44242000  0.94549000  1.0
  Hf  Hf9  1  0.57552000  0.43853000  0.04903000  1.0
  Hf  Hf10  1  0.60468000  0.62999000  0.99987000  1.0
  Hf  Hf11  1  0.38147000  0.40912000  0.00081000  1.0
  H  H12  1  0.94246000  0.81346000  0.50160000  1.0
  H  H13  1  0.90039000  0.11594000  0.58248000  1.0
  H  H14  1  0.19564000  0.07981000  0.50135000  1.0
  H  H15  1  0.90490000  0.10737000  0.41556000  1.0
  H  H16  1  0.88000000  0.98550000  0.63071000  1.0
  H  H17  1  0.99653000  0.03605000  0.61819000  1.0
  H  H18  1  0.15752000  0.24675000  0.55266000  1.0
  H  H19  1  0.20641000  0.17719000  0.42426000  1.0
  H  H20  1  0.07912000  0.07083000  0.37217000  1.0
  H  H21  1  0.84030000  0.94862000  0.37605000  1.0
  H  H22  1  0.76050000  0.85981000  0.45347000  1.0
  H  H23  1  0.80618000  0.84933000  0.50884000  1.0
  H  H24  1  0.13708000  0.24656000  0.43410000  1.0
  H  H25  1  0.92140000  0.88901000  0.37975000  1.0
  H  H26  1  0.75751000  0.87583000  0.54916000  1.0
  H  H27  1  0.09544000  0.05873000  0.62473000  1.0
  H  H28  1  0.28119000  0.56159000  0.00069000  1.0
  H  H29  1  0.58523000  0.60248000  0.08164000  1.0
  H  H30  1  0.53354000  0.30742000  0.99975000  1.0
  H  H31  1  0.57205000  0.60187000  0.91481000  1.0
  H  H32  1  0.45441000  0.62036000  0.13032000  1.0
  H  H33  1  0.50425000  0.50657000  0.11696000  1.0
  H  H34  1  0.71847000  0.35054000  0.04651000  1.0
  H  H35  1  0.67084000  0.34037000  0.99155000  1.0
  H  H36  1  0.53846000  0.42124000  0.87085000  1.0
  H  H37  1  0.41304000  0.66868000  0.87623000  1.0
  H  H38  1  0.32593000  0.74526000  0.95454000  1.0
  H  H39  1  0.31548000  0.69914000  0.00819000  1.0
  H  H40  1  0.71777000  0.36474000  0.95032000  1.0
  H  H41  1  0.35345000  0.58768000  0.87826000  1.0
  H  H42  1  0.26609000  0.68501000  0.05013000  1.0
  H  H43  1  0.52875000  0.40755000  0.12390000  1.0
  H  H44  1  0.40614000  0.14531000  0.93504000  1.0
  H  H45  1  0.51067000  0.22978000  0.86961000  1.0
  H  H46  1  0.56081000  0.90623000  0.93940000  1.0
  H  H47  1  0.46439000  0.81907000  0.87241000  1.0
  H  H48  1  0.87823000  0.58915000  0.06240000  1.0
  H  H49  1  0.78906000  0.49005000  0.12838000  1.0
  H  H50  1  0.11666000  0.44127000  0.06701000  1.0
  H  H51  1  0.20057000  0.54568000  0.13229000  1.0
  H  H52  1  0.87584000  0.59781000  0.93805000  1.0
  H  H53  1  0.78663000  0.49544000  0.87351000  1.0
  H  H54  1  0.11423000  0.44453000  0.93551000  1.0
  H  H55  1  0.19826000  0.54284000  0.86796000  1.0
  H  H56  1  0.52300000  0.22326000  0.13069000  1.0
  H  H57  1  0.41418000  0.14295000  0.06593000  1.0
  H  H58  1  0.56851000  0.89874000  0.06286000  1.0
  H  H59  1  0.46573000  0.81326000  0.12858000  1.0
  H  H60  1  0.95988000  0.73316000  0.63131000  1.0
  H  H61  1  0.06632000  0.64963000  0.56654000  1.0
  H  H62  1  0.90765000  0.41004000  0.56288000  1.0
  H  H63  1  0.01346000  0.32189000  0.62713000  1.0
  H  H64  1  0.96814000  0.73323000  0.36763000  1.0
  H  H65  1  0.06099000  0.64816000  0.43679000  1.0
  H  H66  1  0.91026000  0.41209000  0.43983000  1.0
  H  H67  1  0.00970000  0.32126000  0.37471000  1.0
  H  H68  1  0.36182000  0.94145000  0.56614000  1.0
  H  H69  1  0.27793000  0.04647000  0.63120000  1.0
  H  H70  1  0.68928000  0.99574000  0.62921000  1.0
  H  H71  1  0.60282000  0.09899000  0.56359000  1.0
  H  H72  1  0.27699000  0.03924000  0.36728000  1.0
  H  H73  1  0.36307000  0.94576000  0.43604000  1.0
  H  H74  1  0.68913000  0.00120000  0.37248000  1.0
  H  H75  1  0.59865000  0.09541000  0.43922000  1.0
  C  C76  1  0.73521000  0.06130000  0.44084000  1.0
  C  C77  1  0.02942000  0.78477000  0.56549000  1.0
  C  C78  1  0.73861000  0.06255000  0.56258000  1.0
  C  C79  1  0.02926000  0.78428000  0.43611000  1.0
  C  C80  1  0.22673000  0.97917000  0.43559000  1.0
  C  C81  1  0.94731000  0.27519000  0.56044000  1.0
  C  C82  1  0.22632000  0.97750000  0.56543000  1.0
  C  C83  1  0.94737000  0.27608000  0.44218000  1.0
  C  C84  1  0.98556000  0.45538000  0.36871000  1.0
  C  C85  1  0.98796000  0.52342000  0.31044000  1.0
  C  C86  1  0.98951000  0.59854000  0.36643000  1.0
  C  C87  1  0.41209000  0.01751000  0.36546000  1.0
  C  C88  1  0.48740000  0.01724000  0.30934000  1.0
  C  C89  1  0.55526000  0.02261000  0.36747000  1.0
  C  C90  1  0.41215000  0.02024000  0.63465000  1.0
  C  C91  1  0.48578000  0.02107000  0.69132000  1.0
  C  C92  1  0.55550000  0.02183000  0.63377000  1.0
  C  C93  1  0.98525000  0.45520000  0.63300000  1.0
  C  C94  1  0.98623000  0.59852000  0.63460000  1.0
  C  C95  1  0.98561000  0.52327000  0.69089000  1.0
  C  C96  1  0.49270000  0.94659000  0.13310000  1.0
  C  C97  1  0.49393000  0.08986000  0.13406000  1.0
  C  C98  1  0.49258000  0.01583000  0.19068000  1.0
  C  C99  1  0.52590000  0.77033000  0.94049000  1.0
  C  C100  1  0.25142000  0.47922000  0.06548000  1.0
  C  C101  1  0.53277000  0.76314000  0.06254000  1.0
  C  C102  1  0.24992000  0.47770000  0.93589000  1.0
  C  C103  1  0.44337000  0.28028000  0.93569000  1.0
  C  C104  1  0.74303000  0.55183000  0.05983000  1.0
  C  C105  1  0.45180000  0.27752000  0.06501000  1.0
  C  C106  1  0.74046000  0.55903000  0.94048000  1.0
  C  C107  1  0.92265000  0.51773000  0.13384000  1.0
  C  C108  1  0.99153000  0.51947000  0.19175000  1.0
  C  C109  1  0.06616000  0.51858000  0.13548000  1.0
  C  C110  1  0.48798000  0.95255000  0.86786000  1.0
  C  C111  1  0.48499000  0.09566000  0.86634000  1.0
  C  C112  1  0.48690000  0.02185000  0.80997000  1.0
  C  C113  1  0.92043000  0.52195000  0.86763000  1.0
  C  C114  1  0.06378000  0.51965000  0.86588000  1.0
  C  C115  1  0.98887000  0.52134000  0.80961000  1.0
  C  C116  1  0.44094000  0.19374000  0.91909000  1.0
  C  C117  1  0.48095000  0.17782000  0.88542000  1.0
  C  C118  1  0.52771000  0.85702000  0.92338000  1.0
  C  C119  1  0.49137000  0.87166000  0.88858000  1.0
  C  C120  1  0.82870000  0.55492000  0.07785000  1.0
  C  C121  1  0.84203000  0.51858000  0.11283000  1.0
  C  C122  1  0.16501000  0.47670000  0.08259000  1.0
  C  C123  1  0.14880000  0.51613000  0.11636000  1.0
  C  C124  1  0.82663000  0.56253000  0.92297000  1.0
  C  C125  1  0.83995000  0.52443000  0.88859000  1.0
  C  C126  1  0.16325000  0.47720000  0.91903000  1.0
  C  C127  1  0.14671000  0.51537000  0.88481000  1.0
  C  C128  1  0.49169000  0.17260000  0.11486000  1.0
  C  C129  1  0.45038000  0.19048000  0.08160000  1.0
  C  C130  1  0.53388000  0.85019000  0.07881000  1.0
  C  C131  1  0.49510000  0.86554000  0.11287000  1.0
  C  C132  1  0.98684000  0.52137000  0.76798000  1.0
  C  C133  1  0.98604000  0.52138000  0.73255000  1.0
  C  C134  1  0.48699000  0.02075000  0.76836000  1.0
  C  C135  1  0.48681000  0.02081000  0.73294000  1.0
  C  C136  1  0.48984000  0.01549000  0.26775000  1.0
  C  C137  1  0.49134000  0.01476000  0.23234000  1.0
  C  C138  1  0.98963000  0.52043000  0.23339000  1.0
  C  C139  1  0.98859000  0.52127000  0.26881000  1.0
  C  C140  1  0.98981000  0.68136000  0.61557000  1.0
  C  C141  1  0.03083000  0.69791000  0.58215000  1.0
  C  C142  1  0.94386000  0.36107000  0.57795000  1.0
  C  C143  1  0.98308000  0.37483000  0.61211000  1.0
  C  C144  1  0.99391000  0.68136000  0.38503000  1.0
  C  C145  1  0.03001000  0.69750000  0.41963000  1.0
  C  C146  1  0.94462000  0.36239000  0.42462000  1.0
  C  C147  1  0.98207000  0.37509000  0.38993000  1.0
  C  C148  1  0.31325000  0.97596000  0.58206000  1.0
  C  C149  1  0.32973000  0.01654000  0.61546000  1.0
  C  C150  1  0.63676000  0.02493000  0.61344000  1.0
  C  C151  1  0.65171000  0.06392000  0.57927000  1.0
  C  C152  1  0.32940000  0.01347000  0.38434000  1.0
  C  C153  1  0.31381000  0.97743000  0.41911000  1.0
  C  C154  1  0.63564000  0.02743000  0.38843000  1.0
  C  C155  1  0.64884000  0.06325000  0.42332000  1.0
  N  N156  1  0.98878000  0.44903000  0.32947000  1.0
  N  N157  1  0.98684000  0.60016000  0.32711000  1.0
  N  N158  1  0.98734000  0.52834000  0.38871000  1.0
  N  N159  1  0.41064000  0.01842000  0.32613000  1.0
  N  N160  1  0.56188000  0.01771000  0.32830000  1.0
  N  N161  1  0.48235000  0.02128000  0.38762000  1.0
  N  N162  1  0.40963000  0.02362000  0.67395000  1.0
  N  N163  1  0.56086000  0.01868000  0.67302000  1.0
  N  N164  1  0.48324000  0.02088000  0.61303000  1.0
  N  N165  1  0.98577000  0.52819000  0.61266000  1.0
  N  N166  1  0.98284000  0.59994000  0.67390000  1.0
  N  N167  1  0.98836000  0.44884000  0.67226000  1.0
  N  N168  1  0.49333000  0.01913000  0.11243000  1.0
  N  N169  1  0.49721000  0.09202000  0.17337000  1.0
  N  N170  1  0.48875000  0.94112000  0.17238000  1.0
  N  N171  1  0.91685000  0.51550000  0.17309000  1.0
  N  N172  1  0.06803000  0.52266000  0.17477000  1.0
  N  N173  1  0.99550000  0.51772000  0.11354000  1.0
  N  N174  1  0.48624000  0.02481000  0.88827000  1.0
  N  N175  1  0.48846000  0.09804000  0.82704000  1.0
  N  N176  1  0.48516000  0.94693000  0.82862000  1.0
  N  N177  1  0.99346000  0.52053000  0.88792000  1.0
  N  N178  1  0.06560000  0.52324000  0.82660000  1.0
  N  N179  1  0.91437000  0.51932000  0.82838000  1.0
  O  O180  1  0.78033000  0.99725000  0.43126000  1.0
  O  O181  1  0.75728000  0.12051000  0.46339000  1.0
  O  O182  1  0.96851000  0.83188000  0.57615000  1.0
  O  O183  1  0.08719000  0.80474000  0.54105000  1.0
  O  O184  1  0.78437000  0.99916000  0.57262000  1.0
  O  O185  1  0.76076000  0.12280000  0.54014000  1.0
  O  O186  1  0.97101000  0.83408000  0.42385000  1.0
  O  O187  1  0.08380000  0.80152000  0.46215000  1.0
  O  O188  1  0.81553000  0.85053000  0.46535000  1.0
  O  O189  1  0.89871000  0.94562000  0.38497000  1.0
  O  O190  1  0.81098000  0.85374000  0.53946000  1.0
  O  O191  1  0.92836000  0.97037000  0.61485000  1.0
  O  O192  1  0.87233000  0.00844000  0.50226000  1.0
  O  O193  1  0.95682000  0.87300000  0.50164000  1.0
  O  O194  1  0.17992000  0.04023000  0.42403000  1.0
  O  O195  1  0.20647000  0.92239000  0.46017000  1.0
  O  O196  1  0.01180000  0.23111000  0.56952000  1.0
  O  O197  1  0.88681000  0.25243000  0.53802000  1.0
  O  O198  1  0.17577000  0.03267000  0.57853000  1.0
  O  O199  1  0.21001000  0.92497000  0.53812000  1.0
  O  O200  1  0.01507000  0.23478000  0.43585000  1.0
  O  O201  1  0.88352000  0.24953000  0.46129000  1.0
  O  O202  1  0.16957000  0.19874000  0.44476000  1.0
  O  O203  1  0.04496000  0.10614000  0.38894000  1.0
  O  O204  1  0.16562000  0.18719000  0.54749000  1.0
  O  O205  1  0.04269000  0.08329000  0.61515000  1.0
  O  O206  1  0.13836000  0.05808000  0.49929000  1.0
  O  O207  1  0.00209000  0.13952000  0.49970000  1.0
  O  O208  1  0.03157000  0.97649000  0.45800000  1.0
  O  O209  1  0.92441000  0.09119000  0.55919000  1.0
  O  O210  1  0.92123000  0.08499000  0.44094000  1.0
  O  O211  1  0.03348000  0.97996000  0.54241000  1.0
  O  O212  1  0.46149000  0.72579000  0.93101000  1.0
  O  O213  1  0.58600000  0.74709000  0.96261000  1.0
  O  O214  1  0.29648000  0.54281000  0.07491000  1.0
  O  O215  1  0.27271000  0.42046000  0.04213000  1.0
  O  O216  1  0.47210000  0.71619000  0.07391000  1.0
  O  O217  1  0.59163000  0.74204000  0.03906000  1.0
  O  O218  1  0.29980000  0.53559000  0.92369000  1.0
  O  O219  1  0.26712000  0.42325000  0.96223000  1.0
  O  O220  1  0.31601000  0.68983000  0.96589000  1.0
  O  O221  1  0.40964000  0.60984000  0.88452000  1.0
  O  O222  1  0.32164000  0.69627000  0.03923000  1.0
  O  O223  1  0.43899000  0.57246000  0.11431000  1.0
  O  O224  1  0.47469000  0.63364000  0.00190000  1.0
  O  O225  1  0.34086000  0.54754000  0.00119000  1.0
  O  O226  1  0.50302000  0.32750000  0.92382000  1.0
  O  O227  1  0.38771000  0.29964000  0.96118000  1.0
  O  O228  1  0.69888000  0.48715000  0.06876000  1.0
  O  O229  1  0.72057000  0.61241000  0.03741000  1.0
  O  O230  1  0.51208000  0.32517000  0.07608000  1.0
  O  O231  1  0.39473000  0.29704000  0.04018000  1.0
  O  O232  1  0.69893000  0.49246000  0.93342000  1.0
  O  O233  1  0.71474000  0.62188000  0.96069000  1.0
  O  O234  1  0.66464000  0.34326000  0.96074000  1.0
  O  O235  1  0.56994000  0.45903000  0.88755000  1.0
  O  O236  1  0.66341000  0.34314000  0.03447000  1.0
  O  O237  1  0.55243000  0.46007000  0.11385000  1.0
  O  O238  1  0.52017000  0.36727000  0.99910000  1.0
  O  O239  1  0.60366000  0.50255000  0.99857000  1.0
  O  O240  1  0.44300000  0.47435000  0.95786000  1.0
  O  O241  1  0.56023000  0.57835000  0.05842000  1.0
  O  O242  1  0.54988000  0.58366000  0.93989000  1.0
  O  O243  1  0.44757000  0.47202000  0.04306000  1.0
