# generated using pymatgen
data_BiH16C10S4N2Cl
_symmetry_space_group_name_H-M   'P 1'
_cell_length_a   7.64933000
_cell_length_b   10.59630000
_cell_length_c   20.98470000
_cell_angle_alpha   84.72950000
_cell_angle_beta   89.99590000
_cell_angle_gamma   89.99840000
_symmetry_Int_Tables_number   1
_chemical_formula_structural   BiH16C10S4N2Cl
_chemical_formula_sum   'Bi4 H64 C40 S16 N8 Cl4'
_cell_volume   1693.71514592
_cell_formula_units_Z   4
loop_
 _symmetry_equiv_pos_site_id
 _symmetry_equiv_pos_as_xyz
  1  'x, y, z'
loop_
 _atom_site_type_symbol
 _atom_site_label
 _atom_site_symmetry_multiplicity
 _atom_site_fract_x
 _atom_site_fract_y
 _atom_site_fract_z
 _atom_site_occupancy
  Bi  Bi0  1  0.73593000  0.18914000  0.78228000  1.0
  Bi  Bi1  1  0.76407000  0.68911000  0.28228000  1.0
  Bi  Bi2  1  0.26408000  0.81087000  0.21773000  1.0
  Bi  Bi3  1  0.23596000  0.31084000  0.71771000  1.0
  H  H4  1  0.28576000  0.91099000  0.91621000  1.0
  H  H5  1  0.21420000  0.41102000  0.41621000  1.0
  H  H6  1  0.71419000  0.08904000  0.08380000  1.0
  H  H7  1  0.78584000  0.58903000  0.58379000  1.0
  H  H8  1  0.35863000  0.98059000  0.84024000  1.0
  H  H9  1  0.14133000  0.48060000  0.34024000  1.0
  H  H10  1  0.64133000  0.01943000  0.15977000  1.0
  H  H11  1  0.85870000  0.51942000  0.65976000  1.0
  H  H12  1  0.44984000  0.77736000  0.80741000  1.0
  H  H13  1  0.05016000  0.27734000  0.30743000  1.0
  H  H14  1  0.55015000  0.22269000  0.19260000  1.0
  H  H15  1  0.94982000  0.72269000  0.69259000  1.0
  H  H16  1  0.50395000  0.75537000  0.88980000  1.0
  H  H17  1  0.99606000  0.25537000  0.38981000  1.0
  H  H18  1  0.49606000  0.24467000  0.11022000  1.0
  H  H19  1  0.00393000  0.74467000  0.61020000  1.0
  H  H20  1  0.21939000  0.65153000  0.91486000  1.0
  H  H21  1  0.28066000  0.15156000  0.41488000  1.0
  H  H22  1  0.78063000  0.34847000  0.08514000  1.0
  H  H23  1  0.71933000  0.84845000  0.58514000  1.0
  H  H24  1  0.28489000  0.58450000  0.84370000  1.0
  H  H25  1  0.21516000  0.08450000  0.34372000  1.0
  H  H26  1  0.71516000  0.41552000  0.15630000  1.0
  H  H27  1  0.78478000  0.91551000  0.65629000  1.0
  H  H28  1  0.09974000  0.72798000  0.77750000  1.0
  H  H29  1  0.40023000  0.22800000  0.27750000  1.0
  H  H30  1  0.90027000  0.27201000  0.22251000  1.0
  H  H31  1  0.59972000  0.77198000  0.72251000  1.0
  H  H32  1  0.96760000  0.70839000  0.84716000  1.0
  H  H33  1  0.53241000  0.20841000  0.34714000  1.0
  H  H34  1  0.03242000  0.29160000  0.15285000  1.0
  H  H35  1  0.46756000  0.79157000  0.65286000  1.0
  H  H36  1  0.15027000  0.37147000  0.88765000  1.0
  H  H37  1  0.34968000  0.87150000  0.38766000  1.0
  H  H38  1  0.84973000  0.62850000  0.11234000  1.0
  H  H39  1  0.65035000  0.12847000  0.61232000  1.0
  H  H40  1  0.25126000  0.43743000  0.95344000  1.0
  H  H41  1  0.24869000  0.93745000  0.45346000  1.0
  H  H42  1  0.74873000  0.56254000  0.04654000  1.0
  H  H43  1  0.75131000  0.06255000  0.54651000  1.0
  H  H44  1  0.96936000  0.23153000  0.95663000  1.0
  H  H45  1  0.53060000  0.73155000  0.45663000  1.0
  H  H46  1  0.03066000  0.76843000  0.04337000  1.0
  H  H47  1  0.46938000  0.26843000  0.54338000  1.0
  H  H48  1  0.98004000  0.36213000  0.00383000  1.0
  H  H49  1  0.51990000  0.86216000  0.50383000  1.0
  H  H50  1  0.01997000  0.63784000  0.99616000  1.0
  H  H51  1  0.48009000  0.13786000  0.49615000  1.0
  H  H52  1  0.21881000  0.26408000  0.06882000  1.0
  H  H53  1  0.28110000  0.76415000  0.56882000  1.0
  H  H54  1  0.78121000  0.73592000  0.93117000  1.0
  H  H55  1  0.71883000  0.23595000  0.43116000  1.0
  H  H56  1  0.08915000  0.12979000  0.05707000  1.0
  H  H57  1  0.41077000  0.62984000  0.55709000  1.0
  H  H58  1  0.91090000  0.87019000  0.94293000  1.0
  H  H59  1  0.58916000  0.37022000  0.44294000  1.0
  H  H60  1  0.43591000  0.13996000  0.01954000  1.0
  H  H61  1  0.06404000  0.63998000  0.51956000  1.0
  H  H62  1  0.56415000  0.86007000  0.98045000  1.0
  H  H63  1  0.93591000  0.36007000  0.48044000  1.0
  H  H64  1  0.27756000  0.06582000  0.97413000  1.0
  H  H65  1  0.22244000  0.56585000  0.47414000  1.0
  H  H66  1  0.72253000  0.93416000  0.02588000  1.0
  H  H67  1  0.77754000  0.43416000  0.52589000  1.0
  C  C68  1  0.00774000  0.96542000  0.82421000  1.0
  C  C69  1  0.49227000  0.46544000  0.32421000  1.0
  C  C70  1  0.99227000  0.03457000  0.17579000  1.0
  C  C71  1  0.50772000  0.53455000  0.67578000  1.0
  C  C72  1  0.29908000  0.89588000  0.86510000  1.0
  C  C73  1  0.20090000  0.39589000  0.36510000  1.0
  C  C74  1  0.70090000  0.10414000  0.13491000  1.0
  C  C75  1  0.79911000  0.60413000  0.63490000  1.0
  C  C76  1  0.39552000  0.77288000  0.85604000  1.0
  C  C77  1  0.10448000  0.27289000  0.35605000  1.0
  C  C78  1  0.60448000  0.22715000  0.14397000  1.0
  C  C79  1  0.89550000  0.72715000  0.64397000  1.0
  C  C80  1  0.25071000  0.67304000  0.86384000  1.0
  C  C81  1  0.24932000  0.17306000  0.36385000  1.0
  C  C82  1  0.74932000  0.32697000  0.13616000  1.0
  C  C83  1  0.75065000  0.82695000  0.63616000  1.0
  C  C84  1  0.09647000  0.73963000  0.82909000  1.0
  C  C85  1  0.40354000  0.23964000  0.32908000  1.0
  C  C86  1  0.90355000  0.26036000  0.17092000  1.0
  C  C87  1  0.59644000  0.76035000  0.67092000  1.0
  C  C88  1  0.46105000  0.24839000  0.89498000  1.0
  C  C89  1  0.03888000  0.74841000  0.39499000  1.0
  C  C90  1  0.53894000  0.75158000  0.10501000  1.0
  C  C91  1  0.96112000  0.25155000  0.60500000  1.0
  C  C92  1  0.19703000  0.34972000  0.93692000  1.0
  C  C93  1  0.30290000  0.84975000  0.43692000  1.0
  C  C94  1  0.80297000  0.65026000  0.06307000  1.0
  C  C95  1  0.69711000  0.15025000  0.56306000  1.0
  C  C96  1  0.05840000  0.29000000  0.98264000  1.0
  C  C97  1  0.44154000  0.79002000  0.48265000  1.0
  C  C98  1  0.94162000  0.70996000  0.01736000  1.0
  C  C99  1  0.55844000  0.20998000  0.51735000  1.0
  C  C100  1  0.16503000  0.20703000  0.03223000  1.0
  C  C101  1  0.33491000  0.70708000  0.53224000  1.0
  C  C102  1  0.83500000  0.79296000  0.96776000  1.0
  C  C103  1  0.66505000  0.29298000  0.46776000  1.0
  C  C104  1  0.31302000  0.15589000  0.99300000  1.0
  C  C105  1  0.18694000  0.65593000  0.49301000  1.0
  C  C106  1  0.68702000  0.84410000  0.00700000  1.0
  C  C107  1  0.81303000  0.34409000  0.50699000  1.0
  S  S108  1  0.80774000  0.93008000  0.79368000  1.0
  S  S109  1  0.69231000  0.43007000  0.29369000  1.0
  S  S110  1  0.19229000  0.06992000  0.20631000  1.0
  S  S111  1  0.30769000  0.56989000  0.70630000  1.0
  S  S112  1  0.05524000  0.11971000  0.83874000  1.0
  S  S113  1  0.44478000  0.61970000  0.33874000  1.0
  S  S114  1  0.94479000  0.88029000  0.16126000  1.0
  S  S115  1  0.55525000  0.38029000  0.66124000  1.0
  S  S116  1  0.61321000  0.12790000  0.90354000  1.0
  S  S117  1  0.88675000  0.62793000  0.40355000  1.0
  S  S118  1  0.38679000  0.87208000  0.09647000  1.0
  S  S119  1  0.11326000  0.37203000  0.59646000  1.0
  S  S120  1  0.47447000  0.36248000  0.83125000  1.0
  S  S121  1  0.02549000  0.86251000  0.33125000  1.0
  S  S122  1  0.52554000  0.63748000  0.16875000  1.0
  S  S123  1  0.97448000  0.13743000  0.66873000  1.0
  N  N124  1  0.12480000  0.87439000  0.83847000  1.0
  N  N125  1  0.37521000  0.37441000  0.33847000  1.0
  N  N126  1  0.87521000  0.12561000  0.16153000  1.0
  N  N127  1  0.62479000  0.62558000  0.66153000  1.0
  N  N128  1  0.33611000  0.25315000  0.93894000  1.0
  N  N129  1  0.16385000  0.75319000  0.43895000  1.0
  N  N130  1  0.66387000  0.74684000  0.06105000  1.0
  N  N131  1  0.83616000  0.24680000  0.56104000  1.0
  Cl  Cl132  1  0.44532000  0.07941000  0.72022000  1.0
  Cl  Cl133  1  0.05474000  0.57941000  0.22023000  1.0
  Cl  Cl134  1  0.55472000  0.92056000  0.27976000  1.0
  Cl  Cl135  1  0.94521000  0.42057000  0.77975000  1.0
