# generated using pymatgen
data_CdH6C4SN3ClO3
_symmetry_space_group_name_H-M   'P 1'
_cell_length_a   6.23717000
_cell_length_b   7.95409000
_cell_length_c   8.58179000
_cell_angle_alpha   94.38520000
_cell_angle_beta   102.77600000
_cell_angle_gamma   92.11060000
_symmetry_Int_Tables_number   1
_chemical_formula_structural   CdH6C4SN3ClO3
_chemical_formula_sum   'Cd2 H12 C8 S2 N6 Cl2 O6'
_cell_volume   413.36238893
_cell_formula_units_Z   2
loop_
 _symmetry_equiv_pos_site_id
 _symmetry_equiv_pos_as_xyz
  1  'x, y, z'
loop_
 _atom_site_type_symbol
 _atom_site_label
 _atom_site_symmetry_multiplicity
 _atom_site_fract_x
 _atom_site_fract_y
 _atom_site_fract_z
 _atom_site_occupancy
  Cd  Cd0  1  0.50000000  0.50000000  0.50000000  1.0
  Cd  Cd1  1  0.50000000  0.00000000  0.50000000  1.0
  H  H2  1  0.32049000  0.44356000  0.97204000  1.0
  H  H3  1  0.67951000  0.55643000  0.02796000  1.0
  H  H4  1  0.40947000  0.28717000  0.84462000  1.0
  H  H5  1  0.59053000  0.71283000  0.15538000  1.0
  H  H6  1  0.30890000  0.05957000  0.01001000  1.0
  H  H7  1  0.69110000  0.94042000  0.98999000  1.0
  H  H8  1  0.22315000  0.21578000  0.14041000  1.0
  H  H9  1  0.77685000  0.78422000  0.85959000  1.0
  H  H10  1  0.99538000  0.55267000  0.79854000  1.0
  H  H11  1  0.00462000  0.44733000  0.20146000  1.0
  H  H12  1  0.01518000  0.02068000  0.76927000  1.0
  H  H13  1  0.98482000  0.97932000  0.23073000  1.0
  C  C14  1  0.29541000  0.31112000  0.92353000  1.0
  C  C15  1  0.70459000  0.68888000  0.07647000  1.0
  C  C16  1  0.33121000  0.19286000  0.05674000  1.0
  C  C17  1  0.66878000  0.80714000  0.94326000  1.0
  C  C18  1  0.94493000  0.41989000  0.76910000  1.0
  C  C19  1  0.05507000  0.58012000  0.23090000  1.0
  C  C20  1  0.95634000  0.14639000  0.75499000  1.0
  C  C21  1  0.04365000  0.85361000  0.24501000  1.0
  S  S22  1  0.60803000  0.22212000  0.17565000  1.0
  S  S23  1  0.39197000  0.77788000  0.82436000  1.0
  N  N24  1  0.76756000  0.18370000  0.66376000  1.0
  N  N25  1  0.23244000  0.81631000  0.33624000  1.0
  N  N26  1  0.07121000  0.29185000  0.82420000  1.0
  N  N27  1  0.92880000  0.70816000  0.17580000  1.0
  N  N28  1  0.76033000  0.35631000  0.67216000  1.0
  N  N29  1  0.23966000  0.64370000  0.32784000  1.0
  Cl  Cl30  1  0.77869000  0.75927000  0.53620000  1.0
  Cl  Cl31  1  0.22131000  0.24073000  0.46380000  1.0
  O  O32  1  0.63678000  0.07588000  0.27295000  1.0
  O  O33  1  0.36322000  0.92412000  0.72705000  1.0
  O  O34  1  0.75668000  0.22323000  0.06494000  1.0
  O  O35  1  0.24332000  0.77677000  0.93506000  1.0
  O  O36  1  0.62110000  0.38625000  0.27106000  1.0
  O  O37  1  0.37890000  0.61374000  0.72894000  1.0
