# generated using pymatgen
data_Cd3H30C38(N3O4)4
_symmetry_space_group_name_H-M   'P 1'
_cell_length_a   6.19127000
_cell_length_b   13.63648288
_cell_length_c   13.91420000
_cell_angle_alpha   60.79308623
_cell_angle_beta   89.91170000
_cell_angle_gamma   80.59203539
_symmetry_Int_Tables_number   1
_chemical_formula_structural   Cd3H30C38(N3O4)4
_chemical_formula_sum   'Cd3 H30 C38 N12 O16'
_cell_volume   1007.40973845
_cell_formula_units_Z   1
loop_
 _symmetry_equiv_pos_site_id
 _symmetry_equiv_pos_as_xyz
  1  'x, y, z'
loop_
 _atom_site_type_symbol
 _atom_site_label
 _atom_site_symmetry_multiplicity
 _atom_site_fract_x
 _atom_site_fract_y
 _atom_site_fract_z
 _atom_site_occupancy
  Cd  Cd0  1  0.00000000  0.00000000  0.50000000  1.0
  Cd  Cd1  1  0.41282000  0.94923000  0.88659000  1.0
  Cd  Cd2  1  0.58717000  0.05077000  0.11341000  1.0
  H  H3  1  0.26662000  0.72113000  0.13512000  1.0
  H  H4  1  0.73338000  0.27887000  0.86488000  1.0
  H  H5  1  0.87126000  0.75184000  0.99317000  1.0
  H  H6  1  0.12874000  0.24815000  0.00683000  1.0
  H  H7  1  0.93695000  0.55922000  0.20196000  1.0
  H  H8  1  0.06306000  0.44078000  0.79804000  1.0
  H  H9  1  0.84523000  0.40096000  0.33602000  1.0
  H  H10  1  0.15477000  0.59904000  0.66398000  1.0
  H  H11  1  0.72941000  0.25797000  0.51059000  1.0
  H  H12  1  0.27060000  0.74203000  0.48941000  1.0
  H  H13  1  0.60355000  0.14485000  0.65777000  1.0
  H  H14  1  0.39645000  0.85514000  0.34223000  1.0
  H  H15  1  0.02933000  0.39876000  0.58676000  1.0
  H  H16  1  0.97068000  0.60124000  0.41323000  1.0
  H  H17  1  0.00727000  0.20284000  0.78446000  1.0
  H  H18  1  0.99272000  0.79716000  0.21553000  1.0
  H  H19  1  0.24678000  0.67455000  0.90248000  1.0
  H  H20  1  0.75323000  0.32545000  0.09752000  1.0
  H  H21  1  0.86867000  0.44411000  0.97431000  1.0
  H  H22  1  0.13133000  0.55589000  0.02569000  1.0
  H  H23  1  0.99487000  0.58879000  0.80553000  1.0
  H  H24  1  0.00513000  0.41121000  0.19448000  1.0
  H  H25  1  0.85456000  0.93217000  0.82483000  1.0
  H  H26  1  0.14543000  0.06783000  0.17517000  1.0
  H  H27  1  0.09652000  0.04374000  0.65511000  1.0
  H  H28  1  0.90348000  0.95626000  0.34489000  1.0
  H  H29  1  0.72962000  0.91997000  0.72838000  1.0
  H  H30  1  0.27038000  0.08003000  0.27162000  1.0
  H  H31  1  0.07467000  0.16019000  0.53531000  1.0
  H  H32  1  0.92532000  0.83981000  0.46469000  1.0
  C  C33  1  0.43818000  0.70523000  0.12215000  1.0
  C  C34  1  0.56181000  0.29477000  0.87786000  1.0
  C  C35  1  0.75525000  0.71527000  0.05338000  1.0
  C  C36  1  0.24476000  0.28473000  0.94662000  1.0
  C  C37  1  0.78890000  0.61910000  0.15530000  1.0
  C  C38  1  0.21109000  0.38091000  0.84468000  1.0
  C  C39  1  0.53894000  0.52516000  0.30184000  1.0
  C  C40  1  0.46105000  0.47485000  0.69815000  1.0
  C  C41  1  0.68653000  0.42120000  0.36242000  1.0
  C  C42  1  0.31348000  0.57880000  0.63758000  1.0
  C  C43  1  0.62347000  0.34107000  0.46074000  1.0
  C  C44  1  0.37652000  0.65894000  0.53925000  1.0
  C  C45  1  0.41887000  0.37160000  0.49185000  1.0
  C  C46  1  0.58113000  0.62840000  0.50816000  1.0
  C  C47  1  0.44629000  0.18703000  0.66662000  1.0
  C  C48  1  0.55370000  0.81297000  0.33338000  1.0
  C  C49  1  0.14335000  0.31805000  0.63141000  1.0
  C  C50  1  0.85665000  0.68195000  0.36859000  1.0
  C  C51  1  0.13651000  0.22063000  0.72920000  1.0
  C  C52  1  0.86349000  0.77938000  0.27079000  1.0
  C  C53  1  0.32637000  0.84331000  0.71117000  1.0
  C  C54  1  0.67362000  0.15668000  0.28884000  1.0
  C  C55  1  0.48198000  0.73335000  0.78510000  1.0
  C  C56  1  0.51802000  0.26664000  0.21491000  1.0
  C  C57  1  0.41036000  0.65192000  0.88189000  1.0
  C  C58  1  0.58964000  0.34808000  0.11811000  1.0
  C  C59  1  0.54118000  0.54389000  0.95031000  1.0
  C  C60  1  0.45882000  0.45611000  0.04968000  1.0
  C  C61  1  0.75510000  0.52359000  0.92133000  1.0
  C  C62  1  0.24490000  0.47641000  0.07867000  1.0
  C  C63  1  0.82719000  0.60481000  0.82522000  1.0
  C  C64  1  0.17281000  0.39520000  0.17477000  1.0
  C  C65  1  0.69015000  0.70857000  0.75360000  1.0
  C  C66  1  0.30985000  0.29144000  0.24640000  1.0
  C  C67  1  0.76998000  0.78917000  0.64627000  1.0
  C  C68  1  0.23001000  0.21083000  0.35373000  1.0
  C  C69  1  0.93001000  0.97866000  0.96986000  1.0
  C  C70  1  0.06999000  0.02134000  0.03014000  1.0
  N  N71  1  0.53659000  0.76798000  0.03405000  1.0
  N  N72  1  0.46341000  0.23202000  0.96595000  1.0
  N  N73  1  0.58616000  0.61253000  0.19877000  1.0
  N  N74  1  0.41385000  0.38747000  0.80123000  1.0
  N  N75  1  0.34569000  0.54952000  0.33555000  1.0
  N  N76  1  0.65431000  0.45048000  0.66446000  1.0
  N  N77  1  0.28566000  0.47255000  0.43113000  1.0
  N  N78  1  0.71434000  0.52746000  0.56887000  1.0
  N  N79  1  0.34182000  0.29602000  0.59201000  1.0
  N  N80  1  0.65818000  0.70398000  0.40799000  1.0
  N  N81  1  0.32494000  0.14016000  0.75035000  1.0
  N  N82  1  0.67505000  0.85984000  0.24964000  1.0
  O  O83  1  0.25284000  0.90959000  0.74875000  1.0
  O  O84  1  0.74714000  0.09041000  0.25125000  1.0
  O  O85  1  0.27569000  0.85823000  0.61616000  1.0
  O  O86  1  0.72431000  0.14177000  0.38384000  1.0
  O  O87  1  0.84274000  0.74861000  0.58554000  1.0
  O  O88  1  0.15726000  0.25140000  0.41446000  1.0
  O  O89  1  0.76258000  0.89215000  0.62558000  1.0
  O  O90  1  0.23743000  0.10785000  0.37442000  1.0
  O  O91  1  0.71030000  0.93938000  0.78898000  1.0
  O  O92  1  0.28969000  0.06062000  0.21102000  1.0
  O  O93  1  0.03395000  0.93351000  0.91808000  1.0
  O  O94  1  0.96606000  0.06648000  0.08193000  1.0
  O  O95  1  0.72483000  0.99166000  0.97722000  1.0
  O  O96  1  0.27517000  0.00835000  0.02277000  1.0
  O  O97  1  0.99090000  0.10474000  0.59255000  1.0
  O  O98  1  0.00910000  0.89526000  0.40745000  1.0
