# generated using pymatgen
data_Cu3P2H10C10(NO4)2
_symmetry_space_group_name_H-M   'P 1'
_cell_length_a   5.17449000
_cell_length_b   7.95084000
_cell_length_c   20.41200000
_cell_angle_alpha   89.99970000
_cell_angle_beta   89.99980000
_cell_angle_gamma   107.25000000
_symmetry_Int_Tables_number   1
_chemical_formula_structural   Cu3P2H10C10(NO4)2
_chemical_formula_sum   'Cu6 P4 H20 C20 N4 O16'
_cell_volume   802.00775367
_cell_formula_units_Z   2
loop_
 _symmetry_equiv_pos_site_id
 _symmetry_equiv_pos_as_xyz
  1  'x, y, z'
loop_
 _atom_site_type_symbol
 _atom_site_label
 _atom_site_symmetry_multiplicity
 _atom_site_fract_x
 _atom_site_fract_y
 _atom_site_fract_z
 _atom_site_occupancy
  Cu  Cu0  1  0.55556000  0.36668000  0.54894000  1.0
  Cu  Cu1  1  0.94444000  0.63331000  0.04895000  1.0
  Cu  Cu2  1  0.44544000  0.63488000  0.45109000  1.0
  Cu  Cu3  1  0.05456000  0.36512000  0.95110000  1.0
  Cu  Cu4  1  0.50075000  0.99896000  0.49981000  1.0
  Cu  Cu5  1  0.99926000  0.00104000  0.99981000  1.0
  P  P6  1  0.05329000  0.25642000  0.44191000  1.0
  P  P7  1  0.44672000  0.74358000  0.94192000  1.0
  P  P8  1  0.94797000  0.74404000  0.55828000  1.0
  P  P9  1  0.55203000  0.25596000  0.05829000  1.0
  H  H10  1  0.20540000  0.07546000  0.58009000  1.0
  H  H11  1  0.29460000  0.92454000  0.08009000  1.0
  H  H12  1  0.79601000  0.92576000  0.41956000  1.0
  H  H13  1  0.70399000  0.07425000  0.91957000  1.0
  H  H14  1  0.59567000  0.23972000  0.35188000  1.0
  H  H15  1  0.90434000  0.76028000  0.85188000  1.0
  H  H16  1  0.40496000  0.75961000  0.64834000  1.0
  H  H17  1  0.09503000  0.24039000  0.14835000  1.0
  H  H18  1  0.49146000  0.47471000  0.28411000  1.0
  H  H19  1  0.00854000  0.52529000  0.78411000  1.0
  H  H20  1  0.50771000  0.52398000  0.71606000  1.0
  H  H21  1  0.99228000  0.47602000  0.21606000  1.0
  H  H22  1  0.81298000  0.78231000  0.28715000  1.0
  H  H23  1  0.68702000  0.21769000  0.78715000  1.0
  H  H24  1  0.18496000  0.21681000  0.71289000  1.0
  H  H25  1  0.31503000  0.78319000  0.21289000  1.0
  H  H26  1  0.23470000  0.83967000  0.35623000  1.0
  H  H27  1  0.26529000  0.16033000  0.85623000  1.0
  H  H28  1  0.76340000  0.16046000  0.64378000  1.0
  H  H29  1  0.73660000  0.83953000  0.14378000  1.0
  C  C30  1  0.97510000  0.41484000  0.38601000  1.0
  C  C31  1  0.52491000  0.58516000  0.88601000  1.0
  C  C32  1  0.02481000  0.58531000  0.61425000  1.0
  C  C33  1  0.47518000  0.41469000  0.11425000  1.0
  C  C34  1  0.73679000  0.37231000  0.34921000  1.0
  C  C35  1  0.76322000  0.62768000  0.84922000  1.0
  C  C36  1  0.26318000  0.62722000  0.65100000  1.0
  C  C37  1  0.23681000  0.37278000  0.15101000  1.0
  C  C38  1  0.67758000  0.50412000  0.31259000  1.0
  C  C39  1  0.82242000  0.49588000  0.81259000  1.0
  C  C40  1  0.32163000  0.49505000  0.68758000  1.0
  C  C41  1  0.17836000  0.50494000  0.18758000  1.0
  C  C42  1  0.85615000  0.67498000  0.31379000  1.0
  C  C43  1  0.64385000  0.32502000  0.81379000  1.0
  C  C44  1  0.14244000  0.32441000  0.68629000  1.0
  C  C45  1  0.35755000  0.67560000  0.18629000  1.0
  C  C46  1  0.09060000  0.70883000  0.35122000  1.0
  C  C47  1  0.40941000  0.29117000  0.85122000  1.0
  C  C48  1  0.90793000  0.29114000  0.64891000  1.0
  C  C49  1  0.59206000  0.70886000  0.14891000  1.0
  N  N50  1  0.14745000  0.58042000  0.38598000  1.0
  N  N51  1  0.35255000  0.41958000  0.88598000  1.0
  N  N52  1  0.85161000  0.42000000  0.61429000  1.0
  N  N53  1  0.64838000  0.58000000  0.11429000  1.0
  O  O54  1  0.81365000  0.20762000  0.48993000  1.0
  O  O55  1  0.68637000  0.79238000  0.98993000  1.0
  O  O56  1  0.18834000  0.79194000  0.51038000  1.0
  O  O57  1  0.31166000  0.20806000  0.01039000  1.0
  O  O58  1  0.10951000  0.10602000  0.40577000  1.0
  O  O59  1  0.39049000  0.89398000  0.90577000  1.0
  O  O60  1  0.89196000  0.89457000  0.59430000  1.0
  O  O61  1  0.60805000  0.10543000  0.09431000  1.0
  O  O62  1  0.30529000  0.38340000  0.47799000  1.0
  O  O63  1  0.19473000  0.61659000  0.97800000  1.0
  O  O64  1  0.69611000  0.61782000  0.52190000  1.0
  O  O65  1  0.80389000  0.38219000  0.02191000  1.0
  O  O66  1  0.40275000  0.12409000  0.57225000  1.0
  O  O67  1  0.09726000  0.87591000  0.07225000  1.0
  O  O68  1  0.59779000  0.87690000  0.42618000  1.0
  O  O69  1  0.90221000  0.12310000  0.92618000  1.0
