# generated using pymatgen
data_Yb2Cu3H38C42(N3O17)2
_symmetry_space_group_name_H-M   'P 1'
_cell_length_a   11.38310000
_cell_length_b   13.08470000
_cell_length_c   19.00680000
_cell_angle_alpha   89.99960000
_cell_angle_beta   87.14140000
_cell_angle_gamma   89.99990000
_symmetry_Int_Tables_number   1
_chemical_formula_structural   Yb2Cu3H38C42(N3O17)2
_chemical_formula_sum   'Yb4 Cu6 H76 C84 N12 O68'
_cell_volume   2827.43465235
_cell_formula_units_Z   2
loop_
 _symmetry_equiv_pos_site_id
 _symmetry_equiv_pos_as_xyz
  1  'x, y, z'
loop_
 _atom_site_type_symbol
 _atom_site_label
 _atom_site_symmetry_multiplicity
 _atom_site_fract_x
 _atom_site_fract_y
 _atom_site_fract_z
 _atom_site_occupancy
  Yb  Yb0  1  0.13617000  0.93319000  0.64760000  1.0
  Yb  Yb1  1  0.36381000  0.43325000  0.85241000  1.0
  Yb  Yb2  1  0.86381000  0.06676000  0.35241000  1.0
  Yb  Yb3  1  0.63618000  0.56681000  0.14760000  1.0
  Cu  Cu4  1  0.84446000  0.59269000  0.82844000  1.0
  Cu  Cu5  1  0.65554000  0.09268000  0.67155000  1.0
  Cu  Cu6  1  0.15554000  0.40732000  0.17155000  1.0
  Cu  Cu7  1  0.34446000  0.90731000  0.32844000  1.0
  Cu  Cu8  1  0.00000000  0.99999000  0.00001000  1.0
  Cu  Cu9  1  0.50000000  0.50001000  0.50001000  1.0
  H  H10  1  0.19803000  0.74717000  0.68490000  1.0
  H  H11  1  0.30200000  0.24720000  0.81512000  1.0
  H  H12  1  0.80200000  0.25280000  0.31512000  1.0
  H  H13  1  0.69803000  0.75283000  0.18490000  1.0
  H  H14  1  0.19617000  0.79522000  0.76162000  1.0
  H  H15  1  0.30384000  0.29524000  0.73839000  1.0
  H  H16  1  0.80384000  0.20477000  0.23839000  1.0
  H  H17  1  0.69617000  0.70478000  0.26163000  1.0
  H  H18  1  0.14786000  0.74192000  0.56477000  1.0
  H  H19  1  0.35214000  0.24194000  0.93523000  1.0
  H  H20  1  0.85214000  0.25806000  0.43523000  1.0
  H  H21  1  0.64786000  0.75809000  0.06477000  1.0
  H  H22  1  0.01370000  0.74706000  0.59891000  1.0
  H  H23  1  0.48629000  0.24707000  0.90109000  1.0
  H  H24  1  0.98628000  0.25293000  0.40109000  1.0
  H  H25  1  0.51370000  0.75294000  0.09891000  1.0
  H  H26  1  0.35083000  0.07885000  0.67640000  1.0
  H  H27  1  0.14917000  0.57885000  0.82359000  1.0
  H  H28  1  0.64917000  0.92115000  0.32359000  1.0
  H  H29  1  0.85083000  0.42116000  0.17641000  1.0
  H  H30  1  0.24344000  0.06948000  0.73431000  1.0
  H  H31  1  0.25658000  0.56952000  0.76570000  1.0
  H  H32  1  0.75658000  0.93049000  0.26570000  1.0
  H  H33  1  0.74344000  0.43053000  0.23431000  1.0
  H  H34  1  0.18579000  0.96774000  0.49879000  1.0
  H  H35  1  0.31406000  0.46795000  0.00118000  1.0
  H  H36  1  0.81406000  0.03206000  0.50118000  1.0
  H  H37  1  0.68578000  0.53228000  0.99879000  1.0
  H  H38  1  0.07160000  0.04329000  0.51175000  1.0
  H  H39  1  0.42903000  0.54282000  0.98844000  1.0
  H  H40  1  0.92899000  0.95716000  0.48843000  1.0
  H  H41  1  0.57163000  0.45670000  0.01176000  1.0
  H  H42  1  0.96225000  0.09868000  0.65346000  1.0
  H  H43  1  0.53771000  0.59867000  0.84648000  1.0
  H  H44  1  0.03771000  0.90132000  0.34648000  1.0
  H  H45  1  0.46225000  0.40132000  0.15345000  1.0
  H  H46  1  0.07698000  0.16565000  0.62916000  1.0
  H  H47  1  0.42305000  0.66541000  0.87111000  1.0
  H  H48  1  0.92304000  0.83458000  0.37110000  1.0
  H  H49  1  0.57699000  0.33434000  0.12917000  1.0
  H  H50  1  0.60923000  0.65133000  0.69305000  1.0
  H  H51  1  0.89077000  0.15133000  0.80696000  1.0
  H  H52  1  0.39077000  0.34867000  0.30696000  1.0
  H  H53  1  0.10923000  0.84867000  0.19305000  1.0
  H  H54  1  0.42904000  0.75969000  0.70903000  1.0
  H  H55  1  0.07097000  0.25969000  0.79099000  1.0
  H  H56  1  0.57097000  0.24031000  0.29099000  1.0
  H  H57  1  0.92904000  0.74031000  0.20903000  1.0
  H  H58  1  0.44933000  0.94863000  0.70098000  1.0
  H  H59  1  0.05067000  0.44863000  0.79902000  1.0
  H  H60  1  0.55067000  0.05137000  0.29902000  1.0
  H  H61  1  0.94933000  0.55137000  0.20098000  1.0
  H  H62  1  0.80098000  0.03255000  0.83905000  1.0
  H  H63  1  0.69901000  0.53255000  0.66094000  1.0
  H  H64  1  0.19902000  0.96745000  0.16094000  1.0
  H  H65  1  0.30099000  0.46744000  0.33906000  1.0
  H  H66  1  0.62065000  0.93035000  0.85821000  1.0
  H  H67  1  0.87935000  0.43035000  0.64179000  1.0
  H  H68  1  0.37935000  0.06965000  0.14179000  1.0
  H  H69  1  0.12065000  0.56965000  0.35821000  1.0
  H  H70  1  0.63785000  0.73717000  0.85798000  1.0
  H  H71  1  0.86214000  0.23717000  0.64200000  1.0
  H  H72  1  0.36214000  0.26284000  0.14200000  1.0
  H  H73  1  0.13786000  0.76283000  0.35799000  1.0
  H  H74  1  0.92379000  0.43664000  0.98205000  1.0
  H  H75  1  0.57621000  0.93665000  0.51795000  1.0
  H  H76  1  0.07621000  0.56335000  0.01795000  1.0
  H  H77  1  0.42380000  0.06336000  0.48205000  1.0
  H  H78  1  0.74833000  0.32178000  0.99182000  1.0
  H  H79  1  0.75167000  0.82180000  0.50816000  1.0
  H  H80  1  0.25167000  0.67819000  0.00816000  1.0
  H  H81  1  0.24833000  0.17822000  0.49182000  1.0
  H  H82  1  0.77889000  0.13234000  0.00162000  1.0
  H  H83  1  0.72112000  0.63235000  0.49838000  1.0
  H  H84  1  0.22112000  0.86764000  0.99838000  1.0
  H  H85  1  0.27888000  0.36765000  0.50162000  1.0
  C  C86  1  0.83833000  0.95042000  0.66114000  1.0
  C  C87  1  0.66167000  0.45042000  0.83887000  1.0
  C  C88  1  0.16167000  0.04957000  0.33887000  1.0
  C  C89  1  0.33833000  0.54958000  0.16114000  1.0
  C  C90  1  0.72935000  0.88694000  0.67137000  1.0
  C  C91  1  0.77065000  0.38694000  0.82863000  1.0
  C  C92  1  0.27065000  0.11306000  0.32863000  1.0
  C  C93  1  0.22936000  0.61305000  0.17137000  1.0
  C  C94  1  0.72610000  0.77973000  0.67317000  1.0
  C  C95  1  0.77391000  0.27973000  0.82683000  1.0
  C  C96  1  0.27391000  0.22027000  0.32683000  1.0
  C  C97  1  0.22610000  0.72027000  0.17317000  1.0
  C  C98  1  0.83085000  0.70966000  0.65598000  1.0
  C  C99  1  0.66916000  0.20966000  0.84403000  1.0
  C  C100  1  0.16915000  0.29034000  0.34402000  1.0
  C  C101  1  0.33085000  0.79034000  0.15598000  1.0
  C  C102  1  0.61627000  0.73405000  0.68923000  1.0
  C  C103  1  0.88373000  0.23405000  0.81077000  1.0
  C  C104  1  0.38373000  0.26595000  0.31077000  1.0
  C  C105  1  0.11628000  0.76595000  0.18923000  1.0
  C  C106  1  0.51577000  0.79322000  0.69895000  1.0
  C  C107  1  0.98423000  0.29322000  0.80106000  1.0
  C  C108  1  0.48423000  0.20678000  0.30106000  1.0
  C  C109  1  0.01578000  0.70678000  0.19894000  1.0
  C  C110  1  0.52594000  0.89934000  0.69449000  1.0
  C  C111  1  0.97406000  0.39934000  0.80550000  1.0
  C  C112  1  0.47406000  0.10066000  0.30551000  1.0
  C  C113  1  0.02594000  0.60066000  0.19449000  1.0
  C  C114  1  0.02865000  0.73122000  0.83461000  1.0
  C  C115  1  0.47135000  0.23121000  0.66538000  1.0
  C  C116  1  0.97135000  0.26879000  0.16538000  1.0
  C  C117  1  0.52865000  0.76878000  0.33461000  1.0
  C  C118  1  0.91891000  0.79479000  0.83447000  1.0
  C  C119  1  0.58109000  0.29479000  0.66553000  1.0
  C  C120  1  0.08109000  0.20521000  0.16553000  1.0
  C  C121  1  0.41891000  0.70521000  0.33447000  1.0
  C  C122  1  0.91736000  0.90151000  0.83044000  1.0
  C  C123  1  0.58264000  0.40151000  0.66956000  1.0
  C  C124  1  0.08264000  0.09849000  0.16956000  1.0
  C  C125  1  0.41736000  0.59849000  0.33044000  1.0
  C  C126  1  0.02563000  0.96821000  0.81853000  1.0
  C  C127  1  0.47436000  0.46820000  0.68147000  1.0
  C  C128  1  0.97436000  0.03180000  0.18147000  1.0
  C  C129  1  0.52564000  0.53179000  0.31852000  1.0
  C  C130  1  0.80748000  0.94975000  0.83949000  1.0
  C  C131  1  0.69251000  0.44975000  0.66051000  1.0
  C  C132  1  0.19251000  0.05025000  0.16050000  1.0
  C  C133  1  0.30749000  0.55025000  0.33950000  1.0
  C  C134  1  0.70544000  0.89259000  0.84995000  1.0
  C  C135  1  0.79456000  0.39259000  0.65005000  1.0
  C  C136  1  0.29456000  0.10741000  0.15005000  1.0
  C  C137  1  0.20545000  0.60741000  0.34995000  1.0
  C  C138  1  0.71427000  0.78642000  0.85038000  1.0
  C  C139  1  0.78572000  0.28642000  0.64961000  1.0
  C  C140  1  0.28572000  0.21358000  0.14961000  1.0
  C  C141  1  0.21428000  0.71358000  0.35039000  1.0
  C  C142  1  0.17137000  0.14805000  0.99591000  1.0
  C  C143  1  0.32863000  0.64806000  0.50409000  1.0
  C  C144  1  0.82864000  0.85194000  0.00409000  1.0
  C  C145  1  0.67137000  0.35195000  0.49591000  1.0
  C  C146  1  0.05672000  0.20536000  0.99345000  1.0
  C  C147  1  0.44328000  0.70538000  0.50656000  1.0
  C  C148  1  0.94329000  0.79463000  0.00656000  1.0
  C  C149  1  0.55671000  0.29464000  0.49345000  1.0
  C  C150  1  0.04807000  0.31137000  0.98737000  1.0
  C  C151  1  0.45193000  0.81138000  0.51264000  1.0
  C  C152  1  0.95193000  0.68862000  0.01264000  1.0
  C  C153  1  0.54807000  0.18863000  0.48737000  1.0
  C  C154  1  0.15483000  0.37911000  0.97772000  1.0
  C  C155  1  0.34516000  0.87911000  0.52229000  1.0
  C  C156  1  0.84516000  0.62089000  0.02229000  1.0
  C  C157  1  0.65483000  0.12090000  0.47772000  1.0
  C  C158  1  0.93528000  0.35445000  0.98777000  1.0
  C  C159  1  0.56472000  0.85446000  0.51222000  1.0
  C  C160  1  0.06472000  0.64554000  0.01222000  1.0
  C  C161  1  0.43528000  0.14555000  0.48778000  1.0
  C  C162  1  0.83704000  0.29132000  0.99348000  1.0
  C  C163  1  0.66296000  0.79133000  0.50651000  1.0
  C  C164  1  0.16297000  0.70867000  0.00651000  1.0
  C  C165  1  0.33704000  0.20868000  0.49348000  1.0
  C  C166  1  0.85229000  0.18585000  0.99852000  1.0
  C  C167  1  0.64772000  0.68586000  0.50147000  1.0
  C  C168  1  0.14772000  0.81413000  0.00147000  1.0
  C  C169  1  0.35228000  0.31415000  0.49852000  1.0
  N  N170  1  0.63047000  0.94421000  0.68191000  1.0
  N  N171  1  0.86953000  0.44421000  0.81808000  1.0
  N  N172  1  0.36953000  0.05579000  0.31808000  1.0
  N  N173  1  0.13048000  0.55579000  0.18191000  1.0
  N  N174  1  0.81844000  0.73986000  0.84246000  1.0
  N  N175  1  0.68155000  0.23986000  0.65754000  1.0
  N  N176  1  0.18155000  0.26014000  0.15754000  1.0
  N  N177  1  0.31845000  0.76013000  0.34246000  1.0
  N  N178  1  0.96010000  0.14551000  0.99869000  1.0
  N  N179  1  0.53991000  0.64553000  0.50131000  1.0
  N  N180  1  0.03991000  0.85447000  0.00131000  1.0
  N  N181  1  0.46009000  0.35449000  0.49869000  1.0
  O  O182  1  0.82419000  0.04861000  0.66393000  1.0
  O  O183  1  0.67583000  0.54861000  0.83609000  1.0
  O  O184  1  0.17582000  0.95139000  0.33609000  1.0
  O  O185  1  0.32419000  0.45139000  0.16393000  1.0
  O  O186  1  0.93705000  0.90910000  0.65139000  1.0
  O  O187  1  0.56296000  0.40911000  0.84862000  1.0
  O  O188  1  0.06295000  0.09089000  0.34862000  1.0
  O  O189  1  0.43705000  0.59090000  0.15139000  1.0
  O  O190  1  0.87810000  0.71878000  0.59441000  1.0
  O  O191  1  0.62191000  0.21879000  0.90560000  1.0
  O  O192  1  0.12190000  0.28121000  0.40560000  1.0
  O  O193  1  0.37810000  0.78121000  0.09441000  1.0
  O  O194  1  0.85627000  0.64572000  0.70249000  1.0
  O  O195  1  0.64372000  0.14573000  0.79752000  1.0
  O  O196  1  0.14372000  0.35427000  0.29751000  1.0
  O  O197  1  0.35627000  0.85428000  0.20250000  1.0
  O  O198  1  0.01304000  0.63276000  0.83289000  1.0
  O  O199  1  0.48695000  0.13275000  0.66712000  1.0
  O  O200  1  0.98695000  0.36725000  0.16712000  1.0
  O  O201  1  0.51305000  0.86724000  0.33289000  1.0
  O  O202  1  0.12756000  0.77148000  0.83817000  1.0
  O  O203  1  0.37244000  0.27147000  0.66182000  1.0
  O  O204  1  0.87244000  0.22853000  0.16182000  1.0
  O  O205  1  0.62756000  0.72852000  0.33817000  1.0
  O  O206  1  0.08342000  0.95875000  0.75927000  1.0
  O  O207  1  0.41659000  0.45873000  0.74073000  1.0
  O  O208  1  0.91659000  0.04127000  0.24073000  1.0
  O  O209  1  0.58342000  0.54125000  0.25927000  1.0
  O  O210  1  0.04578000  0.03209000  0.86509000  1.0
  O  O211  1  0.45420000  0.53207000  0.63491000  1.0
  O  O212  1  0.95421000  0.96793000  0.13491000  1.0
  O  O213  1  0.54578000  0.46791000  0.36509000  1.0
  O  O214  1  0.16330000  0.05056000  0.00163000  1.0
  O  O215  1  0.33670000  0.55057000  0.49838000  1.0
  O  O216  1  0.83671000  0.94943000  0.99838000  1.0
  O  O217  1  0.66329000  0.44944000  0.50163000  1.0
  O  O218  1  0.26578000  0.19743000  0.99540000  1.0
  O  O219  1  0.23423000  0.69744000  0.50461000  1.0
  O  O220  1  0.73423000  0.80256000  0.00461000  1.0
  O  O221  1  0.76578000  0.30257000  0.49539000  1.0
  O  O222  1  0.19247000  0.42478000  0.03103000  1.0
  O  O223  1  0.30749000  0.92480000  0.46900000  1.0
  O  O224  1  0.80749000  0.57520000  0.96900000  1.0
  O  O225  1  0.69247000  0.07522000  0.53103000  1.0
  O  O226  1  0.19463000  0.39119000  0.91456000  1.0
  O  O227  1  0.30537000  0.89120000  0.58546000  1.0
  O  O228  1  0.80537000  0.60880000  0.08546000  1.0
  O  O229  1  0.69462000  0.10881000  0.41456000  1.0
  O  O230  1  0.23044000  0.80294000  0.71251000  1.0
  O  O231  1  0.26954000  0.30294000  0.78750000  1.0
  O  O232  1  0.76954000  0.19706000  0.28750000  1.0
  O  O233  1  0.73044000  0.69706000  0.21251000  1.0
  O  O234  1  0.09687000  0.77347000  0.60344000  1.0
  O  O235  1  0.40312000  0.27348000  0.89655000  1.0
  O  O236  1  0.90312000  0.22652000  0.39655000  1.0
  O  O237  1  0.59688000  0.72653000  0.10344000  1.0
  O  O238  1  0.27610000  0.04190000  0.68991000  1.0
  O  O239  1  0.22385000  0.54185000  0.81006000  1.0
  O  O240  1  0.72385000  0.95815000  0.31006000  1.0
  O  O241  1  0.77610000  0.45811000  0.18991000  1.0
  O  O242  1  0.11258000  0.98466000  0.53031000  1.0
  O  O243  1  0.38701000  0.48504000  0.96950000  1.0
  O  O244  1  0.88703000  0.01497000  0.46951000  1.0
  O  O245  1  0.61255000  0.51537000  0.03030000  1.0
  O  O246  1  0.04990000  0.10305000  0.65195000  1.0
  O  O247  1  0.45007000  0.60321000  0.84775000  1.0
  O  O248  1  0.95007000  0.89679000  0.34777000  1.0
  O  O249  1  0.54991000  0.39695000  0.15193000  1.0
