# generated using pymatgen
data_Al4H27C60N5(Cl2O15)2
_symmetry_space_group_name_H-M   'P 1'
_cell_length_a   6.70791000
_cell_length_b   17.47730000
_cell_length_c   19.16060000
_cell_angle_alpha   109.27870000
_cell_angle_beta   91.53810000
_cell_angle_gamma   91.25400000
_symmetry_Int_Tables_number   1
_chemical_formula_structural   Al4H27C60N5(Cl2O15)2
_chemical_formula_sum   'Al4 H27 C60 N5 Cl4 O30'
_cell_volume   2118.46062129
_cell_formula_units_Z   1
loop_
 _symmetry_equiv_pos_site_id
 _symmetry_equiv_pos_as_xyz
  1  'x, y, z'
loop_
 _atom_site_type_symbol
 _atom_site_label
 _atom_site_symmetry_multiplicity
 _atom_site_fract_x
 _atom_site_fract_y
 _atom_site_fract_z
 _atom_site_occupancy
  Al  Al0  1  0.09636000  0.50137000  0.49950000  1.0
  Al  Al1  1  0.59459000  0.49788000  0.49690000  1.0
  Al  Al2  1  0.68979000  0.99806000  0.00229000  1.0
  Al  Al3  1  0.18904000  0.00442000  0.99768000  1.0
  H  H4  1  0.12768000  0.36473000  0.78096000  1.0
  H  H5  1  0.11393000  0.43534000  0.68853000  1.0
  H  H6  1  0.62676000  0.21094000  0.66539000  1.0
  H  H7  1  0.57080000  0.21010000  0.78025000  1.0
  H  H8  1  0.22814000  0.16795000  0.88286000  1.0
  H  H9  1  0.20908000  0.25277000  0.80098000  1.0
  H  H10  1  0.49382000  0.30187000  0.05884000  1.0
  H  H11  1  0.23238000  0.18091000  0.43986000  1.0
  H  H12  1  0.97559000  0.27880000  0.43537000  1.0
  H  H13  1  0.57290000  0.41784000  0.29371000  1.0
  H  H14  1  0.74422000  0.20183000  0.06075000  1.0
  H  H15  1  0.97354000  0.55570000  0.80639000  1.0
  H  H16  1  0.57002000  0.70692000  0.56822000  1.0
  H  H17  1  0.76924000  0.82794000  0.57214000  1.0
  H  H18  1  0.81575000  0.94435000  0.69055000  1.0
  H  H19  1  0.65569000  0.93992000  0.80295000  1.0
  H  H20  1  0.20686000  0.79400000  0.92810000  1.0
  H  H21  1  0.14327000  0.55972000  0.69384000  1.0
  H  H22  1  0.68815000  0.74898000  0.31703000  1.0
  H  H23  1  0.64818000  0.66777000  0.40031000  1.0
  H  H24  1  0.08254000  0.68126000  0.23457000  1.0
  H  H25  1  0.13208000  0.83275000  0.26125000  1.0
  H  H26  1  0.67929000  0.80800000  0.08740000  1.0
  H  H27  1  0.33234000  0.39228000  0.46307000  1.0
  H  H28  1  0.84926000  0.60464000  0.51205000  1.0
  H  H29  1  0.45284000  0.09939000  0.99372000  1.0
  H  H30  1  0.94738000  0.91114000  0.01789000  1.0
  C  C31  1  0.36631000  0.61142000  0.61309000  1.0
  C  C32  1  0.34039000  0.58180000  0.41799000  1.0
  C  C33  1  0.82996000  0.38391000  0.38481000  1.0
  C  C34  1  0.85271000  0.41864000  0.57870000  1.0
  C  C35  1  0.01432000  0.34646000  0.73625000  1.0
  C  C36  1  0.00415000  0.38746000  0.68551000  1.0
  C  C37  1  0.85417000  0.36939000  0.62939000  1.0
  C  C38  1  0.71573000  0.30578000  0.62413000  1.0
  C  C39  1  0.72946000  0.26259000  0.67363000  1.0
  C  C40  1  0.87680000  0.28264000  0.73058000  1.0
  C  C41  1  0.71821000  0.20044000  0.80052000  1.0
  C  C42  1  0.73620000  0.15505000  0.84743000  1.0
  C  C43  1  0.91916000  0.13873000  0.87526000  1.0
  C  C44  1  0.08728000  0.17657000  0.85807000  1.0
  C  C45  1  0.07400000  0.22456000  0.81323000  1.0
  C  C46  1  0.88988000  0.23564000  0.78172000  1.0
  C  C47  1  0.23620000  0.15504000  0.25531000  1.0
  C  C48  1  0.29169000  0.14921000  0.32351000  1.0
  C  C49  1  0.18961000  0.19059000  0.38833000  1.0
  C  C50  1  0.04796000  0.24420000  0.38512000  1.0
  C  C51  1  0.98561000  0.25336000  0.31631000  1.0
  C  C52  1  0.05769000  0.19817000  0.24806000  1.0
  C  C53  1  0.84988000  0.31350000  0.31475000  1.0
  C  C54  1  0.75815000  0.31276000  0.24736000  1.0
  C  C55  1  0.80501000  0.24907000  0.18018000  1.0
  C  C56  1  0.95007000  0.19161000  0.18131000  1.0
  C  C57  1  0.61427000  0.37024000  0.24388000  1.0
  C  C58  1  0.52114000  0.36333000  0.17736000  1.0
  C  C59  1  0.56825000  0.30313000  0.11035000  1.0
  C  C60  1  0.70711000  0.24765000  0.11244000  1.0
  C  C61  1  0.58971000  0.75714000  0.62002000  1.0
  C  C62  1  0.70084000  0.82483000  0.62220000  1.0
  C  C63  1  0.72605000  0.89105000  0.68919000  1.0
  C  C64  1  0.63665000  0.88881000  0.75209000  1.0
  C  C65  1  0.51776000  0.81999000  0.75228000  1.0
  C  C66  1  0.49687000  0.75158000  0.68451000  1.0
  C  C67  1  0.41579000  0.81759000  0.81518000  1.0
  C  C68  1  0.29719000  0.74881000  0.81302000  1.0
  C  C69  1  0.27900000  0.67996000  0.74561000  1.0
  C  C70  1  0.38033000  0.68273000  0.68305000  1.0
  C  C71  1  0.19785000  0.74397000  0.87626000  1.0
  C  C72  1  0.08592000  0.67600000  0.87229000  1.0
  C  C73  1  0.06497000  0.60798000  0.80665000  1.0
  C  C74  1  0.16037000  0.61065000  0.74516000  1.0
  C  C75  1  0.54678000  0.71728000  0.31728000  1.0
  C  C76  1  0.52396000  0.67245000  0.36442000  1.0
  C  C77  1  0.34498000  0.63013000  0.36679000  1.0
  C  C78  1  0.18472000  0.63501000  0.31937000  1.0
  C  C79  1  0.20687000  0.68022000  0.27194000  1.0
  C  C80  1  0.38692000  0.72143000  0.27004000  1.0
  C  C81  1  0.25159000  0.82595000  0.22244000  1.0
  C  C82  1  0.25428000  0.87289000  0.17658000  1.0
  C  C83  1  0.40987000  0.86935000  0.12818000  1.0
  C  C84  1  0.55832000  0.81338000  0.12528000  1.0
  C  C85  1  0.55245000  0.76384000  0.16926000  1.0
  C  C86  1  0.40050000  0.77022000  0.22015000  1.0
  C  C87  1  0.42412000  0.92166000  0.08062000  1.0
  C  C88  1  0.43006000  0.88862000  0.88554000  1.0
  C  C89  1  0.93801000  0.08357000  0.92025000  1.0
  C  C90  1  0.95022000  0.11799000  0.11157000  1.0
  N  N91  1  0.46876000  0.10540000  0.33416000  1.0
  N  N92  1  0.36453000  0.42056000  0.17574000  1.0
  N  N93  1  0.98251000  0.67454000  0.93863000  1.0
  N  N94  1  0.08145000  0.92572000  0.18328000  1.0
  N  N95  1  0.55027000  0.12732000  0.87092000  1.0
  Cl  Cl96  1  0.40045000  0.12708000  0.18567000  1.0
  Cl  Cl97  1  0.95821000  0.58420000  0.31303000  1.0
  Cl  Cl98  1  0.53433000  0.27306000  0.55428000  1.0
  Cl  Cl99  1  0.73227000  0.69165000  0.15705000  1.0
  O  O100  1  0.51015000  0.56583000  0.44136000  1.0
  O  O101  1  0.19326000  0.58982000  0.58325000  1.0
  O  O102  1  0.02282000  0.44457000  0.56640000  1.0
  O  O103  1  0.17212000  0.56132000  0.43640000  1.0
  O  O104  1  0.99684000  0.41200000  0.41735000  1.0
  O  O105  1  0.52891000  0.57888000  0.58857000  1.0
  O  O106  1  0.34113000  0.45034000  0.48855000  1.0
  O  O107  1  0.65972000  0.41126000  0.40608000  1.0
  O  O108  1  0.68554000  0.43105000  0.55256000  1.0
  O  O109  1  0.84693000  0.54754000  0.50654000  1.0
  O  O110  1  0.26586000  0.91476000  0.91475000  1.0
  O  O111  1  0.59296000  0.93003000  0.05494000  1.0
  O  O112  1  0.78182000  0.07998000  0.09525000  1.0
  O  O113  1  0.60387000  0.91574000  0.91101000  1.0
  O  O114  1  0.77764000  0.06526000  0.94603000  1.0
  O  O115  1  0.26383000  0.95327000  0.06814000  1.0
  O  O116  1  0.44649000  0.05085000  0.00810000  1.0
  O  O117  1  0.10991000  0.05906000  0.92931000  1.0
  O  O118  1  0.10468000  0.10118000  0.07370000  1.0
  O  O119  1  0.93929000  0.95222000  0.99382000  1.0
  O  O120  1  0.56364000  0.13549000  0.39428000  1.0
  O  O121  1  0.51100000  0.04194000  0.28545000  1.0
  O  O122  1  0.28846000  0.41557000  0.11453000  1.0
  O  O123  1  0.31649000  0.46987000  0.23553000  1.0
  O  O124  1  0.88881000  0.61112000  0.93490000  1.0
  O  O125  1  0.99315000  0.73656000  0.99439000  1.0
  O  O126  1  0.94822000  0.90307000  0.13449000  1.0
  O  O127  1  0.07581000  0.98595000  0.23953000  1.0
  O  O128  1  0.49251000  0.17068000  0.93229000  1.0
  O  O129  1  0.45999000  0.06738000  0.82819000  1.0
