# generated using pymatgen
data_AgH32C32(NO)5
_symmetry_space_group_name_H-M   'P 1'
_cell_length_a   10.67440000
_cell_length_b   12.97130000
_cell_length_c   23.36060000
_cell_angle_alpha   90.00000000
_cell_angle_beta   90.00000000
_cell_angle_gamma   90.00000000
_symmetry_Int_Tables_number   1
_chemical_formula_structural   AgH32C32(NO)5
_chemical_formula_sum   'Ag4 H128 C128 N20 O20'
_cell_volume   3234.52840917
_cell_formula_units_Z   4
loop_
 _symmetry_equiv_pos_site_id
 _symmetry_equiv_pos_as_xyz
  1  'x, y, z'
loop_
 _atom_site_type_symbol
 _atom_site_label
 _atom_site_symmetry_multiplicity
 _atom_site_fract_x
 _atom_site_fract_y
 _atom_site_fract_z
 _atom_site_occupancy
  Ag  Ag0  1  0.47738000  0.71772000  0.96401000  1.0
  Ag  Ag1  1  0.02263000  0.28228000  0.46401000  1.0
  Ag  Ag2  1  0.52263000  0.21772000  0.53599000  1.0
  Ag  Ag3  1  0.97738000  0.78228000  0.03599000  1.0
  H  H4  1  0.27022000  0.70637000  0.87550000  1.0
  H  H5  1  0.22978000  0.29362000  0.37550000  1.0
  H  H6  1  0.72978000  0.20637000  0.62450000  1.0
  H  H7  1  0.77022000  0.79363000  0.12450000  1.0
  H  H8  1  0.54042000  0.92558000  0.91189000  1.0
  H  H9  1  0.95958000  0.07442000  0.41189000  1.0
  H  H10  1  0.45958000  0.42558000  0.58812000  1.0
  H  H11  1  0.04042000  0.57442000  0.08811000  1.0
  H  H12  1  0.49613000  0.02236000  0.82225000  1.0
  H  H13  1  0.00387000  0.97764000  0.32225000  1.0
  H  H14  1  0.50387000  0.52236000  0.67775000  1.0
  H  H15  1  0.99613000  0.47764000  0.17775000  1.0
  H  H16  1  0.33193000  0.95251000  0.75430000  1.0
  H  H17  1  0.16807000  0.04749000  0.25430000  1.0
  H  H18  1  0.66807000  0.45251000  0.74570000  1.0
  H  H19  1  0.83193000  0.54749000  0.24570000  1.0
  H  H20  1  0.14227000  0.71424000  0.79583000  1.0
  H  H21  1  0.35773000  0.28576000  0.29583000  1.0
  H  H22  1  0.85772000  0.21424000  0.70417000  1.0
  H  H23  1  0.64227000  0.78576000  0.20417000  1.0
  H  H24  1  0.11618000  0.83606000  0.76435000  1.0
  H  H25  1  0.38382000  0.16393000  0.26435000  1.0
  H  H26  1  0.88382000  0.33607000  0.73565000  1.0
  H  H27  1  0.61618000  0.66393000  0.23565000  1.0
  H  H28  1  0.22029000  0.73812000  0.62935000  1.0
  H  H29  1  0.27971000  0.26188000  0.12935000  1.0
  H  H30  1  0.77971000  0.23813000  0.87065000  1.0
  H  H31  1  0.72029000  0.76188000  0.37065000  1.0
  H  H32  1  0.15733000  0.94084000  0.68947000  1.0
  H  H33  1  0.34267000  0.05916000  0.18947000  1.0
  H  H34  1  0.84267000  0.44084000  0.81053000  1.0
  H  H35  1  0.65733000  0.55916000  0.31053000  1.0
  H  H36  1  0.29860000  0.90770000  0.65349000  1.0
  H  H37  1  0.20140000  0.09230000  0.15349000  1.0
  H  H38  1  0.70140000  0.40770000  0.84651000  1.0
  H  H39  1  0.79860000  0.59230000  0.34651000  1.0
  H  H40  1  0.18227000  0.88894000  0.56164000  1.0
  H  H41  1  0.31772000  0.11106000  0.06164000  1.0
  H  H42  1  0.81773000  0.38894000  0.93836000  1.0
  H  H43  1  0.68227000  0.61105000  0.43836000  1.0
  H  H44  1  0.15266000  0.01208000  0.59098000  1.0
  H  H45  1  0.34734000  0.98792000  0.09099000  1.0
  H  H46  1  0.84733000  0.51208000  0.90902000  1.0
  H  H47  1  0.65266000  0.48792000  0.40902000  1.0
  H  H48  1  0.95174000  0.95077000  0.63225000  1.0
  H  H49  1  0.54826000  0.04923000  0.13225000  1.0
  H  H50  1  0.04826000  0.45077000  0.86775000  1.0
  H  H51  1  0.45174000  0.54923000  0.36775000  1.0
  H  H52  1  0.95279000  0.93214000  0.55789000  1.0
  H  H53  1  0.54721000  0.06786000  0.05789000  1.0
  H  H54  1  0.04721000  0.43214000  0.94211000  1.0
  H  H55  1  0.45279000  0.56786000  0.44211000  1.0
  H  H56  1  0.01027000  0.74657000  0.57143000  1.0
  H  H57  1  0.48973000  0.25344000  0.07143000  1.0
  H  H58  1  0.98972000  0.24657000  0.92857000  1.0
  H  H59  1  0.51027000  0.75343000  0.42857000  1.0
  H  H60  1  0.87097000  0.77599000  0.60884000  1.0
  H  H61  1  0.62903000  0.22401000  0.10884000  1.0
  H  H62  1  0.12902000  0.27599000  0.89116000  1.0
  H  H63  1  0.37097000  0.72401000  0.39116000  1.0
  H  H64  1  0.98805000  0.79689000  0.69905000  1.0
  H  H65  1  0.51195000  0.20311000  0.19905000  1.0
  H  H66  1  0.01195000  0.29689000  0.80095000  1.0
  H  H67  1  0.48805000  0.70311000  0.30095000  1.0
  H  H68  1  0.10628000  0.50683000  0.66195000  1.0
  H  H69  1  0.39372000  0.49317000  0.16195000  1.0
  H  H70  1  0.89372000  0.00683000  0.83805000  1.0
  H  H71  1  0.60628000  0.99317000  0.33805000  1.0
  H  H72  1  0.14204000  0.60554000  0.61263000  1.0
  H  H73  1  0.35797000  0.39446000  0.11263000  1.0
  H  H74  1  0.85796000  0.10554000  0.88737000  1.0
  H  H75  1  0.64204000  0.89446000  0.38737000  1.0
  H  H76  1  0.80746000  0.60219000  0.62103000  1.0
  H  H77  1  0.69254000  0.39781000  0.12103000  1.0
  H  H78  1  0.19254000  0.10219000  0.87897000  1.0
  H  H79  1  0.30746000  0.89781000  0.37897000  1.0
  H  H80  1  0.67237000  0.51712000  0.54657000  1.0
  H  H81  1  0.82763000  0.48287000  0.04657000  1.0
  H  H82  1  0.32762000  0.01713000  0.95343000  1.0
  H  H83  1  0.17238000  0.98288000  0.45343000  1.0
  H  H84  1  0.76765000  0.38225000  0.48348000  1.0
  H  H85  1  0.73236000  0.61775000  0.98348000  1.0
  H  H86  1  0.23235000  0.88225000  0.01652000  1.0
  H  H87  1  0.26765000  0.11775000  0.51652000  1.0
  H  H88  1  0.11901000  0.42702000  0.55400000  1.0
  H  H89  1  0.38100000  0.57299000  0.05400000  1.0
  H  H90  1  0.88099000  0.92702000  0.94600000  1.0
  H  H91  1  0.61901000  0.07298000  0.44600000  1.0
  H  H92  1  0.55299000  0.68356000  0.75873000  1.0
  H  H93  1  0.94701000  0.31644000  0.25873000  1.0
  H  H94  1  0.44701000  0.18356000  0.74127000  1.0
  H  H95  1  0.05299000  0.81644000  0.24127000  1.0
  H  H96  1  0.63404000  0.59331000  0.84450000  1.0
  H  H97  1  0.86596000  0.40669000  0.34450000  1.0
  H  H98  1  0.36596000  0.09331000  0.65550000  1.0
  H  H99  1  0.13404000  0.90669000  0.15550000  1.0
  H  H100  1  0.49636000  0.46983000  0.89755000  1.0
  H  H101  1  0.00364000  0.53017000  0.39755000  1.0
  H  H102  1  0.50364000  0.96983000  0.60245000  1.0
  H  H103  1  0.99636000  0.03017000  0.10245000  1.0
  H  H104  1  0.27886000  0.43894000  0.86407000  1.0
  H  H105  1  0.22114000  0.56106000  0.36406000  1.0
  H  H106  1  0.72114000  0.93894000  0.63594000  1.0
  H  H107  1  0.77886000  0.06105000  0.13594000  1.0
  H  H108  1  0.19675000  0.53058000  0.77859000  1.0
  H  H109  1  0.30325000  0.46942000  0.27859000  1.0
  H  H110  1  0.80325000  0.03058000  0.72141000  1.0
  H  H111  1  0.69675000  0.96942000  0.22141000  1.0
  H  H112  1  0.98570000  0.60797000  0.83737000  1.0
  H  H113  1  0.51430000  0.39202000  0.33737000  1.0
  H  H114  1  0.01430000  0.10797000  0.66263000  1.0
  H  H115  1  0.48570000  0.89203000  0.16263000  1.0
  H  H116  1  0.88167000  0.72038000  0.90873000  1.0
  H  H117  1  0.61833000  0.27961000  0.40873000  1.0
  H  H118  1  0.11833000  0.22038000  0.59127000  1.0
  H  H119  1  0.38166000  0.77961000  0.09127000  1.0
  H  H120  1  0.72180000  0.84706000  0.87755000  1.0
  H  H121  1  0.77821000  0.15294000  0.37755000  1.0
  H  H122  1  0.27820000  0.34706000  0.62245000  1.0
  H  H123  1  0.22179000  0.65294000  0.12245000  1.0
  H  H124  1  0.67005000  0.86518000  0.77355000  1.0
  H  H125  1  0.82994000  0.13482000  0.27355000  1.0
  H  H126  1  0.32994000  0.36518000  0.72645000  1.0
  H  H127  1  0.17006000  0.63482000  0.22645000  1.0
  H  H128  1  0.77799000  0.75615000  0.70192000  1.0
  H  H129  1  0.72201000  0.24386000  0.20192000  1.0
  H  H130  1  0.22201000  0.25615000  0.79808000  1.0
  H  H131  1  0.27799000  0.74386000  0.29808000  1.0
  C  C132  1  0.31738000  0.77679000  0.86171000  1.0
  C  C133  1  0.18263000  0.22321000  0.36171000  1.0
  C  C134  1  0.68263000  0.27679000  0.63829000  1.0
  C  C135  1  0.81737000  0.72321000  0.13829000  1.0
  C  C136  1  0.46915000  0.89909000  0.88186000  1.0
  C  C137  1  0.03085000  0.10091000  0.38186000  1.0
  C  C138  1  0.53085000  0.39909000  0.61814000  1.0
  C  C139  1  0.96915000  0.60091000  0.11814000  1.0
  C  C140  1  0.44363000  0.95213000  0.83142000  1.0
  C  C141  1  0.05637000  0.04787000  0.33142000  1.0
  C  C142  1  0.55637000  0.45213000  0.66858000  1.0
  C  C143  1  0.94363000  0.54787000  0.16857000  1.0
  C  C144  1  0.35244000  0.91342000  0.79456000  1.0
  C  C145  1  0.14756000  0.08658000  0.29456000  1.0
  C  C146  1  0.64756000  0.41342000  0.70544000  1.0
  C  C147  1  0.85244000  0.58658000  0.20544000  1.0
  C  C148  1  0.28759000  0.82389000  0.80978000  1.0
  C  C149  1  0.21241000  0.17611000  0.30979000  1.0
  C  C150  1  0.71241000  0.32389000  0.69022000  1.0
  C  C151  1  0.78759000  0.67611000  0.19021000  1.0
  C  C152  1  0.18783000  0.77709000  0.77238000  1.0
  C  C153  1  0.31217000  0.22291000  0.27238000  1.0
  C  C154  1  0.81217000  0.27709000  0.72762000  1.0
  C  C155  1  0.68783000  0.72291000  0.22762000  1.0
  C  C156  1  0.17356000  0.78002000  0.66421000  1.0
  C  C157  1  0.32644000  0.21998000  0.16421000  1.0
  C  C158  1  0.82644000  0.28002000  0.83579000  1.0
  C  C159  1  0.67356000  0.71998000  0.33579000  1.0
  C  C160  1  0.19682000  0.89500000  0.65409000  1.0
  C  C161  1  0.30318000  0.10500000  0.15409000  1.0
  C  C162  1  0.80318000  0.39500000  0.84591000  1.0
  C  C163  1  0.69682000  0.60500000  0.34591000  1.0
  C  C164  1  0.13701000  0.92929000  0.59776000  1.0
  C  C165  1  0.36299000  0.07071000  0.09776000  1.0
  C  C166  1  0.86299000  0.42929000  0.90224000  1.0
  C  C167  1  0.63701000  0.57071000  0.40224000  1.0
  C  C168  1  0.99680000  0.90605000  0.59777000  1.0
  C  C169  1  0.50320000  0.09395000  0.09777000  1.0
  C  C170  1  0.00320000  0.40605000  0.90223000  1.0
  C  C171  1  0.49680000  0.59395000  0.40223000  1.0
  C  C172  1  0.97230000  0.79139000  0.60762000  1.0
  C  C173  1  0.52770000  0.20861000  0.10762000  1.0
  C  C174  1  0.02770000  0.29139000  0.89238000  1.0
  C  C175  1  0.47230000  0.70861000  0.39238000  1.0
  C  C176  1  0.03195000  0.75449000  0.66371000  1.0
  C  C177  1  0.46805000  0.24552000  0.16371000  1.0
  C  C178  1  0.96805000  0.25449000  0.83629000  1.0
  C  C179  1  0.53195000  0.74551000  0.33629000  1.0
  C  C180  1  0.06491000  0.56887000  0.63605000  1.0
  C  C181  1  0.43509000  0.43113000  0.13605000  1.0
  C  C182  1  0.93509000  0.06887000  0.86395000  1.0
  C  C183  1  0.56491000  0.93113000  0.36395000  1.0
  C  C184  1  0.97415000  0.52164000  0.59389000  1.0
  C  C185  1  0.52585000  0.47836000  0.09389000  1.0
  C  C186  1  0.02585000  0.02164000  0.90611000  1.0
  C  C187  1  0.47415000  0.97836000  0.40611000  1.0
  C  C188  1  0.84701000  0.54635000  0.59120000  1.0
  C  C189  1  0.65300000  0.45365000  0.09120000  1.0
  C  C190  1  0.15299000  0.04635000  0.90880000  1.0
  C  C191  1  0.34701000  0.95365000  0.40880000  1.0
  C  C192  1  0.77153000  0.49881000  0.55025000  1.0
  C  C193  1  0.72848000  0.50119000  0.05025000  1.0
  C  C194  1  0.22847000  0.99882000  0.94975000  1.0
  C  C195  1  0.27153000  0.00118000  0.44975000  1.0
  C  C196  1  0.82373000  0.42498000  0.51436000  1.0
  C  C197  1  0.67628000  0.57502000  0.01436000  1.0
  C  C198  1  0.17627000  0.92498000  0.98564000  1.0
  C  C199  1  0.32373000  0.07502000  0.48564000  1.0
  C  C200  1  0.02015000  0.44892000  0.55508000  1.0
  C  C201  1  0.47986000  0.55109000  0.05509000  1.0
  C  C202  1  0.97985000  0.94892000  0.94492000  1.0
  C  C203  1  0.52014000  0.05108000  0.44492000  1.0
  C  C204  1  0.32423000  0.66747000  0.71061000  1.0
  C  C205  1  0.17577000  0.33253000  0.21061000  1.0
  C  C206  1  0.67577000  0.16747000  0.78939000  1.0
  C  C207  1  0.82423000  0.83252000  0.28939000  1.0
  C  C208  1  0.36965000  0.61406000  0.76359000  1.0
  C  C209  1  0.13035000  0.38594000  0.26359000  1.0
  C  C210  1  0.63035000  0.11406000  0.73641000  1.0
  C  C211  1  0.86965000  0.88593000  0.23641000  1.0
  C  C212  1  0.49330000  0.62943000  0.78168000  1.0
  C  C213  1  0.00670000  0.37057000  0.28169000  1.0
  C  C214  1  0.50670000  0.12943000  0.71831000  1.0
  C  C215  1  0.99330000  0.87057000  0.21832000  1.0
  C  C216  1  0.53889000  0.57805000  0.82980000  1.0
  C  C217  1  0.96111000  0.42195000  0.32980000  1.0
  C  C218  1  0.46111000  0.07804000  0.67020000  1.0
  C  C219  1  0.03889000  0.92195000  0.17020000  1.0
  C  C220  1  0.46190000  0.50892000  0.85933000  1.0
  C  C221  1  0.03810000  0.49108000  0.35933000  1.0
  C  C222  1  0.53810000  0.00892000  0.64067000  1.0
  C  C223  1  0.96190000  0.99108000  0.14067000  1.0
  C  C224  1  0.33957000  0.49131000  0.84044000  1.0
  C  C225  1  0.16043000  0.50869000  0.34044000  1.0
  C  C226  1  0.66043000  0.99131000  0.65956000  1.0
  C  C227  1  0.83957000  0.00869000  0.15956000  1.0
  C  C228  1  0.29281000  0.54416000  0.79293000  1.0
  C  C229  1  0.20719000  0.45584000  0.29293000  1.0
  C  C230  1  0.70719000  0.04416000  0.70707000  1.0
  C  C231  1  0.79281000  0.95584000  0.20707000  1.0
  C  C232  1  0.95633000  0.60508000  0.72375000  1.0
  C  C233  1  0.54367000  0.39492000  0.22375000  1.0
  C  C234  1  0.04367000  0.10508000  0.77625000  1.0
  C  C235  1  0.45633000  0.89492000  0.27625000  1.0
  C  C236  1  0.89138000  0.67604000  0.76472000  1.0
  C  C237  1  0.60862000  0.32396000  0.26472000  1.0
  C  C238  1  0.10862000  0.17604000  0.73528000  1.0
  C  C239  1  0.39138000  0.82396000  0.23528000  1.0
  C  C240  1  0.91751000  0.66521000  0.82332000  1.0
  C  C241  1  0.58249000  0.33479000  0.32332000  1.0
  C  C242  1  0.08249000  0.16521000  0.67669000  1.0
  C  C243  1  0.41751000  0.83479000  0.17668000  1.0
  C  C244  1  0.85827000  0.72786000  0.86348000  1.0
  C  C245  1  0.64173000  0.27214000  0.36348000  1.0
  C  C246  1  0.14173000  0.22786000  0.63652000  1.0
  C  C247  1  0.35827000  0.77214000  0.13652000  1.0
  C  C248  1  0.76930000  0.80011000  0.84560000  1.0
  C  C249  1  0.73070000  0.19988000  0.34560000  1.0
  C  C250  1  0.23070000  0.30012000  0.65440000  1.0
  C  C251  1  0.26930000  0.69988000  0.15440000  1.0
  C  C252  1  0.74045000  0.80977000  0.78757000  1.0
  C  C253  1  0.75954000  0.19023000  0.28757000  1.0
  C  C254  1  0.25954000  0.30978000  0.71243000  1.0
  C  C255  1  0.24046000  0.69023000  0.21243000  1.0
  C  C256  1  0.80161000  0.74843000  0.74719000  1.0
  C  C257  1  0.69839000  0.25158000  0.24719000  1.0
  C  C258  1  0.19839000  0.24843000  0.75281000  1.0
  C  C259  1  0.30161000  0.75158000  0.25280000  1.0
  N  N260  1  0.40752000  0.81251000  0.89673000  1.0
  N  N261  1  0.09248000  0.18749000  0.39673000  1.0
  N  N262  1  0.59248000  0.31251000  0.60327000  1.0
  N  N263  1  0.90752000  0.68749000  0.10327000  1.0
  N  N264  1  0.23312000  0.74079000  0.71637000  1.0
  N  N265  1  0.26687000  0.25921000  0.21637000  1.0
  N  N266  1  0.76687000  0.24079000  0.78363000  1.0
  N  N267  1  0.73313000  0.75921000  0.28363000  1.0
  N  N268  1  0.00926000  0.64423000  0.67483000  1.0
  N  N269  1  0.49074000  0.35577000  0.17483000  1.0
  N  N270  1  0.99074000  0.14423000  0.82517000  1.0
  N  N271  1  0.50926000  0.85577000  0.32517000  1.0
  N  N272  1  0.94648000  0.40084000  0.51681000  1.0
  N  N273  1  0.55353000  0.59917000  0.01681000  1.0
  N  N274  1  0.05352000  0.90084000  0.98319000  1.0
  N  N275  1  0.44648000  0.09916000  0.48319000  1.0
  N  N276  1  0.67193000  0.87719000  0.01700000  1.0
  N  N277  1  0.82807000  0.12281000  0.51700000  1.0
  N  N278  1  0.32807000  0.37719000  0.48300000  1.0
  N  N279  1  0.17193000  0.62281000  0.98300000  1.0
  O  O280  1  0.36886000  0.64282000  0.66317000  1.0
  O  O281  1  0.13114000  0.35718000  0.16317000  1.0
  O  O282  1  0.63114000  0.14282000  0.83683000  1.0
  O  O283  1  0.86886000  0.85718000  0.33683000  1.0
  O  O284  1  0.96084000  0.51081000  0.73442000  1.0
  O  O285  1  0.53915000  0.48919000  0.23442000  1.0
  O  O286  1  0.03916000  0.01081000  0.76558000  1.0
  O  O287  1  0.46085000  0.98919000  0.26558000  1.0
  O  O288  1  0.74654000  0.93207000  0.04565000  1.0
  O  O289  1  0.75346000  0.06793000  0.54565000  1.0
  O  O290  1  0.25346000  0.43207000  0.45435000  1.0
  O  O291  1  0.24654000  0.56793000  0.95435000  1.0
  O  O292  1  0.55509000  0.87724000  0.02813000  1.0
  O  O293  1  0.94491000  0.12276000  0.52813000  1.0
  O  O294  1  0.44491000  0.37724000  0.47187000  1.0
  O  O295  1  0.05509000  0.62276000  0.97187000  1.0
  O  O296  1  0.71354000  0.82067000  0.97628000  1.0
  O  O297  1  0.78646000  0.17933000  0.47628000  1.0
  O  O298  1  0.28647000  0.32067000  0.52372000  1.0
  O  O299  1  0.21354000  0.67933000  0.02372000  1.0
