# generated using pymatgen
data_Cd3H26C30(N3O4)4
_symmetry_space_group_name_H-M   'P 1'
_cell_length_a   11.32400000
_cell_length_b   13.96590000
_cell_length_c   15.96180000
_cell_angle_alpha   95.08830000
_cell_angle_beta   109.37000000
_cell_angle_gamma   109.69800000
_symmetry_Int_Tables_number   1
_chemical_formula_structural   Cd3H26C30(N3O4)4
_chemical_formula_sum   'Cd6 H52 C60 N24 O32'
_cell_volume   2184.24625860
_cell_formula_units_Z   2
loop_
 _symmetry_equiv_pos_site_id
 _symmetry_equiv_pos_as_xyz
  1  'x, y, z'
loop_
 _atom_site_type_symbol
 _atom_site_label
 _atom_site_symmetry_multiplicity
 _atom_site_fract_x
 _atom_site_fract_y
 _atom_site_fract_z
 _atom_site_occupancy
  Cd  Cd0  1  0.42137000  0.65310000  0.23836000  1.0
  Cd  Cd1  1  0.57864000  0.34690000  0.76164000  1.0
  Cd  Cd2  1  0.92524000  0.15545000  0.25211000  1.0
  Cd  Cd3  1  0.07480000  0.84454000  0.74790000  1.0
  Cd  Cd4  1  0.67447000  0.35888000  0.24399000  1.0
  Cd  Cd5  1  0.32551000  0.64110000  0.75600000  1.0
  H  H6  1  0.15383000  0.15898000  0.60877000  1.0
  H  H7  1  0.84618000  0.84103000  0.39124000  1.0
  H  H8  1  0.84406000  0.91312000  0.17531000  1.0
  H  H9  1  0.15594000  0.08689000  0.82469000  1.0
  H  H10  1  0.08610000  0.55725000  0.88323000  1.0
  H  H11  1  0.91392000  0.44276000  0.11677000  1.0
  H  H12  1  0.33602000  0.39317000  0.17892000  1.0
  H  H13  1  0.66401000  0.60686000  0.82109000  1.0
  H  H14  1  0.18235000  0.57265000  0.30105000  1.0
  H  H15  1  0.81762000  0.42734000  0.69893000  1.0
  H  H16  1  0.14916000  0.72564000  0.18364000  1.0
  H  H17  1  0.85085000  0.27437000  0.81635000  1.0
  H  H18  1  0.00568000  0.40840000  0.30812000  1.0
  H  H19  1  0.99431000  0.59160000  0.69187000  1.0
  H  H20  1  0.66600000  0.06212000  0.30283000  1.0
  H  H21  1  0.33400000  0.93788000  0.69718000  1.0
  H  H22  1  0.72743000  0.54915000  0.52793000  1.0
  H  H23  1  0.27255000  0.45086000  0.47206000  1.0
  H  H24  1  0.53013000  0.71661000  0.61402000  1.0
  H  H25  1  0.46986000  0.28339000  0.38598000  1.0
  H  H26  1  0.14795000  0.02897000  0.31423000  1.0
  H  H27  1  0.85205000  0.97104000  0.68578000  1.0
  H  H28  1  0.71707000  0.94073000  0.88096000  1.0
  H  H29  1  0.28284000  0.05923000  0.11900000  1.0
  H  H30  1  0.94455000  0.70497000  0.04154000  1.0
  H  H31  1  0.05547000  0.29504000  0.95846000  1.0
  H  H32  1  0.51145000  0.12076000  0.93649000  1.0
  H  H33  1  0.48861000  0.87930000  0.06354000  1.0
  H  H34  1  0.27983000  0.98480000  0.45738000  1.0
  H  H35  1  0.72017000  0.01519000  0.54263000  1.0
  H  H36  1  0.43673000  0.74369000  0.45324000  1.0
  H  H37  1  0.56327000  0.25632000  0.54677000  1.0
  H  H38  1  0.66770000  0.73583000  0.16711000  1.0
  H  H39  1  0.33229000  0.26418000  0.83287000  1.0
  H  H40  1  0.88875000  0.01048000  0.04240000  1.0
  H  H41  1  0.11118000  0.98944000  0.95754000  1.0
  H  H42  1  0.41447000  0.21214000  0.22562000  1.0
  H  H43  1  0.58552000  0.78786000  0.77437000  1.0
  H  H44  1  0.50959000  0.15301000  0.26888000  1.0
  H  H45  1  0.49041000  0.84701000  0.73112000  1.0
  H  H46  1  0.87571000  0.32043000  0.39353000  1.0
  H  H47  1  0.12427000  0.67956000  0.60646000  1.0
  H  H48  1  0.84144000  0.41637000  0.42953000  1.0
  H  H49  1  0.15855000  0.58363000  0.57045000  1.0
  H  H50  1  0.79831000  0.50949000  0.16034000  1.0
  H  H51  1  0.20168000  0.49048000  0.83965000  1.0
  H  H52  1  0.85633000  0.56686000  0.26572000  1.0
  H  H53  1  0.14366000  0.43312000  0.73426000  1.0
  H  H54  1  0.55294000  0.42853000  0.09366000  1.0
  H  H55  1  0.44707000  0.57147000  0.90634000  1.0
  H  H56  1  0.54941000  0.48790000  0.18036000  1.0
  H  H57  1  0.45060000  0.51210000  0.81964000  1.0
  C  C58  1  0.15168000  0.12688000  0.54320000  1.0
  C  C59  1  0.84833000  0.87313000  0.45681000  1.0
  C  C60  1  0.76458000  0.90588000  0.20144000  1.0
  C  C61  1  0.23541000  0.09413000  0.79857000  1.0
  C  C62  1  0.17007000  0.30627000  0.21692000  1.0
  C  C63  1  0.82996000  0.69374000  0.78308000  1.0
  C  C64  1  0.60364000  0.60155000  0.42315000  1.0
  C  C65  1  0.39633000  0.39844000  0.57684000  1.0
  C  C66  1  0.20872000  0.60174000  0.02816000  1.0
  C  C67  1  0.79130000  0.39827000  0.97184000  1.0
  C  C68  1  0.16932000  0.19910000  0.18757000  1.0
  C  C69  1  0.83071000  0.80091000  0.81243000  1.0
  C  C70  1  0.09862000  0.59380000  0.95048000  1.0
  C  C71  1  0.90140000  0.40622000  0.04952000  1.0
  C  C72  1  0.26444000  0.39728000  0.20973000  1.0
  C  C73  1  0.73557000  0.60273000  0.79028000  1.0
  C  C74  1  0.17795000  0.49566000  0.27629000  1.0
  C  C75  1  0.82204000  0.50434000  0.72370000  1.0
  C  C76  1  0.13172000  0.68630000  0.11582000  1.0
  C  C77  1  0.86830000  0.31370000  0.88419000  1.0
  C  C78  1  0.08121000  0.40557000  0.28083000  1.0
  C  C79  1  0.91878000  0.59442000  0.71916000  1.0
  C  C80  1  0.45647000  0.88542000  0.30299000  1.0
  C  C81  1  0.54353000  0.11457000  0.69701000  1.0
  C  C82  1  0.66559000  0.98964000  0.27135000  1.0
  C  C83  1  0.33442000  0.01036000  0.72866000  1.0
  C  C84  1  0.31696000  0.56204000  0.02344000  1.0
  C  C85  1  0.68304000  0.43797000  0.97655000  1.0
  C  C86  1  0.62613000  0.55018000  0.34592000  1.0
  C  C87  1  0.37384000  0.44982000  0.65408000  1.0
  C  C88  1  0.66057000  0.59156000  0.51244000  1.0
  C  C89  1  0.33941000  0.40844000  0.48755000  1.0
  C  C90  1  0.55377000  0.68489000  0.55941000  1.0
  C  C91  1  0.44621000  0.31510000  0.44059000  1.0
  C  C92  1  0.14726000  0.05514000  0.38047000  1.0
  C  C93  1  0.85275000  0.94486000  0.61955000  1.0
  C  C94  1  0.00047000  0.22023000  0.46974000  1.0
  C  C95  1  0.99955000  0.77979000  0.53027000  1.0
  C  C96  1  0.70728000  0.99631000  0.92819000  1.0
  C  C97  1  0.29266000  0.00366000  0.07179000  1.0
  C  C98  1  0.68904000  0.13125000  0.04892000  1.0
  C  C99  1  0.31097000  0.86872000  0.95109000  1.0
  C  C100  1  0.02149000  0.67612000  0.03764000  1.0
  C  C101  1  0.97852000  0.32388000  0.96236000  1.0
  C  C102  1  0.59452000  0.09398000  0.95866000  1.0
  C  C103  1  0.40548000  0.90604000  0.04135000  1.0
  C  C104  1  0.07659000  0.15009000  0.46439000  1.0
  C  C105  1  0.92343000  0.84992000  0.53562000  1.0
  C  C106  1  0.56872000  0.89296000  0.26705000  1.0
  C  C107  1  0.43129000  0.10704000  0.73296000  1.0
  C  C108  1  0.22048000  0.03178000  0.45972000  1.0
  C  C109  1  0.77953000  0.96821000  0.54029000  1.0
  C  C110  1  0.49997000  0.69853000  0.47095000  1.0
  C  C111  1  0.50000000  0.30146000  0.52905000  1.0
  C  C112  1  0.66993000  0.81000000  0.19715000  1.0
  C  C113  1  0.33009000  0.19002000  0.80285000  1.0
  C  C114  1  0.67858000  0.20844000  0.11495000  1.0
  C  C115  1  0.32144000  0.79153000  0.88509000  1.0
  C  C116  1  0.80258000  0.03365000  0.01807000  1.0
  C  C117  1  0.19738000  0.96630000  0.98189000  1.0
  N  N118  1  0.57441000  0.80559000  0.23077000  1.0
  N  N119  1  0.42560000  0.19442000  0.76924000  1.0
  N  N120  1  0.07930000  0.31208000  0.25128000  1.0
  N  N121  1  0.92071000  0.68792000  0.74871000  1.0
  N  N122  1  0.26832000  0.49099000  0.24044000  1.0
  N  N123  1  0.73169000  0.50901000  0.75956000  1.0
  N  N124  1  0.22366000  0.64853000  0.11031000  1.0
  N  N125  1  0.77635000  0.35148000  0.88969000  1.0
  N  N126  1  0.79220000  0.09972000  0.07864000  1.0
  N  N127  1  0.20780000  0.90024000  0.92135000  1.0
  N  N128  1  0.52479000  0.65641000  0.40323000  1.0
  N  N129  1  0.47518000  0.34359000  0.59677000  1.0
  N  N130  1  0.07424000  0.11281000  0.38308000  1.0
  N  N131  1  0.92577000  0.88720000  0.61693000  1.0
  N  N132  1  0.76181000  0.99503000  0.23926000  1.0
  N  N133  1  0.23820000  0.00497000  0.76074000  1.0
  N  N134  1  0.63559000  0.63234000  0.58054000  1.0
  N  N135  1  0.36440000  0.36765000  0.41946000  1.0
  N  N136  1  0.00490000  0.63019000  0.95484000  1.0
  N  N137  1  0.99512000  0.36982000  0.04516000  1.0
  N  N138  1  0.60167000  0.02531000  0.89838000  1.0
  N  N139  1  0.39830000  0.97470000  0.10160000  1.0
  N  N140  1  0.22186000  0.06698000  0.54119000  1.0
  N  N141  1  0.77815000  0.93302000  0.45883000  1.0
  O  O142  1  0.60013000  0.58366000  0.27302000  1.0
  O  O143  1  0.39984000  0.41634000  0.72696000  1.0
  O  O144  1  0.07680000  0.11953000  0.19160000  1.0
  O  O145  1  0.92326000  0.88048000  0.80843000  1.0
  O  O146  1  0.41923000  0.58328000  0.09621000  1.0
  O  O147  1  0.58078000  0.41674000  0.90378000  1.0
  O  O148  1  0.91792000  0.22360000  0.39234000  1.0
  O  O149  1  0.08212000  0.77642000  0.60767000  1.0
  O  O150  1  0.85608000  0.38444000  0.37929000  1.0
  O  O151  1  0.14388000  0.61554000  0.62069000  1.0
  O  O152  1  0.29787000  0.51169000  0.94669000  1.0
  O  O153  1  0.70212000  0.48830000  0.05332000  1.0
  O  O154  1  0.44926000  0.96982000  0.32823000  1.0
  O  O155  1  0.55072000  0.03016000  0.67177000  1.0
  O  O156  1  0.26307000  0.19910000  0.16135000  1.0
  O  O157  1  0.73695000  0.80092000  0.83863000  1.0
  O  O158  1  0.52530000  0.41649000  0.14551000  1.0
  O  O159  1  0.47469000  0.58352000  0.85449000  1.0
  O  O160  1  0.84754000  0.50637000  0.22495000  1.0
  O  O161  1  0.15247000  0.49362000  0.77504000  1.0
  O  O162  1  0.75667000  0.22964000  0.19969000  1.0
  O  O163  1  0.24336000  0.77031000  0.80034000  1.0
  O  O164  1  0.38120000  0.79317000  0.30296000  1.0
  O  O165  1  0.61883000  0.20681000  0.69705000  1.0
  O  O166  1  0.66624000  0.47655000  0.35982000  1.0
  O  O167  1  0.33374000  0.52346000  0.64017000  1.0
  O  O168  1  0.02421000  0.26933000  0.54641000  1.0
  O  O169  1  0.97579000  0.73069000  0.45360000  1.0
  O  O170  1  0.59569000  0.25013000  0.08414000  1.0
  O  O171  1  0.40435000  0.74985000  0.91591000  1.0
  O  O172  1  0.50775000  0.22241000  0.26911000  1.0
  O  O173  1  0.49223000  0.77760000  0.73090000  1.0
