# generated using pymatgen
data_Cu4H6C18SeO15
_symmetry_space_group_name_H-M   'P 1'
_cell_length_a   12.41520000
_cell_length_b   14.28540000
_cell_length_c   20.37630000
_cell_angle_alpha   89.97720000
_cell_angle_beta   107.65800000
_cell_angle_gamma   89.96490000
_symmetry_Int_Tables_number   1
_chemical_formula_structural   Cu4H6C18SeO15
_chemical_formula_sum   'Cu16 H24 C72 Se4 O60'
_cell_volume   3443.58942780
_cell_formula_units_Z   4
loop_
 _symmetry_equiv_pos_site_id
 _symmetry_equiv_pos_as_xyz
  1  'x, y, z'
loop_
 _atom_site_type_symbol
 _atom_site_label
 _atom_site_symmetry_multiplicity
 _atom_site_fract_x
 _atom_site_fract_y
 _atom_site_fract_z
 _atom_site_occupancy
  Cu  Cu0  1  0.46496000  0.99203000  0.54981000  1.0
  Cu  Cu1  1  0.91530000  0.50823000  0.45015000  1.0
  Cu  Cu2  1  0.53497000  0.00821000  0.45021000  1.0
  Cu  Cu3  1  0.08462000  0.49191000  0.54968000  1.0
  Cu  Cu4  1  0.93331000  0.94476000  0.88354000  1.0
  Cu  Cu5  1  0.05084000  0.55573000  0.11681000  1.0
  Cu  Cu6  1  0.06641000  0.05564000  0.11665000  1.0
  Cu  Cu7  1  0.94912000  0.44365000  0.88390000  1.0
  Cu  Cu8  1  0.71838000  0.05999000  0.91660000  1.0
  Cu  Cu9  1  0.80377000  0.44039000  0.08264000  1.0
  Cu  Cu10  1  0.27984000  0.94061000  0.08260000  1.0
  Cu  Cu11  1  0.19671000  0.55969000  0.91738000  1.0
  Cu  Cu12  1  0.72922000  0.30491000  0.90108000  1.0
  Cu  Cu13  1  0.83107000  0.19285000  0.09400000  1.0
  Cu  Cu14  1  0.26443000  0.69281000  0.09473000  1.0
  Cu  Cu15  1  0.16890000  0.80753000  0.90514000  1.0
  H  H16  1  0.03649000  0.69940000  0.69323000  1.0
  H  H17  1  0.34342000  0.80080000  0.30671000  1.0
  H  H18  1  0.96337000  0.30073000  0.30663000  1.0
  H  H19  1  0.65783000  0.19862000  0.69370000  1.0
  H  H20  1  0.78567000  0.90927000  0.68913000  1.0
  H  H21  1  0.09688000  0.59113000  0.31087000  1.0
  H  H22  1  0.21408000  0.09073000  0.31076000  1.0
  H  H23  1  0.90403000  0.40873000  0.68920000  1.0
  H  H24  1  0.76839000  0.75287000  0.50523000  1.0
  H  H25  1  0.26293000  0.74722000  0.49482000  1.0
  H  H26  1  0.23140000  0.24718000  0.49464000  1.0
  H  H27  1  0.73668000  0.25309000  0.50526000  1.0
  H  H28  1  0.79569000  0.68928000  0.88513000  1.0
  H  H29  1  0.91100000  0.80995000  0.11507000  1.0
  H  H30  1  0.20483000  0.31007000  0.11542000  1.0
  H  H31  1  0.08805000  0.19008000  0.88518000  1.0
  H  H32  1  0.51274000  0.53295000  0.90851000  1.0
  H  H33  1  0.60488000  0.96690000  0.09143000  1.0
  H  H34  1  0.48697000  0.46679000  0.09133000  1.0
  H  H35  1  0.39417000  0.03344000  0.90807000  1.0
  H  H36  1  0.50393000  0.83439000  0.90489000  1.0
  H  H37  1  0.59931000  0.66546000  0.09511000  1.0
  H  H38  1  0.49648000  0.16535000  0.09505000  1.0
  H  H39  1  0.39934000  0.33487000  0.90460000  1.0
  C  C40  1  0.94396000  0.63772000  0.56152000  1.0
  C  C41  1  0.38247000  0.86234000  0.43857000  1.0
  C  C42  1  0.05591000  0.36237000  0.43833000  1.0
  C  C43  1  0.61756000  0.13784000  0.56161000  1.0
  C  C44  1  0.90471000  0.71695000  0.59621000  1.0
  C  C45  1  0.30852000  0.78324000  0.40382000  1.0
  C  C46  1  0.09511000  0.28311000  0.40365000  1.0
  C  C47  1  0.69186000  0.21678000  0.59647000  1.0
  C  C48  1  0.96095000  0.73819000  0.66532000  1.0
  C  C49  1  0.29576000  0.76209000  0.33467000  1.0
  C  C50  1  0.03886000  0.26189000  0.33454000  1.0
  C  C51  1  0.70538000  0.23754000  0.66577000  1.0
  C  C52  1  0.91896000  0.80885000  0.69831000  1.0
  C  C53  1  0.22090000  0.69153000  0.30168000  1.0
  C  C54  1  0.08082000  0.19121000  0.30156000  1.0
  C  C55  1  0.78062000  0.30795000  0.69876000  1.0
  C  C56  1  0.82010000  0.85648000  0.66261000  1.0
  C  C57  1  0.15767000  0.64389000  0.33738000  1.0
  C  C58  1  0.17965000  0.14353000  0.33727000  1.0
  C  C59  1  0.84318000  0.35593000  0.66279000  1.0
  C  C60  1  0.76693000  0.83748000  0.59314000  1.0
  C  C61  1  0.17380000  0.66283000  0.40686000  1.0
  C  C62  1  0.23285000  0.16254000  0.40675000  1.0
  C  C63  1  0.82643000  0.33726000  0.59321000  1.0
  C  C64  1  0.80950000  0.76836000  0.55938000  1.0
  C  C65  1  0.25001000  0.73186000  0.44064000  1.0
  C  C66  1  0.19029000  0.23168000  0.44049000  1.0
  C  C67  1  0.75003000  0.26831000  0.55951000  1.0
  C  C68  1  0.66533000  0.89359000  0.55633000  1.0
  C  C69  1  0.10896000  0.60666000  0.44362000  1.0
  C  C70  1  0.33454000  0.10655000  0.44360000  1.0
  C  C71  1  0.89106000  0.39346000  0.55630000  1.0
  C  C72  1  0.97596000  0.83490000  0.77216000  1.0
  C  C73  1  0.20421000  0.66551000  0.22784000  1.0
  C  C74  1  0.02395000  0.16522000  0.22768000  1.0
  C  C75  1  0.79854000  0.33396000  0.77258000  1.0
  C  C76  1  0.71423000  0.86199000  0.89218000  1.0
  C  C77  1  0.82240000  0.63775000  0.10748000  1.0
  C  C78  1  0.28598000  0.13773000  0.10759000  1.0
  C  C79  1  0.17694000  0.36267000  0.89206000  1.0
  C  C80  1  0.65708000  0.77084000  0.89581000  1.0
  C  C81  1  0.76160000  0.72873000  0.10424000  1.0
  C  C82  1  0.34341000  0.22875000  0.10442000  1.0
  C  C83  1  0.23729000  0.27148000  0.89561000  1.0
  C  C84  1  0.71292000  0.68693000  0.89277000  1.0
  C  C85  1  0.82064000  0.81245000  0.10738000  1.0
  C  C86  1  0.28748000  0.31250000  0.10765000  1.0
  C  C87  1  0.17837000  0.18776000  0.89269000  1.0
  C  C88  1  0.66307000  0.60077000  0.89880000  1.0
  C  C89  1  0.76483000  0.89864000  0.10121000  1.0
  C  C90  1  0.33706000  0.39862000  0.10135000  1.0
  C  C91  1  0.23442000  0.10166000  0.89886000  1.0
  C  C92  1  0.55372000  0.59932000  0.90504000  1.0
  C  C93  1  0.64927000  0.90044000  0.09496000  1.0
  C  C94  1  0.44630000  0.40033000  0.09496000  1.0
  C  C95  1  0.34982000  0.09987000  0.90477000  1.0
  C  C96  1  0.49620000  0.68377000  0.90602000  1.0
  C  C97  1  0.59070000  0.81610000  0.09408000  1.0
  C  C98  1  0.50403000  0.31598000  0.09401000  1.0
  C  C99  1  0.40806000  0.18427000  0.90550000  1.0
  C  C100  1  0.54859000  0.76939000  0.90285000  1.0
  C  C101  1  0.64610000  0.73036000  0.09721000  1.0
  C  C102  1  0.45182000  0.23030000  0.09723000  1.0
  C  C103  1  0.35271000  0.26993000  0.90257000  1.0
  C  C104  1  0.37632000  0.68371000  0.90859000  1.0
  C  C105  1  0.46825000  0.81631000  0.09143000  1.0
  C  C106  1  0.62382000  0.31620000  0.09123000  1.0
  C  C107  1  0.52991000  0.18437000  0.90720000  1.0
  C  C108  1  0.72871000  0.51255000  0.89741000  1.0
  C  C109  1  0.83211000  0.98652000  0.10228000  1.0
  C  C110  1  0.27102000  0.48665000  0.10239000  1.0
  C  C111  1  0.16743000  0.01368000  0.89773000  1.0
  Se  Se112  1  0.93183000  0.14800000  0.95679000  1.0
  Se  Se113  1  0.98064000  0.35220000  0.04545000  1.0
  Se  Se114  1  0.06640000  0.85242000  0.04388000  1.0
  Se  Se115  1  0.02214000  0.64779000  0.95632000  1.0
  O  O116  1  0.03733000  0.59856000  0.59458000  1.0
  O  O117  1  0.44292000  0.90142000  0.40550000  1.0
  O  O118  1  0.96253000  0.40153000  0.40529000  1.0
  O  O119  1  0.55708000  0.09882000  0.59468000  1.0
  O  O120  1  0.87998000  0.61420000  0.50181000  1.0
  O  O121  1  0.37815000  0.88582000  0.49834000  1.0
  O  O122  1  0.11994000  0.38591000  0.49803000  1.0
  O  O123  1  0.62180000  0.11448000  0.50182000  1.0
  O  O124  1  0.65826000  0.92166000  0.49565000  1.0
  O  O125  1  0.16236000  0.57861000  0.50430000  1.0
  O  O126  1  0.34171000  0.07860000  0.50433000  1.0
  O  O127  1  0.83755000  0.42148000  0.49564000  1.0
  O  O128  1  0.59545000  0.91041000  0.58980000  1.0
  O  O129  1  0.00582000  0.58978000  0.41010000  1.0
  O  O130  1  0.40445000  0.08975000  0.41015000  1.0
  O  O131  1  0.99422000  0.41033000  0.58978000  1.0
  O  O132  1  0.93165000  0.90533000  0.79291000  1.0
  O  O133  1  0.13961000  0.59490000  0.20725000  1.0
  O  O134  1  0.06765000  0.09408000  0.20730000  1.0
  O  O135  1  0.85802000  0.40728000  0.79251000  1.0
  O  O136  1  0.05979000  0.78714000  0.80683000  1.0
  O  O137  1  0.25300000  0.71335000  0.19296000  1.0
  O  O138  1  0.94100000  0.21348000  0.19257000  1.0
  O  O139  1  0.75507000  0.28297000  0.80897000  1.0
  O  O140  1  0.66442000  0.93455000  0.90564000  1.0
  O  O141  1  0.75892000  0.56557000  0.09256000  1.0
  O  O142  1  0.33415000  0.06576000  0.09180000  1.0
  O  O143  1  0.24123000  0.43419000  0.90879000  1.0
  O  O144  1  0.80566000  0.85870000  0.87642000  1.0
  O  O145  1  0.92966000  0.64086000  0.12417000  1.0
  O  O146  1  0.19608000  0.14039000  0.12508000  1.0
  O  O147  1  0.06954000  0.36050000  0.87321000  1.0
  O  O148  1  0.33170000  0.60159000  0.90168000  1.0
  O  O149  1  0.43045000  0.89843000  0.09828000  1.0
  O  O150  1  0.66820000  0.39833000  0.09774000  1.0
  O  O151  1  0.56719000  0.10318000  0.89807000  1.0
  O  O152  1  0.33195000  0.76133000  0.91564000  1.0
  O  O153  1  0.41693000  0.73869000  0.08437000  1.0
  O  O154  1  0.66829000  0.23853000  0.08435000  1.0
  O  O155  1  0.58074000  0.26249000  0.91547000  1.0
  O  O156  1  0.68003000  0.43446000  0.89924000  1.0
  O  O157  1  0.78074000  0.06452000  0.09785000  1.0
  O  O158  1  0.31822000  0.56454000  0.09805000  1.0
  O  O159  1  0.21912000  0.93584000  0.90195000  1.0
  O  O160  1  0.82943000  0.52535000  0.89502000  1.0
  O  O161  1  0.93623000  0.97327000  0.10708000  1.0
  O  O162  1  0.17156000  0.47373000  0.10702000  1.0
  O  O163  1  0.06341000  0.02675000  0.89304000  1.0
  O  O164  1  0.88274000  0.02961000  0.94628000  1.0
  O  O165  1  0.93889000  0.47045000  0.05486000  1.0
  O  O166  1  0.11684000  0.97051000  0.05413000  1.0
  O  O167  1  0.06223000  0.52977000  0.94587000  1.0
  O  O168  1  0.78739000  0.18217000  0.93483000  1.0
  O  O169  1  0.86099000  0.31915000  0.07199000  1.0
  O  O170  1  0.21204000  0.81926000  0.07281000  1.0
  O  O171  1  0.13825000  0.68101000  0.92676000  1.0
  O  O172  1  0.96537000  0.16156000  0.04379000  1.0
  O  O173  1  0.92830000  0.33700000  0.95917000  1.0
  O  O174  1  0.03778000  0.83741000  0.95736000  1.0
  O  O175  1  0.08067000  0.66311000  0.04277000  1.0
