# generated using pymatgen
data_ZnH22C32I6(NO5)2
_symmetry_space_group_name_H-M   'P 1'
_cell_length_a   12.37140000
_cell_length_b   12.84780000
_cell_length_c   23.39450000
_cell_angle_alpha   89.07540000
_cell_angle_beta   84.35350000
_cell_angle_gamma   85.93350000
_symmetry_Int_Tables_number   1
_chemical_formula_structural   ZnH22C32I6(NO5)2
_chemical_formula_sum   'Zn2 H44 C64 I12 N4 O20'
_cell_volume   3690.92961984
_cell_formula_units_Z   2
loop_
 _symmetry_equiv_pos_site_id
 _symmetry_equiv_pos_as_xyz
  1  'x, y, z'
loop_
 _atom_site_type_symbol
 _atom_site_label
 _atom_site_symmetry_multiplicity
 _atom_site_fract_x
 _atom_site_fract_y
 _atom_site_fract_z
 _atom_site_occupancy
  Zn  Zn0  1  0.63471000  0.50760000  0.49521000  1.0
  Zn  Zn1  1  0.39191000  0.48677000  0.49798000  1.0
  H  H2  1  0.59713000  0.75593000  0.92966000  1.0
  H  H3  1  0.33405000  0.33264000  0.07438000  1.0
  H  H4  1  0.42988000  0.65084000  0.34077000  1.0
  H  H5  1  0.64877000  0.43478000  0.67289000  1.0
  H  H6  1  0.48559000  0.82780000  0.10932000  1.0
  H  H7  1  0.45919000  0.91099000  0.04915000  1.0
  H  H8  1  0.63641000  0.99370000  0.05905000  1.0
  H  H9  1  0.54519000  0.00853000  0.12264000  1.0
  H  H10  1  0.65631000  0.91177000  0.12012000  1.0
  H  H11  1  0.45640000  0.16568000  0.97847000  1.0
  H  H12  1  0.46641000  0.23201000  0.91014000  1.0
  H  H13  1  0.29686000  0.15903000  0.88552000  1.0
  H  H14  1  0.39267000  0.05565000  0.90260000  1.0
  H  H15  1  0.28121000  0.09432000  0.95370000  1.0
  H  H16  1  0.39761000  0.80151000  0.29053000  1.0
  H  H17  1  0.27903000  0.72961000  0.30372000  1.0
  H  H18  1  0.20482000  0.81228000  0.21574000  1.0
  H  H19  1  0.23272000  0.90925000  0.26494000  1.0
  H  H20  1  0.32404000  0.88274000  0.20248000  1.0
  H  H21  1  0.78229000  0.44395000  0.73121000  1.0
  H  H22  1  0.73619000  0.31566000  0.73193000  1.0
  H  H23  1  0.79791000  0.28465000  0.83092000  1.0
  H  H24  1  0.90766000  0.31821000  0.78061000  1.0
  H  H25  1  0.84385000  0.41314000  0.83001000  1.0
  H  H26  1  0.73758000  0.14333000  0.41576000  1.0
  H  H27  1  0.84036000  0.06644000  0.44906000  1.0
  H  H28  1  0.92904000  0.23410000  0.46804000  1.0
  H  H29  1  0.92085000  0.21356000  0.39388000  1.0
  H  H30  1  0.82625000  0.30559000  0.43186000  1.0
  H  H31  1  0.12714000  0.91008000  0.54947000  1.0
  H  H32  1  0.22468000  0.82184000  0.57960000  1.0
  H  H33  1  0.13782000  0.67124000  0.54107000  1.0
  H  H34  1  0.04472000  0.74683000  0.58984000  1.0
  H  H35  1  0.03482000  0.75906000  0.51467000  1.0
  H  H36  1  0.27491000  0.16663000  0.52898000  1.0
  H  H37  1  0.21091000  0.06450000  0.56882000  1.0
  H  H38  1  0.04302000  0.10327000  0.51567000  1.0
  H  H39  1  0.07570000  0.21403000  0.55371000  1.0
  H  H40  1  0.10948000  0.20638000  0.47791000  1.0
  H  H41  1  0.69636000  0.98060000  0.62691000  1.0
  H  H42  1  0.77353000  0.07507000  0.58649000  1.0
  H  H43  1  0.92361000  0.93661000  0.56165000  1.0
  H  H44  1  0.89526000  0.94713000  0.63760000  1.0
  H  H45  1  0.84610000  0.84247000  0.60075000  1.0
  C  C46  1  0.43352000  0.68976000  0.50350000  1.0
  C  C47  1  0.53956000  0.29828000  0.48801000  1.0
  C  C48  1  0.58321000  0.46600000  0.22552000  1.0
  C  C49  1  0.39750000  0.56653000  0.76295000  1.0
  C  C50  1  0.60502000  0.45467000  0.28333000  1.0
  C  C51  1  0.40360000  0.57075000  0.70250000  1.0
  C  C52  1  0.54862000  0.52266000  0.32395000  1.0
  C  C53  1  0.49541000  0.52113000  0.67089000  1.0
  C  C54  1  0.47348000  0.60146000  0.30752000  1.0
  C  C55  1  0.57893000  0.47016000  0.69930000  1.0
  C  C56  1  0.45243000  0.61346000  0.25023000  1.0
  C  C57  1  0.57259000  0.46600000  0.75907000  1.0
  C  C58  1  0.50660000  0.54376000  0.20936000  1.0
  C  C59  1  0.48099000  0.51463000  0.79076000  1.0
  C  C60  1  0.54545000  0.18041000  0.48580000  1.0
  C  C61  1  0.42693000  0.80690000  0.51031000  1.0
  C  C62  1  0.34067000  0.97753000  0.48718000  1.0
  C  C63  1  0.62536000  0.01504000  0.52289000  1.0
  C  C64  1  0.33512000  0.87049000  0.49394000  1.0
  C  C65  1  0.63434000  0.11903000  0.50618000  1.0
  C  C66  1  0.51263000  0.85764000  0.53013000  1.0
  C  C67  1  0.45700000  0.12831000  0.47148000  1.0
  C  C68  1  0.55614000  0.51139000  0.38771000  1.0
  C  C69  1  0.50874000  0.51319000  0.60629000  1.0
  C  C70  1  0.52755000  0.96466000  0.51671000  1.0
  C  C71  1  0.44167000  0.02410000  0.48952000  1.0
  C  C72  1  0.05537000  0.45916000  0.57729000  1.0
  C  C73  1  0.97249000  0.59782000  0.44690000  1.0
  C  C74  1  0.16576000  0.43386000  0.56207000  1.0
  C  C75  1  0.86094000  0.60915000  0.46345000  1.0
  C  C76  1  0.15163000  0.49238000  0.46773000  1.0
  C  C77  1  0.87263000  0.48329000  0.53513000  1.0
  C  C78  1  0.03902000  0.52795000  0.47967000  1.0
  C  C79  1  0.98867000  0.49198000  0.53344000  1.0
  C  C80  1  0.43273000  0.43717000  0.88477000  1.0
  C  C81  1  0.53074000  0.63287000  0.11747000  1.0
  C  C82  1  0.53325000  0.60100000  0.87262000  1.0
  C  C83  1  0.41400000  0.48064000  0.13170000  1.0
  C  C84  1  0.52399000  0.61006000  0.93569000  1.0
  C  C85  1  0.41727000  0.47330000  0.06850000  1.0
  C  C86  1  0.47355000  0.53375000  0.97163000  1.0
  C  C87  1  0.46892000  0.54815000  0.03215000  1.0
  C  C88  1  0.43088000  0.44535000  0.94796000  1.0
  C  C89  1  0.51377000  0.63534000  0.05584000  1.0
  C  C90  1  0.56187000  0.69726000  0.95855000  1.0
  C  C91  1  0.37351000  0.38911000  0.04560000  1.0
  C  C92  1  0.55411000  0.71369000  0.01830000  1.0
  C  C93  1  0.38206000  0.37178000  0.98589000  1.0
  C  C94  1  0.52329000  0.87306000  0.07358000  1.0
  C  C95  1  0.59496000  0.95140000  0.09503000  1.0
  C  C96  1  0.40992000  0.20058000  0.94414000  1.0
  C  C97  1  0.34063000  0.12282000  0.92014000  1.0
  C  C98  1  0.33271000  0.76637000  0.26990000  1.0
  C  C99  1  0.26977000  0.84714000  0.23608000  1.0
  C  C100  1  0.75092000  0.38113000  0.75947000  1.0
  C  C101  1  0.82939000  0.34740000  0.80301000  1.0
  C  C102  1  0.79613000  0.14400000  0.44829000  1.0
  C  C103  1  0.87238000  0.22999000  0.43514000  1.0
  C  C104  1  0.17047000  0.83215000  0.54493000  1.0
  C  C105  1  0.09205000  0.74700000  0.54751000  1.0
  C  C106  1  0.21366000  0.10872000  0.52791000  1.0
  C  C107  1  0.10383000  0.16094000  0.51811000  1.0
  C  C108  1  0.75844000  0.99187000  0.59061000  1.0
  C  C109  1  0.86203000  0.92546000  0.59791000  1.0
  I  I110  1  0.81062000  0.35147000  0.57701000  1.0
  I  I111  1  0.22208000  0.47682000  0.38289000  1.0
  I  I112  1  0.76084000  0.73437000  0.43745000  1.0
  I  I113  1  0.25612000  0.34594000  0.61962000  1.0
  I  I114  1  0.99438000  0.47185000  0.66365000  1.0
  I  I115  1  0.03995000  0.70333000  0.38639000  1.0
  I  I116  1  0.66460000  0.36925000  0.16092000  1.0
  I  I117  1  0.26579000  0.63755000  0.81552000  1.0
  I  I118  1  0.71261000  0.33409000  0.31049000  1.0
  I  I119  1  0.28286000  0.65972000  0.66221000  1.0
  I  I120  1  0.36649000  0.19876000  0.40672000  1.0
  I  I121  1  0.59390000  0.78060000  0.59624000  1.0
  N  N122  1  0.48085000  0.51808000  0.85188000  1.0
  N  N123  1  0.48190000  0.55334000  0.15098000  1.0
  N  N124  1  0.81175000  0.53836000  0.50065000  1.0
  N  N125  1  0.21165000  0.44997000  0.50761000  1.0
  O  O126  1  0.52928000  0.64637000  0.49781000  1.0
  O  O127  1  0.44303000  0.33700000  0.50273000  1.0
  O  O128  1  0.34723000  0.64193000  0.49979000  1.0
  O  O129  1  0.62448000  0.34828000  0.48075000  1.0
  O  O130  1  0.64639000  0.52201000  0.40784000  1.0
  O  O131  1  0.42308000  0.50830000  0.58180000  1.0
  O  O132  1  0.46632000  0.49428000  0.41588000  1.0
  O  O133  1  0.60601000  0.50770000  0.58176000  1.0
  O  O134  1  0.39416000  0.36725000  0.85968000  1.0
  O  O135  1  0.58809000  0.69177000  0.13995000  1.0
  O  O136  1  0.58055000  0.66207000  0.83960000  1.0
  O  O137  1  0.36179000  0.42474000  0.16556000  1.0
  O  O138  1  0.59142000  0.80468000  0.03370000  1.0
  O  O139  1  0.33692000  0.28473000  0.96972000  1.0
  O  O140  1  0.38137000  0.68750000  0.23021000  1.0
  O  O141  1  0.64978000  0.41936000  0.79032000  1.0
  O  O142  1  0.73451000  0.15992000  0.50453000  1.0
  O  O143  1  0.23713000  0.82858000  0.49022000  1.0
  O  O144  1  0.24530000  0.03600000  0.48118000  1.0
  O  O145  1  0.71598000  0.95821000  0.53857000  1.0
