# generated using pymatgen
data_AgPH17C11S2(NO)2
_symmetry_space_group_name_H-M   'P 1'
_cell_length_a   9.54623000
_cell_length_b   9.71862000
_cell_length_c   9.93499000
_cell_angle_alpha   70.89690000
_cell_angle_beta   89.47100000
_cell_angle_gamma   62.62100000
_symmetry_Int_Tables_number   1
_chemical_formula_structural   AgPH17C11S2(NO)2
_chemical_formula_sum   'Ag2 P2 H34 C22 S4 N4 O4'
_cell_volume   762.36881347
_cell_formula_units_Z   2
loop_
 _symmetry_equiv_pos_site_id
 _symmetry_equiv_pos_as_xyz
  1  'x, y, z'
loop_
 _atom_site_type_symbol
 _atom_site_label
 _atom_site_symmetry_multiplicity
 _atom_site_fract_x
 _atom_site_fract_y
 _atom_site_fract_z
 _atom_site_occupancy
  Ag  Ag0  1  0.02509000  0.13390000  0.90090000  1.0
  Ag  Ag1  1  0.97491000  0.86610000  0.09910000  1.0
  P  P2  1  0.89993000  0.21471000  0.18516000  1.0
  P  P3  1  0.10007000  0.78529000  0.81484000  1.0
  H  H4  1  0.83059000  0.13110000  0.47191000  1.0
  H  H5  1  0.16942000  0.86890000  0.52809000  1.0
  H  H6  1  0.84827000  0.97217000  0.40934000  1.0
  H  H7  1  0.15174000  0.02783000  0.59066000  1.0
  H  H8  1  0.62220000  0.05419000  0.55270000  1.0
  H  H9  1  0.37781000  0.94580000  0.44730000  1.0
  H  H10  1  0.54826000  0.09476000  0.37306000  1.0
  H  H11  1  0.45174000  0.90523000  0.62694000  1.0
  H  H12  1  0.53043000  0.26073000  0.42569000  1.0
  H  H13  1  0.46958000  0.73927000  0.57431000  1.0
  H  H14  1  0.07951000  0.39164000  0.15774000  1.0
  H  H15  1  0.92050000  0.60836000  0.84226000  1.0
  H  H16  1  0.19616000  0.18484000  0.28480000  1.0
  H  H17  1  0.80384000  0.81516000  0.71520000  1.0
  H  H18  1  0.22872000  0.38381000  0.37003000  1.0
  H  H19  1  0.77128000  0.61620000  0.62997000  1.0
  H  H20  1  0.12792000  0.29426000  0.48936000  1.0
  H  H21  1  0.87208000  0.70574000  0.51064000  1.0
  H  H22  1  0.01860000  0.50100000  0.35921000  1.0
  H  H23  1  0.98140000  0.49900000  0.64080000  1.0
  H  H24  1  0.19505000  0.38686000  0.88632000  1.0
  H  H25  1  0.80494000  0.61314000  0.11368000  1.0
  H  H26  1  0.39466000  0.91950000  0.84145000  1.0
  H  H27  1  0.60535000  0.08050000  0.15855000  1.0
  H  H28  1  0.61530000  0.03892000  0.79432000  1.0
  H  H29  1  0.38470000  0.96108000  0.20568000  1.0
  H  H30  1  0.61120000  0.28915000  0.86991000  1.0
  H  H31  1  0.38879000  0.71085000  0.13008000  1.0
  H  H32  1  0.41621000  0.45513000  0.84810000  1.0
  H  H33  1  0.58378000  0.54487000  0.15190000  1.0
  H  H34  1  0.24452000  0.52138000  0.57659000  1.0
  H  H35  1  0.75547000  0.47862000  0.42341000  1.0
  H  H36  1  0.74507000  0.35958000  0.68248000  1.0
  H  H37  1  0.25492000  0.64042000  0.31752000  1.0
  C  C38  1  0.76998000  0.10120000  0.40140000  1.0
  C  C39  1  0.23002000  0.89880000  0.59860000  1.0
  C  C40  1  0.60752000  0.13024000  0.43895000  1.0
  C  C41  1  0.39248000  0.86975000  0.56105000  1.0
  C  C42  1  0.09424000  0.30794000  0.26912000  1.0
  C  C43  1  0.90576000  0.69207000  0.73088000  1.0
  C  C44  1  0.11787000  0.37570000  0.37871000  1.0
  C  C45  1  0.88213000  0.62430000  0.62129000  1.0
  C  C46  1  0.27536000  0.27569000  0.86559000  1.0
  C  C47  1  0.72463000  0.72430000  0.13441000  1.0
  C  C48  1  0.38479000  0.03545000  0.84069000  1.0
  C  C49  1  0.61521000  0.96454000  0.15931000  1.0
  C  C50  1  0.49394000  0.09236000  0.81626000  1.0
  C  C51  1  0.50606000  0.90764000  0.18374000  1.0
  C  C52  1  0.49026000  0.35728000  0.80638000  1.0
  C  C53  1  0.50973000  0.64273000  0.19361000  1.0
  C  C54  1  0.49472000  0.43087000  0.64772000  1.0
  C  C55  1  0.50527000  0.56913000  0.35228000  1.0
  C  C56  1  0.35722000  0.51074000  0.54356000  1.0
  C  C57  1  0.64277000  0.48926000  0.45644000  1.0
  C  C58  1  0.63711000  0.42117000  0.60229000  1.0
  C  C59  1  0.36288000  0.57883000  0.39771000  1.0
  S  S60  1  0.82257000  0.37272000  0.98203000  1.0
  S  S61  1  0.17744000  0.62728000  0.01796000  1.0
  S  S62  1  0.08476000  0.98517000  0.22389000  1.0
  S  S63  1  0.91524000  0.01484000  0.77611000  1.0
  N  N64  1  0.24874000  0.15104000  0.87091000  1.0
  N  N65  1  0.75126000  0.84896000  0.12909000  1.0
  N  N66  1  0.42287000  0.24454000  0.83254000  1.0
  N  N67  1  0.57713000  0.75546000  0.16747000  1.0
  O  O68  1  0.74750000  0.20976000  0.25112000  1.0
  O  O69  1  0.25250000  0.79024000  0.74888000  1.0
  O  O70  1  0.95100000  0.29071000  0.28673000  1.0
  O  O71  1  0.04900000  0.70929000  0.71327000  1.0
