# generated using pymatgen
data_CdH12C6(BrN)3
_symmetry_space_group_name_H-M   'P 1'
_cell_length_a   8.06531000
_cell_length_b   8.66516000
_cell_length_c   16.88260000
_cell_angle_alpha   89.99980000
_cell_angle_beta   84.48040000
_cell_angle_gamma   89.99990000
_symmetry_Int_Tables_number   1
_chemical_formula_structural   CdH12C6(BrN)3
_chemical_formula_sum   'Cd4 H48 C24 Br12 N12'
_cell_volume   1174.40699320
_cell_formula_units_Z   4
loop_
 _symmetry_equiv_pos_site_id
 _symmetry_equiv_pos_as_xyz
  1  'x, y, z'
loop_
 _atom_site_type_symbol
 _atom_site_label
 _atom_site_symmetry_multiplicity
 _atom_site_fract_x
 _atom_site_fract_y
 _atom_site_fract_z
 _atom_site_occupancy
  Cd  Cd0  1  0.78713000  0.96712000  0.80586000  1.0
  Cd  Cd1  1  0.21287000  0.96711000  0.69414000  1.0
  Cd  Cd2  1  0.21287000  0.03288000  0.19414000  1.0
  Cd  Cd3  1  0.78713000  0.03288000  0.30586000  1.0
  H  H4  1  0.41252000  0.77775000  0.85696000  1.0
  H  H5  1  0.58749000  0.77776000  0.64305000  1.0
  H  H6  1  0.58749000  0.22225000  0.14305000  1.0
  H  H7  1  0.41251000  0.22224000  0.35696000  1.0
  H  H8  1  0.66175000  0.34677000  0.84021000  1.0
  H  H9  1  0.33826000  0.34677000  0.65978000  1.0
  H  H10  1  0.33825000  0.65323000  0.15978000  1.0
  H  H11  1  0.66175000  0.65323000  0.34022000  1.0
  H  H12  1  0.89378000  0.58499000  0.81443000  1.0
  H  H13  1  0.10623000  0.58498000  0.68557000  1.0
  H  H14  1  0.10622000  0.41501000  0.18557000  1.0
  H  H15  1  0.89377000  0.41501000  0.31443000  1.0
  H  H16  1  0.33293000  0.36450000  0.82548000  1.0
  H  H17  1  0.66708000  0.36450000  0.67452000  1.0
  H  H18  1  0.66708000  0.63550000  0.17452000  1.0
  H  H19  1  0.33292000  0.63550000  0.32548000  1.0
  H  H20  1  0.23558000  0.54231000  0.85471000  1.0
  H  H21  1  0.76443000  0.54231000  0.64529000  1.0
  H  H22  1  0.76442000  0.45769000  0.14529000  1.0
  H  H23  1  0.23557000  0.45768000  0.35471000  1.0
  H  H24  1  0.39984000  0.32136000  0.96761000  1.0
  H  H25  1  0.60016000  0.32136000  0.53240000  1.0
  H  H26  1  0.60016000  0.67864000  0.03240000  1.0
  H  H27  1  0.39984000  0.67864000  0.46761000  1.0
  H  H28  1  0.31126000  0.50319000  0.99442000  1.0
  H  H29  1  0.68874000  0.50319000  0.50558000  1.0
  H  H30  1  0.68874000  0.49681000  0.00558000  1.0
  H  H31  1  0.31125000  0.49681000  0.49442000  1.0
  H  H32  1  0.09774000  0.32242000  0.03628000  1.0
  H  H33  1  0.90226000  0.32242000  0.46372000  1.0
  H  H34  1  0.90226000  0.67758000  0.96372000  1.0
  H  H35  1  0.09773000  0.67758000  0.53628000  1.0
  H  H36  1  0.03496000  0.40233000  0.94664000  1.0
  H  H37  1  0.96504000  0.40233000  0.55335000  1.0
  H  H38  1  0.96503000  0.59767000  0.05335000  1.0
  H  H39  1  0.03496000  0.59767000  0.44665000  1.0
  H  H40  1  0.15144000  0.16907000  0.87814000  1.0
  H  H41  1  0.84856000  0.16907000  0.62186000  1.0
  H  H42  1  0.84856000  0.83093000  0.12186000  1.0
  H  H43  1  0.15143000  0.83093000  0.37814000  1.0
  H  H44  1  0.99378000  0.13807000  0.94640000  1.0
  H  H45  1  0.00622000  0.13807000  0.55360000  1.0
  H  H46  1  0.00622000  0.86193000  0.05360000  1.0
  H  H47  1  0.99378000  0.86193000  0.44640000  1.0
  H  H48  1  0.18966000  0.09411000  0.96718000  1.0
  H  H49  1  0.81034000  0.09411000  0.53282000  1.0
  H  H50  1  0.81034000  0.90589000  0.03282000  1.0
  H  H51  1  0.18965000  0.90589000  0.46718000  1.0
  C  C52  1  0.51435000  0.69548000  0.84948000  1.0
  C  C53  1  0.48566000  0.69548000  0.65052000  1.0
  C  C54  1  0.48566000  0.30452000  0.15052000  1.0
  C  C55  1  0.51434000  0.30452000  0.34948000  1.0
  C  C56  1  0.64695000  0.47106000  0.83977000  1.0
  C  C57  1  0.35306000  0.47106000  0.66023000  1.0
  C  C58  1  0.35305000  0.52894000  0.16023000  1.0
  C  C59  1  0.64695000  0.52893000  0.33977000  1.0
  C  C60  1  0.75980000  0.58939000  0.82781000  1.0
  C  C61  1  0.24021000  0.58939000  0.67218000  1.0
  C  C62  1  0.24021000  0.41061000  0.17218000  1.0
  C  C63  1  0.75979000  0.41061000  0.32781000  1.0
  C  C64  1  0.33307000  0.46040000  0.86809000  1.0
  C  C65  1  0.66694000  0.46040000  0.63191000  1.0
  C  C66  1  0.66694000  0.53961000  0.13191000  1.0
  C  C67  1  0.33306000  0.53960000  0.36809000  1.0
  C  C68  1  0.30286000  0.40431000  0.95411000  1.0
  C  C69  1  0.69714000  0.40431000  0.54589000  1.0
  C  C70  1  0.69714000  0.59569000  0.04589000  1.0
  C  C71  1  0.30286000  0.59569000  0.45411000  1.0
  C  C72  1  0.13117000  0.33307000  0.97197000  1.0
  C  C73  1  0.86883000  0.33307000  0.52803000  1.0
  C  C74  1  0.86883000  0.66694000  0.02803000  1.0
  C  C75  1  0.13117000  0.66693000  0.47197000  1.0
  Br  Br76  1  0.50000000  0.09709000  0.75000000  1.0
  Br  Br77  1  0.50000000  0.90291000  0.25000000  1.0
  Br  Br78  1  0.71475000  0.09938000  0.95224000  1.0
  Br  Br79  1  0.28525000  0.09938000  0.54777000  1.0
  Br  Br80  1  0.28525000  0.90062000  0.04777000  1.0
  Br  Br81  1  0.71475000  0.90062000  0.45224000  1.0
  Br  Br82  1  0.09674000  0.84642000  0.84745000  1.0
  Br  Br83  1  0.90324000  0.84643000  0.65254000  1.0
  Br  Br84  1  0.90326000  0.15358000  0.15255000  1.0
  Br  Br85  1  0.09674000  0.15358000  0.34746000  1.0
  Br  Br86  1  0.00000000  0.22335000  0.75000000  1.0
  Br  Br87  1  0.00000000  0.77665000  0.25000000  1.0
  N  N88  1  0.67545000  0.72842000  0.83429000  1.0
  N  N89  1  0.32455000  0.72841000  0.66572000  1.0
  N  N90  1  0.32455000  0.27158000  0.16572000  1.0
  N  N91  1  0.67545000  0.27159000  0.33429000  1.0
  N  N92  1  0.49215000  0.54019000  0.85284000  1.0
  N  N93  1  0.50786000  0.54019000  0.64716000  1.0
  N  N94  1  0.50786000  0.45981000  0.14716000  1.0
  N  N95  1  0.49214000  0.45980000  0.35284000  1.0
  N  N96  1  0.11875000  0.17456000  0.93877000  1.0
  N  N97  1  0.88125000  0.17456000  0.56123000  1.0
  N  N98  1  0.88125000  0.82544000  0.06123000  1.0
  N  N99  1  0.11875000  0.82544000  0.43877000  1.0
