# generated using pymatgen
data_AlH12C33(NO10)3
_symmetry_space_group_name_H-M   'P 1'
_cell_length_a   4.39175000
_cell_length_b   27.77910000
_cell_length_c   27.77916025
_cell_angle_alpha   60.00421522
_cell_angle_beta   89.99970020
_cell_angle_gamma   89.99670000
_symmetry_Int_Tables_number   1
_chemical_formula_structural   AlH12C33(NO10)3
_chemical_formula_sum   'Al2 H24 C66 N6 O60'
_cell_volume   2935.10721709
_cell_formula_units_Z   2
loop_
 _symmetry_equiv_pos_site_id
 _symmetry_equiv_pos_as_xyz
  1  'x, y, z'
loop_
 _atom_site_type_symbol
 _atom_site_label
 _atom_site_symmetry_multiplicity
 _atom_site_fract_x
 _atom_site_fract_y
 _atom_site_fract_z
 _atom_site_occupancy
  Al  Al0  1  0.07933000  0.99999000  0.50001000  1.0
  Al  Al1  1  0.07935000  0.66668000  0.16665000  1.0
  H  H2  1  0.31952000  0.51734000  0.10867000  1.0
  H  H3  1  0.84066000  0.39016000  0.17606000  1.0
  H  H4  1  0.83055000  0.54257000  0.31388000  1.0
  H  H5  1  0.69721000  0.40153000  0.40047000  1.0
  H  H6  1  0.84061000  0.27651000  0.49060000  1.0
  H  H7  1  0.31949000  0.14932000  0.55800000  1.0
  H  H8  1  0.69720000  0.26515000  0.26619000  1.0
  H  H9  1  0.83046000  0.12409000  0.35279000  1.0
  H  H10  1  0.31966000  0.60868000  0.37396000  1.0
  H  H11  1  0.84079000  0.67605000  0.43375000  1.0
  H  H12  1  0.82991000  0.81392000  0.14349000  1.0
  H  H13  1  0.69734000  0.90049000  0.19801000  1.0
  H  H14  1  0.84079000  0.99061000  0.23291000  1.0
  H  H15  1  0.31965000  0.05799000  0.29270000  1.0
  H  H16  1  0.69740000  0.76618000  0.46865000  1.0
  H  H17  1  0.82982000  0.85275000  0.52318000  1.0
  H  H18  1  0.31951000  0.87403000  0.01731000  1.0
  H  H19  1  0.84072000  0.93379000  0.89015000  1.0
  H  H20  1  0.83021000  0.64353000  0.04258000  1.0
  H  H21  1  0.69729000  0.69801000  0.90152000  1.0
  H  H22  1  0.84078000  0.73288000  0.77652000  1.0
  H  H23  1  0.31959000  0.79264000  0.64936000  1.0
  H  H24  1  0.69726000  0.96867000  0.76514000  1.0
  H  H25  1  0.83025000  0.02313000  0.62409000  1.0
  C  C26  1  0.58380000  0.94609000  0.58409000  1.0
  C  C27  1  0.58378000  0.08408000  0.46983000  1.0
  C  C28  1  0.58378000  0.96981000  0.44611000  1.0
  C  C29  1  0.58384000  0.58259000  0.19684000  1.0
  C  C30  1  0.58377000  0.69686000  0.22055000  1.0
  C  C31  1  0.58377000  0.72057000  0.08258000  1.0
  C  C32  1  0.57287000  0.51959000  0.22564000  1.0
  C  C33  1  0.47690000  0.49144000  0.28174000  1.0
  C  C34  1  0.42957000  0.43400000  0.31090000  1.0
  C  C35  1  0.46626000  0.40436000  0.28246000  1.0
  C  C36  1  0.52627000  0.43293000  0.22494000  1.0
  C  C37  1  0.60033000  0.48974000  0.19719000  1.0
  C  C38  1  0.52624000  0.23374000  0.44173000  1.0
  C  C39  1  0.46623000  0.26231000  0.38421000  1.0
  C  C40  1  0.42955000  0.23267000  0.35577000  1.0
  C  C41  1  0.47685000  0.17523000  0.38493000  1.0
  C  C42  1  0.57280000  0.14707000  0.44103000  1.0
  C  C43  1  0.60028000  0.17692000  0.46948000  1.0
  C  C44  1  0.57283000  0.72567000  0.25474000  1.0
  C  C45  1  0.47683000  0.78176000  0.22680000  1.0
  C  C46  1  0.42964000  0.81091000  0.25510000  1.0
  C  C47  1  0.46642000  0.78247000  0.31317000  1.0
  C  C48  1  0.52638000  0.72494000  0.34212000  1.0
  C  C49  1  0.60038000  0.69721000  0.31304000  1.0
  C  C50  1  0.52640000  0.94173000  0.32454000  1.0
  C  C51  1  0.46644000  0.88421000  0.35349000  1.0
  C  C52  1  0.42965000  0.85575000  0.41157000  1.0
  C  C53  1  0.47685000  0.88491000  0.43986000  1.0
  C  C54  1  0.57286000  0.94101000  0.41192000  1.0
  C  C55  1  0.60041000  0.96946000  0.35362000  1.0
  C  C56  1  0.57280000  0.75478000  0.01958000  1.0
  C  C57  1  0.47681000  0.72683000  0.99144000  1.0
  C  C58  1  0.42956000  0.75512000  0.93399000  1.0
  C  C59  1  0.46637000  0.81320000  0.90435000  1.0
  C  C60  1  0.52635000  0.84215000  0.93292000  1.0
  C  C61  1  0.60033000  0.81309000  0.98973000  1.0
  C  C62  1  0.52638000  0.82453000  0.73374000  1.0
  C  C63  1  0.46640000  0.85348000  0.76231000  1.0
  C  C64  1  0.42961000  0.91156000  0.73267000  1.0
  C  C65  1  0.47687000  0.93984000  0.67523000  1.0
  C  C66  1  0.57285000  0.91189000  0.64708000  1.0
  C  C67  1  0.60037000  0.85359000  0.67693000  1.0
  C  C68  1  0.72241000  0.51357000  0.13888000  1.0
  C  C69  1  0.43199000  0.40329000  0.19390000  1.0
  C  C70  1  0.40247000  0.52407000  0.30994000  1.0
  C  C71  1  0.29841000  0.40733000  0.36894000  1.0
  C  C72  1  0.43194000  0.26338000  0.47277000  1.0
  C  C73  1  0.72237000  0.15310000  0.52779000  1.0
  C  C74  1  0.29839000  0.25935000  0.29772000  1.0
  C  C75  1  0.40239000  0.14260000  0.35673000  1.0
  C  C76  1  0.72250000  0.63889000  0.34752000  1.0
  C  C77  1  0.43211000  0.69389000  0.40280000  1.0
  C  C78  1  0.40200000  0.80996000  0.16599000  1.0
  C  C79  1  0.29851000  0.86897000  0.22373000  1.0
  C  C80  1  0.43212000  0.97278000  0.26386000  1.0
  C  C81  1  0.72251000  0.02777000  0.31915000  1.0
  C  C82  1  0.29854000  0.79770000  0.44293000  1.0
  C  C83  1  0.40196000  0.85671000  0.50067000  1.0
  C  C84  1  0.72240000  0.84758000  0.01356000  1.0
  C  C85  1  0.43205000  0.90283000  0.90328000  1.0
  C  C86  1  0.40221000  0.66601000  0.02406000  1.0
  C  C87  1  0.29846000  0.72374000  0.90732000  1.0
  C  C88  1  0.43208000  0.76384000  0.76338000  1.0
  C  C89  1  0.72246000  0.81908000  0.65311000  1.0
  C  C90  1  0.29845000  0.94294000  0.75934000  1.0
  C  C91  1  0.40225000  0.00067000  0.64260000  1.0
  N  N92  1  0.45348000  0.34638000  0.30702000  1.0
  N  N93  1  0.45349000  0.32029000  0.35965000  1.0
  N  N94  1  0.45368000  0.80702000  0.34660000  1.0
  N  N95  1  0.45369000  0.85966000  0.32006000  1.0
  N  N96  1  0.45366000  0.84662000  0.84637000  1.0
  N  N97  1  0.45364000  0.82006000  0.82029000  1.0
  O  O98  1  0.81758000  0.99733000  0.44469000  1.0
  O  O99  1  0.81761000  0.94466000  0.55800000  1.0
  O  O100  1  0.81759000  0.05799000  0.49734000  1.0
  O  O101  1  0.34378000  0.96191000  0.47495000  1.0
  O  O102  1  0.34377000  0.06314000  0.46193000  1.0
  O  O103  1  0.34378000  0.97494000  0.56315000  1.0
  O  O104  1  0.81758000  0.72201000  0.10866000  1.0
  O  O105  1  0.81763000  0.60868000  0.16932000  1.0
  O  O106  1  0.81759000  0.66934000  0.22197000  1.0
  O  O107  1  0.34378000  0.69173000  0.10351000  1.0
  O  O108  1  0.34376000  0.70477000  0.19171000  1.0
  O  O109  1  0.34381000  0.60352000  0.20474000  1.0
  O  O110  1  0.54167000  0.51633000  0.09978000  1.0
  O  O111  1  0.99580000  0.52447000  0.13124000  1.0
  O  O112  1  0.61767000  0.38642000  0.16886000  1.0
  O  O113  1  0.15320000  0.39836000  0.19278000  1.0
  O  O114  1  0.61253000  0.55499000  0.31440000  1.0
  O  O115  1  0.14446000  0.52169000  0.32847000  1.0
  O  O116  1  0.47503000  0.40027000  0.41030000  1.0
  O  O117  1  0.02244000  0.39805000  0.37444000  1.0
  O  O118  1  0.61762000  0.28025000  0.49780000  1.0
  O  O119  1  0.15316000  0.26831000  0.47389000  1.0
  O  O120  1  0.54163000  0.15034000  0.56689000  1.0
  O  O121  1  0.99578000  0.14220000  0.53543000  1.0
  O  O122  1  0.47503000  0.26639000  0.25637000  1.0
  O  O123  1  0.02243000  0.26863000  0.29222000  1.0
  O  O124  1  0.61244000  0.11167000  0.35227000  1.0
  O  O125  1  0.14436000  0.14499000  0.33821000  1.0
  O  O126  1  0.54181000  0.59978000  0.38387000  1.0
  O  O127  1  0.99588000  0.63125000  0.34425000  1.0
  O  O128  1  0.61782000  0.66884000  0.44470000  1.0
  O  O129  1  0.15334000  0.69278000  0.40886000  1.0
  O  O130  1  0.61186000  0.81444000  0.13057000  1.0
  O  O131  1  0.14383000  0.82844000  0.14991000  1.0
  O  O132  1  0.47516000  0.91032000  0.18943000  1.0
  O  O133  1  0.02258000  0.87448000  0.22754000  1.0
  O  O134  1  0.61781000  0.99783000  0.22196000  1.0
  O  O135  1  0.15334000  0.97388000  0.25781000  1.0
  O  O136  1  0.54179000  0.06688000  0.28280000  1.0
  O  O137  1  0.99588000  0.03540000  0.32243000  1.0
  O  O138  1  0.47522000  0.75636000  0.47723000  1.0
  O  O139  1  0.02262000  0.79220000  0.43912000  1.0
  O  O140  1  0.61177000  0.85222000  0.53611000  1.0
  O  O141  1  0.14376000  0.83825000  0.51673000  1.0
  O  O142  1  0.54165000  0.88393000  0.01631000  1.0
  O  O143  1  0.99578000  0.84431000  0.02447000  1.0
  O  O144  1  0.61772000  0.94473000  0.88641000  1.0
  O  O145  1  0.15326000  0.90888000  0.89836000  1.0
  O  O146  1  0.61216000  0.63060000  0.05498000  1.0
  O  O147  1  0.14410000  0.64991000  0.02166000  1.0
  O  O148  1  0.47512000  0.68943000  0.90028000  1.0
  O  O149  1  0.02251000  0.72754000  0.89801000  1.0
  O  O150  1  0.61778000  0.72194000  0.78026000  1.0
  O  O151  1  0.15330000  0.75780000  0.76830000  1.0
  O  O152  1  0.54173000  0.78273000  0.65037000  1.0
  O  O153  1  0.99583000  0.82235000  0.64220000  1.0
  O  O154  1  0.47508000  0.97724000  0.76639000  1.0
  O  O155  1  0.02250000  0.93914000  0.76864000  1.0
  O  O156  1  0.61221000  0.03607000  0.61167000  1.0
  O  O157  1  0.14415000  0.01677000  0.64500000  1.0
