# generated using pymatgen
data_Zr3Cu4H24C24I4(NO4)4
_symmetry_space_group_name_H-M   'P 1'
_cell_length_a   17.58370000
_cell_length_b   17.58360000
_cell_length_c   21.44502497
_cell_angle_alpha   114.19971289
_cell_angle_beta   114.18956053
_cell_angle_gamma   90.01760000
_symmetry_Int_Tables_number   1
_chemical_formula_structural   Zr3Cu4H24C24I4(NO4)4
_chemical_formula_sum   'Zr6 Cu8 H48 C48 I8 N8 O32'
_cell_volume   5402.77056334
_cell_formula_units_Z   2
loop_
 _symmetry_equiv_pos_site_id
 _symmetry_equiv_pos_as_xyz
  1  'x, y, z'
loop_
 _atom_site_type_symbol
 _atom_site_label
 _atom_site_symmetry_multiplicity
 _atom_site_fract_x
 _atom_site_fract_y
 _atom_site_fract_z
 _atom_site_occupancy
  Zr  Zr0  1  0.07498000  0.07500000  0.14998000  1.0
  Zr  Zr1  1  0.92502000  0.92500000  0.85002000  1.0
  Zr  Zr2  1  0.15806000  0.99999000  0.00001000  1.0
  Zr  Zr3  1  0.00002000  0.84195000  0.00001000  1.0
  Zr  Zr4  1  0.84194000  0.00001000  0.99999000  1.0
  Zr  Zr5  1  0.99998000  0.15806000  0.99999000  1.0
  Cu  Cu6  1  0.79941000  0.22532000  0.45075000  1.0
  Cu  Cu7  1  0.22543000  0.65134000  0.45075000  1.0
  Cu  Cu8  1  0.65130000  0.22533000  0.45075000  1.0
  Cu  Cu9  1  0.22543000  0.79946000  0.45075000  1.0
  Cu  Cu10  1  0.34871000  0.77467000  0.54926000  1.0
  Cu  Cu11  1  0.20059000  0.77468000  0.54925000  1.0
  Cu  Cu12  1  0.77458000  0.20055000  0.54925000  1.0
  Cu  Cu13  1  0.77457000  0.34866000  0.54925000  1.0
  H  H14  1  0.15712000  0.15713000  0.09974000  1.0
  H  H15  1  0.15714000  0.94263000  0.09977000  1.0
  H  H16  1  0.94261000  0.94262000  0.09974000  1.0
  H  H17  1  0.94260000  0.15716000  0.09976000  1.0
  H  H18  1  0.05740000  0.84284000  0.90024000  1.0
  H  H19  1  0.84286000  0.05737000  0.90023000  1.0
  H  H20  1  0.84289000  0.84287000  0.90026000  1.0
  H  H21  1  0.05739000  0.05738000  0.90026000  1.0
  H  H22  1  0.26953000  0.11753000  0.99999000  1.0
  H  H23  1  0.11754000  0.73045000  0.99999000  1.0
  H  H24  1  0.73047000  0.88247000  0.00001000  1.0
  H  H25  1  0.88245000  0.26955000  0.00001000  1.0
  H  H26  1  0.26954000  0.88245000  0.99999000  1.0
  H  H27  1  0.73045000  0.11755000  0.00000000  1.0
  H  H28  1  0.88247000  0.73046000  0.99999000  1.0
  H  H29  1  0.11753000  0.26954000  0.00001000  1.0
  H  H30  1  0.96987000  0.22550000  0.45118000  1.0
  H  H31  1  0.22568000  0.48131000  0.45118000  1.0
  H  H32  1  0.48125000  0.22550000  0.45118000  1.0
  H  H33  1  0.22568000  0.96993000  0.45119000  1.0
  H  H34  1  0.51876000  0.77450000  0.54882000  1.0
  H  H35  1  0.03013000  0.77450000  0.54882000  1.0
  H  H36  1  0.77432000  0.03006000  0.54882000  1.0
  H  H37  1  0.77432000  0.51869000  0.54882000  1.0
  H  H38  1  0.02231000  0.17508000  0.35027000  1.0
  H  H39  1  0.17519000  0.32796000  0.35027000  1.0
  H  H40  1  0.32793000  0.17507000  0.35028000  1.0
  H  H41  1  0.17521000  0.02235000  0.35028000  1.0
  H  H42  1  0.67207000  0.82493000  0.64972000  1.0
  H  H43  1  0.97769000  0.82492000  0.64973000  1.0
  H  H44  1  0.82479000  0.97765000  0.64972000  1.0
  H  H45  1  0.82481000  0.67204000  0.64973000  1.0
  H  H46  1  0.76003000  0.08997000  0.17981000  1.0
  H  H47  1  0.08983000  0.41978000  0.17981000  1.0
  H  H48  1  0.41982000  0.09000000  0.17984000  1.0
  H  H49  1  0.08985000  0.76001000  0.17985000  1.0
  H  H50  1  0.58018000  0.91000000  0.82016000  1.0
  H  H51  1  0.23997000  0.91003000  0.82019000  1.0
  H  H52  1  0.91015000  0.23998000  0.82015000  1.0
  H  H53  1  0.91016000  0.58022000  0.82019000  1.0
  H  H54  1  0.71830000  0.14376000  0.28743000  1.0
  H  H55  1  0.14367000  0.56913000  0.28743000  1.0
  H  H56  1  0.56913000  0.14379000  0.28745000  1.0
  H  H57  1  0.14366000  0.71832000  0.28745000  1.0
  H  H58  1  0.43088000  0.85621000  0.71256000  1.0
  H  H59  1  0.28170000  0.85625000  0.71257000  1.0
  H  H60  1  0.85634000  0.28168000  0.71255000  1.0
  H  H61  1  0.85633000  0.43087000  0.71257000  1.0
  C  C62  1  0.92595000  0.19498000  0.39015000  1.0
  C  C63  1  0.19517000  0.46420000  0.39015000  1.0
  C  C64  1  0.46413000  0.19501000  0.39015000  1.0
  C  C65  1  0.19514000  0.92601000  0.39015000  1.0
  C  C66  1  0.53586000  0.80499000  0.60985000  1.0
  C  C67  1  0.07405000  0.80502000  0.60985000  1.0
  C  C68  1  0.80486000  0.07398000  0.60985000  1.0
  C  C69  1  0.80483000  0.53580000  0.60985000  1.0
  C  C70  1  0.95447000  0.16709000  0.33432000  1.0
  C  C71  1  0.16723000  0.37985000  0.33432000  1.0
  C  C72  1  0.37981000  0.16711000  0.33432000  1.0
  C  C73  1  0.16721000  0.95451000  0.33433000  1.0
  C  C74  1  0.62019000  0.83289000  0.66568000  1.0
  C  C75  1  0.04553000  0.83291000  0.66568000  1.0
  C  C76  1  0.83279000  0.04549000  0.66568000  1.0
  C  C77  1  0.83277000  0.62015000  0.66568000  1.0
  C  C78  1  0.89441000  0.12859000  0.25723000  1.0
  C  C79  1  0.12864000  0.36282000  0.25723000  1.0
  C  C80  1  0.36280000  0.12861000  0.25723000  1.0
  C  C81  1  0.12862000  0.89443000  0.25724000  1.0
  C  C82  1  0.63720000  0.87139000  0.74277000  1.0
  C  C83  1  0.10559000  0.87141000  0.74277000  1.0
  C  C84  1  0.87138000  0.10557000  0.74277000  1.0
  C  C85  1  0.87136000  0.63718000  0.74277000  1.0
  C  C86  1  0.80789000  0.11973000  0.23940000  1.0
  C  C87  1  0.11967000  0.43151000  0.23940000  1.0
  C  C88  1  0.43152000  0.11976000  0.23942000  1.0
  C  C89  1  0.11966000  0.80790000  0.23943000  1.0
  C  C90  1  0.56848000  0.88024000  0.76058000  1.0
  C  C91  1  0.19211000  0.88027000  0.76060000  1.0
  C  C92  1  0.88033000  0.19210000  0.76057000  1.0
  C  C93  1  0.88033000  0.56849000  0.76060000  1.0
  C  C94  1  0.78482000  0.14923000  0.29844000  1.0
  C  C95  1  0.14921000  0.51362000  0.29844000  1.0
  C  C96  1  0.51361000  0.14929000  0.29847000  1.0
  C  C97  1  0.14919000  0.78486000  0.29848000  1.0
  C  C98  1  0.48639000  0.85071000  0.70153000  1.0
  C  C99  1  0.21518000  0.85077000  0.70156000  1.0
  C  C100  1  0.85082000  0.21514000  0.70153000  1.0
  C  C101  1  0.85079000  0.48638000  0.70156000  1.0
  C  C102  1  0.91958000  0.09683000  0.19367000  1.0
  C  C103  1  0.09684000  0.27409000  0.19367000  1.0
  C  C104  1  0.27404000  0.09686000  0.19371000  1.0
  C  C105  1  0.09684000  0.91966000  0.19371000  1.0
  C  C106  1  0.72596000  0.90314000  0.80629000  1.0
  C  C107  1  0.08042000  0.90317000  0.80633000  1.0
  C  C108  1  0.90316000  0.08033000  0.80629000  1.0
  C  C109  1  0.90316000  0.72591000  0.80633000  1.0
  I  I110  1  0.92725000  0.29538000  0.59065000  1.0
  I  I111  1  0.29527000  0.66339000  0.59065000  1.0
  I  I112  1  0.66321000  0.29529000  0.59060000  1.0
  I  I113  1  0.29532000  0.92739000  0.59060000  1.0
  I  I114  1  0.33680000  0.70472000  0.40941000  1.0
  I  I115  1  0.07276000  0.70462000  0.40935000  1.0
  I  I116  1  0.70468000  0.07261000  0.40940000  1.0
  I  I117  1  0.70474000  0.33660000  0.40935000  1.0
  N  N118  1  0.84261000  0.18635000  0.37281000  1.0
  N  N119  1  0.18646000  0.53020000  0.37281000  1.0
  N  N120  1  0.53017000  0.18640000  0.37284000  1.0
  N  N121  1  0.18644000  0.84267000  0.37285000  1.0
  N  N122  1  0.46983000  0.81360000  0.62716000  1.0
  N  N123  1  0.15739000  0.81365000  0.62718000  1.0
  N  N124  1  0.81355000  0.15733000  0.62715000  1.0
  N  N125  1  0.81353000  0.46980000  0.62718000  1.0
  O  O126  1  0.86063000  0.06301000  0.12601000  1.0
  O  O127  1  0.06300000  0.26538000  0.12601000  1.0
  O  O128  1  0.26531000  0.06300000  0.12603000  1.0
  O  O129  1  0.06303000  0.86072000  0.12603000  1.0
  O  O130  1  0.73469000  0.93700000  0.87397000  1.0
  O  O131  1  0.13937000  0.93699000  0.87399000  1.0
  O  O132  1  0.93697000  0.13928000  0.87397000  1.0
  O  O133  1  0.93700000  0.73462000  0.87399000  1.0
  O  O134  1  0.99985000  0.10640000  0.21281000  1.0
  O  O135  1  0.10640000  0.21296000  0.21281000  1.0
  O  O136  1  0.21295000  0.10650000  0.21290000  1.0
  O  O137  1  0.10641000  0.99995000  0.21290000  1.0
  O  O138  1  0.78705000  0.89351000  0.78710000  1.0
  O  O139  1  0.00014000  0.89359000  0.78718000  1.0
  O  O140  1  0.89359000  0.00004000  0.78710000  1.0
  O  O141  1  0.89359000  0.78704000  0.78719000  1.0
  O  O142  1  0.10934000  0.10933000  0.07302000  1.0
  O  O143  1  0.10936000  0.96367000  0.07303000  1.0
  O  O144  1  0.96369000  0.96368000  0.07302000  1.0
  O  O145  1  0.96364000  0.10938000  0.07302000  1.0
  O  O146  1  0.03636000  0.89062000  0.92698000  1.0
  O  O147  1  0.89064000  0.03633000  0.92697000  1.0
  O  O148  1  0.89066000  0.89066000  0.92698000  1.0
  O  O149  1  0.03632000  0.03632000  0.92698000  1.0
  O  O150  1  0.22197000  0.09032000  0.99999000  1.0
  O  O151  1  0.09027000  0.77795000  0.00001000  1.0
  O  O152  1  0.77803000  0.90967000  0.00001000  1.0
  O  O153  1  0.90973000  0.22205000  0.99999000  1.0
  O  O154  1  0.22206000  0.90974000  0.00001000  1.0
  O  O155  1  0.77795000  0.09026000  0.00000000  1.0
  O  O156  1  0.90966000  0.77802000  0.99999000  1.0
  O  O157  1  0.09034000  0.22198000  0.00001000  1.0
