# generated using pymatgen
data_CdH8C7(N2Cl)2
_symmetry_space_group_name_H-M   'P 1'
_cell_length_a   9.15361000
_cell_length_b   9.15351000
_cell_length_c   13.99970000
_cell_angle_alpha   106.95300000
_cell_angle_beta   98.06030000
_cell_angle_gamma   109.85300000
_symmetry_Int_Tables_number   1
_chemical_formula_structural   CdH8C7(N2Cl)2
_chemical_formula_sum   'Cd4 H32 C28 N16 Cl8'
_cell_volume   1017.34740083
_cell_formula_units_Z   4
loop_
 _symmetry_equiv_pos_site_id
 _symmetry_equiv_pos_as_xyz
  1  'x, y, z'
loop_
 _atom_site_type_symbol
 _atom_site_label
 _atom_site_symmetry_multiplicity
 _atom_site_fract_x
 _atom_site_fract_y
 _atom_site_fract_z
 _atom_site_occupancy
  Cd  Cd0  1  0.94176000  0.99782000  0.13965000  1.0
  Cd  Cd1  1  0.85821000  0.30211000  0.36030000  1.0
  Cd  Cd2  1  0.05824000  0.00218000  0.86035000  1.0
  Cd  Cd3  1  0.14179000  0.69789000  0.63970000  1.0
  H  H4  1  0.17847000  0.83490000  0.02085000  1.0
  H  H5  1  0.81424000  0.65764000  0.47921000  1.0
  H  H6  1  0.82153000  0.16509000  0.97914000  1.0
  H  H7  1  0.18576000  0.34236000  0.52079000  1.0
  H  H8  1  0.11863000  0.48316000  0.16915000  1.0
  H  H9  1  0.31424000  0.44967000  0.33093000  1.0
  H  H10  1  0.88137000  0.51684000  0.83085000  1.0
  H  H11  1  0.68576000  0.55033000  0.66907000  1.0
  H  H12  1  0.99119000  0.70720000  0.25857000  1.0
  H  H13  1  0.44884000  0.23275000  0.24148000  1.0
  H  H14  1  0.00881000  0.29281000  0.74143000  1.0
  H  H15  1  0.55116000  0.76725000  0.75852000  1.0
  H  H16  1  0.54190000  0.83309000  0.01666000  1.0
  H  H17  1  0.81658000  0.02532000  0.48330000  1.0
  H  H18  1  0.45810000  0.16691000  0.98334000  1.0
  H  H19  1  0.18342000  0.97468000  0.51670000  1.0
  H  H20  1  0.74913000  0.68679000  0.24166000  1.0
  H  H21  1  0.44490000  0.00756000  0.25854000  1.0
  H  H22  1  0.25087000  0.31320000  0.75834000  1.0
  H  H23  1  0.55510000  0.99244000  0.74146000  1.0
  H  H24  1  0.42323000  0.47738000  0.16136000  1.0
  H  H25  1  0.31605000  0.76198000  0.33890000  1.0
  H  H26  1  0.57676000  0.52262000  0.83864000  1.0
  H  H27  1  0.68395000  0.23802000  0.66110000  1.0
  H  H28  1  0.21611000  0.43285000  0.99795000  1.0
  H  H29  1  0.43519000  0.71827000  0.50220000  1.0
  H  H30  1  0.78389000  0.56715000  0.00205000  1.0
  H  H31  1  0.56481000  0.28173000  0.49780000  1.0
  H  H32  1  0.25711000  0.59589000  0.94565000  1.0
  H  H33  1  0.65052000  0.81162000  0.55443000  1.0
  H  H34  1  0.74289000  0.40411000  0.05435000  1.0
  H  H35  1  0.34948000  0.18838000  0.44556000  1.0
  C  C36  1  0.14577000  0.77471000  0.07557000  1.0
  C  C37  1  0.69932000  0.57028000  0.42448000  1.0
  C  C38  1  0.85423000  0.22529000  0.92443000  1.0
  C  C39  1  0.30069000  0.42972000  0.57552000  1.0
  C  C40  1  0.11305000  0.59088000  0.15379000  1.0
  C  C41  1  0.43730000  0.45940000  0.34627000  1.0
  C  C42  1  0.88695000  0.40912000  0.84621000  1.0
  C  C43  1  0.56270000  0.54060000  0.65373000  1.0
  C  C44  1  0.04727000  0.70103000  0.19522000  1.0
  C  C45  1  0.50601000  0.35218000  0.30484000  1.0
  C  C46  1  0.95273000  0.29898000  0.80478000  1.0
  C  C47  1  0.49399000  0.64782000  0.69516000  1.0
  C  C48  1  0.55701000  0.76800000  0.06832000  1.0
  C  C49  1  0.69976000  0.98881000  0.43170000  1.0
  C  C50  1  0.44299000  0.23200000  0.93168000  1.0
  C  C51  1  0.30024000  0.01119000  0.56830000  1.0
  C  C52  1  0.65849000  0.68692000  0.18307000  1.0
  C  C53  1  0.50376000  0.97545000  0.31703000  1.0
  C  C54  1  0.34151000  0.31308000  0.81693000  1.0
  C  C55  1  0.49624000  0.02455000  0.68297000  1.0
  C  C56  1  0.49780000  0.58347000  0.14566000  1.0
  C  C57  1  0.43783000  0.85219000  0.35446000  1.0
  C  C58  1  0.50220000  0.41653000  0.85433000  1.0
  C  C59  1  0.56217000  0.14781000  0.64554000  1.0
  C  C60  1  0.26654000  0.56804000  0.01673000  1.0
  C  C61  1  0.55156000  0.74996000  0.48336000  1.0
  C  C62  1  0.73345000  0.43196000  0.98327000  1.0
  C  C63  1  0.44844000  0.25004000  0.51664000  1.0
  N  N64  1  0.06734000  0.81392000  0.14524000  1.0
  N  N65  1  0.66886000  0.42218000  0.35482000  1.0
  N  N66  1  0.93266000  0.18608000  0.85476000  1.0
  N  N67  1  0.33114000  0.57782000  0.64518000  1.0
  N  N68  1  0.17533000  0.63967000  0.07813000  1.0
  N  N69  1  0.56175000  0.59731000  0.42194000  1.0
  N  N70  1  0.82467000  0.36033000  0.92187000  1.0
  N  N71  1  0.43825000  0.40269000  0.57806000  1.0
  N  N72  1  0.69393000  0.80037000  0.13367000  1.0
  N  N73  1  0.66666667  0.06034000  0.36636000  1.0
  N  N74  1  0.30607000  0.19962000  0.86633000  1.0
  N  N75  1  0.33333333  0.93966000  0.63364000  1.0
  N  N76  1  0.43530000  0.63612000  0.07281000  1.0
  N  N77  1  0.56345000  0.86260000  0.42727000  1.0
  N  N78  1  0.56470000  0.36387000  0.92719000  1.0
  N  N79  1  0.43655000  0.13740000  0.57273000  1.0
  Cl  Cl80  1  0.78530000  0.20188000  0.15480000  1.0
  Cl  Cl81  1  0.04701000  0.13040000  0.34516000  1.0
  Cl  Cl82  1  0.21470000  0.79812000  0.84520000  1.0
  Cl  Cl83  1  0.95299000  0.86960000  0.65484000  1.0
  Cl  Cl84  1  0.17259000  0.17700000  0.08073000  1.0
  Cl  Cl85  1  0.09634000  0.59184000  0.41928000  1.0
  Cl  Cl86  1  0.82741000  0.82300000  0.91927000  1.0
  Cl  Cl87  1  0.90366000  0.40816000  0.58072000  1.0
