# generated using pymatgen
data_AgH9C6N2O5
_symmetry_space_group_name_H-M   'P 1'
_cell_length_a   4.94842000
_cell_length_b   9.17643000
_cell_length_c   20.05790000
_cell_angle_alpha   76.82900000
_cell_angle_beta   89.99990000
_cell_angle_gamma   89.99980000
_symmetry_Int_Tables_number   1
_chemical_formula_structural   AgH9C6N2O5
_chemical_formula_sum   'Ag4 H36 C24 N8 O20'
_cell_volume   886.84643465
_cell_formula_units_Z   4
loop_
 _symmetry_equiv_pos_site_id
 _symmetry_equiv_pos_as_xyz
  1  'x, y, z'
loop_
 _atom_site_type_symbol
 _atom_site_label
 _atom_site_symmetry_multiplicity
 _atom_site_fract_x
 _atom_site_fract_y
 _atom_site_fract_z
 _atom_site_occupancy
  Ag  Ag0  1  0.84002000  0.61848000  0.00555000  1.0
  Ag  Ag1  1  0.34001000  0.88152000  0.49445000  1.0
  Ag  Ag2  1  0.15998000  0.38151000  0.99445000  1.0
  Ag  Ag3  1  0.65999000  0.11849000  0.50555000  1.0
  H  H4  1  0.48205000  0.06493000  0.05712000  1.0
  H  H5  1  0.98205000  0.43507000  0.44288000  1.0
  H  H6  1  0.51796000  0.93507000  0.94288000  1.0
  H  H7  1  0.01795000  0.56493000  0.55712000  1.0
  H  H8  1  0.28187000  0.93784000  0.11807000  1.0
  H  H9  1  0.78187000  0.56216000  0.38193000  1.0
  H  H10  1  0.71814000  0.06216000  0.88193000  1.0
  H  H11  1  0.21813000  0.43784000  0.61807000  1.0
  H  H12  1  0.81556000  0.04251000  0.15377000  1.0
  H  H13  1  0.31557000  0.45748000  0.34624000  1.0
  H  H14  1  0.18444000  0.95748000  0.84624000  1.0
  H  H15  1  0.68443000  0.54252000  0.65376000  1.0
  H  H16  1  0.57098000  0.82872000  0.22755000  1.0
  H  H17  1  0.07099000  0.67128000  0.27245000  1.0
  H  H18  1  0.42901000  0.17128000  0.77245000  1.0
  H  H19  1  0.92901000  0.32872000  0.72755000  1.0
  H  H20  1  0.35357000  0.97071000  0.24678000  1.0
  H  H21  1  0.85359000  0.52929000  0.25322000  1.0
  H  H22  1  0.64642000  0.02929000  0.75322000  1.0
  H  H23  1  0.14641000  0.47071000  0.74678000  1.0
  H  H24  1  0.56016000  0.23351000  0.20158000  1.0
  H  H25  1  0.06016000  0.26650000  0.29842000  1.0
  H  H26  1  0.43985000  0.76649000  0.79842000  1.0
  H  H27  1  0.93984000  0.73350000  0.70158000  1.0
  H  H28  1  0.31070000  0.21222000  0.14039000  1.0
  H  H29  1  0.81070000  0.28778000  0.35961000  1.0
  H  H30  1  0.68930000  0.78778000  0.85961000  1.0
  H  H31  1  0.18930000  0.71222000  0.64039000  1.0
  H  H32  1  0.59138000  0.84830000  0.36142000  1.0
  H  H33  1  0.09139000  0.65170000  0.13858000  1.0
  H  H34  1  0.40861000  0.15170000  0.63858000  1.0
  H  H35  1  0.90861000  0.34831000  0.86142000  1.0
  H  H36  1  0.88227000  0.95114000  0.37718000  1.0
  H  H37  1  0.38229000  0.54887000  0.12281000  1.0
  H  H38  1  0.11772000  0.04886000  0.62282000  1.0
  H  H39  1  0.61772000  0.45114000  0.87718000  1.0
  C  C40  1  0.66260000  0.84840000  0.09072000  1.0
  C  C41  1  0.16259000  0.65160000  0.40928000  1.0
  C  C42  1  0.33741000  0.15160000  0.90928000  1.0
  C  C43  1  0.83741000  0.34840000  0.59072000  1.0
  C  C44  1  0.48912000  0.97606000  0.10429000  1.0
  C  C45  1  0.98912000  0.52394000  0.39571000  1.0
  C  C46  1  0.51089000  0.02393000  0.89571000  1.0
  C  C47  1  0.01088000  0.47607000  0.60429000  1.0
  C  C48  1  0.55696000  0.94660000  0.23013000  1.0
  C  C49  1  0.05697000  0.55340000  0.26987000  1.0
  C  C50  1  0.44304000  0.05340000  0.76987000  1.0
  C  C51  1  0.94303000  0.44660000  0.73013000  1.0
  C  C52  1  0.52629000  0.20030000  0.15298000  1.0
  C  C53  1  0.02629000  0.29970000  0.34702000  1.0
  C  C54  1  0.47371000  0.79970000  0.84702000  1.0
  C  C55  1  0.97371000  0.70030000  0.65298000  1.0
  C  C56  1  0.77680000  0.98302000  0.27732000  1.0
  C  C57  1  0.27683000  0.51698000  0.22268000  1.0
  C  C58  1  0.22318000  0.01698000  0.72268000  1.0
  C  C59  1  0.72317000  0.48302000  0.77732000  1.0
  C  C60  1  0.69933000  0.30126000  0.09858000  1.0
  C  C61  1  0.19933000  0.19874000  0.40142000  1.0
  C  C62  1  0.30067000  0.69873000  0.90142000  1.0
  C  C63  1  0.80067000  0.80126000  0.59858000  1.0
  N  N64  1  0.60678000  0.04031000  0.16015000  1.0
  N  N65  1  0.10678000  0.45969000  0.33985000  1.0
  N  N66  1  0.39322000  0.95969000  0.83985000  1.0
  N  N67  1  0.89321000  0.54031000  0.66015000  1.0
  N  N68  1  0.74363000  0.92485000  0.34377000  1.0
  N  N69  1  0.24365000  0.57515000  0.15623000  1.0
  N  N70  1  0.25636000  0.07515000  0.65623000  1.0
  N  N71  1  0.75636000  0.42485000  0.84377000  1.0
  O  O72  1  0.57741000  0.79404000  0.04198000  1.0
  O  O73  1  0.07741000  0.70596000  0.45802000  1.0
  O  O74  1  0.42260000  0.20596000  0.95802000  1.0
  O  O75  1  0.92259000  0.29404000  0.54198000  1.0
  O  O76  1  0.91593000  0.24634000  0.08112000  1.0
  O  O77  1  0.41594000  0.25366000  0.41888000  1.0
  O  O78  1  0.08407000  0.75366000  0.91888000  1.0
  O  O79  1  0.58406000  0.74634000  0.58112000  1.0
  O  O80  1  0.61064000  0.43330000  0.07664000  1.0
  O  O81  1  0.11064000  0.06670000  0.42336000  1.0
  O  O82  1  0.38937000  0.56670000  0.92336000  1.0
  O  O83  1  0.88936000  0.93330000  0.57665000  1.0
  O  O84  1  0.86996000  0.81038000  0.12763000  1.0
  O  O85  1  0.36996000  0.68962000  0.37237000  1.0
  O  O86  1  0.13004000  0.18962000  0.87237000  1.0
  O  O87  1  0.63004000  0.31038000  0.62763000  1.0
  O  O88  1  0.97184000  0.06396000  0.25143000  1.0
  O  O89  1  0.47186000  0.43605000  0.24857000  1.0
  O  O90  1  0.02815000  0.93605000  0.74857000  1.0
  O  O91  1  0.52815000  0.56395000  0.75143000  1.0
