# generated using pymatgen
data_CuH6C9S2N6O
_symmetry_space_group_name_H-M   'P 1'
_cell_length_a   8.44106000
_cell_length_b   8.75265000
_cell_length_c   9.48477000
_cell_angle_alpha   81.14800000
_cell_angle_beta   68.54050000
_cell_angle_gamma   74.92770000
_symmetry_Int_Tables_number   1
_chemical_formula_structural   CuH6C9S2N6O
_chemical_formula_sum   'Cu2 H12 C18 S4 N12 O2'
_cell_volume   628.38900430
_cell_formula_units_Z   2
loop_
 _symmetry_equiv_pos_site_id
 _symmetry_equiv_pos_as_xyz
  1  'x, y, z'
loop_
 _atom_site_type_symbol
 _atom_site_label
 _atom_site_symmetry_multiplicity
 _atom_site_fract_x
 _atom_site_fract_y
 _atom_site_fract_z
 _atom_site_occupancy
  Cu  Cu0  1  0.84919000  0.15729000  0.76345000  1.0
  Cu  Cu1  1  0.15081000  0.84271000  0.23654000  1.0
  H  H2  1  0.93211000  0.67141000  0.02377000  1.0
  H  H3  1  0.06789000  0.32860000  0.97622000  1.0
  H  H4  1  0.75851000  0.81509000  0.98122000  1.0
  H  H5  1  0.24148000  0.18492000  0.01878000  1.0
  H  H6  1  0.57993000  0.09858000  0.63245000  1.0
  H  H7  1  0.42007000  0.90142000  0.36754000  1.0
  H  H8  1  0.30859000  0.26458000  0.58359000  1.0
  H  H9  1  0.69141000  0.73542000  0.41642000  1.0
  H  H10  1  0.20859000  0.54782000  0.64840000  1.0
  H  H11  1  0.79141000  0.45217000  0.35161000  1.0
  H  H12  1  0.38039000  0.65823000  0.76317000  1.0
  H  H13  1  0.61961000  0.34177000  0.23684000  1.0
  C  C14  1  0.53044000  0.22273000  0.65817000  1.0
  C  C15  1  0.46956000  0.77728000  0.34183000  1.0
  C  C16  1  0.38092000  0.31579000  0.63152000  1.0
  C  C17  1  0.61908000  0.68421000  0.36848000  1.0
  C  C18  1  0.32475000  0.47343000  0.66902000  1.0
  C  C19  1  0.67526000  0.52657000  0.33098000  1.0
  C  C20  1  0.41884000  0.53571000  0.73154000  1.0
  C  C21  1  0.58116000  0.46428000  0.26846000  1.0
  C  C22  1  0.56605000  0.43493000  0.75516000  1.0
  C  C23  1  0.43395000  0.56506000  0.24485000  1.0
  C  C24  1  0.67850000  0.47460000  0.82006000  1.0
  C  C25  1  0.32151000  0.52539000  0.17993000  1.0
  C  C26  1  0.80515000  0.58845000  0.91995000  1.0
  C  C27  1  0.19484000  0.41156000  0.08004000  1.0
  C  C28  1  0.10235000  0.14711000  0.37866000  1.0
  C  C29  1  0.89767000  0.85290000  0.62134000  1.0
  C  C30  1  0.81804000  0.99292000  0.15355000  1.0
  C  C31  1  0.18195000  0.00707000  0.84647000  1.0
  S  S32  1  0.03650000  0.30674000  0.46870000  1.0
  S  S33  1  0.96352000  0.69325000  0.53131000  1.0
  S  S34  1  0.65335000  0.07175000  0.09661000  1.0
  S  S35  1  0.34663000  0.92824000  0.90341000  1.0
  N  N36  1  0.62063000  0.28081000  0.71902000  1.0
  N  N37  1  0.37938000  0.71918000  0.28097000  1.0
  N  N38  1  0.81158000  0.36969000  0.84004000  1.0
  N  N39  1  0.18843000  0.63032000  0.15996000  1.0
  N  N40  1  0.89536000  0.43835000  0.90338000  1.0
  N  N41  1  0.10464000  0.56166000  0.09662000  1.0
  N  N42  1  0.83383000  0.70239000  0.97663000  1.0
  N  N43  1  0.16616000  0.29762000  0.02337000  1.0
  N  N44  1  0.16020000  0.03096000  0.30990000  1.0
  N  N45  1  0.83982000  0.96904000  0.69007000  1.0
  N  N46  1  0.93411000  0.92953000  0.19861000  1.0
  N  N47  1  0.06587000  0.07047000  0.80140000  1.0
  O  O48  1  0.66411000  0.61682000  0.87078000  1.0
  O  O49  1  0.33588000  0.38318000  0.12922000  1.0
