# generated using pymatgen
data_ErH11C17O6
_symmetry_space_group_name_H-M   'P 1'
_cell_length_a   6.72968000
_cell_length_b   12.69300000
_cell_length_c   17.06000000
_cell_angle_alpha   90.00000000
_cell_angle_beta   93.51810000
_cell_angle_gamma   90.00000000
_symmetry_Int_Tables_number   1
_chemical_formula_structural   ErH11C17O6
_chemical_formula_sum   'Er4 H44 C68 O24'
_cell_volume   1454.51600526
_cell_formula_units_Z   4
loop_
 _symmetry_equiv_pos_site_id
 _symmetry_equiv_pos_as_xyz
  1  'x, y, z'
loop_
 _atom_site_type_symbol
 _atom_site_label
 _atom_site_symmetry_multiplicity
 _atom_site_fract_x
 _atom_site_fract_y
 _atom_site_fract_z
 _atom_site_occupancy
  Er  Er0  1  0.61308000  0.62789000  0.54676000  1.0
  Er  Er1  1  0.88691000  0.12789000  0.45324000  1.0
  Er  Er2  1  0.38692000  0.37211000  0.45324000  1.0
  Er  Er3  1  0.11308000  0.87211000  0.54676000  1.0
  H  H4  1  0.10925000  0.78859000  0.78806000  1.0
  H  H5  1  0.39075000  0.28859000  0.21194000  1.0
  H  H6  1  0.89075000  0.21141000  0.21194000  1.0
  H  H7  1  0.60925000  0.71141000  0.78806000  1.0
  H  H8  1  0.04276000  0.75897000  0.92748000  1.0
  H  H9  1  0.45724000  0.25897000  0.07252000  1.0
  H  H10  1  0.95724000  0.24103000  0.07252000  1.0
  H  H11  1  0.54276000  0.74103000  0.92748000  1.0
  H  H12  1  0.75547000  0.46481000  0.86304000  1.0
  H  H13  1  0.74453000  0.96481000  0.13696000  1.0
  H  H14  1  0.24453000  0.53519000  0.13696000  1.0
  H  H15  1  0.25546000  0.03519000  0.86304000  1.0
  H  H16  1  0.82005000  0.49748000  0.72316000  1.0
  H  H17  1  0.67995000  0.99747000  0.27684000  1.0
  H  H18  1  0.17995000  0.50253000  0.27684000  1.0
  H  H19  1  0.32004000  0.00253000  0.72316000  1.0
  H  H20  1  0.76550000  0.51366000  0.99327000  1.0
  H  H21  1  0.73450000  0.01366000  0.00673000  1.0
  H  H22  1  0.23451000  0.48634000  0.00672000  1.0
  H  H23  1  0.26549000  0.98635000  0.99327000  1.0
  H  H24  1  0.91834000  0.73503000  0.03996000  1.0
  H  H25  1  0.58166000  0.23503000  0.96004000  1.0
  H  H26  1  0.08166000  0.26497000  0.96004000  1.0
  H  H27  1  0.41834000  0.76497000  0.03996000  1.0
  H  H28  1  0.92342000  0.77445000  0.17654000  1.0
  H  H29  1  0.57658000  0.27445000  0.82345000  1.0
  H  H30  1  0.07658000  0.22555000  0.82345000  1.0
  H  H31  1  0.42342000  0.72555000  0.17655000  1.0
  H  H32  1  0.83907000  0.73179000  0.31304000  1.0
  H  H33  1  0.66094000  0.23179000  0.68696000  1.0
  H  H34  1  0.16094000  0.26821000  0.68696000  1.0
  H  H35  1  0.33907000  0.76822000  0.31304000  1.0
  H  H36  1  0.56304000  0.44416000  0.23116000  1.0
  H  H37  1  0.93697000  0.94416000  0.76884000  1.0
  H  H38  1  0.43697000  0.55583000  0.76884000  1.0
  H  H39  1  0.06303000  0.05584000  0.23116000  1.0
  H  H40  1  0.64019000  0.48560000  0.09513000  1.0
  H  H41  1  0.85981000  0.98560000  0.90487000  1.0
  H  H42  1  0.35981000  0.51440000  0.90487000  1.0
  H  H43  1  0.14019000  0.01440000  0.09513000  1.0
  H  H44  1  0.55142000  0.87092000  0.45341000  1.0
  H  H45  1  0.94858000  0.37093000  0.54660000  1.0
  H  H46  1  0.44858000  0.12907000  0.54659000  1.0
  H  H47  1  0.05141000  0.62908000  0.45341000  1.0
  C  C48  1  0.98987000  0.67241000  0.66282000  1.0
  C  C49  1  0.51013000  0.17241000  0.33718000  1.0
  C  C50  1  0.01013000  0.32759000  0.33718000  1.0
  C  C51  1  0.48987000  0.82759000  0.66282000  1.0
  C  C52  1  0.96766000  0.64581000  0.74694000  1.0
  C  C53  1  0.53234000  0.14581000  0.25306000  1.0
  C  C54  1  0.03234000  0.35419000  0.25306000  1.0
  C  C55  1  0.46766000  0.85419000  0.74694000  1.0
  C  C56  1  0.03213000  0.71791000  0.80550000  1.0
  C  C57  1  0.46787000  0.21791000  0.19450000  1.0
  C  C58  1  0.96787000  0.28209000  0.19450000  1.0
  C  C59  1  0.53213000  0.78209000  0.80550000  1.0
  C  C60  1  0.99330000  0.70100000  0.88334000  1.0
  C  C61  1  0.50671000  0.20100000  0.11666000  1.0
  C  C62  1  0.00671000  0.29900000  0.11666000  1.0
  C  C63  1  0.49329000  0.79900000  0.88334000  1.0
  C  C64  1  0.88910000  0.61040000  0.90532000  1.0
  C  C65  1  0.61090000  0.11040000  0.09468000  1.0
  C  C66  1  0.11090000  0.38960000  0.09468000  1.0
  C  C67  1  0.38909000  0.88960000  0.90532000  1.0
  C  C68  1  0.83293000  0.53618000  0.84652000  1.0
  C  C69  1  0.66707000  0.03618000  0.15348000  1.0
  C  C70  1  0.16707000  0.46382000  0.15348000  1.0
  C  C71  1  0.33293000  0.96382000  0.84652000  1.0
  C  C72  1  0.86985000  0.55373000  0.76839000  1.0
  C  C73  1  0.63016000  0.05373000  0.23162000  1.0
  C  C74  1  0.13016000  0.44627000  0.23161000  1.0
  C  C75  1  0.36984000  0.94627000  0.76839000  1.0
  C  C76  1  0.83189000  0.59108000  0.98479000  1.0
  C  C77  1  0.66811000  0.09108000  0.01521000  1.0
  C  C78  1  0.16811000  0.40892000  0.01521000  1.0
  C  C79  1  0.33188000  0.90893000  0.98479000  1.0
  C  C80  1  0.84988000  0.65772000  0.04693000  1.0
  C  C81  1  0.65012000  0.15772000  0.95307000  1.0
  C  C82  1  0.15012000  0.34228000  0.95307000  1.0
  C  C83  1  0.34987000  0.84228000  0.04693000  1.0
  C  C84  1  0.79016000  0.63331000  0.12543000  1.0
  C  C85  1  0.70984000  0.13330000  0.87457000  1.0
  C  C86  1  0.20984000  0.36669000  0.87457000  1.0
  C  C87  1  0.29016000  0.86670000  0.12543000  1.0
  C  C88  1  0.84258000  0.70223000  0.18829000  1.0
  C  C89  1  0.65742000  0.20223000  0.81171000  1.0
  C  C90  1  0.15742000  0.29777000  0.81171000  1.0
  C  C91  1  0.34259000  0.79778000  0.18829000  1.0
  C  C92  1  0.79658000  0.67844000  0.26476000  1.0
  C  C93  1  0.70342000  0.17844000  0.73524000  1.0
  C  C94  1  0.20343000  0.32156000  0.73524000  1.0
  C  C95  1  0.29658000  0.82156000  0.26476000  1.0
  C  C96  1  0.69569000  0.58483000  0.28030000  1.0
  C  C97  1  0.80431000  0.08483000  0.71970000  1.0
  C  C98  1  0.30432000  0.41517000  0.71970000  1.0
  C  C99  1  0.19570000  0.91517000  0.28030000  1.0
  C  C100  1  0.64044000  0.51660000  0.21794000  1.0
  C  C101  1  0.85956000  0.01660000  0.78206000  1.0
  C  C102  1  0.35957000  0.48339000  0.78206000  1.0
  C  C103  1  0.14044000  0.98340000  0.21794000  1.0
  C  C104  1  0.68509000  0.54054000  0.14200000  1.0
  C  C105  1  0.81491000  0.04054000  0.85800000  1.0
  C  C106  1  0.31491000  0.45945000  0.85800000  1.0
  C  C107  1  0.18509000  0.95946000  0.14200000  1.0
  C  C108  1  0.64276000  0.55476000  0.36090000  1.0
  C  C109  1  0.85723000  0.05476000  0.63910000  1.0
  C  C110  1  0.35724000  0.44524000  0.63910000  1.0
  C  C111  1  0.14277000  0.94524000  0.36090000  1.0
  C  C112  1  0.70730000  0.87051000  0.47755000  1.0
  C  C113  1  0.79270000  0.37051000  0.52245000  1.0
  C  C114  1  0.29270000  0.12949000  0.52245000  1.0
  C  C115  1  0.20730000  0.62949000  0.47755000  1.0
  O  O116  1  0.90875000  0.61085000  0.61014000  1.0
  O  O117  1  0.59125000  0.11085000  0.38986000  1.0
  O  O118  1  0.09125000  0.38914000  0.38986000  1.0
  O  O119  1  0.40875000  0.88915000  0.61014000  1.0
  O  O120  1  0.08155000  0.75606000  0.64714000  1.0
  O  O121  1  0.41844000  0.25606000  0.35286000  1.0
  O  O122  1  0.91844000  0.24394000  0.35285000  1.0
  O  O123  1  0.58155000  0.74394000  0.64715000  1.0
  O  O124  1  0.68130000  0.62010000  0.41689000  1.0
  O  O125  1  0.81868000  0.12010000  0.58311000  1.0
  O  O126  1  0.31868000  0.37990000  0.58311000  1.0
  O  O127  1  0.18131000  0.87990000  0.41689000  1.0
  O  O128  1  0.55996000  0.46534000  0.36804000  1.0
  O  O129  1  0.94005000  0.96534000  0.63196000  1.0
  O  O130  1  0.44005000  0.53466000  0.63196000  1.0
  O  O131  1  0.05997000  0.03467000  0.36804000  1.0
  O  O132  1  0.78195000  0.78779000  0.50994000  1.0
  O  O133  1  0.71805000  0.28780000  0.49006000  1.0
  O  O134  1  0.21804000  0.21220000  0.49006000  1.0
  O  O135  1  0.28195000  0.71220000  0.50994000  1.0
  O  O136  1  0.81302000  0.95242000  0.47282000  1.0
  O  O137  1  0.68698000  0.45242000  0.52718000  1.0
  O  O138  1  0.18698000  0.04758000  0.52718000  1.0
  O  O139  1  0.31301000  0.54757000  0.47282000  1.0
