# generated using pymatgen
data_ZnH19C26N2ClO6
_symmetry_space_group_name_H-M   'P 1'
_cell_length_a   9.69878000
_cell_length_b   11.00230000
_cell_length_c   23.55470000
_cell_angle_alpha   89.77670000
_cell_angle_beta   91.01750000
_cell_angle_gamma   89.69230000
_symmetry_Int_Tables_number   1
_chemical_formula_structural   ZnH19C26N2ClO6
_chemical_formula_sum   'Zn2 H38 C52 N4 Cl2 O12'
_cell_volume   2513.04321416
_cell_formula_units_Z   2
loop_
 _symmetry_equiv_pos_site_id
 _symmetry_equiv_pos_as_xyz
  1  'x, y, z'
loop_
 _atom_site_type_symbol
 _atom_site_label
 _atom_site_symmetry_multiplicity
 _atom_site_fract_x
 _atom_site_fract_y
 _atom_site_fract_z
 _atom_site_occupancy
  Zn  Zn0  1  0.36077000  0.49218000  0.50151000  1.0
  Zn  Zn1  1  0.64567000  0.49148000  0.50644000  1.0
  H  H2  1  0.77998000  0.35861000  0.94957000  1.0
  H  H3  1  0.68092000  0.62978000  0.67471000  1.0
  H  H4  1  0.30784000  0.42582000  0.69105000  1.0
  H  H5  1  0.68450000  0.10252000  0.56450000  1.0
  H  H6  1  0.19743000  0.87997000  0.45042000  1.0
  H  H7  1  0.30991000  0.11292000  0.39668000  1.0
  H  H8  1  0.19284000  0.10660000  0.45414000  1.0
  H  H9  1  0.88591000  0.40992000  0.58453000  1.0
  H  H10  1  0.14558000  0.40717000  0.57843000  1.0
  H  H11  1  0.11853000  0.68280000  0.39955000  1.0
  H  H12  1  0.86450000  0.70108000  0.41230000  1.0
  H  H13  1  0.83795000  0.56075000  0.37563000  1.0
  H  H14  1  0.31464000  0.80678000  0.05833000  1.0
  H  H15  1  0.30624000  0.80670000  0.95075000  1.0
  H  H16  1  0.61671000  0.73768000  0.23670000  1.0
  H  H17  1  0.60283000  0.69705000  0.34095000  1.0
  H  H18  1  0.45264000  0.38223000  0.20342000  1.0
  H  H19  1  0.69011000  0.65891000  0.78041000  1.0
  H  H20  1  0.34291000  0.24269000  0.79083000  1.0
  H  H21  1  0.42391000  0.30449000  0.85193000  1.0
  H  H22  1  0.24612000  0.26483000  0.85342000  1.0
  H  H23  1  0.26423000  0.49006000  0.84300000  1.0
  H  H24  1  0.18993000  0.42709000  0.78132000  1.0
  H  H25  1  0.12642000  0.85010000  0.34029000  1.0
  H  H26  1  0.21281000  0.98543000  0.32134000  1.0
  H  H27  1  0.26173000  0.84491000  0.29043000  1.0
  H  H28  1  0.43339000  0.90530000  0.36591000  1.0
  H  H29  1  0.35122000  0.76871000  0.38435000  1.0
  H  H30  1  0.09932000  0.33662000  0.38349000  1.0
  H  H31  1  0.94336000  0.38460000  0.34913000  1.0
  H  H32  1  0.08756000  0.34315000  0.30841000  1.0
  H  H33  1  0.07265000  0.56878000  0.30967000  1.0
  H  H34  1  0.22254000  0.51989000  0.34714000  1.0
  H  H35  1  0.60401000  0.19992000  0.28361000  1.0
  H  H36  1  0.61691000  0.24695000  0.35568000  1.0
  H  H37  1  0.50643000  0.12481000  0.33642000  1.0
  H  H38  1  0.36845000  0.31511000  0.35191000  1.0
  H  H39  1  0.35367000  0.26708000  0.28061000  1.0
  C  C40  1  0.51023000  0.25821000  0.50761000  1.0
  C  C41  1  0.71750000  0.42253000  0.97341000  1.0
  C  C42  1  0.72873000  0.42585000  0.03318000  1.0
  C  C43  1  0.64621000  0.50504000  0.06467000  1.0
  C  C44  1  0.55306000  0.58418000  0.03476000  1.0
  C  C45  1  0.46578000  0.66563000  0.06409000  1.0
  C  C46  1  0.37953000  0.74543000  0.03409000  1.0
  C  C47  1  0.37415000  0.74496000  0.97456000  1.0
  C  C48  1  0.65066000  0.50810000  0.12767000  1.0
  C  C49  1  0.45911000  0.66278000  0.12689000  1.0
  C  C50  1  0.57841000  0.65118000  0.25243000  1.0
  C  C51  1  0.51317000  0.49749000  0.39337000  1.0
  C  C52  1  0.57045000  0.62800000  0.31047000  1.0
  C  C53  1  0.52046000  0.51680000  0.33030000  1.0
  C  C54  1  0.47597000  0.42634000  0.29220000  1.0
  C  C55  1  0.48477000  0.45097000  0.23413000  1.0
  C  C56  1  0.53596000  0.56133000  0.21466000  1.0
  C  C57  1  0.60700000  0.60760000  0.76022000  1.0
  C  C58  1  0.60244000  0.59133000  0.70183000  1.0
  C  C59  1  0.49465000  0.52456000  0.67705000  1.0
  C  C60  1  0.39168000  0.47648000  0.71118000  1.0
  C  C61  1  0.39517000  0.49001000  0.77028000  1.0
  C  C62  1  0.50418000  0.72591000  0.50359000  1.0
  C  C63  1  0.50564000  0.55591000  0.79371000  1.0
  C  C64  1  0.40773000  0.05749000  0.47873000  1.0
  C  C65  1  0.50655000  0.12322000  0.50896000  1.0
  C  C66  1  0.60558000  0.05499000  0.53993000  1.0
  C  C67  1  0.60494000  0.92795000  0.53962000  1.0
  C  C68  1  0.50615000  0.86111000  0.50804000  1.0
  C  C69  1  0.40869000  0.93106000  0.47849000  1.0
  C  C70  1  0.29187000  0.92271000  0.43459000  1.0
  C  C71  1  0.28754000  0.06699000  0.43698000  1.0
  C  C72  1  0.92401000  0.54107000  0.46257000  1.0
  C  C73  1  0.49311000  0.50570000  0.61413000  1.0
  C  C74  1  0.93788000  0.44705000  0.54774000  1.0
  C  C75  1  0.08108000  0.44407000  0.54410000  1.0
  C  C76  1  0.06696000  0.53433000  0.45769000  1.0
  C  C77  1  0.06503000  0.59500000  0.39928000  1.0
  C  C78  1  0.90254000  0.60761000  0.40722000  1.0
  C  C79  1  0.44189000  0.65808000  0.88180000  1.0
  C  C80  1  0.61579000  0.48893000  0.88167000  1.0
  C  C81  1  0.62729000  0.49884000  0.94439000  1.0
  C  C82  1  0.54482000  0.58257000  0.97428000  1.0
  C  C83  1  0.45425000  0.66279000  0.94472000  1.0
  C  C84  1  0.28653000  0.43189000  0.80640000  1.0
  C  C85  1  0.32717000  0.30372000  0.82697000  1.0
  C  C86  1  0.33315000  0.86686000  0.37801000  1.0
  C  C87  1  0.22786000  0.88783000  0.32992000  1.0
  C  C88  1  0.10948000  0.51992000  0.34799000  1.0
  C  C89  1  0.05644000  0.38927000  0.34745000  1.0
  C  C90  1  0.42631000  0.30406000  0.31249000  1.0
  C  C91  1  0.54552000  0.21356000  0.32264000  1.0
  N  N92  1  0.52017000  0.56757000  0.85469000  1.0
  N  N93  1  0.54707000  0.57824000  0.15411000  1.0
  N  N94  1  0.85607000  0.49719000  0.50646000  1.0
  N  N95  1  0.14896000  0.48813000  0.49832000  1.0
  Cl  Cl96  1  0.72976000  0.85303000  0.58067000  1.0
  Cl  Cl97  1  0.84574000  0.32562000  0.06304000  1.0
  O  O98  1  0.39870000  0.31151000  0.49179000  1.0
  O  O99  1  0.68350000  0.41521000  0.85460000  1.0
  O  O100  1  0.73558000  0.45228000  0.15703000  1.0
  O  O101  1  0.38012000  0.72747000  0.15386000  1.0
  O  O102  1  0.62305000  0.30995000  0.52138000  1.0
  O  O103  1  0.39760000  0.51984000  0.41586000  1.0
  O  O104  1  0.62284000  0.46317000  0.41907000  1.0
  O  O105  1  0.38905000  0.67523000  0.51290000  1.0
  O  O106  1  0.61511000  0.67335000  0.48924000  1.0
  O  O107  1  0.38144000  0.47174000  0.58978000  1.0
  O  O108  1  0.60665000  0.52629000  0.58942000  1.0
  O  O109  1  0.36617000  0.72683000  0.85419000  1.0
