# generated using pymatgen
data_ZnP2H18C18(NO3)2
_symmetry_space_group_name_H-M   'P 1'
_cell_length_a   8.33610000
_cell_length_b   10.49460000
_cell_length_c   11.44100000
_cell_angle_alpha   94.80970000
_cell_angle_beta   93.51020000
_cell_angle_gamma   109.80800000
_symmetry_Int_Tables_number   1
_chemical_formula_structural   ZnP2H18C18(NO3)2
_chemical_formula_sum   'Zn2 P4 H36 C36 N4 O12'
_cell_volume   934.06972764
_cell_formula_units_Z   2
loop_
 _symmetry_equiv_pos_site_id
 _symmetry_equiv_pos_as_xyz
  1  'x, y, z'
loop_
 _atom_site_type_symbol
 _atom_site_label
 _atom_site_symmetry_multiplicity
 _atom_site_fract_x
 _atom_site_fract_y
 _atom_site_fract_z
 _atom_site_occupancy
  Zn  Zn0  1  0.07017000  0.35415000  0.37984000  1.0
  Zn  Zn1  1  0.92983000  0.64585000  0.62017000  1.0
  P  P2  1  0.77115000  0.51842000  0.37204000  1.0
  P  P3  1  0.22885000  0.48159000  0.62796000  1.0
  P  P4  1  0.81681000  0.46585000  0.84962000  1.0
  P  P5  1  0.18319000  0.53415000  0.15038000  1.0
  H  H6  1  0.91270000  0.60795000  0.22379000  1.0
  H  H7  1  0.08730000  0.39206000  0.77621000  1.0
  H  H8  1  0.93135000  0.58723000  0.02389000  1.0
  H  H9  1  0.06864000  0.41277000  0.97611000  1.0
  H  H10  1  0.24077000  0.27712000  0.16959000  1.0
  H  H11  1  0.75923000  0.72288000  0.83041000  1.0
  H  H12  1  0.23473000  0.06710000  0.04872000  1.0
  H  H13  1  0.76527000  0.93290000  0.95129000  1.0
  H  H14  1  0.03255000  0.83899000  0.09578000  1.0
  H  H15  1  0.96746000  0.16101000  0.90422000  1.0
  H  H16  1  0.86137000  0.83434000  0.26491000  1.0
  H  H17  1  0.13864000  0.16566000  0.73510000  1.0
  H  H18  1  0.74828000  0.84153000  0.41995000  1.0
  H  H19  1  0.25172000  0.15847000  0.58005000  1.0
  H  H20  1  0.59677000  0.87229000  0.59376000  1.0
  H  H21  1  0.40322000  0.12770000  0.40624000  1.0
  H  H22  1  0.63324000  0.10827000  0.68254000  1.0
  H  H23  1  0.36675000  0.89172000  0.31746000  1.0
  H  H24  1  0.82593000  0.30825000  0.59126000  1.0
  H  H25  1  0.17407000  0.69174000  0.40875000  1.0
  H  H26  1  0.51633000  0.33169000  0.38223000  1.0
  H  H27  1  0.48367000  0.66831000  0.61777000  1.0
  H  H28  1  0.47558000  0.44969000  0.29455000  1.0
  H  H29  1  0.52443000  0.55032000  0.70545000  1.0
  H  H30  1  0.62994000  0.15705000  0.29922000  1.0
  H  H31  1  0.37006000  0.84295000  0.70078000  1.0
  H  H32  1  0.55569000  0.45187000  0.08279000  1.0
  H  H33  1  0.44431000  0.54813000  0.91721000  1.0
  H  H34  1  0.68030000  0.02700000  0.12266000  1.0
  H  H35  1  0.31970000  0.97300000  0.87734000  1.0
  H  H36  1  0.58346000  0.25668000  0.80103000  1.0
  H  H37  1  0.41655000  0.74332000  0.19897000  1.0
  H  H38  1  0.51351000  0.38688000  0.86096000  1.0
  H  H39  1  0.48648000  0.61312000  0.13904000  1.0
  H  H40  1  0.66842000  0.10989000  0.92580000  1.0
  H  H41  1  0.33158000  0.89011000  0.07420000  1.0
  C  C42  1  0.15999000  0.17729000  0.18870000  1.0
  C  C43  1  0.84001000  0.82271000  0.81130000  1.0
  C  C44  1  0.15348000  0.05895000  0.12063000  1.0
  C  C45  1  0.84652000  0.94106000  0.87937000  1.0
  C  C46  1  0.04251000  0.93418000  0.14697000  1.0
  C  C47  1  0.95749000  0.06583000  0.85304000  1.0
  C  C48  1  0.94493000  0.93185000  0.24196000  1.0
  C  C49  1  0.05508000  0.06815000  0.75805000  1.0
  C  C50  1  0.96069000  0.05438000  0.30802000  1.0
  C  C51  1  0.03931000  0.94562000  0.69199000  1.0
  C  C52  1  0.86587000  0.06041000  0.41234000  1.0
  C  C53  1  0.13413000  0.93958000  0.58766000  1.0
  C  C54  1  0.76136000  0.94381000  0.45776000  1.0
  C  C55  1  0.23864000  0.05618000  0.54224000  1.0
  C  C56  1  0.67737000  0.96111000  0.55606000  1.0
  C  C57  1  0.32263000  0.03888000  0.44394000  1.0
  C  C58  1  0.69821000  0.09222000  0.60598000  1.0
  C  C59  1  0.30179000  0.90777000  0.39402000  1.0
  C  C60  1  0.80495000  0.20324000  0.55618000  1.0
  C  C61  1  0.19505000  0.79676000  0.44383000  1.0
  C  C62  1  0.56479000  0.39508000  0.31156000  1.0
  C  C63  1  0.43522000  0.60493000  0.68844000  1.0
  C  C64  1  0.58621000  0.31262000  0.20335000  1.0
  C  C65  1  0.41380000  0.68739000  0.79665000  1.0
  C  C66  1  0.62268000  0.19258000  0.21295000  1.0
  C  C67  1  0.37733000  0.80742000  0.78705000  1.0
  C  C68  1  0.58099000  0.35772000  0.09186000  1.0
  C  C69  1  0.41901000  0.64228000  0.90814000  1.0
  C  C70  1  0.65298000  0.12053000  0.11390000  1.0
  C  C71  1  0.34703000  0.87947000  0.88610000  1.0
  C  C72  1  0.61125000  0.33927000  0.87326000  1.0
  C  C73  1  0.38875000  0.66073000  0.12674000  1.0
  C  C74  1  0.61086000  0.28624000  0.99129000  1.0
  C  C75  1  0.38914000  0.71376000  0.00871000  1.0
  C  C76  1  0.64715000  0.16703000  0.00361000  1.0
  C  C77  1  0.35285000  0.83297000  0.99639000  1.0
  N  N78  1  0.06572000  0.17535000  0.27965000  1.0
  N  N79  1  0.93429000  0.82465000  0.72035000  1.0
  N  N80  1  0.88701000  0.18677000  0.46221000  1.0
  N  N81  1  0.11298000  0.81323000  0.53780000  1.0
  O  O82  1  0.74793000  0.59608000  0.48506000  1.0
  O  O83  1  0.25207000  0.40392000  0.51494000  1.0
  O  O84  1  0.78950000  0.51543000  0.73180000  1.0
  O  O85  1  0.21050000  0.48457000  0.26820000  1.0
  O  O86  1  0.89719000  0.44449000  0.38436000  1.0
  O  O87  1  0.10282000  0.55552000  0.61564000  1.0
  O  O88  1  0.82398000  0.62349000  0.27610000  1.0
  O  O89  1  0.17602000  0.37652000  0.72390000  1.0
  O  O90  1  0.95545000  0.40065000  0.86239000  1.0
  O  O91  1  0.04455000  0.59935000  0.13761000  1.0
  O  O92  1  0.85189000  0.58697000  0.95137000  1.0
  O  O93  1  0.14811000  0.41302000  0.04863000  1.0
