# generated using pymatgen
data_CdH12C19(SN4)2
_symmetry_space_group_name_H-M   'P 1'
_cell_length_a   8.64595000
_cell_length_b   8.80371000
_cell_length_c   14.44500000
_cell_angle_alpha   96.58040000
_cell_angle_beta   98.60020000
_cell_angle_gamma   104.91200000
_symmetry_Int_Tables_number   1
_chemical_formula_structural   CdH12C19(SN4)2
_chemical_formula_sum   'Cd2 H24 C38 S4 N16'
_cell_volume   1036.95589844
_cell_formula_units_Z   2
loop_
 _symmetry_equiv_pos_site_id
 _symmetry_equiv_pos_as_xyz
  1  'x, y, z'
loop_
 _atom_site_type_symbol
 _atom_site_label
 _atom_site_symmetry_multiplicity
 _atom_site_fract_x
 _atom_site_fract_y
 _atom_site_fract_z
 _atom_site_occupancy
  Cd  Cd0  1  0.72654000  0.52887000  0.73071000  1.0
  Cd  Cd1  1  0.27346000  0.47113000  0.26929000  1.0
  H  H2  1  0.16355000  0.46129000  0.04204000  1.0
  H  H3  1  0.83645000  0.53871000  0.95796000  1.0
  H  H4  1  0.38704000  0.17425000  0.19037000  1.0
  H  H5  1  0.61296000  0.82576000  0.80963000  1.0
  H  H6  1  0.31747000  0.95996000  0.04621000  1.0
  H  H7  1  0.68252000  0.04004000  0.95379000  1.0
  H  H8  1  0.15963000  0.00055000  0.89767000  1.0
  H  H9  1  0.84037000  0.99945000  0.10233000  1.0
  H  H10  1  0.10848000  0.20116000  0.58132000  1.0
  H  H11  1  0.89152000  0.79883000  0.41868000  1.0
  H  H12  1  0.02653000  0.22550000  0.41394000  1.0
  H  H13  1  0.97347000  0.77450000  0.58605000  1.0
  H  H14  1  0.79699000  0.34608000  0.36847000  1.0
  H  H15  1  0.20301000  0.65392000  0.63153000  1.0
  H  H16  1  0.66648000  0.44669000  0.49718000  1.0
  H  H17  1  0.33352000  0.55331000  0.50282000  1.0
  H  H18  1  0.11179000  0.96046000  0.72389000  1.0
  H  H19  1  0.88821000  0.03953000  0.27611000  1.0
  H  H20  1  0.36738000  0.91410000  0.67552000  1.0
  H  H21  1  0.63262000  0.08590000  0.32449000  1.0
  H  H22  1  0.60337000  0.14681000  0.67925000  1.0
  H  H23  1  0.39662000  0.85319000  0.32075000  1.0
  H  H24  1  0.35941000  0.46453000  0.77889000  1.0
  H  H25  1  0.64059000  0.53547000  0.22111000  1.0
  C  C26  1  0.19688000  0.34950000  0.04075000  1.0
  C  C27  1  0.80312000  0.65050000  0.95925000  1.0
  C  C28  1  0.32139000  0.18787000  0.12270000  1.0
  C  C29  1  0.67862000  0.81213000  0.87730000  1.0
  C  C30  1  0.28276000  0.07007000  0.04320000  1.0
  C  C31  1  0.71724000  0.92994000  0.95680000  1.0
  C  C32  1  0.19587000  0.09387000  0.95952000  1.0
  C  C33  1  0.80413000  0.90614000  0.04048000  1.0
  C  C34  1  0.15192000  0.23627000  0.95775000  1.0
  C  C35  1  0.84808000  0.76373000  0.04225000  1.0
  C  C36  1  0.05402000  0.27017000  0.87538000  1.0
  C  C37  1  0.94598000  0.72983000  0.12462000  1.0
  C  C38  1  0.96399000  0.30603000  0.73122000  1.0
  C  C39  1  0.03601000  0.69397000  0.26878000  1.0
  C  C40  1  0.93244000  0.31499000  0.62961000  1.0
  C  C41  1  0.06755000  0.68501000  0.37039000  1.0
  C  C42  1  0.01176000  0.25627000  0.56212000  1.0
  C  C43  1  0.98824000  0.74373000  0.43788000  1.0
  C  C44  1  0.96401000  0.26812000  0.46720000  1.0
  C  C45  1  0.03600000  0.73189000  0.53280000  1.0
  C  C46  1  0.83749000  0.33494000  0.44186000  1.0
  C  C47  1  0.16250000  0.66506000  0.55814000  1.0
  C  C48  1  0.76499000  0.39187000  0.51335000  1.0
  C  C49  1  0.23501000  0.60813000  0.48665000  1.0
  C  C50  1  0.21979000  0.21585000  0.75386000  1.0
  C  C51  1  0.78021000  0.78414000  0.24614000  1.0
  C  C52  1  0.21923000  0.05908000  0.72517000  1.0
  C  C53  1  0.78077000  0.94091000  0.27483000  1.0
  C  C54  1  0.36001000  0.03352000  0.69874000  1.0
  C  C55  1  0.63999000  0.96648000  0.30126000  1.0
  C  C56  1  0.49304000  0.16385000  0.70140000  1.0
  C  C57  1  0.50696000  0.83615000  0.29861000  1.0
  C  C58  1  0.35776000  0.34115000  0.75577000  1.0
  C  C59  1  0.64224000  0.65885000  0.24422000  1.0
  C  C60  1  0.10825000  0.70634000  0.80680000  1.0
  C  C61  1  0.89177000  0.29366000  0.19320000  1.0
  C  C62  1  0.63562000  0.77154000  0.60549000  1.0
  C  C63  1  0.36438000  0.22848000  0.39451000  1.0
  S  S64  1  0.27429000  0.70394000  0.87421000  1.0
  S  S65  1  0.72572000  0.29605000  0.12579000  1.0
  S  S66  1  0.69921000  0.92483000  0.55597000  1.0
  S  S67  1  0.30079000  0.07519000  0.44403000  1.0
  N  N68  1  0.27917000  0.32474000  0.12134000  1.0
  N  N69  1  0.72083000  0.67526000  0.87866000  1.0
  N  N70  1  0.92840000  0.32959000  0.87927000  1.0
  N  N71  1  0.07160000  0.67041000  0.12073000  1.0
  N  N72  1  0.87336000  0.35082000  0.78991000  1.0
  N  N73  1  0.12663000  0.64917000  0.21009000  1.0
  N  N74  1  0.08034000  0.25228000  0.78296000  1.0
  N  N75  1  0.91966000  0.74772000  0.21704000  1.0
  N  N76  1  0.81221000  0.38383000  0.60462000  1.0
  N  N77  1  0.18778000  0.61617000  0.39538000  1.0
  N  N78  1  0.49198000  0.31429000  0.72973000  1.0
  N  N79  1  0.50802000  0.68571000  0.27027000  1.0
  N  N80  1  0.98757000  0.71200000  0.75631000  1.0
  N  N81  1  0.01243000  0.28800000  0.24369000  1.0
  N  N82  1  0.58468000  0.65717000  0.64121000  1.0
  N  N83  1  0.41533000  0.34286000  0.35880000  1.0
