# generated using pymatgen
data_GaH8C5
_symmetry_space_group_name_H-M   'P 1'
_cell_length_a   7.88659000
_cell_length_b   9.80641000
_cell_length_c   14.15180000
_cell_angle_alpha   89.99940000
_cell_angle_beta   89.99980000
_cell_angle_gamma   97.30050000
_symmetry_Int_Tables_number   1
_chemical_formula_structural   GaH8C5
_chemical_formula_sum   'Ga8 H64 C40'
_cell_volume   1085.61532247
_cell_formula_units_Z   8
loop_
 _symmetry_equiv_pos_site_id
 _symmetry_equiv_pos_as_xyz
  1  'x, y, z'
loop_
 _atom_site_type_symbol
 _atom_site_label
 _atom_site_symmetry_multiplicity
 _atom_site_fract_x
 _atom_site_fract_y
 _atom_site_fract_z
 _atom_site_occupancy
  Ga  Ga0  1  0.89961000  0.74670000  0.83163000  1.0
  Ga  Ga1  1  0.10040000  0.75330000  0.33163000  1.0
  Ga  Ga2  1  0.10039000  0.25330000  0.16836000  1.0
  Ga  Ga3  1  0.89961000  0.24670000  0.66837000  1.0
  Ga  Ga4  1  0.49081000  0.72183000  0.78300000  1.0
  Ga  Ga5  1  0.50919000  0.77816000  0.28300000  1.0
  Ga  Ga6  1  0.50920000  0.27817000  0.21700000  1.0
  Ga  Ga7  1  0.49081000  0.22184000  0.71700000  1.0
  H  H8  1  0.68541000  0.46186000  0.82702000  1.0
  H  H9  1  0.31460000  0.03812000  0.32703000  1.0
  H  H10  1  0.31458000  0.53814000  0.17298000  1.0
  H  H11  1  0.68541000  0.96186000  0.67298000  1.0
  H  H12  1  0.61540000  0.36762000  0.53069000  1.0
  H  H13  1  0.38461000  0.13240000  0.03070000  1.0
  H  H14  1  0.38460000  0.63238000  0.46931000  1.0
  H  H15  1  0.61540000  0.86761000  0.96931000  1.0
  H  H16  1  0.76724000  0.59612000  0.48952000  1.0
  H  H17  1  0.23276000  0.90392000  0.98952000  1.0
  H  H18  1  0.23276000  0.40389000  0.51048000  1.0
  H  H19  1  0.76723000  0.09610000  0.01048000  1.0
  H  H20  1  0.86996000  0.76126000  0.61567000  1.0
  H  H21  1  0.13004000  0.73875000  0.11566000  1.0
  H  H22  1  0.13003000  0.23874000  0.38433000  1.0
  H  H23  1  0.86996000  0.26125000  0.88433000  1.0
  H  H24  1  0.05960000  0.99152000  0.82834000  1.0
  H  H25  1  0.94039000  0.50848000  0.32834000  1.0
  H  H26  1  0.94040000  0.00848000  0.17166000  1.0
  H  H27  1  0.05961000  0.49151000  0.67166000  1.0
  H  H28  1  0.07919000  0.91308000  0.71610000  1.0
  H  H29  1  0.92080000  0.58692000  0.21610000  1.0
  H  H30  1  0.92082000  0.08691000  0.28390000  1.0
  H  H31  1  0.07920000  0.41307000  0.78390000  1.0
  H  H32  1  0.20459000  0.86932000  0.81341000  1.0
  H  H33  1  0.79540000  0.63069000  0.31341000  1.0
  H  H34  1  0.79541000  0.13068000  0.18659000  1.0
  H  H35  1  0.20459000  0.36931000  0.68659000  1.0
  H  H36  1  0.99813000  0.61420000  0.97078000  1.0
  H  H37  1  0.00187000  0.88579000  0.47077000  1.0
  H  H38  1  0.00187000  0.38579000  0.02922000  1.0
  H  H39  1  0.99813000  0.11421000  0.52922000  1.0
  H  H40  1  0.77200000  0.60276000  0.97610000  1.0
  H  H41  1  0.22800000  0.89724000  0.47610000  1.0
  H  H42  1  0.22800000  0.39723000  0.02390000  1.0
  H  H43  1  0.77200000  0.10276000  0.52390000  1.0
  H  H44  1  0.89965000  0.75566000  0.01370000  1.0
  H  H45  1  0.10036000  0.74433000  0.51370000  1.0
  H  H46  1  0.10035000  0.24433000  0.98630000  1.0
  H  H47  1  0.89964000  0.25567000  0.48630000  1.0
  H  H48  1  0.25886000  0.72280000  0.65709000  1.0
  H  H49  1  0.74113000  0.77720000  0.15708000  1.0
  H  H50  1  0.74114000  0.27721000  0.34292000  1.0
  H  H51  1  0.25886000  0.22280000  0.84291000  1.0
  H  H52  1  0.46199000  0.77956000  0.60571000  1.0
  H  H53  1  0.53800000  0.72044000  0.10571000  1.0
  H  H54  1  0.53801000  0.22046000  0.39429000  1.0
  H  H55  1  0.46199000  0.27956000  0.89429000  1.0
  H  H56  1  0.39981000  0.60123000  0.62859000  1.0
  H  H57  1  0.60019000  0.89877000  0.12859000  1.0
  H  H58  1  0.60020000  0.39878000  0.37141000  1.0
  H  H59  1  0.39980000  0.10123000  0.87141000  1.0
  H  H60  1  0.33832000  0.50682000  0.86741000  1.0
  H  H61  1  0.66168000  0.99317000  0.36741000  1.0
  H  H62  1  0.66167000  0.49318000  0.13259000  1.0
  H  H63  1  0.33832000  0.00682000  0.63259000  1.0
  H  H64  1  0.49557000  0.59485000  0.94397000  1.0
  H  H65  1  0.50442000  0.90514000  0.44397000  1.0
  H  H66  1  0.50442000  0.40515000  0.05604000  1.0
  H  H67  1  0.49558000  0.09486000  0.55603000  1.0
  H  H68  1  0.29864000  0.66016000  0.92586000  1.0
  H  H69  1  0.70136000  0.83983000  0.42586000  1.0
  H  H70  1  0.70135000  0.33985000  0.07414000  1.0
  H  H71  1  0.29865000  0.16016000  0.57414000  1.0
  C  C72  1  0.78441000  0.62432000  0.73148000  1.0
  C  C73  1  0.21559000  0.87567000  0.23148000  1.0
  C  C74  1  0.21559000  0.37568000  0.26852000  1.0
  C  C75  1  0.78441000  0.12432000  0.76852000  1.0
  C  C76  1  0.70063000  0.49250000  0.75280000  1.0
  C  C77  1  0.29938000  0.00750000  0.25281000  1.0
  C  C78  1  0.29937000  0.50750000  0.24719000  1.0
  C  C79  1  0.70063000  0.99250000  0.74720000  1.0
  C  C80  1  0.63644000  0.39725000  0.68233000  1.0
  C  C81  1  0.36357000  0.10276000  0.18234000  1.0
  C  C82  1  0.36356000  0.60275000  0.31767000  1.0
  C  C83  1  0.63644000  0.89724000  0.81767000  1.0
  C  C84  1  0.66240000  0.43794000  0.58738000  1.0
  C  C85  1  0.33760000  0.06207000  0.08739000  1.0
  C  C86  1  0.33760000  0.56206000  0.41261000  1.0
  C  C87  1  0.66241000  0.93793000  0.91261000  1.0
  C  C88  1  0.74733000  0.56778000  0.56366000  1.0
  C  C89  1  0.25267000  0.93225000  0.06366000  1.0
  C  C90  1  0.25266000  0.43222000  0.43634000  1.0
  C  C91  1  0.74733000  0.06776000  0.93634000  1.0
  C  C92  1  0.80543000  0.65987000  0.63495000  1.0
  C  C93  1  0.19457000  0.84015000  0.13494000  1.0
  C  C94  1  0.19456000  0.34014000  0.36506000  1.0
  C  C95  1  0.80543000  0.15986000  0.86506000  1.0
  C  C96  1  0.07814000  0.89516000  0.79265000  1.0
  C  C97  1  0.92185000  0.60484000  0.29266000  1.0
  C  C98  1  0.92186000  0.10483000  0.20735000  1.0
  C  C99  1  0.07815000  0.39516000  0.70734000  1.0
  C  C100  1  0.88894000  0.67258000  0.96138000  1.0
  C  C101  1  0.11106000  0.82742000  0.46138000  1.0
  C  C102  1  0.11106000  0.32742000  0.03861000  1.0
  C  C103  1  0.88894000  0.17258000  0.53862000  1.0
  C  C104  1  0.39363000  0.70567000  0.65501000  1.0
  C  C105  1  0.60636000  0.79433000  0.15501000  1.0
  C  C106  1  0.60637000  0.29434000  0.34499000  1.0
  C  C107  1  0.39363000  0.20567000  0.84499000  1.0
  C  C108  1  0.39752000  0.60832000  0.89097000  1.0
  C  C109  1  0.60247000  0.89167000  0.39097000  1.0
  C  C110  1  0.60247000  0.39168000  0.10903000  1.0
  C  C111  1  0.39753000  0.10833000  0.60903000  1.0
