# generated using pymatgen
data_AgH6C7N5
_symmetry_space_group_name_H-M   'P 1'
_cell_length_a   6.63807000
_cell_length_b   9.60641000
_cell_length_c   12.53820000
_cell_angle_alpha   73.73100000
_cell_angle_beta   89.99970000
_cell_angle_gamma   89.99990000
_symmetry_Int_Tables_number   1
_chemical_formula_structural   AgH6C7N5
_chemical_formula_sum   'Ag4 H24 C28 N20'
_cell_volume   767.52039061
_cell_formula_units_Z   4
loop_
 _symmetry_equiv_pos_site_id
 _symmetry_equiv_pos_as_xyz
  1  'x, y, z'
loop_
 _atom_site_type_symbol
 _atom_site_label
 _atom_site_symmetry_multiplicity
 _atom_site_fract_x
 _atom_site_fract_y
 _atom_site_fract_z
 _atom_site_occupancy
  Ag  Ag0  1  0.66621000  0.60035000  0.71564000  1.0
  Ag  Ag1  1  0.16622000  0.39965000  0.78436000  1.0
  Ag  Ag2  1  0.33378000  0.39965000  0.28436000  1.0
  Ag  Ag3  1  0.83379000  0.60035000  0.21564000  1.0
  H  H4  1  0.68474000  0.29144000  0.21373000  1.0
  H  H5  1  0.18474000  0.70856000  0.28627000  1.0
  H  H6  1  0.31526000  0.70856000  0.78627000  1.0
  H  H7  1  0.81526000  0.29144000  0.71373000  1.0
  H  H8  1  0.72696000  0.30197000  0.34629000  1.0
  H  H9  1  0.22696000  0.69803000  0.15371000  1.0
  H  H10  1  0.27304000  0.69803000  0.65370000  1.0
  H  H11  1  0.77304000  0.30197000  0.84630000  1.0
  H  H12  1  0.81514000  0.83647000  0.56683000  1.0
  H  H13  1  0.31514000  0.16353000  0.93317000  1.0
  H  H14  1  0.18486000  0.16353000  0.43317000  1.0
  H  H15  1  0.68486000  0.83646000  0.06683000  1.0
  H  H16  1  0.56929000  0.79310000  0.25951000  1.0
  H  H17  1  0.06929000  0.20690000  0.24049000  1.0
  H  H18  1  0.43071000  0.20690000  0.74049000  1.0
  H  H19  1  0.93070000  0.79311000  0.75951000  1.0
  H  H20  1  0.54321000  0.05961000  0.18813000  1.0
  H  H21  1  0.04321000  0.94038000  0.31188000  1.0
  H  H22  1  0.45679000  0.94038000  0.81187000  1.0
  H  H23  1  0.95679000  0.05962000  0.68812000  1.0
  H  H24  1  0.77756000  0.10252000  0.49799000  1.0
  H  H25  1  0.27756000  0.89748000  0.00201000  1.0
  H  H26  1  0.22244000  0.89748000  0.50201000  1.0
  H  H27  1  0.72244000  0.10252000  0.99799000  1.0
  C  C28  1  0.66357000  0.09954000  0.33718000  1.0
  C  C29  1  0.16356000  0.90047000  0.16282000  1.0
  C  C30  1  0.33644000  0.90046000  0.66282000  1.0
  C  C31  1  0.83644000  0.09953000  0.83718000  1.0
  C  C32  1  0.72612000  0.63878000  0.45544000  1.0
  C  C33  1  0.22611000  0.36122000  0.04456000  1.0
  C  C34  1  0.27389000  0.36122000  0.54456000  1.0
  C  C35  1  0.77388000  0.63878000  0.95543000  1.0
  C  C36  1  0.75243000  0.88460000  0.48430000  1.0
  C  C37  1  0.25243000  0.11540000  0.01570000  1.0
  C  C38  1  0.24757000  0.11540000  0.51570000  1.0
  C  C39  1  0.74757000  0.88460000  0.98430000  1.0
  C  C40  1  0.62017000  0.86098000  0.31095000  1.0
  C  C41  1  0.12016000  0.13902000  0.18905000  1.0
  C  C42  1  0.37984000  0.13902000  0.68905000  1.0
  C  C43  1  0.87983000  0.86098000  0.81094000  1.0
  C  C44  1  0.60384000  0.01043000  0.27090000  1.0
  C  C45  1  0.10384000  0.98956000  0.22910000  1.0
  C  C46  1  0.39617000  0.98956000  0.72910000  1.0
  C  C47  1  0.89616000  0.01044000  0.77090000  1.0
  C  C48  1  0.73411000  0.03420000  0.44550000  1.0
  C  C49  1  0.23411000  0.96579000  0.05450000  1.0
  C  C50  1  0.26589000  0.96580000  0.55450000  1.0
  C  C51  1  0.76589000  0.03420000  0.94550000  1.0
  C  C52  1  0.69785000  0.79500000  0.41753000  1.0
  C  C53  1  0.19784000  0.20500000  0.08248000  1.0
  C  C54  1  0.30216000  0.20500000  0.58247000  1.0
  C  C55  1  0.80215000  0.79500000  0.91753000  1.0
  N  N56  1  0.71758000  0.55457000  0.56127000  1.0
  N  N57  1  0.21758000  0.44543000  0.93873000  1.0
  N  N58  1  0.28242000  0.44543000  0.43873000  1.0
  N  N59  1  0.78242000  0.55458000  0.06127000  1.0
  N  N60  1  0.77023000  0.55355000  0.38950000  1.0
  N  N61  1  0.27023000  0.44645000  0.11050000  1.0
  N  N62  1  0.22977000  0.44645000  0.61050000  1.0
  N  N63  1  0.72977000  0.55354000  0.88950000  1.0
  N  N64  1  0.65140000  0.25025000  0.29693000  1.0
  N  N65  1  0.15140000  0.74974000  0.20307000  1.0
  N  N66  1  0.34860000  0.74974000  0.70307000  1.0
  N  N67  1  0.84860000  0.25026000  0.79693000  1.0
  N  N68  1  0.78841000  0.41664000  0.45626000  1.0
  N  N69  1  0.28841000  0.58336000  0.04375000  1.0
  N  N70  1  0.21159000  0.58336000  0.54375000  1.0
  N  N71  1  0.71159000  0.41664000  0.95626000  1.0
  N  N72  1  0.75746000  0.41722000  0.55901000  1.0
  N  N73  1  0.25746000  0.58278000  0.94099000  1.0
  N  N74  1  0.24254000  0.58278000  0.44099000  1.0
  N  N75  1  0.74254000  0.41722000  0.05901000  1.0
