# generated using pymatgen
data_HgH17C16(NO2)2
_symmetry_space_group_name_H-M   'P 1'
_cell_length_a   8.71859000
_cell_length_b   10.25370000
_cell_length_c   11.14260000
_cell_angle_alpha   112.33500000
_cell_angle_beta   97.42470000
_cell_angle_gamma   105.11900000
_symmetry_Int_Tables_number   1
_chemical_formula_structural   HgH17C16(NO2)2
_chemical_formula_sum   'Hg2 H34 C32 N4 O8'
_cell_volume   859.92611387
_cell_formula_units_Z   2
loop_
 _symmetry_equiv_pos_site_id
 _symmetry_equiv_pos_as_xyz
  1  'x, y, z'
loop_
 _atom_site_type_symbol
 _atom_site_label
 _atom_site_symmetry_multiplicity
 _atom_site_fract_x
 _atom_site_fract_y
 _atom_site_fract_z
 _atom_site_occupancy
  Hg  Hg0  1  0.35342000  0.47669000  0.32760000  1.0
  Hg  Hg1  1  0.64657000  0.52330000  0.67238000  1.0
  H  H2  1  0.04048000  0.66361000  0.18606000  1.0
  H  H3  1  0.95952000  0.33640000  0.81395000  1.0
  H  H4  1  0.11617000  0.50996000  0.13880000  1.0
  H  H5  1  0.88381000  0.49005000  0.86121000  1.0
  H  H6  1  0.12844000  0.62114000  0.04754000  1.0
  H  H7  1  0.87154000  0.37886000  0.95247000  1.0
  H  H8  1  0.69834000  0.75220000  0.50709000  1.0
  H  H9  1  0.30165000  0.24779000  0.49290000  1.0
  H  H10  1  0.92028000  0.99828000  0.59566000  1.0
  H  H11  1  0.07971000  0.00171000  0.40433000  1.0
  H  H12  1  0.89268000  0.19407000  0.52577000  1.0
  H  H13  1  0.10732000  0.80593000  0.47424000  1.0
  H  H14  1  0.63768000  0.15134000  0.36286000  1.0
  H  H15  1  0.36232000  0.84867000  0.63714000  1.0
  H  H16  1  0.30687000  0.04637000  0.25689000  1.0
  H  H17  1  0.69313000  0.95363000  0.74311000  1.0
  H  H18  1  0.18269000  0.87008000  0.12511000  1.0
  H  H19  1  0.81731000  0.12992000  0.87487000  1.0
  H  H20  1  0.43138000  0.74909000  0.00061000  1.0
  H  H21  1  0.56863000  0.25092000  0.99940000  1.0
  H  H22  1  0.41176000  0.19792000  0.15321000  1.0
  H  H23  1  0.58825000  0.80208000  0.84679000  1.0
  H  H24  1  0.81421000  0.05516000  0.11314000  1.0
  H  H25  1  0.18580000  0.94483000  0.88687000  1.0
  H  H26  1  0.92696000  0.05202000  0.25757000  1.0
  H  H27  1  0.07305000  0.94797000  0.74243000  1.0
  H  H28  1  0.96509000  0.96796000  0.09711000  1.0
  H  H29  1  0.03492000  0.03203000  0.90289000  1.0
  H  H30  1  0.87805000  0.40134000  0.24841000  1.0
  H  H31  1  0.12195000  0.59865000  0.75158000  1.0
  H  H32  1  0.86720000  0.37122000  0.39616000  1.0
  H  H33  1  0.13281000  0.62878000  0.60383000  1.0
  H  H34  1  0.93348000  0.55582000  0.40896000  1.0
  H  H35  1  0.06653000  0.44418000  0.59103000  1.0
  C  C36  1  0.13796000  0.62395000  0.14777000  1.0
  C  C37  1  0.86202000  0.37606000  0.85224000  1.0
  C  C38  1  0.30246000  0.72314000  0.23710000  1.0
  C  C39  1  0.69754000  0.27686000  0.76290000  1.0
  C  C40  1  0.54496000  0.81154000  0.38025000  1.0
  C  C41  1  0.45503000  0.18846000  0.61975000  1.0
  C  C42  1  0.68565000  0.83597000  0.47281000  1.0
  C  C43  1  0.31435000  0.16403000  0.52719000  1.0
  C  C44  1  0.80885000  0.97505000  0.52292000  1.0
  C  C45  1  0.19114000  0.02494000  0.47708000  1.0
  C  C46  1  0.79285000  0.08682000  0.48300000  1.0
  C  C47  1  0.20715000  0.91319000  0.51701000  1.0
  C  C48  1  0.65240000  0.06395000  0.39132000  1.0
  C  C49  1  0.34760000  0.93606000  0.60868000  1.0
  C  C50  1  0.53005000  0.92396000  0.34049000  1.0
  C  C51  1  0.46994000  0.07604000  0.65951000  1.0
  C  C52  1  0.31014000  0.94087000  0.18151000  1.0
  C  C53  1  0.68986000  0.05913000  0.81849000  1.0
  C  C54  1  0.41037000  0.97081000  0.08824000  1.0
  C  C55  1  0.58964000  0.02919000  0.91176000  1.0
  C  C56  1  0.46083000  0.85973000  0.00171000  1.0
  C  C57  1  0.53920000  0.14028000  0.99829000  1.0
  C  C58  1  0.45040000  0.11086000  0.08587000  1.0
  C  C59  1  0.54961000  0.88916000  0.91414000  1.0
  C  C60  1  0.67529000  0.44544000  0.32894000  1.0
  C  C61  1  0.32471000  0.55456000  0.67105000  1.0
  C  C62  1  0.06258000  0.20825000  0.18952000  1.0
  C  C63  1  0.93742000  0.79174000  0.81048000  1.0
  C  C64  1  0.93431000  0.06271000  0.16428000  1.0
  C  C65  1  0.06570000  0.93728000  0.83573000  1.0
  C  C66  1  0.84852000  0.44107000  0.34573000  1.0
  C  C67  1  0.15148000  0.55893000  0.65426000  1.0
  N  N68  1  0.40089000  0.68903000  0.31445000  1.0
  N  N69  1  0.59911000  0.31097000  0.68555000  1.0
  N  N70  1  0.37630000  0.86440000  0.25086000  1.0
  N  N71  1  0.62370000  0.13561000  0.74914000  1.0
  O  O72  1  0.61736000  0.47697000  0.23807000  1.0
  O  O73  1  0.38265000  0.52304000  0.76194000  1.0
  O  O74  1  0.17842000  0.26636000  0.30109000  1.0
  O  O75  1  0.82159000  0.73364000  0.69891000  1.0
  O  O76  1  0.59310000  0.41796000  0.41052000  1.0
  O  O77  1  0.40690000  0.58203000  0.58948000  1.0
  O  O78  1  0.05651000  0.26481000  0.10830000  1.0
  O  O79  1  0.94348000  0.73518000  0.89170000  1.0
