# generated using pymatgen
data_Zn3H28C42(NO4)4
_symmetry_space_group_name_H-M   'P 1'
_cell_length_a   7.55217000
_cell_length_b   9.56163000
_cell_length_c   13.89690000
_cell_angle_alpha   82.65990000
_cell_angle_beta   77.60110000
_cell_angle_gamma   81.19770000
_symmetry_Int_Tables_number   1
_chemical_formula_structural   Zn3H28C42(NO4)4
_chemical_formula_sum   'Zn3 H28 C42 N4 O16'
_cell_volume   963.86751885
_cell_formula_units_Z   1
loop_
 _symmetry_equiv_pos_site_id
 _symmetry_equiv_pos_as_xyz
  1  'x, y, z'
loop_
 _atom_site_type_symbol
 _atom_site_label
 _atom_site_symmetry_multiplicity
 _atom_site_fract_x
 _atom_site_fract_y
 _atom_site_fract_z
 _atom_site_occupancy
  Zn  Zn0  1  0.23303000  0.58878000  0.50174000  1.0
  Zn  Zn1  1  0.76697000  0.41122000  0.49826000  1.0
  Zn  Zn2  1  0.50000000  0.00000000  0.50000000  1.0
  H  H3  1  0.86796000  0.26657000  0.78484000  1.0
  H  H4  1  0.13203000  0.73343000  0.21516000  1.0
  H  H5  1  0.23310000  0.89390000  0.87830000  1.0
  H  H6  1  0.76690000  0.10609000  0.12170000  1.0
  H  H7  1  0.52841000  0.23548000  0.78785000  1.0
  H  H8  1  0.47159000  0.76452000  0.21215000  1.0
  H  H9  1  0.95090000  0.43900000  0.18193000  1.0
  H  H10  1  0.04910000  0.56100000  0.81807000  1.0
  H  H11  1  0.97894000  0.18839000  0.94265000  1.0
  H  H12  1  0.02105000  0.81161000  0.05735000  1.0
  H  H13  1  0.16930000  0.01763000  0.28317000  1.0
  H  H14  1  0.83071000  0.98237000  0.71683000  1.0
  H  H15  1  0.32813000  0.69702000  0.99142000  1.0
  H  H16  1  0.67188000  0.30297000  0.00858000  1.0
  H  H17  1  0.63506000  0.55832000  0.75330000  1.0
  H  H18  1  0.36494000  0.44168000  0.24670000  1.0
  H  H19  1  0.11502000  0.40041000  0.00820000  1.0
  H  H20  1  0.88498000  0.59959000  0.99180000  1.0
  H  H21  1  0.33495000  0.97858000  0.10856000  1.0
  H  H22  1  0.66505000  0.02143000  0.89144000  1.0
  H  H23  1  0.65661000  0.70462000  0.59052000  1.0
  H  H24  1  0.34340000  0.29538000  0.40948000  1.0
  H  H25  1  0.26601000  0.02302000  0.70935000  1.0
  H  H26  1  0.73400000  0.97698000  0.29066000  1.0
  H  H27  1  0.15296000  0.10632000  0.48010000  1.0
  H  H28  1  0.84704000  0.89368000  0.51990000  1.0
  H  H29  1  0.15505000  0.96574000  0.55000000  1.0
  H  H30  1  0.84495000  0.03426000  0.45000000  1.0
  C  C31  1  0.22986000  0.18607000  0.05002000  1.0
  C  C32  1  0.77013000  0.81393000  0.94998000  1.0
  C  C33  1  0.46866000  0.30033000  0.60728000  1.0
  C  C34  1  0.53134000  0.69967000  0.39272000  1.0
  C  C35  1  0.06084000  0.33914000  0.60557000  1.0
  C  C36  1  0.93916000  0.66086000  0.39443000  1.0
  C  C37  1  0.32165000  0.28050000  0.69807000  1.0
  C  C38  1  0.67835000  0.71951000  0.30193000  1.0
  C  C39  1  0.95737000  0.25377000  0.34584000  1.0
  C  C40  1  0.04263000  0.74623000  0.65416000  1.0
  C  C41  1  0.13408000  0.29152000  0.69747000  1.0
  C  C42  1  0.86592000  0.70849000  0.30253000  1.0
  C  C43  1  0.01276000  0.25838000  0.78642000  1.0
  C  C44  1  0.98724000  0.74162000  0.21358000  1.0
  C  C45  1  0.32985000  0.84814000  0.81666000  1.0
  C  C46  1  0.67015000  0.15186000  0.18334000  1.0
  C  C47  1  0.04972000  0.23018000  0.24220000  1.0
  C  C48  1  0.95029000  0.76982000  0.75780000  1.0
  C  C49  1  0.38350000  0.24228000  0.78677000  1.0
  C  C50  1  0.61649000  0.75772000  0.21323000  1.0
  C  C51  1  0.03324000  0.33795000  0.16485000  1.0
  C  C52  1  0.96676000  0.66205000  0.83515000  1.0
  C  C53  1  0.26037000  0.20995000  0.87411000  1.0
  C  C54  1  0.73963000  0.79006000  0.12589000  1.0
  C  C55  1  0.43517000  0.71573000  0.83082000  1.0
  C  C56  1  0.56483000  0.28427000  0.16918000  1.0
  C  C57  1  0.07379000  0.21614000  0.87441000  1.0
  C  C58  1  0.92621000  0.78386000  0.12558000  1.0
  C  C59  1  0.15710000  0.10005000  0.22219000  1.0
  C  C60  1  0.84291000  0.89994000  0.77781000  1.0
  C  C61  1  0.42036000  0.64341000  0.93055000  1.0
  C  C62  1  0.57964000  0.35658000  0.06945000  1.0
  C  C63  1  0.55298000  0.66180000  0.74734000  1.0
  C  C64  1  0.44703000  0.33820000  0.25266000  1.0
  C  C65  1  0.12302000  0.31654000  0.06861000  1.0
  C  C66  1  0.87698000  0.68346000  0.93139000  1.0
  C  C67  1  0.24755000  0.07746000  0.12600000  1.0
  C  C68  1  0.75245000  0.92254000  0.87400000  1.0
  C  C69  1  0.56517000  0.74308000  0.65639000  1.0
  C  C70  1  0.43483000  0.25692000  0.34360000  1.0
  C  C71  1  0.34863000  0.92173000  0.72293000  1.0
  C  C72  1  0.65137000  0.07827000  0.27707000  1.0
  N  N73  1  0.46706000  0.87206000  0.64392000  1.0
  N  N74  1  0.53294000  0.12794000  0.35609000  1.0
  N  N75  1  0.51554000  0.52235000  0.94971000  1.0
  N  N76  1  0.48447000  0.47764000  0.05030000  1.0
  O  O77  1  0.16689000  0.38705000  0.52766000  1.0
  O  O78  1  0.83310000  0.61295000  0.47234000  1.0
  O  O79  1  0.21929000  0.05186000  0.53032000  1.0
  O  O80  1  0.78071000  0.94815000  0.46968000  1.0
  O  O81  1  0.54030000  0.19661000  0.55851000  1.0
  O  O82  1  0.45970000  0.80340000  0.44149000  1.0
  O  O83  1  0.98452000  0.15863000  0.41539000  1.0
  O  O84  1  0.01548000  0.84137000  0.58461000  1.0
  O  O85  1  0.52667000  0.42210000  0.59109000  1.0
  O  O86  1  0.47333000  0.57791000  0.40891000  1.0
  O  O87  1  0.85305000  0.37163000  0.35958000  1.0
  O  O88  1  0.14695000  0.62836000  0.64042000  1.0
  O  O89  1  0.89291000  0.32960000  0.61023000  1.0
  O  O90  1  0.10708000  0.67040000  0.38977000  1.0
  O  O91  1  0.33398000  0.16229000  0.95705000  1.0
  O  O92  1  0.66602000  0.83771000  0.04295000  1.0
