# generated using pymatgen
data_CoH13C12S2N
_symmetry_space_group_name_H-M   'P 1'
_cell_length_a   6.82293000
_cell_length_b   7.08214000
_cell_length_c   13.32387211
_cell_angle_alpha   96.96775694
_cell_angle_beta   104.54648851
_cell_angle_gamma   90.12390000
_symmetry_Int_Tables_number   1
_chemical_formula_structural   CoH13C12S2N
_chemical_formula_sum   'Co2 H26 C24 S4 N2'
_cell_volume   618.22450234
_cell_formula_units_Z   2
loop_
 _symmetry_equiv_pos_site_id
 _symmetry_equiv_pos_as_xyz
  1  'x, y, z'
loop_
 _atom_site_type_symbol
 _atom_site_label
 _atom_site_symmetry_multiplicity
 _atom_site_fract_x
 _atom_site_fract_y
 _atom_site_fract_z
 _atom_site_occupancy
  Co  Co0  1  0.41129000  0.28966000  0.81530000  1.0
  Co  Co1  1  0.40494000  0.79220000  0.81338000  1.0
  H  H2  1  0.82775000  0.18401000  0.91432000  1.0
  H  H3  1  0.09278000  0.67777000  0.91237000  1.0
  H  H4  1  0.14779000  0.22412000  0.05486000  1.0
  H  H5  1  0.91291000  0.71627000  0.05366000  1.0
  H  H6  1  0.15350000  0.14453000  0.23265000  1.0
  H  H7  1  0.08673000  0.64361000  0.23231000  1.0
  H  H8  1  0.84333000  0.01059000  0.26708000  1.0
  H  H9  1  0.43423000  0.51872000  0.26673000  1.0
  H  H10  1  0.52030000  0.97342000  0.12635000  1.0
  H  H11  1  0.61692000  0.48325000  0.12510000  1.0
  H  H12  1  0.30060000  0.01601000  0.60873000  1.0
  H  H13  1  0.29250000  0.50606000  0.61246000  1.0
  H  H14  1  0.20673000  0.85586000  0.42721000  1.0
  H  H15  1  0.20755000  0.35028000  0.43031000  1.0
  H  H16  1  0.38886000  0.94183000  0.29762000  1.0
  H  H17  1  0.90816000  0.44969000  0.29927000  1.0
  H  H18  1  0.65988000  0.20032000  0.35190000  1.0
  H  H19  1  0.70018000  0.71566000  0.35384000  1.0
  H  H20  1  0.75786000  0.35649000  0.53355000  1.0
  H  H21  1  0.78118000  0.86832000  0.53596000  1.0
  H  H22  1  0.01635000  0.33291000  0.76533000  1.0
  H  H23  1  0.73394000  0.83002000  0.74634000  1.0
  H  H24  1  0.10250000  0.32958000  0.66143000  1.0
  H  H25  1  0.53197000  0.81962000  0.64817000  1.0
  H  H26  1  0.07516000  0.12801000  0.70980000  1.0
  H  H27  1  0.61683000  0.62288000  0.69920000  1.0
  C  C28  1  0.65408000  0.07948000  0.01238000  1.0
  C  C29  1  0.36676000  0.58151000  0.01075000  1.0
  C  C30  1  0.83180000  0.14711000  0.99189000  1.0
  C  C31  1  0.16730000  0.64422000  0.99040000  1.0
  C  C32  1  0.01077000  0.16989000  0.07103000  1.0
  C  C33  1  0.06730000  0.66631000  0.07002000  1.0
  C  C34  1  0.01417000  0.12421000  0.17053000  1.0
  C  C35  1  0.16451000  0.62455000  0.16989000  1.0
  C  C36  1  0.83899000  0.05102000  0.19009000  1.0
  C  C37  1  0.36070000  0.55617000  0.18941000  1.0
  C  C38  1  0.65823000  0.02900000  0.11160000  1.0
  C  C39  1  0.46312000  0.53502000  0.11039000  1.0
  C  C40  1  0.54141000  0.19282000  0.58551000  1.0
  C  C41  1  0.03923000  0.69443000  0.58880000  1.0
  C  C42  1  0.38229000  0.05428000  0.55299000  1.0
  C  C43  1  0.16005000  0.55015000  0.55633000  1.0
  C  C44  1  0.32833000  0.96487000  0.45004000  1.0
  C  C45  1  0.11284000  0.46317000  0.45290000  1.0
  C  C46  1  0.42941000  0.01420000  0.37733000  1.0
  C  C47  1  0.94592000  0.51982000  0.37951000  1.0
  C  C48  1  0.58227000  0.15690000  0.40806000  1.0
  C  C49  1  0.82856000  0.66677000  0.41037000  1.0
  C  C50  1  0.63851000  0.24537000  0.51082000  1.0
  C  C51  1  0.87361000  0.75317000  0.51358000  1.0
  S  S52  1  0.41914000  0.06368000  0.91610000  1.0
  S  S53  1  0.50386000  0.56562000  0.91316000  1.0
  S  S54  1  0.62628000  0.30171000  0.71535000  1.0
  S  S55  1  0.08481000  0.80202000  0.71917000  1.0
  N  N56  1  0.12070000  0.27022000  0.72943000  1.0
  N  N57  1  0.59234000  0.76601000  0.71697000  1.0
