# generated using pymatgen
data_CuH8C12(NO2)2
_symmetry_space_group_name_H-M   'P 1'
_cell_length_a   5.20097000
_cell_length_b   7.71552369
_cell_length_c   8.81422000
_cell_angle_alpha   101.43359443
_cell_angle_beta   96.07800000
_cell_angle_gamma   109.35062790
_symmetry_Int_Tables_number   1
_chemical_formula_structural   CuH8C12(NO2)2
_chemical_formula_sum   'Cu1 H8 C12 N2 O4'
_cell_volume   321.41706869
_cell_formula_units_Z   1
loop_
 _symmetry_equiv_pos_site_id
 _symmetry_equiv_pos_as_xyz
  1  'x, y, z'
loop_
 _atom_site_type_symbol
 _atom_site_label
 _atom_site_symmetry_multiplicity
 _atom_site_fract_x
 _atom_site_fract_y
 _atom_site_fract_z
 _atom_site_occupancy
  Cu  Cu0  1  0.00000000  0.00000000  0.00000000  1.0
  H  H1  1  0.34027000  0.47203000  0.89373000  1.0
  H  H2  1  0.65974000  0.52797000  0.10628000  1.0
  H  H3  1  0.00025000  0.28268000  0.64792000  1.0
  H  H4  1  0.99977000  0.71732000  0.35208000  1.0
  H  H5  1  0.65966000  0.41500000  0.53867000  1.0
  H  H6  1  0.34035000  0.58499000  0.46134000  1.0
  H  H7  1  0.67246000  0.73582000  0.68770000  1.0
  H  H8  1  0.32754000  0.26417000  0.31230000  1.0
  C  C9  1  0.36719000  0.82469000  0.07386000  1.0
  C  C10  1  0.63280000  0.17531000  0.92614000  1.0
  C  C11  1  0.18062000  0.70004000  0.92015000  1.0
  C  C12  1  0.81938000  0.29997000  0.07986000  1.0
  C  C13  1  0.19161000  0.52700000  0.84426000  1.0
  C  C14  1  0.80837000  0.47298000  0.15572000  1.0
  C  C15  1  0.00106000  0.42147000  0.70614000  1.0
  C  C16  1  0.99896000  0.57854000  0.29388000  1.0
  C  C17  1  0.81071000  0.49408000  0.64614000  1.0
  C  C18  1  0.18929000  0.50591000  0.35385000  1.0
  C  C19  1  0.81393000  0.66939000  0.72675000  1.0
  C  C20  1  0.18608000  0.33062000  0.27326000  1.0
  N  N21  1  0.99319000  0.76722000  0.86177000  1.0
  N  N22  1  0.00680000  0.23278000  0.13821000  1.0
  O  O23  1  0.56597000  0.78734000  0.13095000  1.0
  O  O24  1  0.43402000  0.21266000  0.86906000  1.0
  O  O25  1  0.30176000  0.96809000  0.13585000  1.0
  O  O26  1  0.69823000  0.03192000  0.86415000  1.0
