# generated using pymatgen
data_CuH11C17N3O5
_symmetry_space_group_name_H-M   'P 1'
_cell_length_a   15.01740000
_cell_length_b   16.21080000
_cell_length_c   20.73360000
_cell_angle_alpha   89.99980000
_cell_angle_beta   90.00030000
_cell_angle_gamma   89.99970000
_symmetry_Int_Tables_number   1
_chemical_formula_structural   CuH11C17N3O5
_chemical_formula_sum   'Cu8 H88 C136 N24 O40'
_cell_volume   5047.47192646
_cell_formula_units_Z   8
loop_
 _symmetry_equiv_pos_site_id
 _symmetry_equiv_pos_as_xyz
  1  'x, y, z'
loop_
 _atom_site_type_symbol
 _atom_site_label
 _atom_site_symmetry_multiplicity
 _atom_site_fract_x
 _atom_site_fract_y
 _atom_site_fract_z
 _atom_site_occupancy
  Cu  Cu0  1  0.53384000  0.10926000  0.56720000  1.0
  Cu  Cu1  1  0.53384000  0.39073000  0.93280000  1.0
  Cu  Cu2  1  0.96616000  0.89074000  0.06721000  1.0
  Cu  Cu3  1  0.96616000  0.60927000  0.43280000  1.0
  Cu  Cu4  1  0.46616000  0.89074000  0.43280000  1.0
  Cu  Cu5  1  0.46616000  0.60926000  0.06720000  1.0
  Cu  Cu6  1  0.03384000  0.10926000  0.93279000  1.0
  Cu  Cu7  1  0.03384000  0.39074000  0.56720000  1.0
  H  H8  1  0.71814000  0.13185000  0.47861000  1.0
  H  H9  1  0.71814000  0.36814000  0.02140000  1.0
  H  H10  1  0.78185000  0.86814000  0.97861000  1.0
  H  H11  1  0.78186000  0.63186000  0.52140000  1.0
  H  H12  1  0.28186000  0.86814000  0.52140000  1.0
  H  H13  1  0.28186000  0.63186000  0.97860000  1.0
  H  H14  1  0.21815000  0.13185000  0.02139000  1.0
  H  H15  1  0.21814000  0.36815000  0.47861000  1.0
  H  H16  1  0.89146000  0.14719000  0.31231000  1.0
  H  H17  1  0.89147000  0.35281000  0.18769000  1.0
  H  H18  1  0.60854000  0.85280000  0.81231000  1.0
  H  H19  1  0.60853000  0.64719000  0.68769000  1.0
  H  H20  1  0.10854000  0.85282000  0.68769000  1.0
  H  H21  1  0.10854000  0.64719000  0.81231000  1.0
  H  H22  1  0.39146000  0.14719000  0.18769000  1.0
  H  H23  1  0.39146000  0.35281000  0.31231000  1.0
  H  H24  1  0.75197000  0.25341000  0.49583000  1.0
  H  H25  1  0.75197000  0.24659000  0.00417000  1.0
  H  H26  1  0.74803000  0.74659000  0.99583000  1.0
  H  H27  1  0.74803000  0.75341000  0.50417000  1.0
  H  H28  1  0.24803000  0.74659000  0.50417000  1.0
  H  H29  1  0.24803000  0.75341000  0.99583000  1.0
  H  H30  1  0.25197000  0.25341000  0.00417000  1.0
  H  H31  1  0.25197000  0.24659000  0.49583000  1.0
  H  H32  1  0.88708000  0.82827000  0.18840000  1.0
  H  H33  1  0.88708000  0.67174000  0.31160000  1.0
  H  H34  1  0.61292000  0.17173000  0.68840000  1.0
  H  H35  1  0.61293000  0.32826000  0.81160000  1.0
  H  H36  1  0.11292000  0.17174000  0.81160000  1.0
  H  H37  1  0.11292000  0.32827000  0.68840000  1.0
  H  H38  1  0.38707000  0.82827000  0.31160000  1.0
  H  H39  1  0.38708000  0.67173000  0.18840000  1.0
  H  H40  1  0.06607000  0.30359000  0.44405000  1.0
  H  H41  1  0.06607000  0.19641000  0.05595000  1.0
  H  H42  1  0.43393000  0.69641000  0.94405000  1.0
  H  H43  1  0.43393000  0.80359000  0.55595000  1.0
  H  H44  1  0.93394000  0.69641000  0.55595000  1.0
  H  H45  1  0.93393000  0.80359000  0.94406000  1.0
  H  H46  1  0.56607000  0.30359000  0.05595000  1.0
  H  H47  1  0.56607000  0.19640000  0.44405000  1.0
  H  H48  1  0.98422000  0.20160000  0.37784000  1.0
  H  H49  1  0.98422000  0.29840000  0.12216000  1.0
  H  H50  1  0.51578000  0.79840000  0.87783000  1.0
  H  H51  1  0.51578000  0.70161000  0.62217000  1.0
  H  H52  1  0.01578000  0.79840000  0.62216000  1.0
  H  H53  1  0.01578000  0.70161000  0.87783000  1.0
  H  H54  1  0.48422000  0.20160000  0.12217000  1.0
  H  H55  1  0.48422000  0.29839000  0.37784000  1.0
  H  H56  1  0.84448000  0.12859000  0.19643000  1.0
  H  H57  1  0.84449000  0.37142000  0.30357000  1.0
  H  H58  1  0.65552000  0.87141000  0.69643000  1.0
  H  H59  1  0.65551000  0.62859000  0.80358000  1.0
  H  H60  1  0.15552000  0.87142000  0.80357000  1.0
  H  H61  1  0.15551000  0.62859000  0.69643000  1.0
  H  H62  1  0.34449000  0.12859000  0.30358000  1.0
  H  H63  1  0.34448000  0.37141000  0.19643000  1.0
  H  H64  1  0.84436000  0.34892000  0.55784000  1.0
  H  H65  1  0.84436000  0.15109000  0.94216000  1.0
  H  H66  1  0.65564000  0.65108000  0.05784000  1.0
  H  H67  1  0.65564000  0.84891000  0.44216000  1.0
  H  H68  1  0.15564000  0.65109000  0.44216000  1.0
  H  H69  1  0.15564000  0.84891000  0.05784000  1.0
  H  H70  1  0.34436000  0.34891000  0.94216000  1.0
  H  H71  1  0.34436000  0.15109000  0.55784000  1.0
  H  H72  1  0.82173000  0.88979000  0.28824000  1.0
  H  H73  1  0.82174000  0.61021000  0.21176000  1.0
  H  H74  1  0.67826000  0.11020000  0.78824000  1.0
  H  H75  1  0.67827000  0.38979000  0.71177000  1.0
  H  H76  1  0.17827000  0.11022000  0.71177000  1.0
  H  H77  1  0.17826000  0.38979000  0.78823000  1.0
  H  H78  1  0.32173000  0.88980000  0.21177000  1.0
  H  H79  1  0.32174000  0.61021000  0.28824000  1.0
  H  H80  1  0.90774000  0.05621000  0.09993000  1.0
  H  H81  1  0.90773000  0.44379000  0.40007000  1.0
  H  H82  1  0.59227000  0.94379000  0.59992000  1.0
  H  H83  1  0.59227000  0.55620000  0.90007000  1.0
  H  H84  1  0.09227000  0.94379000  0.90007000  1.0
  H  H85  1  0.09226000  0.55621000  0.59993000  1.0
  H  H86  1  0.40774000  0.05621000  0.40008000  1.0
  H  H87  1  0.40773000  0.44379000  0.09992000  1.0
  H  H88  1  0.68415000  0.96384000  0.32152000  1.0
  H  H89  1  0.68416000  0.53616000  0.17848000  1.0
  H  H90  1  0.81583000  0.03616000  0.82152000  1.0
  H  H91  1  0.81584000  0.46384000  0.67848000  1.0
  H  H92  1  0.31584000  0.03617000  0.67847000  1.0
  H  H93  1  0.31584000  0.46383000  0.82152000  1.0
  H  H94  1  0.18416000  0.96384000  0.17848000  1.0
  H  H95  1  0.18417000  0.53616000  0.32152000  1.0
  C  C96  1  0.85975000  0.21638000  0.43100000  1.0
  C  C97  1  0.85975000  0.28362000  0.06900000  1.0
  C  C98  1  0.64024000  0.78362000  0.93100000  1.0
  C  C99  1  0.64025000  0.71638000  0.56900000  1.0
  C  C100  1  0.14025000  0.78363000  0.56900000  1.0
  C  C101  1  0.14025000  0.71638000  0.93100000  1.0
  C  C102  1  0.35975000  0.21638000  0.06900000  1.0
  C  C103  1  0.35975000  0.28362000  0.43100000  1.0
  C  C104  1  0.82644000  0.01460000  0.25044000  1.0
  C  C105  1  0.82645000  0.48540000  0.24956000  1.0
  C  C106  1  0.67355000  0.98539000  0.75044000  1.0
  C  C107  1  0.67356000  0.51460000  0.74956000  1.0
  C  C108  1  0.17356000  0.98540000  0.74956000  1.0
  C  C109  1  0.17356000  0.51461000  0.75044000  1.0
  C  C110  1  0.32645000  0.01461000  0.24957000  1.0
  C  C111  1  0.32645000  0.48539000  0.25044000  1.0
  C  C112  1  0.61540000  0.00798000  0.43807000  1.0
  C  C113  1  0.61540000  0.49202000  0.06194000  1.0
  C  C114  1  0.88459000  0.99202000  0.93806000  1.0
  C  C115  1  0.88460000  0.50798000  0.56194000  1.0
  C  C116  1  0.38460000  0.99202000  0.56194000  1.0
  C  C117  1  0.38460000  0.50798000  0.93806000  1.0
  C  C118  1  0.11541000  0.00798000  0.06194000  1.0
  C  C119  1  0.11541000  0.49203000  0.43806000  1.0
  C  C120  1  0.73788000  0.11252000  0.43034000  1.0
  C  C121  1  0.73788000  0.38748000  0.06966000  1.0
  C  C122  1  0.76212000  0.88748000  0.93034000  1.0
  C  C123  1  0.76212000  0.61252000  0.56966000  1.0
  C  C124  1  0.26213000  0.88748000  0.56966000  1.0
  C  C125  1  0.26212000  0.61252000  0.93034000  1.0
  C  C126  1  0.23788000  0.11251000  0.06966000  1.0
  C  C127  1  0.23788000  0.38749000  0.43034000  1.0
  C  C128  1  0.83510000  0.11990000  0.33776000  1.0
  C  C129  1  0.83510000  0.38010000  0.16223000  1.0
  C  C130  1  0.66490000  0.88010000  0.83776000  1.0
  C  C131  1  0.66490000  0.61990000  0.66224000  1.0
  C  C132  1  0.16490000  0.88010000  0.66223000  1.0
  C  C133  1  0.16490000  0.61990000  0.83776000  1.0
  C  C134  1  0.33510000  0.11990000  0.16224000  1.0
  C  C135  1  0.33510000  0.38010000  0.33776000  1.0
  C  C136  1  0.69207000  0.04690000  0.40214000  1.0
  C  C137  1  0.69208000  0.45310000  0.09786000  1.0
  C  C138  1  0.80792000  0.95310000  0.90214000  1.0
  C  C139  1  0.80793000  0.54690000  0.59787000  1.0
  C  C140  1  0.30793000  0.95310000  0.59787000  1.0
  C  C141  1  0.30792000  0.54690000  0.90213000  1.0
  C  C142  1  0.19208000  0.04690000  0.09787000  1.0
  C  C143  1  0.19208000  0.45310000  0.40214000  1.0
  C  C144  1  0.82118000  0.26144000  0.48161000  1.0
  C  C145  1  0.82118000  0.23856000  0.01840000  1.0
  C  C146  1  0.67882000  0.73856000  0.98160000  1.0
  C  C147  1  0.67882000  0.76144000  0.51839000  1.0
  C  C148  1  0.17882000  0.73856000  0.51840000  1.0
  C  C149  1  0.17882000  0.76144000  0.98160000  1.0
  C  C150  1  0.32118000  0.26144000  0.01839000  1.0
  C  C151  1  0.32118000  0.23856000  0.48161000  1.0
  C  C152  1  0.87413000  0.89424000  0.19178000  1.0
  C  C153  1  0.87415000  0.60576000  0.30822000  1.0
  C  C154  1  0.62586000  0.10576000  0.69177000  1.0
  C  C155  1  0.62587000  0.39424000  0.80823000  1.0
  C  C156  1  0.12586000  0.10576000  0.80822000  1.0
  C  C157  1  0.12586000  0.39424000  0.69177000  1.0
  C  C158  1  0.37413000  0.89424000  0.30823000  1.0
  C  C159  1  0.37414000  0.60576000  0.19177000  1.0
  C  C160  1  0.99607000  0.29049000  0.45326000  1.0
  C  C161  1  0.99608000  0.20951000  0.04674000  1.0
  C  C162  1  0.50392000  0.70951000  0.95326000  1.0
  C  C163  1  0.50392000  0.79049000  0.54674000  1.0
  C  C164  1  0.00393000  0.70951000  0.54674000  1.0
  C  C165  1  0.00392000  0.79049000  0.95326000  1.0
  C  C166  1  0.49607000  0.29049000  0.04674000  1.0
  C  C167  1  0.49608000  0.20951000  0.45326000  1.0
  C  C168  1  0.94913000  0.23410000  0.41615000  1.0
  C  C169  1  0.94913000  0.26590000  0.08385000  1.0
  C  C170  1  0.55086000  0.76590000  0.91615000  1.0
  C  C171  1  0.55087000  0.73410000  0.58385000  1.0
  C  C172  1  0.05087000  0.76590000  0.58385000  1.0
  C  C173  1  0.05086000  0.73410000  0.91615000  1.0
  C  C174  1  0.44913000  0.23410000  0.08385000  1.0
  C  C175  1  0.44913000  0.26590000  0.41615000  1.0
  C  C176  1  0.85231000  0.06170000  0.19679000  1.0
  C  C177  1  0.85231000  0.43830000  0.30320000  1.0
  C  C178  1  0.64768000  0.93829000  0.69679000  1.0
  C  C179  1  0.64769000  0.56170000  0.80321000  1.0
  C  C180  1  0.14769000  0.93830000  0.80320000  1.0
  C  C181  1  0.14769000  0.56171000  0.69680000  1.0
  C  C182  1  0.35232000  0.06171000  0.30321000  1.0
  C  C183  1  0.35232000  0.43829000  0.19679000  1.0
  C  C184  1  0.80951000  0.15031000  0.39835000  1.0
  C  C185  1  0.80952000  0.34969000  0.10165000  1.0
  C  C186  1  0.69048000  0.84968000  0.89835000  1.0
  C  C187  1  0.69048000  0.65031000  0.60166000  1.0
  C  C188  1  0.19048000  0.84969000  0.60165000  1.0
  C  C189  1  0.19048000  0.65032000  0.89834000  1.0
  C  C190  1  0.30952000  0.15032000  0.10166000  1.0
  C  C191  1  0.30952000  0.34968000  0.39834000  1.0
  C  C192  1  0.87261000  0.31594000  0.51701000  1.0
  C  C193  1  0.87261000  0.18406000  0.98299000  1.0
  C  C194  1  0.62738000  0.68406000  0.01701000  1.0
  C  C195  1  0.62738000  0.81594000  0.48299000  1.0
  C  C196  1  0.12739000  0.68407000  0.48299000  1.0
  C  C197  1  0.12739000  0.81594000  0.01701000  1.0
  C  C198  1  0.37261000  0.31594000  0.98299000  1.0
  C  C199  1  0.37261000  0.18406000  0.51701000  1.0
  C  C200  1  0.83755000  0.92882000  0.24696000  1.0
  C  C201  1  0.83756000  0.57118000  0.25305000  1.0
  C  C202  1  0.66244000  0.07118000  0.74695000  1.0
  C  C203  1  0.66245000  0.42882000  0.75305000  1.0
  C  C204  1  0.16245000  0.07119000  0.75304000  1.0
  C  C205  1  0.16245000  0.42882000  0.74695000  1.0
  C  C206  1  0.33755000  0.92882000  0.25305000  1.0
  C  C207  1  0.33755000  0.57118000  0.24695000  1.0
  C  C208  1  0.88757000  0.02249000  0.14298000  1.0
  C  C209  1  0.88757000  0.47751000  0.35702000  1.0
  C  C210  1  0.61242000  0.97751000  0.64298000  1.0
  C  C211  1  0.61243000  0.52249000  0.85702000  1.0
  C  C212  1  0.11243000  0.97751000  0.85702000  1.0
  C  C213  1  0.11243000  0.52249000  0.64298000  1.0
  C  C214  1  0.38758000  0.02249000  0.35702000  1.0
  C  C215  1  0.38758000  0.47751000  0.14298000  1.0
  C  C216  1  0.79196000  0.05184000  0.31030000  1.0
  C  C217  1  0.79197000  0.44816000  0.18970000  1.0
  C  C218  1  0.70803000  0.94815000  0.81030000  1.0
  C  C219  1  0.70803000  0.55184000  0.68970000  1.0
  C  C220  1  0.20803000  0.94816000  0.68970000  1.0
  C  C221  1  0.20803000  0.55184000  0.81030000  1.0
  C  C222  1  0.29197000  0.05184000  0.18970000  1.0
  C  C223  1  0.29197000  0.44816000  0.31030000  1.0
  C  C224  1  0.71950000  0.01607000  0.34246000  1.0
  C  C225  1  0.71951000  0.48393000  0.15754000  1.0
  C  C226  1  0.78048000  0.98393000  0.84246000  1.0
  C  C227  1  0.78049000  0.51607000  0.65754000  1.0
  C  C228  1  0.28049000  0.98393000  0.65754000  1.0
  C  C229  1  0.28049000  0.51607000  0.84246000  1.0
  C  C230  1  0.21952000  0.01607000  0.15754000  1.0
  C  C231  1  0.21952000  0.48393000  0.34246000  1.0
  N  N232  1  0.95926000  0.32955000  0.50405000  1.0
  N  N233  1  0.95926000  0.17044000  0.99594000  1.0
  N  N234  1  0.54074000  0.67044000  0.00405000  1.0
  N  N235  1  0.54074000  0.82955000  0.49594000  1.0
  N  N236  1  0.04074000  0.67045000  0.49594000  1.0
  N  N237  1  0.04074000  0.82956000  0.00406000  1.0
  N  N238  1  0.45926000  0.32955000  0.99594000  1.0
  N  N239  1  0.45926000  0.17044000  0.50405000  1.0
  N  N240  1  0.89867000  0.94017000  0.14072000  1.0
  N  N241  1  0.89867000  0.55983000  0.35928000  1.0
  N  N242  1  0.60133000  0.05983000  0.64072000  1.0
  N  N243  1  0.60134000  0.44017000  0.85928000  1.0
  N  N244  1  0.10133000  0.05984000  0.85928000  1.0
  N  N245  1  0.10134000  0.44017000  0.64072000  1.0
  N  N246  1  0.39866000  0.94017000  0.35929000  1.0
  N  N247  1  0.39867000  0.55983000  0.14072000  1.0
  N  N248  1  0.61176000  0.26720000  0.59027000  1.0
  N  N249  1  0.61176000  0.23279000  0.90974000  1.0
  N  N250  1  0.88824000  0.73280000  0.09027000  1.0
  N  N251  1  0.88825000  0.76721000  0.40974000  1.0
  N  N252  1  0.38824000  0.73280000  0.40974000  1.0
  N  N253  1  0.38824000  0.76720000  0.09026000  1.0
  N  N254  1  0.11176000  0.26720000  0.90973000  1.0
  N  N255  1  0.11176000  0.23279000  0.59026000  1.0
  O  O256  1  0.62955000  0.19895000  0.55764000  1.0
  O  O257  1  0.62955000  0.30104000  0.94237000  1.0
  O  O258  1  0.87045000  0.80105000  0.05763000  1.0
  O  O259  1  0.87045000  0.69896000  0.44237000  1.0
  O  O260  1  0.37045000  0.80105000  0.44237000  1.0
  O  O261  1  0.37045000  0.69895000  0.05763000  1.0
  O  O262  1  0.12955000  0.19895000  0.94237000  1.0
  O  O263  1  0.12955000  0.30104000  0.55763000  1.0
  O  O264  1  0.60534000  0.02338000  0.49681000  1.0
  O  O265  1  0.60534000  0.47661000  0.00319000  1.0
  O  O266  1  0.89466000  0.97661000  0.99681000  1.0
  O  O267  1  0.89467000  0.52338000  0.50319000  1.0
  O  O268  1  0.39467000  0.97662000  0.50319000  1.0
  O  O269  1  0.39466000  0.52338000  0.99681000  1.0
  O  O270  1  0.10534000  0.02338000  0.00319000  1.0
  O  O271  1  0.10534000  0.47662000  0.49681000  1.0
  O  O272  1  0.54394000  0.26870000  0.62528000  1.0
  O  O273  1  0.54394000  0.23130000  0.87473000  1.0
  O  O274  1  0.95606000  0.73130000  0.12528000  1.0
  O  O275  1  0.95606000  0.76870000  0.37473000  1.0
  O  O276  1  0.45606000  0.73130000  0.37473000  1.0
  O  O277  1  0.45606000  0.76869000  0.12527000  1.0
  O  O278  1  0.04395000  0.26869000  0.87472000  1.0
  O  O279  1  0.04394000  0.23131000  0.62527000  1.0
  O  O280  1  0.56699000  0.95974000  0.40307000  1.0
  O  O281  1  0.56699000  0.54026000  0.09693000  1.0
  O  O282  1  0.93301000  0.04026000  0.90307000  1.0
  O  O283  1  0.93301000  0.45974000  0.59693000  1.0
  O  O284  1  0.43301000  0.04026000  0.59693000  1.0
  O  O285  1  0.43301000  0.45974000  0.90307000  1.0
  O  O286  1  0.06700000  0.95974000  0.09693000  1.0
  O  O287  1  0.06700000  0.54027000  0.40307000  1.0
  O  O288  1  0.66483000  0.32578000  0.58457000  1.0
  O  O289  1  0.66483000  0.17422000  0.91543000  1.0
  O  O290  1  0.83517000  0.67422000  0.08457000  1.0
  O  O291  1  0.83517000  0.82578000  0.41543000  1.0
  O  O292  1  0.33516000  0.67422000  0.41543000  1.0
  O  O293  1  0.33517000  0.82578000  0.08457000  1.0
  O  O294  1  0.16484000  0.32577000  0.91542000  1.0
  O  O295  1  0.16483000  0.17422000  0.58457000  1.0
