# generated using pymatgen
data_NiH22C22(N2O3)2
_symmetry_space_group_name_H-M   'P 1'
_cell_length_a   8.52352000
_cell_length_b   10.91120000
_cell_length_c   11.31320000
_cell_angle_alpha   93.28200000
_cell_angle_beta   89.99950000
_cell_angle_gamma   89.99980000
_symmetry_Int_Tables_number   1
_chemical_formula_structural   NiH22C22(N2O3)2
_chemical_formula_sum   'Ni2 H44 C44 N8 O12'
_cell_volume   1050.42263986
_cell_formula_units_Z   2
loop_
 _symmetry_equiv_pos_site_id
 _symmetry_equiv_pos_as_xyz
  1  'x, y, z'
loop_
 _atom_site_type_symbol
 _atom_site_label
 _atom_site_symmetry_multiplicity
 _atom_site_fract_x
 _atom_site_fract_y
 _atom_site_fract_z
 _atom_site_occupancy
  Ni  Ni0  1  0.74259000  0.50158000  0.25172000  1.0
  Ni  Ni1  1  0.24259000  0.49842000  0.74828000  1.0
  H  H2  1  0.71786000  0.49951000  0.47927000  1.0
  H  H3  1  0.21786000  0.50049000  0.52073000  1.0
  H  H4  1  0.88189000  0.57679000  0.47876000  1.0
  H  H5  1  0.38189000  0.42321000  0.52124000  1.0
  H  H6  1  0.76836000  0.51271000  0.02478000  1.0
  H  H7  1  0.26836000  0.48729000  0.97522000  1.0
  H  H8  1  0.60050000  0.43867000  0.02261000  1.0
  H  H9  1  0.10051000  0.56133000  0.97739000  1.0
  H  H10  1  0.27335000  0.80362000  0.48241000  1.0
  H  H11  1  0.77335000  0.19639000  0.51760000  1.0
  H  H12  1  0.17059000  0.83487000  0.35250000  1.0
  H  H13  1  0.67059000  0.16513000  0.64751000  1.0
  H  H14  1  0.61076000  0.75242000  0.36459000  1.0
  H  H15  1  0.11076000  0.24758000  0.63541000  1.0
  H  H16  1  0.38355000  0.45660000  0.17980000  1.0
  H  H17  1  0.88355000  0.54340000  0.82020000  1.0
  H  H18  1  0.15775000  0.62748000  0.26052000  1.0
  H  H19  1  0.65775000  0.37252000  0.73950000  1.0
  H  H20  1  0.31360000  0.17657000  0.11821000  1.0
  H  H21  1  0.81360000  0.82343000  0.88179000  1.0
  H  H22  1  0.17570000  0.20779000  0.00833000  1.0
  H  H23  1  0.67570000  0.79221000  0.99166000  1.0
  H  H24  1  0.94634000  0.34823000  0.05909000  1.0
  H  H25  1  0.44634000  0.65176000  0.94090000  1.0
  H  H26  1  0.00764000  0.40925000  0.42791000  1.0
  H  H27  1  0.50764000  0.59076000  0.57208000  1.0
  H  H28  1  0.22521000  0.23710000  0.34447000  1.0
  H  H29  1  0.72521000  0.76290000  0.65552000  1.0
  H  H30  1  0.46549000  0.92186000  0.20942000  1.0
  H  H31  1  0.96549000  0.07814000  0.79058000  1.0
  H  H32  1  0.58530000  0.13028000  0.21048000  1.0
  H  H33  1  0.08529000  0.86972000  0.78953000  1.0
  H  H34  1  0.41376000  0.21264000  0.56303000  1.0
  H  H35  1  0.91375000  0.78736000  0.43697000  1.0
  H  H36  1  0.29446000  0.00353000  0.56327000  1.0
  H  H37  1  0.79445000  0.99647000  0.43673000  1.0
  H  H38  1  0.95100000  0.10220000  0.24698000  1.0
  H  H39  1  0.45101000  0.89780000  0.75302000  1.0
  H  H40  1  0.84044000  0.89191000  0.25405000  1.0
  H  H41  1  0.34044000  0.10810000  0.74595000  1.0
  H  H42  1  0.14961000  0.76328000  0.97386000  1.0
  H  H43  1  0.64962000  0.23672000  0.02614000  1.0
  H  H44  1  0.26678000  0.97172000  0.96983000  1.0
  H  H45  1  0.76679000  0.02828000  0.03017000  1.0
  C  C46  1  0.28893000  0.82704000  0.39007000  1.0
  C  C47  1  0.78893000  0.17296000  0.60994000  1.0
  C  C48  1  0.51975000  0.69602000  0.32285000  1.0
  C  C49  1  0.01975000  0.30398000  0.67715000  1.0
  C  C50  1  0.39641000  0.54390000  0.22928000  1.0
  C  C51  1  0.89641000  0.45610000  0.77073000  1.0
  C  C52  1  0.28459000  0.62800000  0.26658000  1.0
  C  C53  1  0.78459000  0.37200000  0.73343000  1.0
  C  C54  1  0.18720000  0.17788000  0.09901000  1.0
  C  C55  1  0.68720000  0.82212000  0.90099000  1.0
  C  C56  1  0.99293000  0.34404000  0.14788000  1.0
  C  C57  1  0.49293000  0.65596000  0.85212000  1.0
  C  C58  1  0.02609000  0.37096000  0.33877000  1.0
  C  C59  1  0.52609000  0.62904000  0.66122000  1.0
  C  C60  1  0.13527000  0.28593000  0.29881000  1.0
  C  C61  1  0.63527000  0.71407000  0.70118000  1.0
  C  C62  1  0.37224000  0.94861000  0.38689000  1.0
  C  C63  1  0.87224000  0.05138000  0.61311000  1.0
  C  C64  1  0.45476000  0.98471000  0.28754000  1.0
  C  C65  1  0.95475000  0.01529000  0.71246000  1.0
  C  C66  1  0.52186000  0.10121000  0.28763000  1.0
  C  C67  1  0.02185000  0.89879000  0.71237000  1.0
  C  C68  1  0.50752000  0.18436000  0.38630000  1.0
  C  C69  1  0.00751000  0.81563000  0.61369000  1.0
  C  C70  1  0.42563000  0.14820000  0.48614000  1.0
  C  C71  1  0.92562000  0.85180000  0.51386000  1.0
  C  C72  1  0.35914000  0.03147000  0.48587000  1.0
  C  C73  1  0.85913000  0.96853000  0.51414000  1.0
  C  C74  1  0.57804000  0.31122000  0.38398000  1.0
  C  C75  1  0.07803000  0.68878000  0.61602000  1.0
  C  C76  1  0.11650000  0.05144000  0.10762000  1.0
  C  C77  1  0.61651000  0.94856000  0.89238000  1.0
  C  C78  1  0.99661000  0.02824000  0.18777000  1.0
  C  C79  1  0.49661000  0.97176000  0.81223000  1.0
  C  C80  1  0.93426000  0.91044000  0.19218000  1.0
  C  C81  1  0.43427000  0.08956000  0.80782000  1.0
  C  C82  1  0.98753000  0.81452000  0.11506000  1.0
  C  C83  1  0.48754000  0.18548000  0.88493000  1.0
  C  C84  1  0.10711000  0.83773000  0.03393000  1.0
  C  C85  1  0.60712000  0.16227000  0.96606000  1.0
  C  C86  1  0.17213000  0.95471000  0.03189000  1.0
  C  C87  1  0.67213000  0.04529000  0.96811000  1.0
  C  C88  1  0.91299000  0.68983000  0.11818000  1.0
  C  C89  1  0.41300000  0.31017000  0.88182000  1.0
  N  N90  1  0.36437000  0.72401000  0.32482000  1.0
  N  N91  1  0.86436000  0.27599000  0.67519000  1.0
  N  N92  1  0.54204000  0.58764000  0.26484000  1.0
  N  N93  1  0.04203000  0.41236000  0.73517000  1.0
  N  N94  1  0.11346000  0.27051000  0.17778000  1.0
  N  N95  1  0.61346000  0.72949000  0.82222000  1.0
  N  N96  1  0.93850000  0.40656000  0.24387000  1.0
  N  N97  1  0.43850000  0.59344000  0.75613000  1.0
  O  O98  1  0.63597000  0.33850000  0.28489000  1.0
  O  O99  1  0.13596000  0.66150000  0.71511000  1.0
  O  O100  1  0.57607000  0.37989000  0.47880000  1.0
  O  O101  1  0.07606000  0.62011000  0.52120000  1.0
  O  O102  1  0.85154000  0.66464000  0.21688000  1.0
  O  O103  1  0.35155000  0.33536000  0.78312000  1.0
  O  O104  1  0.91359000  0.62036000  0.02378000  1.0
  O  O105  1  0.41359000  0.37964000  0.97621000  1.0
  O  O106  1  0.77373000  0.57034000  0.44760000  1.0
  O  O107  1  0.27373000  0.42966000  0.55240000  1.0
  O  O108  1  0.70852000  0.44221000  0.05386000  1.0
  O  O109  1  0.20852000  0.55779000  0.94614000  1.0
