# generated using pymatgen
data_Pr2H13C24O17
_symmetry_space_group_name_H-M   'P 1'
_cell_length_a   13.91658666
_cell_length_b   13.91670000
_cell_length_c   13.91680000
_cell_angle_alpha   75.35300000
_cell_angle_beta   60.37651096
_cell_angle_gamma   104.64468582
_symmetry_Int_Tables_number   1
_chemical_formula_structural   Pr2H13C24O17
_chemical_formula_sum   'Pr4 H26 C48 O34'
_cell_volume   2025.26631869
_cell_formula_units_Z   2
loop_
 _symmetry_equiv_pos_site_id
 _symmetry_equiv_pos_as_xyz
  1  'x, y, z'
loop_
 _atom_site_type_symbol
 _atom_site_label
 _atom_site_symmetry_multiplicity
 _atom_site_fract_x
 _atom_site_fract_y
 _atom_site_fract_z
 _atom_site_occupancy
  Pr  Pr0  1  0.97720000  0.54552000  0.16500000  1.0
  Pr  Pr1  1  0.68168000  0.64220000  0.27280000  1.0
  Pr  Pr2  1  0.28948000  0.45448000  0.56832000  1.0
  Pr  Pr3  1  0.08500000  0.35779000  0.96052000  1.0
  H  H4  1  0.06016000  0.69615000  0.25278000  1.0
  H  H5  1  0.61404000  0.81296000  0.18983000  1.0
  H  H6  1  0.05109000  0.30387000  0.63598000  1.0
  H  H7  1  0.99722000  0.18705000  0.19892000  1.0
  H  H8  1  0.10227000  0.60650000  0.28667000  1.0
  H  H9  1  0.74582000  0.88891000  0.14768000  1.0
  H  H10  1  0.10688000  0.39350000  0.50420000  1.0
  H  H11  1  0.96333000  0.11105000  0.14317000  1.0
  H  H12  1  0.68484000  0.40144000  0.27132000  1.0
  H  H13  1  0.53340000  0.45616000  0.56515000  1.0
  H  H14  1  0.32725000  0.59855000  0.71659000  1.0
  H  H15  1  0.97868000  0.54384000  0.92277000  1.0
  H  H16  1  0.33426000  0.21239000  0.35241000  1.0
  H  H17  1  0.37190000  0.18670000  0.91575000  1.0
  H  H18  1  0.43518000  0.78764000  0.87811000  1.0
  H  H19  1  0.89754000  0.81330000  0.81482000  1.0
  H  H20  1  0.66269000  0.18554000  0.10156000  1.0
  H  H21  1  0.72716000  0.26424000  0.58731000  1.0
  H  H22  1  0.71290000  0.81446000  0.52285000  1.0
  H  H23  1  0.14842000  0.73574000  0.53712000  1.0
  H  H24  1  0.36468000  0.41155000  0.97667000  1.0
  H  H25  1  0.20312000  0.84133000  0.88534000  1.0
  H  H26  1  0.61178000  0.58847000  0.04689000  1.0
  H  H27  1  0.27333000  0.15867000  0.63822000  1.0
  H  H28  1  0.22353000  0.50001000  0.27645000  1.0
  H  H29  1  0.97354000  0.00001000  0.02645000  1.0
  C  C30  1  0.68800000  0.29640000  0.17969000  1.0
  C  C31  1  0.64161000  0.36769000  0.56200000  1.0
  C  C32  1  0.52392000  0.70360000  0.60838000  1.0
  C  C33  1  0.07030000  0.63230000  0.72610000  1.0
  C  C34  1  0.63067000  0.34255000  0.25779000  1.0
  C  C35  1  0.53812000  0.38846000  0.61933000  1.0
  C  C36  1  0.39966000  0.65743000  0.71188000  1.0
  C  C37  1  0.99221000  0.61154000  0.85035000  1.0
  C  C38  1  0.50368000  0.31357000  0.31836000  1.0
  C  C39  1  0.44014000  0.32207000  0.74631000  1.0
  C  C40  1  0.36806000  0.68642000  0.80988000  1.0
  C  C41  1  0.93161000  0.67794000  0.88194000  1.0
  C  C42  1  0.43282000  0.23672000  0.30426000  1.0
  C  C43  1  0.44613000  0.23710000  0.81717000  1.0
  C  C44  1  0.45902000  0.76329000  0.80388000  1.0
  C  C45  1  0.94572000  0.76290000  0.79098000  1.0
  C  C46  1  0.48773000  0.18677000  0.22523000  1.0
  C  C47  1  0.55098000  0.21297000  0.76227000  1.0
  C  C48  1  0.58799000  0.81324000  0.69903000  1.0
  C  C49  1  0.02474000  0.78702000  0.66202000  1.0
  C  C50  1  0.61896000  0.22067000  0.16290000  1.0
  C  C51  1  0.64830000  0.28186000  0.63104000  1.0
  C  C52  1  0.61643000  0.77934000  0.60170000  1.0
  C  C53  1  0.08708000  0.71813000  0.63359000  1.0
  C  C54  1  0.82348000  0.32842000  0.11104000  1.0
  C  C55  1  0.74506000  0.43452000  0.42652000  1.0
  C  C56  1  0.56056000  0.67158000  0.50493000  1.0
  C  C57  1  0.13895000  0.56546000  0.68949000  1.0
  C  C58  1  0.44339000  0.36576000  0.39730000  1.0
  C  C59  1  0.32764000  0.34070000  0.80661000  1.0
  C  C60  1  0.23693000  0.63422000  0.92237000  1.0
  C  C61  1  0.85268000  0.65930000  0.01307000  1.0
  C  C62  1  0.28205000  0.45442000  0.12689000  1.0
  C  C63  1  0.07763000  0.90894000  0.96795000  1.0
  C  C64  1  0.41867000  0.54558000  0.17238000  1.0
  C  C65  1  0.12310000  0.09106000  0.83132000  1.0
  C  C66  1  0.37923000  0.45081000  0.03003000  1.0
  C  C67  1  0.17841000  0.90925000  0.87079000  1.0
  C  C68  1  0.51916000  0.54921000  0.07159000  1.0
  C  C69  1  0.21996000  0.09075000  0.73084000  1.0
  C  C70  1  0.50332000  0.50001000  0.99669000  1.0
  C  C71  1  0.25331000  0.00000000  0.74669000  1.0
  C  C72  1  0.30125000  0.50001000  0.19875000  1.0
  C  C73  1  0.05124000  0.00000000  0.94875000  1.0
  C  C74  1  0.15737000  0.41793000  0.15252000  1.0
  C  C75  1  0.98941000  0.80990000  0.09264000  1.0
  C  C76  1  0.42953000  0.58208000  0.26058000  1.0
  C  C77  1  0.09746000  0.19011000  0.82048000  1.0
  O  O78  1  0.03251000  0.61635000  0.29420000  1.0
  O  O79  1  0.66619000  0.82672000  0.21747000  1.0
  O  O80  1  0.08946000  0.38366000  0.58382000  1.0
  O  O81  1  0.95579000  0.17328000  0.16055000  1.0
  O  O82  1  0.89025000  0.38938000  0.13211000  1.0
  O  O83  1  0.75087000  0.52236000  0.35975000  1.0
  O  O84  1  0.47853000  0.61062000  0.49912000  1.0
  O  O85  1  0.11788000  0.47763000  0.77149000  1.0
  O  O86  1  0.87055000  0.29415000  0.03097000  1.0
  O  O87  1  0.82641000  0.40152000  0.37944000  1.0
  O  O88  1  0.67489000  0.70584000  0.42360000  1.0
  O  O89  1  0.21903000  0.59848000  0.57514000  1.0
  O  O90  1  0.51109000  0.45142000  0.39410000  1.0
  O  O91  1  0.30967000  0.40519000  0.73892000  1.0
  O  O92  1  0.15447000  0.54857000  0.94032000  1.0
  O  O93  1  0.85589000  0.59481000  0.09553000  1.0
  O  O94  1  0.32697000  0.32605000  0.46550000  1.0
  O  O95  1  0.25094000  0.29249000  0.92303000  1.0
  O  O96  1  0.20843000  0.67393000  0.99907000  1.0
  O  O97  1  0.78446000  0.70750000  0.04157000  1.0
  O  O98  1  0.42430000  0.11750000  0.21050000  1.0
  O  O99  1  0.55680000  0.13479000  0.82570000  1.0
  O  O100  1  0.67199000  0.88251000  0.69320000  1.0
  O  O101  1  0.03948000  0.86519000  0.57802000  1.0
  O  O102  1  0.08763000  0.45576000  0.21373000  1.0
  O  O103  1  0.88187000  0.80139000  0.16235000  1.0
  O  O104  1  0.33049000  0.54425000  0.36813000  1.0
  O  O105  1  0.03626000  0.19862000  0.91951000  1.0
  O  O106  1  0.13064000  0.35573000  0.10780000  1.0
  O  O107  1  0.02487000  0.73842000  0.11939000  1.0
  O  O108  1  0.53645000  0.64426000  0.22512000  1.0
  O  O109  1  0.14219000  0.26158000  0.71355000  1.0
  O  O110  1  0.59369000  0.50002000  0.90633000  1.0
  O  O111  1  0.34366000  0.99999000  0.65633000  1.0
