# generated using pymatgen
data_Zn3H24C42(NO6)2
_symmetry_space_group_name_H-M   'P 1'
_cell_length_a   14.81270000
_cell_length_b   14.81270000
_cell_length_c   16.45780000
_cell_angle_alpha   103.20500000
_cell_angle_beta   103.20600000
_cell_angle_gamma   115.87900000
_symmetry_Int_Tables_number   1
_chemical_formula_structural   Zn3H24C42(NO6)2
_chemical_formula_sum   'Zn6 H48 C84 N4 O24'
_cell_volume   2932.70355510
_cell_formula_units_Z   2
loop_
 _symmetry_equiv_pos_site_id
 _symmetry_equiv_pos_as_xyz
  1  'x, y, z'
loop_
 _atom_site_type_symbol
 _atom_site_label
 _atom_site_symmetry_multiplicity
 _atom_site_fract_x
 _atom_site_fract_y
 _atom_site_fract_z
 _atom_site_occupancy
  Zn  Zn0  1  0.92740000  0.52946000  0.92415000  1.0
  Zn  Zn1  1  0.47054000  0.07260000  0.57585000  1.0
  Zn  Zn2  1  0.07260000  0.47055000  0.07585000  1.0
  Zn  Zn3  1  0.52945000  0.92740000  0.42415000  1.0
  Zn  Zn4  1  0.67182000  0.32818000  0.75000000  1.0
  Zn  Zn5  1  0.32818000  0.67182000  0.25000000  1.0
  H  H6  1  0.53901000  0.47702000  0.83528000  1.0
  H  H7  1  0.52298000  0.46099000  0.66471000  1.0
  H  H8  1  0.46099000  0.52298000  0.16472000  1.0
  H  H9  1  0.47702000  0.53901000  0.33529000  1.0
  H  H10  1  0.44271000  0.57782000  0.84421000  1.0
  H  H11  1  0.42218000  0.55730000  0.65579000  1.0
  H  H12  1  0.55729000  0.42218000  0.15579000  1.0
  H  H13  1  0.57782000  0.44271000  0.34421000  1.0
  H  H14  1  0.74375000  0.87662000  0.92558000  1.0
  H  H15  1  0.12338000  0.25625000  0.57442000  1.0
  H  H16  1  0.25625000  0.12338000  0.07441000  1.0
  H  H17  1  0.87662000  0.74375000  0.42558000  1.0
  H  H18  1  0.83919000  0.77375000  0.91566000  1.0
  H  H19  1  0.22625000  0.16081000  0.58435000  1.0
  H  H20  1  0.16081000  0.22625000  0.08434000  1.0
  H  H21  1  0.77375000  0.83919000  0.41565000  1.0
  H  H22  1  0.60576000  0.13591000  0.92119000  1.0
  H  H23  1  0.86409000  0.39424000  0.57881000  1.0
  H  H24  1  0.39425000  0.86410000  0.07882000  1.0
  H  H25  1  0.13591000  0.60577000  0.42118000  1.0
  H  H26  1  0.56909000  0.98812000  0.98091000  1.0
  H  H27  1  0.01188000  0.43091000  0.51909000  1.0
  H  H28  1  0.43091000  0.01188000  0.01910000  1.0
  H  H29  1  0.98812000  0.56910000  0.48090000  1.0
  H  H30  1  0.55751000  0.78854000  0.73812000  1.0
  H  H31  1  0.21146000  0.44249000  0.76188000  1.0
  H  H32  1  0.44249000  0.21146000  0.26188000  1.0
  H  H33  1  0.78853000  0.55751000  0.23811000  1.0
  H  H34  1  0.59273000  0.93585000  0.67849000  1.0
  H  H35  1  0.06415000  0.40726000  0.82151000  1.0
  H  H36  1  0.40726000  0.06415000  0.32151000  1.0
  H  H37  1  0.93584000  0.59274000  0.17848000  1.0
  H  H38  1  0.33390000  0.60932000  0.04017000  1.0
  H  H39  1  0.39067000  0.66610000  0.45984000  1.0
  H  H40  1  0.66610000  0.39068000  0.95984000  1.0
  H  H41  1  0.60932000  0.33390000  0.54016000  1.0
  H  H42  1  0.50372000  0.69665000  0.01259000  1.0
  H  H43  1  0.30334000  0.49628000  0.48741000  1.0
  H  H44  1  0.49628000  0.30335000  0.98741000  1.0
  H  H45  1  0.69666000  0.50372000  0.51259000  1.0
  H  H46  1  0.35696000  0.80570000  0.83048000  1.0
  H  H47  1  0.19430000  0.64304000  0.66953000  1.0
  H  H48  1  0.64304000  0.19430000  0.16953000  1.0
  H  H49  1  0.80570000  0.35696000  0.33047000  1.0
  H  H50  1  0.19010000  0.72483000  0.86436000  1.0
  H  H51  1  0.27517000  0.80990000  0.63565000  1.0
  H  H52  1  0.80990000  0.27516000  0.13565000  1.0
  H  H53  1  0.72484000  0.19010000  0.36435000  1.0
  C  C54  1  0.74971000  0.55528000  0.86938000  1.0
  C  C55  1  0.44473000  0.25030000  0.63062000  1.0
  C  C56  1  0.25029000  0.44472000  0.13062000  1.0
  C  C57  1  0.55528000  0.74971000  0.36938000  1.0
  C  C58  1  0.69534000  0.61884000  0.87584000  1.0
  C  C59  1  0.38116000  0.30466000  0.62416000  1.0
  C  C60  1  0.30466000  0.38116000  0.12416000  1.0
  C  C61  1  0.61884000  0.69534000  0.37584000  1.0
  C  C62  1  0.58351000  0.56475000  0.85628000  1.0
  C  C63  1  0.43525000  0.41649000  0.64373000  1.0
  C  C64  1  0.41649000  0.43525000  0.14372000  1.0
  C  C65  1  0.56475000  0.58351000  0.35628000  1.0
  C  C66  1  0.52981000  0.62118000  0.86128000  1.0
  C  C67  1  0.37881000  0.47020000  0.63872000  1.0
  C  C68  1  0.47019000  0.37882000  0.13872000  1.0
  C  C69  1  0.62119000  0.52981000  0.36128000  1.0
  C  C70  1  0.58705000  0.73438000  0.88732000  1.0
  C  C71  1  0.26562000  0.41295000  0.61268000  1.0
  C  C72  1  0.41295000  0.26562000  0.11268000  1.0
  C  C73  1  0.73438000  0.58705000  0.38732000  1.0
  C  C74  1  0.69908000  0.78899000  0.90601000  1.0
  C  C75  1  0.21101000  0.30092000  0.59399000  1.0
  C  C76  1  0.30092000  0.21101000  0.09399000  1.0
  C  C77  1  0.78899000  0.69908000  0.40601000  1.0
  C  C78  1  0.75232000  0.73166000  0.90033000  1.0
  C  C79  1  0.26834000  0.24768000  0.59968000  1.0
  C  C80  1  0.24768000  0.26834000  0.09967000  1.0
  C  C81  1  0.73166000  0.75232000  0.40033000  1.0
  C  C82  1  0.61518000  0.12902000  0.75739000  1.0
  C  C83  1  0.87099000  0.38482000  0.74261000  1.0
  C  C84  1  0.38482000  0.87098000  0.24261000  1.0
  C  C85  1  0.12902000  0.61518000  0.25738000  1.0
  C  C86  1  0.60013000  0.04436000  0.79574000  1.0
  C  C87  1  0.95564000  0.39987000  0.70426000  1.0
  C  C88  1  0.39987000  0.95564000  0.20426000  1.0
  C  C89  1  0.04436000  0.60014000  0.29573000  1.0
  C  C90  1  0.59431000  0.05934000  0.88139000  1.0
  C  C91  1  0.94066000  0.40569000  0.61861000  1.0
  C  C92  1  0.40570000  0.94066000  0.11862000  1.0
  C  C93  1  0.05934000  0.59431000  0.38138000  1.0
  C  C94  1  0.57397000  0.97709000  0.91456000  1.0
  C  C95  1  0.02291000  0.42603000  0.58544000  1.0
  C  C96  1  0.42603000  0.02291000  0.08544000  1.0
  C  C97  1  0.97709000  0.57397000  0.41455000  1.0
  C  C98  1  0.55976000  0.87890000  0.86265000  1.0
  C  C99  1  0.12109000  0.44023000  0.63735000  1.0
  C  C100  1  0.44023000  0.12109000  0.13735000  1.0
  C  C101  1  0.87890000  0.55977000  0.36264000  1.0
  C  C102  1  0.56875000  0.86497000  0.77822000  1.0
  C  C103  1  0.13503000  0.43125000  0.72179000  1.0
  C  C104  1  0.43125000  0.13503000  0.22179000  1.0
  C  C105  1  0.86497000  0.56875000  0.27821000  1.0
  C  C106  1  0.58830000  0.94700000  0.74493000  1.0
  C  C107  1  0.05300000  0.41170000  0.75507000  1.0
  C  C108  1  0.41169000  0.05300000  0.25507000  1.0
  C  C109  1  0.94700000  0.58831000  0.24493000  1.0
  C  C110  1  0.14800000  0.60192000  0.96589000  1.0
  C  C111  1  0.39808000  0.85200000  0.53412000  1.0
  C  C112  1  0.85200000  0.39808000  0.03412000  1.0
  C  C113  1  0.60192000  0.14800000  0.46588000  1.0
  C  C114  1  0.25026000  0.65916000  0.95208000  1.0
  C  C115  1  0.34084000  0.74974000  0.54792000  1.0
  C  C116  1  0.74974000  0.34084000  0.04792000  1.0
  C  C117  1  0.65916000  0.25025000  0.45207000  1.0
  C  C118  1  0.33943000  0.65192000  0.99397000  1.0
  C  C119  1  0.34807000  0.66057000  0.50604000  1.0
  C  C120  1  0.66057000  0.34808000  0.00604000  1.0
  C  C121  1  0.65192000  0.33943000  0.49396000  1.0
  C  C122  1  0.43426000  0.70098000  0.97865000  1.0
  C  C123  1  0.29902000  0.56574000  0.52135000  1.0
  C  C124  1  0.56574000  0.29902000  0.02135000  1.0
  C  C125  1  0.70098000  0.43426000  0.47864000  1.0
  C  C126  1  0.44070000  0.75392000  0.91725000  1.0
  C  C127  1  0.24608000  0.55930000  0.58275000  1.0
  C  C128  1  0.55930000  0.24608000  0.08275000  1.0
  C  C129  1  0.75392000  0.44070000  0.41725000  1.0
  C  C130  1  0.35255000  0.76420000  0.87751000  1.0
  C  C131  1  0.23580000  0.64745000  0.62250000  1.0
  C  C132  1  0.64745000  0.23580000  0.12250000  1.0
  C  C133  1  0.76420000  0.35254000  0.37750000  1.0
  C  C134  1  0.25909000  0.71837000  0.89588000  1.0
  C  C135  1  0.28163000  0.74091000  0.60412000  1.0
  C  C136  1  0.74091000  0.28163000  0.10412000  1.0
  C  C137  1  0.71837000  0.25909000  0.39588000  1.0
  N  N138  1  0.53294000  0.79254000  0.89431000  1.0
  N  N139  1  0.20746000  0.46706000  0.60569000  1.0
  N  N140  1  0.46706000  0.20746000  0.10569000  1.0
  N  N141  1  0.79254000  0.53294000  0.39430000  1.0
  O  O142  1  0.69002000  0.45259000  0.84365000  1.0
  O  O143  1  0.54741000  0.30998000  0.65635000  1.0
  O  O144  1  0.30998000  0.54741000  0.15635000  1.0
  O  O145  1  0.45260000  0.69002000  0.34365000  1.0
  O  O146  1  0.85257000  0.60586000  0.89109000  1.0
  O  O147  1  0.39414000  0.14744000  0.60891000  1.0
  O  O148  1  0.14743000  0.39414000  0.10891000  1.0
  O  O149  1  0.60586000  0.85257000  0.39110000  1.0
  O  O150  1  0.64139000  0.22256000  0.80934000  1.0
  O  O151  1  0.77744000  0.35861000  0.69066000  1.0
  O  O152  1  0.35861000  0.77744000  0.19066000  1.0
  O  O153  1  0.22256000  0.64139000  0.30934000  1.0
  O  O154  1  0.60166000  0.10607000  0.67391000  1.0
  O  O155  1  0.89393000  0.39834000  0.82609000  1.0
  O  O156  1  0.39834000  0.89393000  0.32609000  1.0
  O  O157  1  0.10608000  0.60166000  0.17391000  1.0
  O  O158  1  0.13412000  0.52344000  0.99198000  1.0
  O  O159  1  0.47656000  0.86588000  0.50802000  1.0
  O  O160  1  0.86588000  0.47656000  0.00802000  1.0
  O  O161  1  0.52344000  0.13412000  0.49198000  1.0
  O  O162  1  0.07855000  0.63104000  0.94786000  1.0
  O  O163  1  0.36896000  0.92146000  0.55215000  1.0
  O  O164  1  0.92146000  0.36896000  0.05215000  1.0
  O  O165  1  0.63104000  0.07854000  0.44785000  1.0
