# generated using pymatgen
data_KH4C6SNO5
_symmetry_space_group_name_H-M   'P 1'
_cell_length_a   7.21084000
_cell_length_b   7.97575000
_cell_length_c   15.12420000
_cell_angle_alpha   89.99980000
_cell_angle_beta   80.01980000
_cell_angle_gamma   89.99990000
_symmetry_Int_Tables_number   1
_chemical_formula_structural   KH4C6SNO5
_chemical_formula_sum   'K4 H16 C24 S4 N4 O20'
_cell_volume   856.65844222
_cell_formula_units_Z   4
loop_
 _symmetry_equiv_pos_site_id
 _symmetry_equiv_pos_as_xyz
  1  'x, y, z'
loop_
 _atom_site_type_symbol
 _atom_site_label
 _atom_site_symmetry_multiplicity
 _atom_site_fract_x
 _atom_site_fract_y
 _atom_site_fract_z
 _atom_site_occupancy
  K  K0  1  0.14992000  0.65652000  0.43748000  1.0
  K  K1  1  0.35009000  0.15653000  0.56252000  1.0
  K  K2  1  0.85009000  0.34347000  0.56252000  1.0
  K  K3  1  0.64991000  0.84347000  0.43748000  1.0
  H  H4  1  0.33263000  0.97230000  0.04285000  1.0
  H  H5  1  0.16737000  0.47231000  0.95715000  1.0
  H  H6  1  0.66738000  0.02770000  0.95715000  1.0
  H  H7  1  0.83263000  0.52770000  0.04285000  1.0
  H  H8  1  0.40675000  0.27389000  0.01181000  1.0
  H  H9  1  0.09325000  0.77389000  0.98819000  1.0
  H  H10  1  0.59325000  0.72611000  0.98819000  1.0
  H  H11  1  0.90675000  0.22611000  0.01180000  1.0
  H  H12  1  0.36974000  0.47689000  0.14068000  1.0
  H  H13  1  0.13026000  0.97689000  0.85932000  1.0
  H  H14  1  0.63026000  0.52311000  0.85932000  1.0
  H  H15  1  0.86974000  0.02312000  0.14068000  1.0
  H  H16  1  0.27300000  0.37416000  0.29602000  1.0
  H  H17  1  0.22700000  0.87416000  0.70399000  1.0
  H  H18  1  0.72700000  0.62584000  0.70399000  1.0
  H  H19  1  0.77301000  0.12584000  0.29601000  1.0
  C  C20  1  0.26729000  0.00647000  0.18551000  1.0
  C  C21  1  0.23271000  0.50647000  0.81449000  1.0
  C  C22  1  0.73271000  0.99353000  0.81449000  1.0
  C  C23  1  0.76729000  0.49353000  0.18551000  1.0
  C  C24  1  0.32247000  0.06260000  0.09738000  1.0
  C  C25  1  0.17753000  0.56261000  0.90262000  1.0
  C  C26  1  0.67753000  0.93740000  0.90262000  1.0
  C  C27  1  0.82247000  0.43740000  0.09738000  1.0
  C  C28  1  0.36327000  0.23121000  0.08068000  1.0
  C  C29  1  0.13673000  0.73122000  0.91932000  1.0
  C  C30  1  0.63673000  0.76878000  0.91932000  1.0
  C  C31  1  0.86327000  0.26879000  0.08068000  1.0
  C  C32  1  0.34397000  0.34353000  0.15242000  1.0
  C  C33  1  0.15603000  0.84353000  0.84758000  1.0
  C  C34  1  0.65603000  0.65647000  0.84759000  1.0
  C  C35  1  0.84398000  0.15648000  0.15241000  1.0
  C  C36  1  0.28871000  0.28654000  0.24020000  1.0
  C  C37  1  0.21129000  0.78655000  0.75980000  1.0
  C  C38  1  0.71129000  0.71345000  0.75980000  1.0
  C  C39  1  0.78871000  0.21346000  0.24020000  1.0
  C  C40  1  0.25131000  0.11712000  0.25896000  1.0
  C  C41  1  0.24870000  0.61712000  0.74104000  1.0
  C  C42  1  0.74870000  0.88288000  0.74104000  1.0
  C  C43  1  0.75131000  0.38288000  0.25896000  1.0
  S  S44  1  0.16615000  0.06441000  0.37528000  1.0
  S  S45  1  0.33385000  0.56441000  0.62472000  1.0
  S  S46  1  0.83385000  0.93559000  0.62471000  1.0
  S  S47  1  0.66615000  0.43559000  0.37529000  1.0
  N  N48  1  0.22600000  0.82664000  0.19486000  1.0
  N  N49  1  0.27399000  0.32664000  0.80514000  1.0
  N  N50  1  0.77400000  0.17336000  0.80514000  1.0
  N  N51  1  0.72600000  0.67336000  0.19486000  1.0
  O  O52  1  0.15363000  0.75910000  0.13474000  1.0
  O  O53  1  0.34637000  0.25910000  0.86526000  1.0
  O  O54  1  0.84637000  0.24090000  0.86526000  1.0
  O  O55  1  0.65363000  0.74090000  0.13474000  1.0
  O  O56  1  0.26904000  0.74998000  0.25932000  1.0
  O  O57  1  0.23095000  0.24998000  0.74068000  1.0
  O  O58  1  0.73095000  0.25002000  0.74068000  1.0
  O  O59  1  0.76904000  0.75002000  0.25932000  1.0
  O  O60  1  0.99988000  0.95925000  0.37405000  1.0
  O  O61  1  0.50012000  0.45925000  0.62595000  1.0
  O  O62  1  0.00012000  0.04075000  0.62595000  1.0
  O  O63  1  0.49988000  0.54075000  0.37405000  1.0
  O  O64  1  0.31918000  0.97385000  0.40770000  1.0
  O  O65  1  0.18082000  0.47385000  0.59231000  1.0
  O  O66  1  0.68082000  0.02615000  0.59230000  1.0
  O  O67  1  0.81918000  0.52615000  0.40769000  1.0
  O  O68  1  0.12488000  0.22568000  0.42055000  1.0
  O  O69  1  0.37512000  0.72569000  0.57945000  1.0
  O  O70  1  0.87512000  0.77431000  0.57945000  1.0
  O  O71  1  0.62488000  0.27431000  0.42055000  1.0
