# generated using pymatgen
data_Zn2H24C34N2O17
_symmetry_space_group_name_H-M   'P 1'
_cell_length_a   9.88239000
_cell_length_b   10.88140000
_cell_length_c   15.98650000
_cell_angle_alpha   91.97250000
_cell_angle_beta   93.54590000
_cell_angle_gamma   91.80870000
_symmetry_Int_Tables_number   1
_chemical_formula_structural   Zn2H24C34N2O17
_chemical_formula_sum   'Zn2 H24 C34 N2 O17'
_cell_volume   1713.80993154
_cell_formula_units_Z   1
loop_
 _symmetry_equiv_pos_site_id
 _symmetry_equiv_pos_as_xyz
  1  'x, y, z'
loop_
 _atom_site_type_symbol
 _atom_site_label
 _atom_site_symmetry_multiplicity
 _atom_site_fract_x
 _atom_site_fract_y
 _atom_site_fract_z
 _atom_site_occupancy
  Zn  Zn0  1  0.35870000  0.49538000  0.50216000  1.0
  Zn  Zn1  1  0.65929000  0.50793000  0.49668000  1.0
  H  H2  1  0.42374000  0.31016000  0.90558000  1.0
  H  H3  1  0.23669000  0.90554000  0.73959000  1.0
  H  H4  1  0.35576000  0.78488000  0.63626000  1.0
  H  H5  1  0.69053000  0.79350000  0.43275000  1.0
  H  H6  1  0.95204000  0.66021000  0.64815000  1.0
  H  H7  1  0.79712000  0.31623000  0.19721000  1.0
  H  H8  1  0.05458000  0.18629000  0.21454000  1.0
  H  H9  1  0.23968000  0.30444000  0.40028000  1.0
  H  H10  1  0.24328000  0.56003000  0.64199000  1.0
  H  H11  1  0.69337000  0.54596000  0.09461000  1.0
  H  H12  1  0.65998000  0.28756000  0.07163000  1.0
  H  H13  1  0.54242000  0.69379000  0.95159000  1.0
  H  H14  1  0.67737000  0.37410000  0.94591000  1.0
  H  H15  1  0.72756000  0.53135000  0.95186000  1.0
  H  H16  1  0.28000000  0.70728000  0.05890000  1.0
  H  H17  1  0.50980000  0.69916000  0.15688000  1.0
  H  H18  1  0.37022000  0.64616000  0.92640000  1.0
  H  H19  1  0.68425000  0.11538000  0.43118000  1.0
  H  H20  1  0.45479000  0.28962000  0.05019000  1.0
  H  H21  1  0.75547000  0.41198000  0.34021000  1.0
  H  H22  1  0.26099000  0.36990000  0.11650000  1.0
  H  H23  1  0.30183000  0.42466000  0.91786000  1.0
  H  H24  1  0.38225000  0.24215000  0.63775000  1.0
  H  H25  1  0.24874000  0.13594000  0.74088000  1.0
  C  C26  1  0.53598000  0.27119000  0.51316000  1.0
  C  C27  1  0.30207000  0.08266000  0.69498000  1.0
  C  C28  1  0.29528000  0.95299000  0.69401000  1.0
  C  C29  1  0.46323000  0.48976000  0.33915000  1.0
  C  C30  1  0.36252000  0.88466000  0.63619000  1.0
  C  C31  1  0.44198000  0.94226000  0.57654000  1.0
  C  C32  1  0.44832000  0.07452000  0.57781000  1.0
  C  C33  1  0.53337000  0.13461000  0.52124000  1.0
  C  C34  1  0.61559000  0.06863000  0.47145000  1.0
  C  C35  1  0.61234000  0.93864000  0.47072000  1.0
  C  C36  1  0.52092000  0.87432000  0.51902000  1.0
  C  C37  1  0.40269000  0.39559000  0.94031000  1.0
  C  C38  1  0.86161000  0.39040000  0.35272000  1.0
  C  C39  1  0.92696000  0.31679000  0.29696000  1.0
  C  C40  1  0.06356000  0.28297000  0.31538000  1.0
  C  C41  1  0.51007000  0.73884000  0.50778000  1.0
  C  C42  1  0.13546000  0.33027000  0.38660000  1.0
  C  C43  1  0.07369000  0.41288000  0.44081000  1.0
  C  C44  1  0.93323000  0.43860000  0.42630000  1.0
  C  C45  1  0.94438000  0.56088000  0.54865000  1.0
  C  C46  1  0.08641000  0.53902000  0.56167000  1.0
  C  C47  1  0.50501000  0.51488000  0.66741000  1.0
  C  C48  1  0.51049000  0.49688000  0.92318000  1.0
  C  C49  1  0.40079000  0.37462000  0.03482000  1.0
  C  C50  1  0.63593000  0.46715000  0.06423000  1.0
  C  C51  1  0.64772000  0.46562000  0.96827000  1.0
  C  C52  1  0.51795000  0.51467000  0.75778000  1.0
  C  C53  1  0.48361000  0.48134000  0.08407000  1.0
  C  C54  1  0.46517000  0.62129000  0.95993000  1.0
  C  C55  1  0.44152000  0.61154000  0.05394000  1.0
  C  C56  1  0.52001000  0.50648000  0.83345000  1.0
  C  C57  1  0.46876000  0.47746000  0.17320000  1.0
  C  C58  1  0.45803000  0.48285000  0.24848000  1.0
  C  C59  1  0.37678000  0.14199000  0.63739000  1.0
  N  N60  1  0.87047000  0.51140000  0.48401000  1.0
  N  N61  1  0.14885000  0.46994000  0.50770000  1.0
  O  O62  1  0.42150000  0.32049000  0.50018000  1.0
  O  O63  1  0.69786000  0.88321000  0.42001000  1.0
  O  O64  1  0.88386000  0.63365000  0.60354000  1.0
  O  O65  1  0.87081000  0.26764000  0.22255000  1.0
  O  O66  1  0.12283000  0.20632000  0.26052000  1.0
  O  O67  1  0.14790000  0.59229000  0.63101000  1.0
  O  O68  1  0.69479000  0.36198000  0.10234000  1.0
  O  O69  1  0.30374000  0.62333000  0.07169000  1.0
  O  O70  1  0.52331000  0.70637000  0.09702000  1.0
  O  O71  1  0.65154000  0.32659000  0.51772000  1.0
  O  O72  1  0.35579000  0.51479000  0.37480000  1.0
  O  O73  1  0.57867000  0.46959000  0.37463000  1.0
  O  O74  1  0.40129000  0.68043000  0.52179000  1.0
  O  O75  1  0.61604000  0.68552000  0.48084000  1.0
  O  O76  1  0.38247000  0.49663000  0.63484000  1.0
  O  O77  1  0.60942000  0.52910000  0.62723000  1.0
  O  O78  1  0.26416000  0.35907000  0.05572000  1.0
