# generated using pymatgen
data_CdH13C19N3O5
_symmetry_space_group_name_H-M   'P 1'
_cell_length_a   7.97727000
_cell_length_b   8.73885000
_cell_length_c   13.38850000
_cell_angle_alpha   100.34600000
_cell_angle_beta   106.22400000
_cell_angle_gamma   104.40300000
_symmetry_Int_Tables_number   1
_chemical_formula_structural   CdH13C19N3O5
_chemical_formula_sum   'Cd2 H26 C38 N6 O10'
_cell_volume   836.29265843
_cell_formula_units_Z   2
loop_
 _symmetry_equiv_pos_site_id
 _symmetry_equiv_pos_as_xyz
  1  'x, y, z'
loop_
 _atom_site_type_symbol
 _atom_site_label
 _atom_site_symmetry_multiplicity
 _atom_site_fract_x
 _atom_site_fract_y
 _atom_site_fract_z
 _atom_site_occupancy
  Cd  Cd0  1  0.55160000  0.85088000  0.81286000  1.0
  Cd  Cd1  1  0.44840000  0.14912000  0.18715000  1.0
  H  H2  1  0.49108000  0.82886000  0.01351000  1.0
  H  H3  1  0.50892000  0.17113000  0.98649000  1.0
  H  H4  1  0.30051000  0.77374000  0.91743000  1.0
  H  H5  1  0.69949000  0.22626000  0.08257000  1.0
  H  H6  1  0.29483000  0.34191000  0.87422000  1.0
  H  H7  1  0.70516000  0.65809000  0.12578000  1.0
  H  H8  1  0.05402000  0.45857000  0.91293000  1.0
  H  H9  1  0.94598000  0.54143000  0.08707000  1.0
  H  H10  1  0.75462000  0.26020000  0.90122000  1.0
  H  H11  1  0.24537000  0.73980000  0.09878000  1.0
  H  H12  1  0.79084000  0.06070000  0.67273000  1.0
  H  H13  1  0.20915000  0.93931000  0.32727000  1.0
  H  H14  1  0.79591000  0.03604000  0.48314000  1.0
  H  H15  1  0.20408000  0.96395000  0.51686000  1.0
  H  H16  1  0.56681000  0.80124000  0.33520000  1.0
  H  H17  1  0.43319000  0.19876000  0.66480000  1.0
  H  H18  1  0.98903000  0.22489000  0.46267000  1.0
  H  H19  1  0.01098000  0.77511000  0.53733000  1.0
  H  H20  1  0.00324000  0.27074000  0.65858000  1.0
  H  H21  1  0.99677000  0.72926000  0.34142000  1.0
  H  H22  1  0.22381000  0.53069000  0.79230000  1.0
  H  H23  1  0.77619000  0.46932000  0.20770000  1.0
  H  H24  1  0.30635000  0.53367000  0.27721000  1.0
  H  H25  1  0.69365000  0.46633000  0.72279000  1.0
  H  H26  1  0.09645000  0.32596000  0.32736000  1.0
  H  H27  1  0.90356000  0.67403000  0.67264000  1.0
  C  C28  1  0.97350000  0.99407000  0.86069000  1.0
  C  C29  1  0.02650000  0.00593000  0.13931000  1.0
  C  C30  1  0.13323000  0.09225000  0.85026000  1.0
  C  C31  1  0.86677000  0.90775000  0.14974000  1.0
  C  C32  1  0.16631000  0.26200000  0.87474000  1.0
  C  C33  1  0.83369000  0.73800000  0.12526000  1.0
  C  C34  1  0.03373000  0.32717000  0.89656000  1.0
  C  C35  1  0.96627000  0.67282000  0.10344000  1.0
  C  C36  1  0.86894000  0.21881000  0.89194000  1.0
  C  C37  1  0.13106000  0.78119000  0.10806000  1.0
  C  C38  1  0.94096000  0.81335000  0.85840000  1.0
  C  C39  1  0.05904000  0.18665000  0.14160000  1.0
  C  C40  1  0.25420000  0.02084000  0.80019000  1.0
  C  C41  1  0.74580000  0.97916000  0.19981000  1.0
  C  C42  1  0.69246000  0.95805000  0.60593000  1.0
  C  C43  1  0.30753000  0.04195000  0.39406000  1.0
  C  C44  1  0.69578000  0.94473000  0.50040000  1.0
  C  C45  1  0.30421000  0.05528000  0.49959000  1.0
  C  C46  1  0.56801000  0.81383000  0.41799000  1.0
  C  C47  1  0.43198000  0.18617000  0.58201000  1.0
  C  C48  1  0.44030000  0.69457000  0.44158000  1.0
  C  C49  1  0.55970000  0.30543000  0.55842000  1.0
  C  C50  1  0.44836000  0.71839000  0.55130000  1.0
  C  C51  1  0.55164000  0.28161000  0.44870000  1.0
  C  C52  1  0.32381000  0.59606000  0.57900000  1.0
  C  C53  1  0.67619000  0.40394000  0.42100000  1.0
  C  C54  1  0.20038000  0.45405000  0.49681000  1.0
  C  C55  1  0.79963000  0.54594000  0.50320000  1.0
  C  C56  1  0.08335000  0.33389000  0.52606000  1.0
  C  C57  1  0.91666000  0.66612000  0.47394000  1.0
  C  C58  1  0.09142000  0.35912000  0.63221000  1.0
  C  C59  1  0.90860000  0.64088000  0.36779000  1.0
  C  C60  1  0.21582000  0.50418000  0.70825000  1.0
  C  C61  1  0.78419000  0.49582000  0.29175000  1.0
  C  C62  1  0.31058000  0.55179000  0.36080000  1.0
  C  C63  1  0.68943000  0.44821000  0.63920000  1.0
  C  C64  1  0.19585000  0.43522000  0.38792000  1.0
  C  C65  1  0.80416000  0.56477000  0.61208000  1.0
  N  N66  1  0.84285000  0.05755000  0.87703000  1.0
  N  N67  1  0.15715000  0.94245000  0.12298000  1.0
  N  N68  1  0.57225000  0.84971000  0.63089000  1.0
  N  N69  1  0.42775000  0.15030000  0.36911000  1.0
  N  N70  1  0.32929000  0.61801000  0.68290000  1.0
  N  N71  1  0.67071000  0.38199000  0.31709000  1.0
  O  O72  1  0.78070000  0.72846000  0.85059000  1.0
  O  O73  1  0.21930000  0.27153000  0.14942000  1.0
  O  O74  1  0.42377000  0.75780000  0.93768000  1.0
  O  O75  1  0.57623000  0.24220000  0.06232000  1.0
  O  O76  1  0.07607000  0.76018000  0.86645000  1.0
  O  O77  1  0.92393000  0.23982000  0.13355000  1.0
  O  O78  1  0.42523000  0.05724000  0.85876000  1.0
  O  O79  1  0.57476000  0.94275000  0.14124000  1.0
  O  O80  1  0.18322000  0.94115000  0.70322000  1.0
  O  O81  1  0.81678000  0.05885000  0.29678000  1.0
