# generated using pymatgen
data_Fe3H15(C3O2)8
_symmetry_space_group_name_H-M   'P 1'
_cell_length_a   19.04090000
_cell_length_b   19.04070000
_cell_length_c   19.04080000
_cell_angle_alpha   90.00000000
_cell_angle_beta   89.99900000
_cell_angle_gamma   89.99780000
_symmetry_Int_Tables_number   1
_chemical_formula_structural   Fe3H15(C3O2)8
_chemical_formula_sum   'Fe24 H120 C192 O128'
_cell_volume   6903.28134607
_cell_formula_units_Z   8
loop_
 _symmetry_equiv_pos_site_id
 _symmetry_equiv_pos_as_xyz
  1  'x, y, z'
loop_
 _atom_site_type_symbol
 _atom_site_label
 _atom_site_symmetry_multiplicity
 _atom_site_fract_x
 _atom_site_fract_y
 _atom_site_fract_z
 _atom_site_occupancy
  Fe  Fe0  1  0.09523000  0.37232000  0.76570000  1.0
  Fe  Fe1  1  0.76568000  0.90479000  0.62768000  1.0
  Fe  Fe2  1  0.62769000  0.23432000  0.09522000  1.0
  Fe  Fe3  1  0.87233000  0.76568000  0.59523000  1.0
  Fe  Fe4  1  0.26565000  0.59523000  0.37233000  1.0
  Fe  Fe5  1  0.37234000  0.73431000  0.40476000  1.0
  Fe  Fe6  1  0.73436000  0.09518000  0.12766000  1.0
  Fe  Fe7  1  0.23432000  0.40478000  0.87235000  1.0
  Fe  Fe8  1  0.12765000  0.26566000  0.90480000  1.0
  Fe  Fe9  1  0.40478000  0.62768000  0.26567000  1.0
  Fe  Fe10  1  0.59523000  0.12765000  0.23429000  1.0
  Fe  Fe11  1  0.90478000  0.87236000  0.73437000  1.0
  Fe  Fe12  1  0.90478000  0.62767000  0.23431000  1.0
  Fe  Fe13  1  0.23431000  0.09521000  0.37231000  1.0
  Fe  Fe14  1  0.37231000  0.76567000  0.90478000  1.0
  Fe  Fe15  1  0.12767000  0.23432000  0.40477000  1.0
  Fe  Fe16  1  0.73436000  0.40477000  0.62767000  1.0
  Fe  Fe17  1  0.62766000  0.26569000  0.59523000  1.0
  Fe  Fe18  1  0.26565000  0.90481000  0.87234000  1.0
  Fe  Fe19  1  0.76568000  0.59521000  0.12765000  1.0
  Fe  Fe20  1  0.87235000  0.73434000  0.09520000  1.0
  Fe  Fe21  1  0.59523000  0.37232000  0.73433000  1.0
  Fe  Fe22  1  0.40477000  0.87235000  0.76570000  1.0
  Fe  Fe23  1  0.09521000  0.12763000  0.26564000  1.0
  H  H24  1  0.08014000  0.39607000  0.64633000  1.0
  H  H25  1  0.64634000  0.91985000  0.60393000  1.0
  H  H26  1  0.60395000  0.35369000  0.08017000  1.0
  H  H27  1  0.89610000  0.64631000  0.58015000  1.0
  H  H28  1  0.14627000  0.58019000  0.39606000  1.0
  H  H29  1  0.39607000  0.85365000  0.41980000  1.0
  H  H30  1  0.85369000  0.08017000  0.10390000  1.0
  H  H31  1  0.35369000  0.41984000  0.89610000  1.0
  H  H32  1  0.10393000  0.14634000  0.91983000  1.0
  H  H33  1  0.41982000  0.60391000  0.14634000  1.0
  H  H34  1  0.58016000  0.10391000  0.35367000  1.0
  H  H35  1  0.91980000  0.89606000  0.85368000  1.0
  H  H36  1  0.91986000  0.60392000  0.35367000  1.0
  H  H37  1  0.35365000  0.08015000  0.39607000  1.0
  H  H38  1  0.39605000  0.64630000  0.91983000  1.0
  H  H39  1  0.10390000  0.35369000  0.41984000  1.0
  H  H40  1  0.85372000  0.41981000  0.60394000  1.0
  H  H41  1  0.60393000  0.14635000  0.58019000  1.0
  H  H42  1  0.14632000  0.91983000  0.89610000  1.0
  H  H43  1  0.64632000  0.58016000  0.10390000  1.0
  H  H44  1  0.89607000  0.85366000  0.08017000  1.0
  H  H45  1  0.58018000  0.39609000  0.85367000  1.0
  H  H46  1  0.41983000  0.89609000  0.64633000  1.0
  H  H47  1  0.08019000  0.10394000  0.14632000  1.0
  H  H48  1  0.88892000  0.37922000  0.78672000  1.0
  H  H49  1  0.78670000  0.11107000  0.62077000  1.0
  H  H50  1  0.62077000  0.21329000  0.88893000  1.0
  H  H51  1  0.87924000  0.78671000  0.38891000  1.0
  H  H52  1  0.28671000  0.38890000  0.37926000  1.0
  H  H53  1  0.37926000  0.71331000  0.61109000  1.0
  H  H54  1  0.71332000  0.88890000  0.12076000  1.0
  H  H55  1  0.21328000  0.61111000  0.87926000  1.0
  H  H56  1  0.12076000  0.28668000  0.11108000  1.0
  H  H57  1  0.61108000  0.62076000  0.28669000  1.0
  H  H58  1  0.38890000  0.12076000  0.21330000  1.0
  H  H59  1  0.11110000  0.87926000  0.71332000  1.0
  H  H60  1  0.11109000  0.62078000  0.21329000  1.0
  H  H61  1  0.21330000  0.88893000  0.37923000  1.0
  H  H62  1  0.37924000  0.78671000  0.11107000  1.0
  H  H63  1  0.12076000  0.21328000  0.61109000  1.0
  H  H64  1  0.71329000  0.61109000  0.62074000  1.0
  H  H65  1  0.62075000  0.28670000  0.38891000  1.0
  H  H66  1  0.28669000  0.11109000  0.87924000  1.0
  H  H67  1  0.78671000  0.38889000  0.12074000  1.0
  H  H68  1  0.87922000  0.71332000  0.88892000  1.0
  H  H69  1  0.38892000  0.37924000  0.71330000  1.0
  H  H70  1  0.61110000  0.87925000  0.78671000  1.0
  H  H71  1  0.88890000  0.12075000  0.28668000  1.0
  H  H72  1  0.91315000  0.26198000  0.97847000  1.0
  H  H73  1  0.97846000  0.08685000  0.73801000  1.0
  H  H74  1  0.73801000  0.02153000  0.91316000  1.0
  H  H75  1  0.76199000  0.97848000  0.41314000  1.0
  H  H76  1  0.47847000  0.41315000  0.26201000  1.0
  H  H77  1  0.26201000  0.52155000  0.58684000  1.0
  H  H78  1  0.52156000  0.91315000  0.23799000  1.0
  H  H79  1  0.02154000  0.58686000  0.76199000  1.0
  H  H80  1  0.23800000  0.47844000  0.08685000  1.0
  H  H81  1  0.58684000  0.73799000  0.47846000  1.0
  H  H82  1  0.41315000  0.23801000  0.02154000  1.0
  H  H83  1  0.08683000  0.76202000  0.52156000  1.0
  H  H84  1  0.08685000  0.73803000  0.02153000  1.0
  H  H85  1  0.02153000  0.91316000  0.26200000  1.0
  H  H86  1  0.26199000  0.97847000  0.08684000  1.0
  H  H87  1  0.23801000  0.02152000  0.58686000  1.0
  H  H88  1  0.52153000  0.58686000  0.73799000  1.0
  H  H89  1  0.73799000  0.47846000  0.41316000  1.0
  H  H90  1  0.47845000  0.08685000  0.76201000  1.0
  H  H91  1  0.97845000  0.41313000  0.23801000  1.0
  H  H92  1  0.76199000  0.52156000  0.91317000  1.0
  H  H93  1  0.41317000  0.26199000  0.52154000  1.0
  H  H94  1  0.58685000  0.76199000  0.97845000  1.0
  H  H95  1  0.91316000  0.23799000  0.47844000  1.0
  H  H96  1  0.78241000  0.25684000  0.99081000  1.0
  H  H97  1  0.99079000  0.21759000  0.74314000  1.0
  H  H98  1  0.74313000  0.00918000  0.78242000  1.0
  H  H99  1  0.75686000  0.99082000  0.28240000  1.0
  H  H100  1  0.49081000  0.28242000  0.25686000  1.0
  H  H101  1  0.25687000  0.50921000  0.71758000  1.0
  H  H102  1  0.50921000  0.78241000  0.24312000  1.0
  H  H103  1  0.00918000  0.71760000  0.75687000  1.0
  H  H104  1  0.24312000  0.49079000  0.21759000  1.0
  H  H105  1  0.71757000  0.74314000  0.49080000  1.0
  H  H106  1  0.28242000  0.24314000  0.00919000  1.0
  H  H107  1  0.21757000  0.75691000  0.50919000  1.0
  H  H108  1  0.21759000  0.74316000  0.00919000  1.0
  H  H109  1  0.00921000  0.78242000  0.25686000  1.0
  H  H110  1  0.25687000  0.99081000  0.21758000  1.0
  H  H111  1  0.24314000  0.00919000  0.71759000  1.0
  H  H112  1  0.50919000  0.71759000  0.74314000  1.0
  H  H113  1  0.74313000  0.49079000  0.28241000  1.0
  H  H114  1  0.49079000  0.21759000  0.75689000  1.0
  H  H115  1  0.99081000  0.28239000  0.24313000  1.0
  H  H116  1  0.75688000  0.50920000  0.78243000  1.0
  H  H117  1  0.28243000  0.25686000  0.50920000  1.0
  H  H118  1  0.71759000  0.75685000  0.99081000  1.0
  H  H119  1  0.78243000  0.24311000  0.49080000  1.0
  H  H120  1  0.70584000  0.31558000  0.90354000  1.0
  H  H121  1  0.90349000  0.29415000  0.68442000  1.0
  H  H122  1  0.68441000  0.09647000  0.70586000  1.0
  H  H123  1  0.81559000  0.90354000  0.20584000  1.0
  H  H124  1  0.40353000  0.20584000  0.31557000  1.0
  H  H125  1  0.31558000  0.59649000  0.79415000  1.0
  H  H126  1  0.59649000  0.70583000  0.18440000  1.0
  H  H127  1  0.09645000  0.79418000  0.81560000  1.0
  H  H128  1  0.18440000  0.40350000  0.29416000  1.0
  H  H129  1  0.79415000  0.68441000  0.40351000  1.0
  H  H130  1  0.20584000  0.18442000  0.09646000  1.0
  H  H131  1  0.29415000  0.81560000  0.59648000  1.0
  H  H132  1  0.29416000  0.68442000  0.09646000  1.0
  H  H133  1  0.09651000  0.70585000  0.31557000  1.0
  H  H134  1  0.31559000  0.90353000  0.29415000  1.0
  H  H135  1  0.18441000  0.09646000  0.79416000  1.0
  H  H136  1  0.59648000  0.79417000  0.68442000  1.0
  H  H137  1  0.68441000  0.40351000  0.20585000  1.0
  H  H138  1  0.40351000  0.29417000  0.81560000  1.0
  H  H139  1  0.90354000  0.20582000  0.18439000  1.0
  H  H140  1  0.81560000  0.59648000  0.70585000  1.0
  H  H141  1  0.20585000  0.31558000  0.59648000  1.0
  H  H142  1  0.79416000  0.81557000  0.90353000  1.0
  H  H143  1  0.70584000  0.18441000  0.40352000  1.0
  C  C144  1  0.98606000  0.32211000  0.87019000  1.0
  C  C145  1  0.87018000  0.01393000  0.67789000  1.0
  C  C146  1  0.67789000  0.12981000  0.98607000  1.0
  C  C147  1  0.82213000  0.87018000  0.48607000  1.0
  C  C148  1  0.37018000  0.48607000  0.32214000  1.0
  C  C149  1  0.32215000  0.62984000  0.51393000  1.0
  C  C150  1  0.62986000  0.98604000  0.17785000  1.0
  C  C151  1  0.12982000  0.51394000  0.82215000  1.0
  C  C152  1  0.17786000  0.37015000  0.01394000  1.0
  C  C153  1  0.51394000  0.67788000  0.37017000  1.0
  C  C154  1  0.48606000  0.17787000  0.12983000  1.0
  C  C155  1  0.01394000  0.82216000  0.62986000  1.0
  C  C156  1  0.01394000  0.67790000  0.12982000  1.0
  C  C157  1  0.12982000  0.98606000  0.32212000  1.0
  C  C158  1  0.32212000  0.87018000  0.01393000  1.0
  C  C159  1  0.17787000  0.12981000  0.51393000  1.0
  C  C160  1  0.62982000  0.51393000  0.67787000  1.0
  C  C161  1  0.67786000  0.37017000  0.48607000  1.0
  C  C162  1  0.37016000  0.01395000  0.82215000  1.0
  C  C163  1  0.87018000  0.48605000  0.17785000  1.0
  C  C164  1  0.82213000  0.62985000  0.98606000  1.0
  C  C165  1  0.48606000  0.32213000  0.62983000  1.0
  C  C166  1  0.51393000  0.82213000  0.87017000  1.0
  C  C167  1  0.98606000  0.17785000  0.37015000  1.0
  C  C168  1  0.74766000  0.37940000  0.78229000  1.0
  C  C169  1  0.78224000  0.25231000  0.62061000  1.0
  C  C170  1  0.62058000  0.21770000  0.74768000  1.0
  C  C171  1  0.87942000  0.78230000  0.24765000  1.0
  C  C172  1  0.28230000  0.24764000  0.37941000  1.0
  C  C173  1  0.37940000  0.71774000  0.75233000  1.0
  C  C174  1  0.71775000  0.74766000  0.12059000  1.0
  C  C175  1  0.21769000  0.75236000  0.87943000  1.0
  C  C176  1  0.12060000  0.28223000  0.25232000  1.0
  C  C177  1  0.75234000  0.62060000  0.28226000  1.0
  C  C178  1  0.24766000  0.12057000  0.21771000  1.0
  C  C179  1  0.25233000  0.87941000  0.71775000  1.0
  C  C180  1  0.25234000  0.62060000  0.21770000  1.0
  C  C181  1  0.21776000  0.74769000  0.37938000  1.0
  C  C182  1  0.37942000  0.78230000  0.25233000  1.0
  C  C183  1  0.12057000  0.21769000  0.75235000  1.0
  C  C184  1  0.71770000  0.75236000  0.62058000  1.0
  C  C185  1  0.62060000  0.28227000  0.24767000  1.0
  C  C186  1  0.28224000  0.25233000  0.87941000  1.0
  C  C187  1  0.78231000  0.24764000  0.12056000  1.0
  C  C188  1  0.87939000  0.71776000  0.74768000  1.0
  C  C189  1  0.24767000  0.37939000  0.71773000  1.0
  C  C190  1  0.75234000  0.87943000  0.78229000  1.0
  C  C191  1  0.74767000  0.12060000  0.28225000  1.0
  C  C192  1  0.86558000  0.35359000  0.83216000  1.0
  C  C193  1  0.83213000  0.13441000  0.64640000  1.0
  C  C194  1  0.64639000  0.16785000  0.86560000  1.0
  C  C195  1  0.85361000  0.83216000  0.36557000  1.0
  C  C196  1  0.33215000  0.36558000  0.35363000  1.0
  C  C197  1  0.35363000  0.66786000  0.63441000  1.0
  C  C198  1  0.66788000  0.86557000  0.14638000  1.0
  C  C199  1  0.16784000  0.63444000  0.85364000  1.0
  C  C200  1  0.14639000  0.33212000  0.13442000  1.0
  C  C201  1  0.63441000  0.64639000  0.33213000  1.0
  C  C202  1  0.36558000  0.14639000  0.16785000  1.0
  C  C203  1  0.13442000  0.85363000  0.66788000  1.0
  C  C204  1  0.13442000  0.64641000  0.16785000  1.0
  C  C205  1  0.16787000  0.86560000  0.35360000  1.0
  C  C206  1  0.35362000  0.83215000  0.13440000  1.0
  C  C207  1  0.14638000  0.16784000  0.63443000  1.0
  C  C208  1  0.66784000  0.63442000  0.64637000  1.0
  C  C209  1  0.64637000  0.33214000  0.36558000  1.0
  C  C210  1  0.33213000  0.13442000  0.85362000  1.0
  C  C211  1  0.83216000  0.36556000  0.14636000  1.0
  C  C212  1  0.85359000  0.66788000  0.86559000  1.0
  C  C213  1  0.36559000  0.35362000  0.66786000  1.0
  C  C214  1  0.63442000  0.85362000  0.83215000  1.0
  C  C215  1  0.86558000  0.14638000  0.33212000  1.0
  C  C216  1  0.79264000  0.35128000  0.83976000  1.0
  C  C217  1  0.83971000  0.20735000  0.64872000  1.0
  C  C218  1  0.64871000  0.16025000  0.79266000  1.0
  C  C219  1  0.85130000  0.83976000  0.29263000  1.0
  C  C220  1  0.33977000  0.29263000  0.35131000  1.0
  C  C221  1  0.35130000  0.66027000  0.70736000  1.0
  C  C222  1  0.66028000  0.79263000  0.14869000  1.0
  C  C223  1  0.16022000  0.70738000  0.85132000  1.0
  C  C224  1  0.14871000  0.33971000  0.20736000  1.0
  C  C225  1  0.70736000  0.64870000  0.33973000  1.0
  C  C226  1  0.29264000  0.14871000  0.16025000  1.0
  C  C227  1  0.20736000  0.85130000  0.66027000  1.0
  C  C228  1  0.20737000  0.64872000  0.16024000  1.0
  C  C229  1  0.16029000  0.79265000  0.35127000  1.0
  C  C230  1  0.35130000  0.83976000  0.20734000  1.0
  C  C231  1  0.14869000  0.16023000  0.70736000  1.0
  C  C232  1  0.66024000  0.70737000  0.64869000  1.0
  C  C233  1  0.64870000  0.33974000  0.29264000  1.0
  C  C234  1  0.33973000  0.20737000  0.85131000  1.0
  C  C235  1  0.83977000  0.29262000  0.14868000  1.0
  C  C236  1  0.85128000  0.66028000  0.79264000  1.0
  C  C237  1  0.29265000  0.35130000  0.66025000  1.0
  C  C238  1  0.70737000  0.85130000  0.83975000  1.0
  C  C239  1  0.79264000  0.14871000  0.33973000  1.0
  C  C240  1  0.90888000  0.32227000  0.88251000  1.0
  C  C241  1  0.88250000  0.09111000  0.67771000  1.0
  C  C242  1  0.67772000  0.11749000  0.90889000  1.0
  C  C243  1  0.82230000  0.88252000  0.40888000  1.0
  C  C244  1  0.38251000  0.40888000  0.32231000  1.0
  C  C245  1  0.32232000  0.61750000  0.59111000  1.0
  C  C246  1  0.61752000  0.90887000  0.17770000  1.0
  C  C247  1  0.11749000  0.59113000  0.82231000  1.0
  C  C248  1  0.17770000  0.38248000  0.09112000  1.0
  C  C249  1  0.59111000  0.67770000  0.38250000  1.0
  C  C250  1  0.40888000  0.17770000  0.11749000  1.0
  C  C251  1  0.09111000  0.82232000  0.61753000  1.0
  C  C252  1  0.09112000  0.67773000  0.11749000  1.0
  C  C253  1  0.11750000  0.90889000  0.32229000  1.0
  C  C254  1  0.32229000  0.88250000  0.09111000  1.0
  C  C255  1  0.17769000  0.11748000  0.59112000  1.0
  C  C256  1  0.61749000  0.59111000  0.67770000  1.0
  C  C257  1  0.67769000  0.38250000  0.40889000  1.0
  C  C258  1  0.38249000  0.09113000  0.82231000  1.0
  C  C259  1  0.88250000  0.40887000  0.17769000  1.0
  C  C260  1  0.82228000  0.61752000  0.90889000  1.0
  C  C261  1  0.40889000  0.32229000  0.61750000  1.0
  C  C262  1  0.59112000  0.82229000  0.88251000  1.0
  C  C263  1  0.90888000  0.17770000  0.38247000  1.0
  C  C264  1  0.87899000  0.28773000  0.94043000  1.0
  C  C265  1  0.94040000  0.12101000  0.71224000  1.0
  C  C266  1  0.71224000  0.05958000  0.87901000  1.0
  C  C267  1  0.78775000  0.94042000  0.37899000  1.0
  C  C268  1  0.44042000  0.37900000  0.28777000  1.0
  C  C269  1  0.28778000  0.55960000  0.62099000  1.0
  C  C270  1  0.55961000  0.87900000  0.21222000  1.0
  C  C271  1  0.05959000  0.62102000  0.78777000  1.0
  C  C272  1  0.21223000  0.44039000  0.12100000  1.0
  C  C273  1  0.62099000  0.71223000  0.44041000  1.0
  C  C274  1  0.37900000  0.21225000  0.05959000  1.0
  C  C275  1  0.12099000  0.78779000  0.55961000  1.0
  C  C276  1  0.12101000  0.71227000  0.05958000  1.0
  C  C277  1  0.05959000  0.87900000  0.28776000  1.0
  C  C278  1  0.28776000  0.94042000  0.12099000  1.0
  C  C279  1  0.21224000  0.05957000  0.62101000  1.0
  C  C280  1  0.55958000  0.62100000  0.71223000  1.0
  C  C281  1  0.71222000  0.44040000  0.37900000  1.0
  C  C282  1  0.44041000  0.12101000  0.78778000  1.0
  C  C283  1  0.94041000  0.37898000  0.21223000  1.0
  C  C284  1  0.78775000  0.55961000  0.87901000  1.0
  C  C285  1  0.37902000  0.28776000  0.55959000  1.0
  C  C286  1  0.62100000  0.78776000  0.94041000  1.0
  C  C287  1  0.87900000  0.21222000  0.44039000  1.0
  C  C288  1  0.80612000  0.28546000  0.94754000  1.0
  C  C289  1  0.94751000  0.19388000  0.71452000  1.0
  C  C290  1  0.71452000  0.05246000  0.80614000  1.0
  C  C291  1  0.78548000  0.94755000  0.30611000  1.0
  C  C292  1  0.44754000  0.30613000  0.28548000  1.0
  C  C293  1  0.28549000  0.55248000  0.69387000  1.0
  C  C294  1  0.55248000  0.80613000  0.21450000  1.0
  C  C295  1  0.05246000  0.69389000  0.78549000  1.0
  C  C296  1  0.21451000  0.44751000  0.19387000  1.0
  C  C297  1  0.69386000  0.71451000  0.44753000  1.0
  C  C298  1  0.30613000  0.21452000  0.05247000  1.0
  C  C299  1  0.19387000  0.78552000  0.55248000  1.0
  C  C300  1  0.19388000  0.71454000  0.05246000  1.0
  C  C301  1  0.05248000  0.80613000  0.28548000  1.0
  C  C302  1  0.28548000  0.94754000  0.19387000  1.0
  C  C303  1  0.21452000  0.05245000  0.69388000  1.0
  C  C304  1  0.55246000  0.69387000  0.71452000  1.0
  C  C305  1  0.71451000  0.44752000  0.30613000  1.0
  C  C306  1  0.44752000  0.19388000  0.78550000  1.0
  C  C307  1  0.94753000  0.30610000  0.21451000  1.0
  C  C308  1  0.78549000  0.55248000  0.80614000  1.0
  C  C309  1  0.30614000  0.28549000  0.55247000  1.0
  C  C310  1  0.69387000  0.78548000  0.94753000  1.0
  C  C311  1  0.80613000  0.21450000  0.44752000  1.0
  C  C312  1  0.76275000  0.31790000  0.89817000  1.0
  C  C313  1  0.89812000  0.23725000  0.68209000  1.0
  C  C314  1  0.68208000  0.10184000  0.76276000  1.0
  C  C315  1  0.81792000  0.89817000  0.26274000  1.0
  C  C316  1  0.39817000  0.26275000  0.31791000  1.0
  C  C317  1  0.31793000  0.60186000  0.73725000  1.0
  C  C318  1  0.60186000  0.76274000  0.18206000  1.0
  C  C319  1  0.10181000  0.73727000  0.81794000  1.0
  C  C320  1  0.18208000  0.39813000  0.23725000  1.0
  C  C321  1  0.73724000  0.68208000  0.39815000  1.0
  C  C322  1  0.26275000  0.18208000  0.10184000  1.0
  C  C323  1  0.23725000  0.81794000  0.60185000  1.0
  C  C324  1  0.23726000  0.68210000  0.10183000  1.0
  C  C325  1  0.10188000  0.76276000  0.31790000  1.0
  C  C326  1  0.31792000  0.89816000  0.23724000  1.0
  C  C327  1  0.18208000  0.10182000  0.73726000  1.0
  C  C328  1  0.60183000  0.73726000  0.68208000  1.0
  C  C329  1  0.68207000  0.39815000  0.26275000  1.0
  C  C330  1  0.39814000  0.23726000  0.81794000  1.0
  C  C331  1  0.89818000  0.26273000  0.18206000  1.0
  C  C332  1  0.81792000  0.60186000  0.76276000  1.0
  C  C333  1  0.26276000  0.31792000  0.60185000  1.0
  C  C334  1  0.73725000  0.81791000  0.89816000  1.0
  C  C335  1  0.76275000  0.18208000  0.39814000  1.0
  O  O336  1  0.15093000  0.34904000  0.84908000  1.0
  O  O337  1  0.84905000  0.84909000  0.65097000  1.0
  O  O338  1  0.65096000  0.15092000  0.15093000  1.0
  O  O339  1  0.34907000  0.65097000  0.34905000  1.0
  O  O340  1  0.84907000  0.65095000  0.15092000  1.0
  O  O341  1  0.15095000  0.15091000  0.34903000  1.0
  O  O342  1  0.34904000  0.84908000  0.84906000  1.0
  O  O343  1  0.65093000  0.34903000  0.65095000  1.0
  O  O344  1  0.04731000  0.39418000  0.68588000  1.0
  O  O345  1  0.68587000  0.95270000  0.60584000  1.0
  O  O346  1  0.60585000  0.31416000  0.04732000  1.0
  O  O347  1  0.89420000  0.68586000  0.54733000  1.0
  O  O348  1  0.18581000  0.54734000  0.39417000  1.0
  O  O349  1  0.39419000  0.81413000  0.45267000  1.0
  O  O350  1  0.81417000  0.04731000  0.10582000  1.0
  O  O351  1  0.31414000  0.45268000  0.89421000  1.0
  O  O352  1  0.10582000  0.18587000  0.95269000  1.0
  O  O353  1  0.45267000  0.60581000  0.18587000  1.0
  O  O354  1  0.54732000  0.10577000  0.31412000  1.0
  O  O355  1  0.95266000  0.89419000  0.81416000  1.0
  O  O356  1  0.95270000  0.60583000  0.31413000  1.0
  O  O357  1  0.31413000  0.04729000  0.39416000  1.0
  O  O358  1  0.39415000  0.68584000  0.95268000  1.0
  O  O359  1  0.10580000  0.31414000  0.45267000  1.0
  O  O360  1  0.81418000  0.45266000  0.60582000  1.0
  O  O361  1  0.60580000  0.18588000  0.54733000  1.0
  O  O362  1  0.18585000  0.95269000  0.89419000  1.0
  O  O363  1  0.68587000  0.54732000  0.10579000  1.0
  O  O364  1  0.89419000  0.81413000  0.04731000  1.0
  O  O365  1  0.54732000  0.39418000  0.81414000  1.0
  O  O366  1  0.45268000  0.89422000  0.68587000  1.0
  O  O367  1  0.04734000  0.10579000  0.18585000  1.0
  O  O368  1  0.00603000  0.34265000  0.80927000  1.0
  O  O369  1  0.80924000  0.99397000  0.65735000  1.0
  O  O370  1  0.65735000  0.19074000  0.00604000  1.0
  O  O371  1  0.84267000  0.80927000  0.50604000  1.0
  O  O372  1  0.30924000  0.50604000  0.34265000  1.0
  O  O373  1  0.34268000  0.69077000  0.49398000  1.0
  O  O374  1  0.69081000  0.00600000  0.15737000  1.0
  O  O375  1  0.19076000  0.49398000  0.84268000  1.0
  O  O376  1  0.15734000  0.30921000  0.99399000  1.0
  O  O377  1  0.49397000  0.65739000  0.30922000  1.0
  O  O378  1  0.50602000  0.15731000  0.19076000  1.0
  O  O379  1  0.99399000  0.84265000  0.69082000  1.0
  O  O380  1  0.99397000  0.65735000  0.19073000  1.0
  O  O381  1  0.19076000  0.00602000  0.34265000  1.0
  O  O382  1  0.34265000  0.80925000  0.99396000  1.0
  O  O383  1  0.15733000  0.19073000  0.49395000  1.0
  O  O384  1  0.69075000  0.49396000  0.65735000  1.0
  O  O385  1  0.65733000  0.30923000  0.50602000  1.0
  O  O386  1  0.30920000  0.99400000  0.84264000  1.0
  O  O387  1  0.80925000  0.50602000  0.15731000  1.0
  O  O388  1  0.84264000  0.69080000  0.00601000  1.0
  O  O389  1  0.50603000  0.34261000  0.69077000  1.0
  O  O390  1  0.49398000  0.84269000  0.80924000  1.0
  O  O391  1  0.00601000  0.15734000  0.30919000  1.0
  O  O392  1  0.77628000  0.37898000  0.72146000  1.0
  O  O393  1  0.72140000  0.22367000  0.62102000  1.0
  O  O394  1  0.62101000  0.27855000  0.77628000  1.0
  O  O395  1  0.87899000  0.72146000  0.27625000  1.0
  O  O396  1  0.22146000  0.27625000  0.37898000  1.0
  O  O397  1  0.37901000  0.77858000  0.72370000  1.0
  O  O398  1  0.77859000  0.77630000  0.12100000  1.0
  O  O399  1  0.27853000  0.72374000  0.87898000  1.0
  O  O400  1  0.12100000  0.22140000  0.22367000  1.0
  O  O401  1  0.72371000  0.62100000  0.22143000  1.0
  O  O402  1  0.27628000  0.12099000  0.27855000  1.0
  O  O403  1  0.22369000  0.87899000  0.77859000  1.0
  O  O404  1  0.22372000  0.62102000  0.27854000  1.0
  O  O405  1  0.27860000  0.77634000  0.37896000  1.0
  O  O406  1  0.37898000  0.72145000  0.22372000  1.0
  O  O407  1  0.12102000  0.27854000  0.72374000  1.0
  O  O408  1  0.77854000  0.72375000  0.62100000  1.0
  O  O409  1  0.62099000  0.22143000  0.27630000  1.0
  O  O410  1  0.22141000  0.22369000  0.87898000  1.0
  O  O411  1  0.72147000  0.27626000  0.12101000  1.0
  O  O412  1  0.87899000  0.77859000  0.77633000  1.0
  O  O413  1  0.27630000  0.37899000  0.77857000  1.0
  O  O414  1  0.72372000  0.87901000  0.72145000  1.0
  O  O415  1  0.77632000  0.12102000  0.22141000  1.0
  O  O416  1  0.02666000  0.30018000  0.91842000  1.0
  O  O417  1  0.91840000  0.97333000  0.69982000  1.0
  O  O418  1  0.69982000  0.08158000  0.02667000  1.0
  O  O419  1  0.80020000  0.91841000  0.52668000  1.0
  O  O420  1  0.41840000  0.52668000  0.30024000  1.0
  O  O421  1  0.30023000  0.58162000  0.47333000  1.0
  O  O422  1  0.58163000  0.02666000  0.19973000  1.0
  O  O423  1  0.08161000  0.47334000  0.80024000  1.0
  O  O424  1  0.19975000  0.41837000  0.97333000  1.0
  O  O425  1  0.47332000  0.69976000  0.41840000  1.0
  O  O426  1  0.52666000  0.19980000  0.08161000  1.0
  O  O427  1  0.97332000  0.80026000  0.58165000  1.0
  O  O428  1  0.97334000  0.69982000  0.08159000  1.0
  O  O429  1  0.08160000  0.02667000  0.30020000  1.0
  O  O430  1  0.30019000  0.91841000  0.97333000  1.0
  O  O431  1  0.19980000  0.08158000  0.47333000  1.0
  O  O432  1  0.58160000  0.47332000  0.69977000  1.0
  O  O433  1  0.69977000  0.41839000  0.52667000  1.0
  O  O434  1  0.41838000  0.97334000  0.80026000  1.0
  O  O435  1  0.91839000  0.52666000  0.19978000  1.0
  O  O436  1  0.80025000  0.58163000  0.02667000  1.0
  O  O437  1  0.52668000  0.30023000  0.58160000  1.0
  O  O438  1  0.47333000  0.80020000  0.91839000  1.0
  O  O439  1  0.02668000  0.19973000  0.41836000  1.0
  O  O440  1  0.68601000  0.40125000  0.79555000  1.0
  O  O441  1  0.79547000  0.31396000  0.59876000  1.0
  O  O442  1  0.59871000  0.20444000  0.68603000  1.0
  O  O443  1  0.90129000  0.79557000  0.18601000  1.0
  O  O444  1  0.29558000  0.18599000  0.40126000  1.0
  O  O445  1  0.40124000  0.70448000  0.81399000  1.0
  O  O446  1  0.70451000  0.68603000  0.09870000  1.0
  O  O447  1  0.20442000  0.81401000  0.90131000  1.0
  O  O448  1  0.09874000  0.29546000  0.31397000  1.0
  O  O449  1  0.81399000  0.59875000  0.29552000  1.0
  O  O450  1  0.18602000  0.09870000  0.20444000  1.0
  O  O451  1  0.31397000  0.90129000  0.70449000  1.0
  O  O452  1  0.31400000  0.59875000  0.20444000  1.0
  O  O453  1  0.20453000  0.68605000  0.40124000  1.0
  O  O454  1  0.40130000  0.79557000  0.31397000  1.0
  O  O455  1  0.09870000  0.20442000  0.81399000  1.0
  O  O456  1  0.70443000  0.81401000  0.59874000  1.0
  O  O457  1  0.59877000  0.29553000  0.18601000  1.0
  O  O458  1  0.29549000  0.31397000  0.90129000  1.0
  O  O459  1  0.79558000  0.18599000  0.09869000  1.0
  O  O460  1  0.90125000  0.70453000  0.68604000  1.0
  O  O461  1  0.18601000  0.40125000  0.70448000  1.0
  O  O462  1  0.81398000  0.90130000  0.79556000  1.0
  O  O463  1  0.68603000  0.09872000  0.29550000  1.0
