# generated using pymatgen
data_DyP4H20Ru2(CO5)4
_symmetry_space_group_name_H-M   'P 1'
_cell_length_a   9.48175000
_cell_length_b   9.48679000
_cell_length_c   15.54800000
_cell_angle_alpha   92.96880000
_cell_angle_beta   92.97040000
_cell_angle_gamma   99.06480000
_symmetry_Int_Tables_number   1
_chemical_formula_structural   DyP4H20Ru2(CO5)4
_chemical_formula_sum   'Dy2 P8 H40 Ru4 C8 O40'
_cell_volume   1376.69002511
_cell_formula_units_Z   2
loop_
 _symmetry_equiv_pos_site_id
 _symmetry_equiv_pos_as_xyz
  1  'x, y, z'
loop_
 _atom_site_type_symbol
 _atom_site_label
 _atom_site_symmetry_multiplicity
 _atom_site_fract_x
 _atom_site_fract_y
 _atom_site_fract_z
 _atom_site_occupancy
  Dy  Dy0  1  0.99317000  0.00679000  0.74992000  1.0
  Dy  Dy1  1  0.00684000  0.99320000  0.25008000  1.0
  P  P2  1  0.05861000  0.34302000  0.64030000  1.0
  P  P3  1  0.65700000  0.94142000  0.85969000  1.0
  P  P4  1  0.94137000  0.65697000  0.35970000  1.0
  P  P5  1  0.34300000  0.05859000  0.14033000  1.0
  P  P6  1  0.99658000  0.64892000  0.65932000  1.0
  P  P7  1  0.35103000  0.00350000  0.84069000  1.0
  P  P8  1  0.00341000  0.35107000  0.34068000  1.0
  P  P9  1  0.64897000  0.99651000  0.15932000  1.0
  H  H10  1  0.17210000  0.43538000  0.81986000  1.0
  H  H11  1  0.56458000  0.82801000  0.68016000  1.0
  H  H12  1  0.82791000  0.56462000  0.18013000  1.0
  H  H13  1  0.43541000  0.17198000  0.31986000  1.0
  H  H14  1  0.14593000  0.62037000  0.82616000  1.0
  H  H15  1  0.37950000  0.85414000  0.67385000  1.0
  H  H16  1  0.85406000  0.37962000  0.17383000  1.0
  H  H17  1  0.62050000  0.14586000  0.32616000  1.0
  H  H18  1  0.25984000  0.55878000  0.74973000  1.0
  H  H19  1  0.44112000  0.74031000  0.75029000  1.0
  H  H20  1  0.74014000  0.44122000  0.25025000  1.0
  H  H21  1  0.55887000  0.25970000  0.24973000  1.0
  H  H22  1  0.82526000  0.44047000  0.72245000  1.0
  H  H23  1  0.55957000  0.17466000  0.77754000  1.0
  H  H24  1  0.17472000  0.55952000  0.27756000  1.0
  H  H25  1  0.44045000  0.82534000  0.22247000  1.0
  H  H26  1  0.39467000  0.51090000  0.53662000  1.0
  H  H27  1  0.48919000  0.60574000  0.96334000  1.0
  H  H28  1  0.60535000  0.48911000  0.46336000  1.0
  H  H29  1  0.51086000  0.39450000  0.03650000  1.0
  H  H30  1  0.41493000  0.67630000  0.54877000  1.0
  H  H31  1  0.32370000  0.58524000  0.95124000  1.0
  H  H32  1  0.58502000  0.32371000  0.45123000  1.0
  H  H33  1  0.67633000  0.41471000  0.04876000  1.0
  H  H34  1  0.82695000  0.14017000  0.62029000  1.0
  H  H35  1  0.85988000  0.17303000  0.87958000  1.0
  H  H36  1  0.17304000  0.85980000  0.37972000  1.0
  H  H37  1  0.14013000  0.82698000  0.12043000  1.0
  H  H38  1  0.71176000  0.07403000  0.68400000  1.0
  H  H39  1  0.92594000  0.28814000  0.81582000  1.0
  H  H40  1  0.28824000  0.92596000  0.31601000  1.0
  H  H41  1  0.07406000  0.71185000  0.18418000  1.0
  H  H42  1  0.12326000  0.90219000  0.91537000  1.0
  H  H43  1  0.09796000  0.87665000  0.58461000  1.0
  H  H44  1  0.87675000  0.09782000  0.08464000  1.0
  H  H45  1  0.90204000  0.12334000  0.41539000  1.0
  H  H46  1  0.95473000  0.88211000  0.92308000  1.0
  H  H47  1  0.11805000  0.04505000  0.57677000  1.0
  H  H48  1  0.04528000  0.11791000  0.07694000  1.0
  H  H49  1  0.88195000  0.95494000  0.42323000  1.0
  Ru  Ru50  1  0.12204000  0.54186000  0.49746000  1.0
  Ru  Ru51  1  0.45809000  0.87803000  0.00254000  1.0
  Ru  Ru52  1  0.87795000  0.45813000  0.50253000  1.0
  Ru  Ru53  1  0.54191000  0.12198000  0.99748000  1.0
  C  C54  1  0.03454000  0.49260000  0.71704000  1.0
  C  C55  1  0.50737000  0.96551000  0.78296000  1.0
  C  C56  1  0.96545000  0.50739000  0.28296000  1.0
  C  C57  1  0.49262000  0.03449000  0.21705000  1.0
  C  C58  1  0.16114000  0.52931000  0.78296000  1.0
  C  C59  1  0.47061000  0.83896000  0.71706000  1.0
  C  C60  1  0.83885000  0.47069000  0.21704000  1.0
  C  C61  1  0.52939000  0.16103000  0.28296000  1.0
  O  O62  1  0.17936000  0.39758000  0.58041000  1.0
  O  O63  1  0.60245000  0.82073000  0.91959000  1.0
  O  O64  1  0.82062000  0.60242000  0.41958000  1.0
  O  O65  1  0.39756000  0.17927000  0.08043000  1.0
  O  O66  1  0.91178000  0.30484000  0.58522000  1.0
  O  O67  1  0.69525000  0.08816000  0.91478000  1.0
  O  O68  1  0.08821000  0.69514000  0.41478000  1.0
  O  O69  1  0.30474000  0.91184000  0.08523000  1.0
  O  O70  1  0.08919000  0.21971000  0.69127000  1.0
  O  O71  1  0.78029000  0.91083000  0.80866000  1.0
  O  O72  1  0.91080000  0.78028000  0.30873000  1.0
  O  O73  1  0.21972000  0.08919000  0.19135000  1.0
  O  O74  1  0.12178000  0.68983000  0.59827000  1.0
  O  O75  1  0.31006000  0.87833000  0.90171000  1.0
  O  O76  1  0.87820000  0.31016000  0.40172000  1.0
  O  O77  1  0.68995000  0.12168000  0.09830000  1.0
  O  O78  1  0.85385000  0.59367000  0.60461000  1.0
  O  O79  1  0.40630000  0.14611000  0.89542000  1.0
  O  O80  1  0.14613000  0.40632000  0.39540000  1.0
  O  O81  1  0.59370000  0.85389000  0.10459000  1.0
  O  O82  1  0.98408000  0.76846000  0.72430000  1.0
  O  O83  1  0.23152000  0.01607000  0.77567000  1.0
  O  O84  1  0.01591000  0.23153000  0.27570000  1.0
  O  O85  1  0.76848000  0.98394000  0.22434000  1.0
  O  O86  1  0.90777000  0.44415000  0.76362000  1.0
  O  O87  1  0.55588000  0.09219000  0.73638000  1.0
  O  O88  1  0.09222000  0.55585000  0.23638000  1.0
  O  O89  1  0.44413000  0.90780000  0.26363000  1.0
  O  O90  1  0.38260000  0.59676000  0.50640000  1.0
  O  O91  1  0.40330000  0.61756000  0.99361000  1.0
  O  O92  1  0.61737000  0.40326000  0.49359000  1.0
  O  O93  1  0.59681000  0.38236000  0.00636000  1.0
  O  O94  1  0.80010000  0.05804000  0.65615000  1.0
  O  O95  1  0.94192000  0.19981000  0.84362000  1.0
  O  O96  1  0.19990000  0.94194000  0.34386000  1.0
  O  O97  1  0.05808000  0.80018000  0.15638000  1.0
  O  O98  1  0.03561000  0.94191000  0.90042000  1.0
  O  O99  1  0.05825000  0.96428000  0.59952000  1.0
  O  O100  1  0.96439000  0.05809000  0.09959000  1.0
  O  O101  1  0.94176000  0.03571000  0.40049000  1.0
