# generated using pymatgen
data_ZnH3C5Br(N2O)2
_symmetry_space_group_name_H-M   'P 1'
_cell_length_a   12.10560000
_cell_length_b   12.10560000
_cell_length_c   12.10560000
_cell_angle_alpha   95.89100000
_cell_angle_beta   95.89100000
_cell_angle_gamma   95.89130000
_symmetry_Int_Tables_number   1
_chemical_formula_structural   ZnH3C5Br(N2O)2
_chemical_formula_sum   'Zn6 H18 C30 Br6 N24 O12'
_cell_volume   1743.81365797
_cell_formula_units_Z   6
loop_
 _symmetry_equiv_pos_site_id
 _symmetry_equiv_pos_as_xyz
  1  'x, y, z'
loop_
 _atom_site_type_symbol
 _atom_site_label
 _atom_site_symmetry_multiplicity
 _atom_site_fract_x
 _atom_site_fract_y
 _atom_site_fract_z
 _atom_site_occupancy
  Zn  Zn0  1  0.32323000  0.04944000  0.76017000  1.0
  Zn  Zn1  1  0.04944000  0.76017000  0.32323000  1.0
  Zn  Zn2  1  0.76017000  0.32323000  0.04943000  1.0
  Zn  Zn3  1  0.67677000  0.95057000  0.23983000  1.0
  Zn  Zn4  1  0.95057000  0.23983000  0.67677000  1.0
  Zn  Zn5  1  0.23983000  0.67677000  0.95056000  1.0
  H  H6  1  0.69201000  0.12801000  0.62717000  1.0
  H  H7  1  0.12802000  0.62717000  0.69201000  1.0
  H  H8  1  0.62717000  0.69201000  0.12802000  1.0
  H  H9  1  0.30799000  0.87199000  0.37282000  1.0
  H  H10  1  0.87199000  0.37283000  0.30799000  1.0
  H  H11  1  0.37283000  0.30799000  0.87198000  1.0
  H  H12  1  0.59722000  0.05272000  0.51319000  1.0
  H  H13  1  0.05273000  0.51319000  0.59722000  1.0
  H  H14  1  0.51319000  0.59722000  0.05272000  1.0
  H  H15  1  0.40278000  0.94728000  0.48681000  1.0
  H  H16  1  0.94728000  0.48681000  0.40278000  1.0
  H  H17  1  0.48681000  0.40278000  0.94727000  1.0
  H  H18  1  0.91354000  0.30362000  0.90014000  1.0
  H  H19  1  0.30362000  0.90014000  0.91354000  1.0
  H  H20  1  0.90014000  0.91354000  0.30362000  1.0
  H  H21  1  0.08646000  0.69638000  0.09985000  1.0
  H  H22  1  0.69638000  0.09986000  0.08646000  1.0
  H  H23  1  0.09986000  0.08646000  0.69638000  1.0
  C  C24  1  0.52149000  0.15722000  0.95045000  1.0
  C  C25  1  0.15722000  0.95045000  0.52149000  1.0
  C  C26  1  0.95045000  0.52149000  0.15721000  1.0
  C  C27  1  0.47851000  0.84278000  0.04955000  1.0
  C  C28  1  0.84278000  0.04955000  0.47851000  1.0
  C  C29  1  0.04955000  0.47851000  0.84278000  1.0
  C  C30  1  0.53512000  0.08314000  0.66299000  1.0
  C  C31  1  0.08314000  0.66298000  0.53512000  1.0
  C  C32  1  0.66298000  0.53512000  0.08314000  1.0
  C  C33  1  0.46488000  0.91686000  0.33701000  1.0
  C  C34  1  0.91686000  0.33702000  0.46488000  1.0
  C  C35  1  0.33702000  0.46488000  0.91686000  1.0
  C  C36  1  0.56305000  0.12694000  0.78162000  1.0
  C  C37  1  0.12694000  0.78162000  0.56305000  1.0
  C  C38  1  0.78162000  0.56305000  0.12694000  1.0
  C  C39  1  0.43695000  0.87306000  0.21838000  1.0
  C  C40  1  0.87306000  0.21838000  0.43695000  1.0
  C  C41  1  0.21838000  0.43695000  0.87306000  1.0
  C  C42  1  0.65764000  0.18061000  0.84984000  1.0
  C  C43  1  0.18061000  0.84984000  0.65764000  1.0
  C  C44  1  0.84984000  0.65764000  0.18061000  1.0
  C  C45  1  0.34236000  0.81939000  0.15016000  1.0
  C  C46  1  0.81938000  0.15016000  0.34236000  1.0
  C  C47  1  0.15016000  0.34235000  0.81939000  1.0
  C  C48  1  0.77214000  0.22106000  0.82950000  1.0
  C  C49  1  0.22106000  0.82950000  0.77214000  1.0
  C  C50  1  0.82950000  0.77214000  0.22106000  1.0
  C  C51  1  0.22786000  0.77894000  0.17050000  1.0
  C  C52  1  0.77894000  0.17050000  0.22786000  1.0
  C  C53  1  0.17050000  0.22786000  0.77894000  1.0
  Br  Br54  1  0.43977000  0.15714000  0.07392000  1.0
  Br  Br55  1  0.15713000  0.07392000  0.43977000  1.0
  Br  Br56  1  0.07391000  0.43977000  0.15713000  1.0
  Br  Br57  1  0.56023000  0.84286000  0.92608000  1.0
  Br  Br58  1  0.84286000  0.92609000  0.56023000  1.0
  Br  Br59  1  0.92609000  0.56023000  0.84287000  1.0
  N  N60  1  0.62947000  0.19941000  0.95727000  1.0
  N  N61  1  0.19941000  0.95727000  0.62947000  1.0
  N  N62  1  0.95727000  0.62947000  0.19941000  1.0
  N  N63  1  0.37053000  0.80059000  0.04273000  1.0
  N  N64  1  0.80059000  0.04273000  0.37053000  1.0
  N  N65  1  0.04273000  0.37053000  0.80059000  1.0
  N  N66  1  0.47768000  0.11308000  0.84756000  1.0
  N  N67  1  0.11308000  0.84756000  0.47768000  1.0
  N  N68  1  0.84756000  0.47768000  0.11308000  1.0
  N  N69  1  0.52232000  0.88692000  0.15244000  1.0
  N  N70  1  0.88692000  0.15244000  0.52232000  1.0
  N  N71  1  0.15244000  0.52232000  0.88692000  1.0
  N  N72  1  0.61334000  0.09098000  0.59402000  1.0
  N  N73  1  0.09099000  0.59402000  0.61334000  1.0
  N  N74  1  0.59402000  0.61334000  0.09099000  1.0
  N  N75  1  0.38666000  0.90902000  0.40598000  1.0
  N  N76  1  0.90902000  0.40598000  0.38666000  1.0
  N  N77  1  0.40598000  0.38666000  0.90901000  1.0
  N  N78  1  0.83540000  0.27492000  0.91697000  1.0
  N  N79  1  0.27491000  0.91697000  0.83539000  1.0
  N  N80  1  0.91697000  0.83539000  0.27492000  1.0
  N  N81  1  0.16461000  0.72509000  0.08303000  1.0
  N  N82  1  0.72508000  0.08303000  0.16461000  1.0
  N  N83  1  0.08303000  0.16460000  0.72509000  1.0
  O  O84  1  0.43533000  0.03783000  0.63114000  1.0
  O  O85  1  0.03783000  0.63114000  0.43533000  1.0
  O  O86  1  0.63114000  0.43533000  0.03783000  1.0
  O  O87  1  0.56467000  0.96217000  0.36886000  1.0
  O  O88  1  0.96217000  0.36886000  0.56467000  1.0
  O  O89  1  0.36886000  0.56467000  0.96217000  1.0
  O  O90  1  0.80016000  0.20131000  0.72959000  1.0
  O  O91  1  0.20131000  0.72959000  0.80016000  1.0
  O  O92  1  0.72959000  0.80016000  0.20131000  1.0
  O  O93  1  0.19984000  0.79869000  0.27041000  1.0
  O  O94  1  0.79869000  0.27041000  0.19984000  1.0
  O  O95  1  0.27041000  0.19984000  0.79869000  1.0
