# generated using pymatgen
data_Cd3H50C70N14(ClO4)2
_symmetry_space_group_name_H-M   'P 1'
_cell_length_a   9.52942000
_cell_length_b   13.62730000
_cell_length_c   15.71200000
_cell_angle_alpha   109.47500000
_cell_angle_beta   94.62720000
_cell_angle_gamma   90.25670000
_symmetry_Int_Tables_number   1
_chemical_formula_structural   Cd3H50C70N14(ClO4)2
_chemical_formula_sum   'Cd3 H50 C70 N14 Cl2 O8'
_cell_volume   1916.29047342
_cell_formula_units_Z   1
loop_
 _symmetry_equiv_pos_site_id
 _symmetry_equiv_pos_as_xyz
  1  'x, y, z'
loop_
 _atom_site_type_symbol
 _atom_site_label
 _atom_site_symmetry_multiplicity
 _atom_site_fract_x
 _atom_site_fract_y
 _atom_site_fract_z
 _atom_site_occupancy
  Cd  Cd0  1  0.50000000  0.50001000  0.00001000  1.0
  Cd  Cd1  1  0.80786000  0.58537000  0.83812000  1.0
  Cd  Cd2  1  0.19214000  0.41463000  0.16187000  1.0
  H  H3  1  0.35288000  0.04740000  0.78349000  1.0
  H  H4  1  0.64713000  0.95260000  0.21651000  1.0
  H  H5  1  0.22617000  0.20467000  0.86630000  1.0
  H  H6  1  0.77384000  0.79534000  0.13370000  1.0
  H  H7  1  0.95467000  0.16878000  0.62350000  1.0
  H  H8  1  0.04533000  0.83121000  0.37651000  1.0
  H  H9  1  0.08999000  0.01665000  0.53947000  1.0
  H  H10  1  0.91001000  0.98334000  0.46054000  1.0
  H  H11  1  0.00360000  0.25593000  0.92895000  1.0
  H  H12  1  0.99640000  0.74407000  0.07105000  1.0
  H  H13  1  0.86637000  0.44324000  0.97395000  1.0
  H  H14  1  0.13363000  0.55677000  0.02605000  1.0
  H  H15  1  0.96522000  0.36161000  0.70260000  1.0
  H  H16  1  0.03479000  0.63839000  0.29739000  1.0
  H  H17  1  0.34257000  0.04175000  0.50856000  1.0
  H  H18  1  0.65742000  0.95825000  0.49144000  1.0
  H  H19  1  0.38440000  0.97558000  0.34733000  1.0
  H  H20  1  0.61560000  0.02442000  0.65267000  1.0
  H  H21  1  0.32995000  0.66074000  0.34584000  1.0
  H  H22  1  0.67004000  0.33926000  0.65416000  1.0
  H  H23  1  0.29275000  0.72601000  0.50731000  1.0
  H  H24  1  0.70724000  0.27399000  0.49270000  1.0
  H  H25  1  0.32681000  0.90180000  0.19539000  1.0
  H  H26  1  0.67320000  0.09821000  0.80461000  1.0
  H  H27  1  0.39500000  0.76225000  0.03155000  1.0
  H  H28  1  0.60501000  0.23774000  0.96845000  1.0
  H  H29  1  0.44729000  0.61634000  0.22939000  1.0
  H  H30  1  0.55270000  0.38367000  0.77062000  1.0
  H  H31  1  0.52548000  0.84106000  0.66666667  1.0
  H  H32  1  0.47451000  0.15893000  0.33339000  1.0
  H  H33  1  0.52968000  0.71401000  0.74923000  1.0
  H  H34  1  0.47031000  0.28599000  0.25076000  1.0
  H  H35  1  0.07751000  0.72608000  0.75294000  1.0
  H  H36  1  0.92249000  0.27393000  0.24706000  1.0
  H  H37  1  0.07447000  0.85324000  0.66953000  1.0
  H  H38  1  0.92553000  0.14676000  0.33047000  1.0
  H  H39  1  0.10865000  0.55019000  0.73996000  1.0
  H  H40  1  0.89135000  0.44980000  0.26004000  1.0
  H  H41  1  0.19963000  0.43843000  0.85398000  1.0
  H  H42  1  0.80038000  0.56157000  0.14603000  1.0
  H  H43  1  0.50065000  0.67704000  0.88323000  1.0
  H  H44  1  0.49936000  0.32296000  0.11676000  1.0
  H  H45  1  0.75293000  0.97325000  0.92988000  1.0
  H  H46  1  0.24706000  0.02675000  0.07013000  1.0
  H  H47  1  0.84919000  0.15357000  0.02295000  1.0
  H  H48  1  0.15080000  0.84643000  0.97706000  1.0
  H  H49  1  0.40030000  0.47888000  0.63456000  1.0
  H  H50  1  0.59972000  0.52112000  0.36543000  1.0
  H  H51  1  0.24391000  0.45729000  0.49194000  1.0
  H  H52  1  0.75610000  0.54270000  0.50804000  1.0
  C  C53  1  0.22851000  0.02076000  0.65610000  1.0
  C  C54  1  0.77149000  0.97924000  0.34391000  1.0
  C  C55  1  0.26639000  0.07456000  0.74837000  1.0
  C  C56  1  0.73361000  0.92544000  0.25163000  1.0
  C  C57  1  0.19388000  0.16125000  0.79532000  1.0
  C  C58  1  0.80612000  0.83875000  0.20469000  1.0
  C  C59  1  0.08104000  0.19463000  0.75029000  1.0
  C  C60  1  0.91897000  0.80537000  0.24971000  1.0
  C  C61  1  0.04444000  0.14381000  0.65787000  1.0
  C  C62  1  0.95556000  0.85619000  0.34213000  1.0
  C  C63  1  0.11914000  0.05786000  0.61101000  1.0
  C  C64  1  0.88085000  0.94214000  0.38900000  1.0
  C  C65  1  0.97515000  0.30551000  0.88940000  1.0
  C  C66  1  0.02485000  0.69450000  0.11060000  1.0
  C  C67  1  0.90782000  0.39804000  0.91098000  1.0
  C  C68  1  0.09219000  0.60197000  0.08902000  1.0
  C  C69  1  0.95447000  0.35901000  0.76997000  1.0
  C  C70  1  0.04553000  0.64099000  0.23002000  1.0
  C  C71  1  0.31310000  0.88936000  0.52054000  1.0
  C  C72  1  0.68690000  0.11064000  0.47946000  1.0
  C  C73  1  0.33739000  0.95810000  0.47282000  1.0
  C  C74  1  0.66261000  0.04190000  0.52718000  1.0
  C  C75  1  0.36060000  0.92051000  0.38141000  1.0
  C  C76  1  0.63939000  0.07949000  0.61859000  1.0
  C  C77  1  0.35899000  0.81313000  0.33485000  1.0
  C  C78  1  0.64100000  0.18687000  0.66515000  1.0
  C  C79  1  0.33375000  0.74431000  0.38141000  1.0
  C  C80  1  0.66624000  0.25569000  0.61859000  1.0
  C  C81  1  0.31154000  0.78152000  0.47282000  1.0
  C  C82  1  0.68845000  0.21849000  0.52718000  1.0
  C  C83  1  0.36478000  0.82342000  0.17823000  1.0
  C  C84  1  0.63522000  0.17658000  0.82177000  1.0
  C  C85  1  0.39722000  0.75285000  0.09746000  1.0
  C  C86  1  0.60278000  0.24715000  0.90255000  1.0
  C  C87  1  0.42560000  0.67443000  0.19704000  1.0
  C  C88  1  0.57438000  0.32557000  0.80296000  1.0
  C  C89  1  0.29960000  0.85405000  0.66227000  1.0
  C  C90  1  0.70040000  0.14595000  0.33773000  1.0
  C  C91  1  0.42755000  0.81577000  0.68551000  1.0
  C  C92  1  0.57245000  0.18422000  0.31449000  1.0
  C  C93  1  0.43004000  0.74415000  0.73140000  1.0
  C  C94  1  0.56995000  0.25585000  0.26859000  1.0
  C  C95  1  0.30313000  0.71109000  0.75382000  1.0
  C  C96  1  0.69686000  0.28891000  0.24618000  1.0
  C  C97  1  0.17467000  0.75028000  0.73234000  1.0
  C  C98  1  0.82533000  0.24972000  0.26766000  1.0
  C  C99  1  0.17357000  0.82157000  0.68637000  1.0
  C  C100  1  0.82643000  0.17843000  0.31363000  1.0
  C  C101  1  0.20206000  0.55836000  0.78615000  1.0
  C  C102  1  0.79794000  0.44163000  0.21386000  1.0
  C  C103  1  0.24793000  0.50429000  0.84215000  1.0
  C  C104  1  0.75208000  0.49571000  0.15786000  1.0
  C  C105  1  0.40681000  0.62669000  0.86076000  1.0
  C  C106  1  0.59319000  0.37331000  0.13924000  1.0
  C  C107  1  0.86110000  0.98623000  0.96073000  1.0
  C  C108  1  0.13889000  0.01377000  0.03928000  1.0
  C  C109  1  0.94679000  0.89997000  0.94801000  1.0
  C  C110  1  0.05320000  0.10003000  0.05199000  1.0
  C  C111  1  0.91392000  0.08549000  0.01233000  1.0
  C  C112  1  0.08607000  0.91452000  0.98768000  1.0
  C  C113  1  0.88844000  0.79243000  0.89530000  1.0
  C  C114  1  0.11156000  0.20758000  0.10471000  1.0
  C  C115  1  0.44278000  0.48764000  0.57507000  1.0
  C  C116  1  0.55724000  0.51236000  0.42492000  1.0
  C  C117  1  0.58714000  0.51167000  0.57905000  1.0
  C  C118  1  0.41288000  0.48831000  0.42093000  1.0
  C  C119  1  0.35615000  0.47612000  0.49653000  1.0
  C  C120  1  0.64386000  0.52387000  0.50345000  1.0
  C  C121  1  0.67910000  0.52787000  0.66484000  1.0
  C  C122  1  0.32091000  0.47213000  0.33514000  1.0
  N  N123  1  0.29536000  0.92651000  0.61363000  1.0
  N  N124  1  0.70464000  0.07349000  0.38637000  1.0
  N  N125  1  0.00464000  0.28130000  0.79976000  1.0
  N  N126  1  0.99537000  0.71870000  0.20024000  1.0
  N  N127  1  0.89623000  0.43048000  0.83627000  1.0
  N  N128  1  0.10377000  0.56952000  0.16373000  1.0
  N  N129  1  0.38286000  0.77282000  0.24167000  1.0
  N  N130  1  0.61713000  0.22718000  0.75833000  1.0
  N  N131  1  0.43421000  0.66051000  0.11007000  1.0
  N  N132  1  0.56578000  0.33949000  0.88993000  1.0
  N  N133  1  0.30403000  0.63615000  0.79861000  1.0
  N  N134  1  0.69596000  0.36385000  0.20139000  1.0
  N  N135  1  0.37507000  0.54788000  0.88823000  1.0
  N  N136  1  0.62494000  0.45212000  0.11177000  1.0
  Cl  Cl137  1  0.28821000  0.37551000  0.00654000  1.0
  Cl  Cl138  1  0.71179000  0.62449000  0.99345000  1.0
  O  O139  1  0.97146000  0.71660000  0.89198000  1.0
  O  O140  1  0.02853000  0.28340000  0.10802000  1.0
  O  O141  1  0.76328000  0.77912000  0.85920000  1.0
  O  O142  1  0.23672000  0.22088000  0.14080000  1.0
  O  O143  1  0.61631000  0.52747000  0.73460000  1.0
  O  O144  1  0.38370000  0.47253000  0.26538000  1.0
  O  O145  1  0.81099000  0.54254000  0.66750000  1.0
  O  O146  1  0.18902000  0.45746000  0.33248000  1.0
