# generated using pymatgen
data_NaP2H13(C2O)6
_symmetry_space_group_name_H-M   'P 1'
_cell_length_a   5.66687000
_cell_length_b   7.77391000
_cell_length_c   16.01060000
_cell_angle_alpha   102.95700000
_cell_angle_beta   94.21090000
_cell_angle_gamma   96.10730000
_symmetry_Int_Tables_number   1
_chemical_formula_structural   NaP2H13(C2O)6
_chemical_formula_sum   'Na2 P4 H26 C24 O12'
_cell_volume   680.01388173
_cell_formula_units_Z   2
loop_
 _symmetry_equiv_pos_site_id
 _symmetry_equiv_pos_as_xyz
  1  'x, y, z'
loop_
 _atom_site_type_symbol
 _atom_site_label
 _atom_site_symmetry_multiplicity
 _atom_site_fract_x
 _atom_site_fract_y
 _atom_site_fract_z
 _atom_site_occupancy
  Na  Na0  1  0.79808000  0.81825000  0.00242000  1.0
  Na  Na1  1  0.20193000  0.18175000  0.99758000  1.0
  P  P2  1  0.29573000  0.67562000  0.11793000  1.0
  P  P3  1  0.70428000  0.32438000  0.88207000  1.0
  P  P4  1  0.24363000  0.77317000  0.86368000  1.0
  P  P5  1  0.75637000  0.22683000  0.13632000  1.0
  H  H6  1  0.91505000  0.56143000  0.10877000  1.0
  H  H7  1  0.08495000  0.43857000  0.89123000  1.0
  H  H8  1  0.51624000  0.45375000  0.09973000  1.0
  H  H9  1  0.48376000  0.54625000  0.90027000  1.0
  H  H10  1  0.54189000  0.99107000  0.89182000  1.0
  H  H11  1  0.45812000  0.00893000  0.10818000  1.0
  H  H12  1  0.02637000  0.59885000  0.25804000  1.0
  H  H13  1  0.97362000  0.40115000  0.74196000  1.0
  H  H14  1  0.13515000  0.65192000  0.41418000  1.0
  H  H15  1  0.86484000  0.34808000  0.58582000  1.0
  H  H16  1  0.53237000  0.81409000  0.48024000  1.0
  H  H17  1  0.46762000  0.18590000  0.51976000  1.0
  H  H18  1  0.82709000  0.91227000  0.38608000  1.0
  H  H19  1  0.17291000  0.08772000  0.61393000  1.0
  H  H20  1  0.72085000  0.85412000  0.22876000  1.0
  H  H21  1  0.27915000  0.14588000  0.77125000  1.0
  H  H22  1  0.84617000  0.90181000  0.78560000  1.0
  H  H23  1  0.15382000  0.09819000  0.21440000  1.0
  H  H24  1  0.69624000  0.88501000  0.63371000  1.0
  H  H25  1  0.30375000  0.11499000  0.36629000  1.0
  H  H26  1  0.90971000  0.72880000  0.51402000  1.0
  H  H27  1  0.09029000  0.27121000  0.48598000  1.0
  H  H28  1  0.27238000  0.59029000  0.54721000  1.0
  H  H29  1  0.72762000  0.40972000  0.45279000  1.0
  H  H30  1  0.42195000  0.60926000  0.69874000  1.0
  H  H31  1  0.57805000  0.39075000  0.30126000  1.0
  C  C32  1  0.36655000  0.72333000  0.23293000  1.0
  C  C33  1  0.63344000  0.27666000  0.76707000  1.0
  C  C34  1  0.20221000  0.66695000  0.28570000  1.0
  C  C35  1  0.79779000  0.33304000  0.71430000  1.0
  C  C36  1  0.26353000  0.69823000  0.37419000  1.0
  C  C37  1  0.73647000  0.30176000  0.62581000  1.0
  C  C38  1  0.48741000  0.78710000  0.41071000  1.0
  C  C39  1  0.51258000  0.21289000  0.58929000  1.0
  C  C40  1  0.65202000  0.84290000  0.35836000  1.0
  C  C41  1  0.34797000  0.15709000  0.64164000  1.0
  C  C42  1  0.59229000  0.81096000  0.26961000  1.0
  C  C43  1  0.40771000  0.18904000  0.73039000  1.0
  C  C44  1  0.14362000  0.75876000  0.75212000  1.0
  C  C45  1  0.85639000  0.24125000  0.24788000  1.0
  C  C46  1  0.93946000  0.83549000  0.73292000  1.0
  C  C47  1  0.06054000  0.16451000  0.26708000  1.0
  C  C48  1  0.85528000  0.82448000  0.64747000  1.0
  C  C49  1  0.14471000  0.17553000  0.35253000  1.0
  C  C50  1  0.97518000  0.73668000  0.58071000  1.0
  C  C51  1  0.02481000  0.26333000  0.41929000  1.0
  C  C52  1  0.17916000  0.65974000  0.59937000  1.0
  C  C53  1  0.82083000  0.34027000  0.40063000  1.0
  C  C54  1  0.26340000  0.67020000  0.68469000  1.0
  C  C55  1  0.73660000  0.32980000  0.31531000  1.0
  O  O56  1  0.01914000  0.67331000  0.09838000  1.0
  O  O57  1  0.98087000  0.32670000  0.90162000  1.0
  O  O58  1  0.34190000  0.47896000  0.08075000  1.0
  O  O59  1  0.65810000  0.52104000  0.91925000  1.0
  O  O60  1  0.43943000  0.80887000  0.08057000  1.0
  O  O61  1  0.56057000  0.19113000  0.91943000  1.0
  O  O62  1  0.51826000  0.85410000  0.87837000  1.0
  O  O63  1  0.48174000  0.14590000  0.12163000  1.0
  O  O64  1  0.09297000  0.88722000  0.92024000  1.0
  O  O65  1  0.90705000  0.11278000  0.07976000  1.0
  O  O66  1  0.25200000  0.58044000  0.87389000  1.0
  O  O67  1  0.74801000  0.41956000  0.12610000  1.0
