# generated using pymatgen
data_FeH7C7O3
_symmetry_space_group_name_H-M   'P 1'
_cell_length_a   7.01885000
_cell_length_b   15.10370000
_cell_length_c   15.10810000
_cell_angle_alpha   117.63200000
_cell_angle_beta   98.92550000
_cell_angle_gamma   98.91060000
_symmetry_Int_Tables_number   1
_chemical_formula_structural   FeH7C7O3
_chemical_formula_sum   'Fe6 H42 C42 O18'
_cell_volume   1353.85891119
_cell_formula_units_Z   6
loop_
 _symmetry_equiv_pos_site_id
 _symmetry_equiv_pos_as_xyz
  1  'x, y, z'
loop_
 _atom_site_type_symbol
 _atom_site_label
 _atom_site_symmetry_multiplicity
 _atom_site_fract_x
 _atom_site_fract_y
 _atom_site_fract_z
 _atom_site_occupancy
  Fe  Fe0  1  0.46066000  0.25937000  0.57617000  1.0
  Fe  Fe1  1  0.20129000  0.31680000  0.74055000  1.0
  Fe  Fe2  1  0.88451000  0.42396000  0.68339000  1.0
  Fe  Fe3  1  0.53934000  0.74063000  0.42383000  1.0
  Fe  Fe4  1  0.79871000  0.68320000  0.25946000  1.0
  Fe  Fe5  1  0.11549000  0.57604000  0.31661000  1.0
  H  H6  1  0.18989000  0.55311000  0.53091000  1.0
  H  H7  1  0.63678000  0.97792000  0.44706000  1.0
  H  H8  1  0.65894000  0.46921000  0.02216000  1.0
  H  H9  1  0.81011000  0.44690000  0.46909000  1.0
  H  H10  1  0.36323000  0.02208000  0.55295000  1.0
  H  H11  1  0.34106000  0.53079000  0.97784000  1.0
  H  H12  1  0.22998000  0.31966000  0.92747000  1.0
  H  H13  1  0.91035000  0.60777000  0.68030000  1.0
  H  H14  1  0.30245000  0.07241000  0.39233000  1.0
  H  H15  1  0.77002000  0.68034000  0.07253000  1.0
  H  H16  1  0.08964000  0.39223000  0.31970000  1.0
  H  H17  1  0.69755000  0.92759000  0.60767000  1.0
  H  H18  1  0.95051000  0.13634000  0.72288000  1.0
  H  H19  1  0.81442000  0.58640000  0.86357000  1.0
  H  H20  1  0.22818000  0.27723000  0.41391000  1.0
  H  H21  1  0.04949000  0.86366000  0.27712000  1.0
  H  H22  1  0.18558000  0.41360000  0.13643000  1.0
  H  H23  1  0.77182000  0.72277000  0.58609000  1.0
  H  H24  1  0.89512000  0.25972000  0.80823000  1.0
  H  H25  1  0.63544000  0.54846000  0.74027000  1.0
  H  H26  1  0.08712000  0.19183000  0.45184000  1.0
  H  H27  1  0.10488000  0.74029000  0.19177000  1.0
  H  H28  1  0.36456000  0.45154000  0.25973000  1.0
  H  H29  1  0.91288000  0.80817000  0.54816000  1.0
  H  H30  1  0.33393000  0.15573000  0.90561000  1.0
  H  H31  1  0.17793000  0.74985000  0.84423000  1.0
  H  H32  1  0.42783000  0.09439000  0.25034000  1.0
  H  H33  1  0.66606000  0.84427000  0.09439000  1.0
  H  H34  1  0.82206000  0.25014000  0.15577000  1.0
  H  H35  1  0.57217000  0.90561000  0.74967000  1.0
  H  H36  1  0.48117000  0.21775000  0.85535000  1.0
  H  H37  1  0.26369000  0.63770000  0.78241000  1.0
  H  H38  1  0.62583000  0.14465000  0.36243000  1.0
  H  H39  1  0.51882000  0.78224000  0.14465000  1.0
  H  H40  1  0.73630000  0.36230000  0.21758000  1.0
  H  H41  1  0.37417000  0.85535000  0.63757000  1.0
  H  H42  1  0.28004000  0.10587000  0.76939000  1.0
  H  H43  1  0.17413000  0.66351000  0.89417000  1.0
  H  H44  1  0.51036000  0.23064000  0.33668000  1.0
  H  H45  1  0.71996000  0.89413000  0.23061000  1.0
  H  H46  1  0.82587000  0.33649000  0.10583000  1.0
  H  H47  1  0.48963000  0.76935000  0.66332000  1.0
  C  C48  1  0.26123000  0.43467000  0.61092000  1.0
  C  C49  1  0.82666000  0.17624000  0.56540000  1.0
  C  C50  1  0.65029000  0.38916000  0.82384000  1.0
  C  C51  1  0.73877000  0.56533000  0.38908000  1.0
  C  C52  1  0.17334000  0.82377000  0.43460000  1.0
  C  C53  1  0.34971000  0.61083000  0.17616000  1.0
  C  C54  1  0.38698000  0.46560000  0.55362000  1.0
  C  C55  1  0.92144000  0.08797000  0.53441000  1.0
  C  C56  1  0.83339000  0.44642000  0.91204000  1.0
  C  C57  1  0.61302000  0.53440000  0.44637000  1.0
  C  C58  1  0.07857000  0.91203000  0.46559000  1.0
  C  C59  1  0.16661000  0.55357000  0.08797000  1.0
  C  C60  1  0.56547000  0.43479000  0.53520000  1.0
  C  C61  1  0.13073000  0.10040000  0.56525000  1.0
  C  C62  1  0.03028000  0.46476000  0.89963000  1.0
  C  C63  1  0.43454000  0.56522000  0.46480000  1.0
  C  C64  1  0.86927000  0.89960000  0.43475000  1.0
  C  C65  1  0.96972000  0.53524000  0.10037000  1.0
  C  C66  1  0.32676000  0.52976000  0.51766000  1.0
  C  C67  1  0.79695000  0.98789000  0.47027000  1.0
  C  C68  1  0.80907000  0.48242000  0.01211000  1.0
  C  C69  1  0.67325000  0.47024000  0.48234000  1.0
  C  C70  1  0.20306000  0.01211000  0.52973000  1.0
  C  C71  1  0.19093000  0.51757000  0.98789000  1.0
  C  C72  1  0.18790000  0.24490000  0.85576000  1.0
  C  C73  1  0.94317000  0.61082000  0.75506000  1.0
  C  C74  1  0.33225000  0.14421000  0.38942000  1.0
  C  C75  1  0.81210000  0.75511000  0.14424000  1.0
  C  C76  1  0.05683000  0.38918000  0.24494000  1.0
  C  C77  1  0.66775000  0.85578000  0.61058000  1.0
  C  C78  1  0.00415000  0.21428000  0.78981000  1.0
  C  C79  1  0.78999000  0.57538000  0.78562000  1.0
  C  C80  1  0.21467000  0.21026000  0.42490000  1.0
  C  C81  1  0.99584000  0.78572000  0.21019000  1.0
  C  C82  1  0.21001000  0.42462000  0.21438000  1.0
  C  C83  1  0.78532000  0.78974000  0.57510000  1.0
  C  C84  1  0.32811000  0.17729000  0.84494000  1.0
  C  C85  1  0.15090000  0.66765000  0.82275000  1.0
  C  C86  1  0.48301000  0.15507000  0.33254000  1.0
  C  C87  1  0.67188000  0.82271000  0.15506000  1.0
  C  C88  1  0.84910000  0.33235000  0.17725000  1.0
  C  C89  1  0.51699000  0.84493000  0.66746000  1.0
  O  O90  1  0.32951000  0.38843000  0.65703000  1.0
  O  O91  1  0.94105000  0.26861000  0.61152000  1.0
  O  O92  1  0.67241000  0.34299000  0.73152000  1.0
  O  O93  1  0.67049000  0.61157000  0.34297000  1.0
  O  O94  1  0.05896000  0.73139000  0.38848000  1.0
  O  O95  1  0.32759000  0.65701000  0.26848000  1.0
  O  O96  1  0.09561000  0.45827000  0.61375000  1.0
  O  O97  1  0.63744000  0.15547000  0.54201000  1.0
  O  O98  1  0.48180000  0.38637000  0.84454000  1.0
  O  O99  1  0.90439000  0.54173000  0.38625000  1.0
  O  O100  1  0.36257000  0.84453000  0.45800000  1.0
  O  O101  1  0.51821000  0.61364000  0.15546000  1.0
  O  O102  1  0.63634000  0.37204000  0.56526000  1.0
  O  O103  1  0.26436000  0.19316000  0.62802000  1.0
  O  O104  1  0.07102000  0.43472000  0.80686000  1.0
  O  O105  1  0.36366000  0.62795000  0.43474000  1.0
  O  O106  1  0.73565000  0.80684000  0.37198000  1.0
  O  O107  1  0.92898000  0.56528000  0.19314000  1.0
