# generated using pymatgen
data_CdH10C8S2N5ClO2
_symmetry_space_group_name_H-M   'P 1'
_cell_length_a   6.97747000
_cell_length_b   9.28602000
_cell_length_c   10.33160000
_cell_angle_alpha   90.00030000
_cell_angle_beta   90.00060000
_cell_angle_gamma   106.13600000
_symmetry_Int_Tables_number   1
_chemical_formula_structural   CdH10C8S2N5ClO2
_chemical_formula_sum   'Cd2 H20 C16 S4 N10 Cl2 O4'
_cell_volume   643.04282025
_cell_formula_units_Z   2
loop_
 _symmetry_equiv_pos_site_id
 _symmetry_equiv_pos_as_xyz
  1  'x, y, z'
loop_
 _atom_site_type_symbol
 _atom_site_label
 _atom_site_symmetry_multiplicity
 _atom_site_fract_x
 _atom_site_fract_y
 _atom_site_fract_z
 _atom_site_occupancy
  Cd  Cd0  1  0.42520000  0.56690000  0.90054000  1.0
  Cd  Cd1  1  0.57480000  0.43310000  0.40054000  1.0
  H  H2  1  0.80476000  0.64120000  0.10732000  1.0
  H  H3  1  0.19525000  0.35880000  0.60732000  1.0
  H  H4  1  0.06552000  0.70579000  0.08428000  1.0
  H  H5  1  0.93449000  0.29421000  0.58428000  1.0
  H  H6  1  0.95653000  0.62876000  0.60883000  1.0
  H  H7  1  0.04346000  0.37125000  0.10883000  1.0
  H  H8  1  0.03475000  0.55271000  0.74783000  1.0
  H  H9  1  0.96525000  0.44730000  0.24784000  1.0
  H  H10  1  0.74058000  0.43428000  0.94600000  1.0
  H  H11  1  0.25942000  0.56572000  0.44600000  1.0
  H  H12  1  0.53121000  0.32691000  0.00474000  1.0
  H  H13  1  0.46879000  0.67309000  0.50474000  1.0
  H  H14  1  0.95165000  0.07462000  0.72411000  1.0
  H  H15  1  0.04835000  0.92538000  0.22410000  1.0
  H  H16  1  0.60872000  0.06689000  0.60394000  1.0
  H  H17  1  0.39128000  0.93311000  0.10394000  1.0
  H  H18  1  0.44170000  0.19486000  0.81775000  1.0
  H  H19  1  0.55830000  0.80515000  0.31776000  1.0
  H  H20  1  0.70523000  0.23049000  0.81644000  1.0
  H  H21  1  0.29477000  0.76952000  0.31644000  1.0
  C  C22  1  0.72331000  0.87945000  0.80745000  1.0
  C  C23  1  0.27669000  0.12055000  0.30745000  1.0
  C  C24  1  0.90544000  0.98281000  0.79254000  1.0
  C  C25  1  0.09456000  0.01719000  0.29253000  1.0
  C  C26  1  0.89118000  0.79560000  0.96306000  1.0
  C  C27  1  0.10882000  0.20440000  0.46307000  1.0
  C  C28  1  0.54119000  0.86766000  0.73369000  1.0
  C  C29  1  0.45881000  0.13233000  0.23369000  1.0
  C  C30  1  0.50983000  0.96239000  0.63915000  1.0
  C  C31  1  0.49017000  0.03761000  0.13915000  1.0
  C  C32  1  0.22165000  0.74768000  0.68492000  1.0
  C  C33  1  0.77834000  0.25232000  0.18492000  1.0
  C  C34  1  0.58486000  0.36273000  0.68353000  1.0
  C  C35  1  0.41515000  0.63729000  0.18353000  1.0
  C  C36  1  0.58351000  0.28396000  0.81361000  1.0
  C  C37  1  0.41649000  0.71604000  0.31362000  1.0
  S  S38  1  0.07298000  0.95214000  0.90414000  1.0
  S  S39  1  0.92701000  0.04786000  0.40414000  1.0
  S  S40  1  0.26951000  0.90149000  0.58052000  1.0
  S  S41  1  0.73048000  0.09851000  0.08052000  1.0
  N  N42  1  0.71719000  0.77394000  0.90382000  1.0
  N  N43  1  0.28282000  0.22606000  0.40382000  1.0
  N  N44  1  0.92476000  0.71360000  0.06379000  1.0
  N  N45  1  0.07525000  0.28640000  0.56379000  1.0
  N  N46  1  0.37682000  0.74650000  0.75845000  1.0
  N  N47  1  0.62318000  0.25350000  0.25846000  1.0
  N  N48  1  0.04221000  0.64468000  0.69086000  1.0
  N  N49  1  0.95778000  0.35532000  0.19086000  1.0
  N  N50  1  0.59333000  0.38528000  0.92424000  1.0
  N  N51  1  0.40667000  0.61472000  0.42424000  1.0
  Cl  Cl52  1  0.07814000  0.37580000  0.88939000  1.0
  Cl  Cl53  1  0.92186000  0.62420000  0.38940000  1.0
  O  O54  1  0.48929000  0.45970000  0.67205000  1.0
  O  O55  1  0.51072000  0.54030000  0.17205000  1.0
  O  O56  1  0.67683000  0.32066000  0.58972000  1.0
  O  O57  1  0.32318000  0.67935000  0.08971000  1.0
