# generated using pymatgen
data_ZnH12C16N2O7
_symmetry_space_group_name_H-M   'P 1'
_cell_length_a   11.75600000
_cell_length_b   11.75600000
_cell_length_c   14.44170000
_cell_angle_alpha   71.77840000
_cell_angle_beta   71.77880000
_cell_angle_gamma   62.49930000
_symmetry_Int_Tables_number   1
_chemical_formula_structural   ZnH12C16N2O7
_chemical_formula_sum   'Zn4 H48 C64 N8 O28'
_cell_volume   1647.70137948
_cell_formula_units_Z   4
loop_
 _symmetry_equiv_pos_site_id
 _symmetry_equiv_pos_as_xyz
  1  'x, y, z'
loop_
 _atom_site_type_symbol
 _atom_site_label
 _atom_site_symmetry_multiplicity
 _atom_site_fract_x
 _atom_site_fract_y
 _atom_site_fract_z
 _atom_site_occupancy
  Zn  Zn0  1  0.33423000  0.14362000  0.43924000  1.0
  Zn  Zn1  1  0.85638000  0.66577000  0.06076000  1.0
  Zn  Zn2  1  0.66576000  0.85638000  0.56076000  1.0
  Zn  Zn3  1  0.14362000  0.33424000  0.93924000  1.0
  H  H4  1  0.02046000  0.56247000  0.26379000  1.0
  H  H5  1  0.43753000  0.97954000  0.23622000  1.0
  H  H6  1  0.97954000  0.43753000  0.73622000  1.0
  H  H7  1  0.56247000  0.02046000  0.76378000  1.0
  H  H8  1  0.91339000  0.73248000  0.78162000  1.0
  H  H9  1  0.26752000  0.08661000  0.71838000  1.0
  H  H10  1  0.08661000  0.26752000  0.21838000  1.0
  H  H11  1  0.73248000  0.91339000  0.28162000  1.0
  H  H12  1  0.32055000  0.64835000  0.65053000  1.0
  H  H13  1  0.35165000  0.67944000  0.84947000  1.0
  H  H14  1  0.67945000  0.35165000  0.34946000  1.0
  H  H15  1  0.64835000  0.32055000  0.15053000  1.0
  H  H16  1  0.02492000  0.03373000  0.57341000  1.0
  H  H17  1  0.96627000  0.97508000  0.92658000  1.0
  H  H18  1  0.97508000  0.96627000  0.42659000  1.0
  H  H19  1  0.03373000  0.02493000  0.07342000  1.0
  H  H20  1  0.25605000  0.38238000  0.25957000  1.0
  H  H21  1  0.61762000  0.74394000  0.24043000  1.0
  H  H22  1  0.74395000  0.61762000  0.74042000  1.0
  H  H23  1  0.38238000  0.25605000  0.75957000  1.0
  H  H24  1  0.06080000  0.18971000  0.59806000  1.0
  H  H25  1  0.81028000  0.93921000  0.90194000  1.0
  H  H26  1  0.93920000  0.81029000  0.40194000  1.0
  H  H27  1  0.18971000  0.06079000  0.09806000  1.0
  H  H28  1  0.82281000  0.30496000  0.66748000  1.0
  H  H29  1  0.69503000  0.17719000  0.83252000  1.0
  H  H30  1  0.17719000  0.69504000  0.33252000  1.0
  H  H31  1  0.30496000  0.82281000  0.16748000  1.0
  H  H32  1  0.77551000  0.61008000  0.40275000  1.0
  H  H33  1  0.38992000  0.22449000  0.09726000  1.0
  H  H34  1  0.22449000  0.38992000  0.59726000  1.0
  H  H35  1  0.61008000  0.77551000  0.90274000  1.0
  H  H36  1  0.68323000  0.51120000  0.57211000  1.0
  H  H37  1  0.48879000  0.31678000  0.92790000  1.0
  H  H38  1  0.31677000  0.48880000  0.42790000  1.0
  H  H39  1  0.51120000  0.68323000  0.07211000  1.0
  H  H40  1  0.41566000  0.07686000  0.59690000  1.0
  H  H41  1  0.92314000  0.58434000  0.90310000  1.0
  H  H42  1  0.58434000  0.92314000  0.40310000  1.0
  H  H43  1  0.07686000  0.41566000  0.09690000  1.0
  H  H44  1  0.47203000  0.18117000  0.53236000  1.0
  H  H45  1  0.81883000  0.52797000  0.96764000  1.0
  H  H46  1  0.52797000  0.81883000  0.46764000  1.0
  H  H47  1  0.18117000  0.47203000  0.03236000  1.0
  H  H48  1  0.70410000  0.14750000  0.61941000  1.0
  H  H49  1  0.85251000  0.29590000  0.88059000  1.0
  H  H50  1  0.29590000  0.85250000  0.38059000  1.0
  H  H51  1  0.14750000  0.70410000  0.11941000  1.0
  C  C52  1  0.99057000  0.76252000  0.73302000  1.0
  C  C53  1  0.23748000  0.00942000  0.76698000  1.0
  C  C54  1  0.00943000  0.23748000  0.26698000  1.0
  C  C55  1  0.76252000  0.99057000  0.23302000  1.0
  C  C56  1  0.16630000  0.54025000  0.78688000  1.0
  C  C57  1  0.45975000  0.83369000  0.71312000  1.0
  C  C58  1  0.83370000  0.45975000  0.21312000  1.0
  C  C59  1  0.54025000  0.16630000  0.28688000  1.0
  C  C60  1  0.18390000  0.84647000  0.60516000  1.0
  C  C61  1  0.15353000  0.81610000  0.89483000  1.0
  C  C62  1  0.81611000  0.15353000  0.39483000  1.0
  C  C63  1  0.84647000  0.18390000  0.10517000  1.0
  C  C64  1  0.21833000  0.71755000  0.65855000  1.0
  C  C65  1  0.28245000  0.78166000  0.84144000  1.0
  C  C66  1  0.78167000  0.28245000  0.34144000  1.0
  C  C67  1  0.71755000  0.21833000  0.15855000  1.0
  C  C68  1  0.12236000  0.67633000  0.72519000  1.0
  C  C69  1  0.32367000  0.87763000  0.77481000  1.0
  C  C70  1  0.87764000  0.32367000  0.27482000  1.0
  C  C71  1  0.67633000  0.12236000  0.22518000  1.0
  C  C72  1  0.95538000  0.89049000  0.67697000  1.0
  C  C73  1  0.10952000  0.04462000  0.82303000  1.0
  C  C74  1  0.04462000  0.10952000  0.32303000  1.0
  C  C75  1  0.89049000  0.95538000  0.17697000  1.0
  C  C76  1  0.05225000  0.93362000  0.61556000  1.0
  C  C77  1  0.06638000  0.94775000  0.88443000  1.0
  C  C78  1  0.94776000  0.06638000  0.38444000  1.0
  C  C79  1  0.93363000  0.05225000  0.11556000  1.0
  C  C80  1  0.04959000  0.33357000  0.46037000  1.0
  C  C81  1  0.66643000  0.95041000  0.03964000  1.0
  C  C82  1  0.95041000  0.66643000  0.53963000  1.0
  C  C83  1  0.33357000  0.04959000  0.96037000  1.0
  C  C84  1  0.28642000  0.89226000  0.53531000  1.0
  C  C85  1  0.10774000  0.71358000  0.96469000  1.0
  C  C86  1  0.71358000  0.10774000  0.46469000  1.0
  C  C87  1  0.89226000  0.28642000  0.03531000  1.0
  C  C88  1  0.17132000  0.38439000  0.31849000  1.0
  C  C89  1  0.61561000  0.82868000  0.18151000  1.0
  C  C90  1  0.82868000  0.61562000  0.68151000  1.0
  C  C91  1  0.38439000  0.17132000  0.81849000  1.0
  C  C92  1  0.81508000  0.97563000  0.67883000  1.0
  C  C93  1  0.02437000  0.18491000  0.82117000  1.0
  C  C94  1  0.18492000  0.02437000  0.32117000  1.0
  C  C95  1  0.97563000  0.81509000  0.17883000  1.0
  C  C96  1  0.96868000  0.45125000  0.40627000  1.0
  C  C97  1  0.54876000  0.03132000  0.09373000  1.0
  C  C98  1  0.03132000  0.54875000  0.59373000  1.0
  C  C99  1  0.45125000  0.96868000  0.90627000  1.0
  C  C100  1  0.99829000  0.27916000  0.55573000  1.0
  C  C101  1  0.72083000  0.00172000  0.94427000  1.0
  C  C102  1  0.00171000  0.72084000  0.44427000  1.0
  C  C103  1  0.27916000  0.99829000  0.05573000  1.0
  C  C104  1  0.86582000  0.34496000  0.59339000  1.0
  C  C105  1  0.65503000  0.13418000  0.90662000  1.0
  C  C106  1  0.13417000  0.65504000  0.40661000  1.0
  C  C107  1  0.34496000  0.86582000  0.09339000  1.0
  C  C108  1  0.83606000  0.51780000  0.44403000  1.0
  C  C109  1  0.48220000  0.16395000  0.05598000  1.0
  C  C110  1  0.16395000  0.48220000  0.55598000  1.0
  C  C111  1  0.51780000  0.83605000  0.94402000  1.0
  C  C112  1  0.78593000  0.46207000  0.53874000  1.0
  C  C113  1  0.53792000  0.21407000  0.96127000  1.0
  C  C114  1  0.21406000  0.53793000  0.46126000  1.0
  C  C115  1  0.46207000  0.78593000  0.03874000  1.0
  N  N116  1  0.17603000  0.29475000  0.40284000  1.0
  N  N117  1  0.70525000  0.82397000  0.09716000  1.0
  N  N118  1  0.82397000  0.70525000  0.59716000  1.0
  N  N119  1  0.29475000  0.17603000  0.90284000  1.0
  N  N120  1  0.04964000  0.47864000  0.31749000  1.0
  N  N121  1  0.52136000  0.95036000  0.18251000  1.0
  N  N122  1  0.95035000  0.52136000  0.68251000  1.0
  N  N123  1  0.47864000  0.04965000  0.81749000  1.0
  O  O124  1  0.07354000  0.50513000  0.84888000  1.0
  O  O125  1  0.49487000  0.92645000  0.65112000  1.0
  O  O126  1  0.92646000  0.49487000  0.15111000  1.0
  O  O127  1  0.50513000  0.07354000  0.34888000  1.0
  O  O128  1  0.38941000  0.16521000  0.55144000  1.0
  O  O129  1  0.83479000  0.61060000  0.94855000  1.0
  O  O130  1  0.61060000  0.83479000  0.44855000  1.0
  O  O131  1  0.16521000  0.38940000  0.05144000  1.0
  O  O132  1  0.26106000  0.01293000  0.52674000  1.0
  O  O133  1  0.98707000  0.73894000  0.97326000  1.0
  O  O134  1  0.73894000  0.98707000  0.47326000  1.0
  O  O135  1  0.01293000  0.26106000  0.02674000  1.0
  O  O136  1  0.72752000  0.93459000  0.71277000  1.0
  O  O137  1  0.06541000  0.27248000  0.78723000  1.0
  O  O138  1  0.27248000  0.06541000  0.28723000  1.0
  O  O139  1  0.93459000  0.72752000  0.21277000  1.0
  O  O140  1  0.38641000  0.81164000  0.48846000  1.0
  O  O141  1  0.18836000  0.61360000  0.01154000  1.0
  O  O142  1  0.61360000  0.18836000  0.51154000  1.0
  O  O143  1  0.81164000  0.38640000  0.98846000  1.0
  O  O144  1  0.28436000  0.46686000  0.77962000  1.0
  O  O145  1  0.53314000  0.71563000  0.72038000  1.0
  O  O146  1  0.71564000  0.53314000  0.22038000  1.0
  O  O147  1  0.46686000  0.28436000  0.27962000  1.0
  O  O148  1  0.79176000  0.10181000  0.63721000  1.0
  O  O149  1  0.89820000  0.20824000  0.86279000  1.0
  O  O150  1  0.20824000  0.89819000  0.36279000  1.0
  O  O151  1  0.10181000  0.79177000  0.13721000  1.0
