# generated using pymatgen
data_MnH3(CO2)3
_symmetry_space_group_name_H-M   'P 1'
_cell_length_a   8.08208638
_cell_length_b   8.10677000
_cell_length_c   8.43865888
_cell_angle_alpha   61.76791672
_cell_angle_beta   61.40200525
_cell_angle_gamma   60.13861862
_symmetry_Int_Tables_number   1
_chemical_formula_structural   MnH3(CO2)3
_chemical_formula_sum   'Mn2 H6 C6 O12'
_cell_volume   400.49161145
_cell_formula_units_Z   2
loop_
 _symmetry_equiv_pos_site_id
 _symmetry_equiv_pos_as_xyz
  1  'x, y, z'
loop_
 _atom_site_type_symbol
 _atom_site_label
 _atom_site_symmetry_multiplicity
 _atom_site_fract_x
 _atom_site_fract_y
 _atom_site_fract_z
 _atom_site_occupancy
  Mn  Mn0  1  0.99998000  0.00004000  0.00001000  1.0
  Mn  Mn1  1  0.50003000  0.50001000  0.50001000  1.0
  H  H2  1  0.75235000  0.35306000  0.75375000  1.0
  H  H3  1  0.35902000  0.14675000  0.74641000  1.0
  H  H4  1  0.14339000  0.74986000  0.74976000  1.0
  H  H5  1  0.24765000  0.64692000  0.24626000  1.0
  H  H6  1  0.64104000  0.85322000  0.25353000  1.0
  H  H7  1  0.85650000  0.25013000  0.25018000  1.0
  C  C8  1  0.75250000  0.21709000  0.75319000  1.0
  C  C9  1  0.22274000  0.28266000  0.74698000  1.0
  C  C10  1  0.27998000  0.74981000  0.74983000  1.0
  C  C11  1  0.24754000  0.78289000  0.24687000  1.0
  C  C12  1  0.77738000  0.71734000  0.25296000  1.0
  C  C13  1  0.71988000  0.25019000  0.25019000  1.0
  O  O14  1  0.85427000  0.04619000  0.84239000  1.0
  O  O15  1  0.05055000  0.26792000  0.83501000  1.0
  O  O16  1  0.26280000  0.85026000  0.83882000  1.0
  O  O17  1  0.65365000  0.23168000  0.66519000  1.0
  O  O18  1  0.45218000  0.64924000  0.66065000  1.0
  O  O19  1  0.24278000  0.45359000  0.65784000  1.0
  O  O20  1  0.14566000  0.95383000  0.15775000  1.0
  O  O21  1  0.94951000  0.73231000  0.16486000  1.0
  O  O22  1  0.73702000  0.14989000  0.16106000  1.0
  O  O23  1  0.34647000  0.76813000  0.33487000  1.0
  O  O24  1  0.54773000  0.35065000  0.33956000  1.0
  O  O25  1  0.75741000  0.54636000  0.34209000  1.0
