# generated using pymatgen
data_CoH8C11N4O3
_symmetry_space_group_name_H-M   'P 1'
_cell_length_a   7.72698000
_cell_length_b   9.65140000
_cell_length_c   14.86570000
_cell_angle_alpha   90.77510000
_cell_angle_beta   89.99980000
_cell_angle_gamma   89.99960000
_symmetry_Int_Tables_number   1
_chemical_formula_structural   CoH8C11N4O3
_chemical_formula_sum   'Co4 H32 C44 N16 O12'
_cell_volume   1108.52559898
_cell_formula_units_Z   4
loop_
 _symmetry_equiv_pos_site_id
 _symmetry_equiv_pos_as_xyz
  1  'x, y, z'
loop_
 _atom_site_type_symbol
 _atom_site_label
 _atom_site_symmetry_multiplicity
 _atom_site_fract_x
 _atom_site_fract_y
 _atom_site_fract_z
 _atom_site_occupancy
  Co  Co0  1  0.98171000  0.57006000  0.09408000  1.0
  Co  Co1  1  0.48172000  0.42995000  0.40591000  1.0
  Co  Co2  1  0.01827000  0.42994000  0.90591000  1.0
  Co  Co3  1  0.51829000  0.57006000  0.59409000  1.0
  H  H4  1  0.80656000  0.28699000  0.46448000  1.0
  H  H5  1  0.30656000  0.71302000  0.03552000  1.0
  H  H6  1  0.19344000  0.71302000  0.53552000  1.0
  H  H7  1  0.69343000  0.28699000  0.96448000  1.0
  H  H8  1  0.05376000  0.08917000  0.29648000  1.0
  H  H9  1  0.55375000  0.91084000  0.20352000  1.0
  H  H10  1  0.94625000  0.91083000  0.70352000  1.0
  H  H11  1  0.44625000  0.08916000  0.79648000  1.0
  H  H12  1  0.14479000  0.83989000  0.29892000  1.0
  H  H13  1  0.64478000  0.16011000  0.20108000  1.0
  H  H14  1  0.85522000  0.16011000  0.70109000  1.0
  H  H15  1  0.35521000  0.83989000  0.79892000  1.0
  H  H16  1  0.73159000  0.85047000  0.41228000  1.0
  H  H17  1  0.23159000  0.14953000  0.08772000  1.0
  H  H18  1  0.26842000  0.14954000  0.58772000  1.0
  H  H19  1  0.76842000  0.85046000  0.91229000  1.0
  H  H20  1  0.42923000  0.77347000  0.35534000  1.0
  H  H21  1  0.92923000  0.22653000  0.14466000  1.0
  H  H22  1  0.57078000  0.22653000  0.64466000  1.0
  H  H23  1  0.07077000  0.77347000  0.85534000  1.0
  H  H24  1  0.01761000  0.36567000  0.30540000  1.0
  H  H25  1  0.51761000  0.63433000  0.19459000  1.0
  H  H26  1  0.98239000  0.63432000  0.69460000  1.0
  H  H27  1  0.48239000  0.36567000  0.80541000  1.0
  H  H28  1  0.17205000  0.30647000  0.22402000  1.0
  H  H29  1  0.67203000  0.69354000  0.27597000  1.0
  H  H30  1  0.82796000  0.69352000  0.77597000  1.0
  H  H31  1  0.32798000  0.30646000  0.72403000  1.0
  H  H32  1  0.92232000  0.04693000  0.46075000  1.0
  H  H33  1  0.42232000  0.95307000  0.03925000  1.0
  H  H34  1  0.07768000  0.95308000  0.53925000  1.0
  H  H35  1  0.57768000  0.04693000  0.96076000  1.0
  C  C36  1  0.22139000  0.51317000  0.27616000  1.0
  C  C37  1  0.72138000  0.48682000  0.22384000  1.0
  C  C38  1  0.77861000  0.48683000  0.72384000  1.0
  C  C39  1  0.27862000  0.51317000  0.77616000  1.0
  C  C40  1  0.46010000  0.12705000  0.38552000  1.0
  C  C41  1  0.96009000  0.87295000  0.11448000  1.0
  C  C42  1  0.53991000  0.87295000  0.61448000  1.0
  C  C43  1  0.03991000  0.12705000  0.88552000  1.0
  C  C44  1  0.72579000  0.20109000  0.44113000  1.0
  C  C45  1  0.22579000  0.79892000  0.05887000  1.0
  C  C46  1  0.27421000  0.79892000  0.55887000  1.0
  C  C47  1  0.77421000  0.20109000  0.94112000  1.0
  C  C48  1  0.51215000  0.98525000  0.38518000  1.0
  C  C49  1  0.01214000  0.01476000  0.11482000  1.0
  C  C50  1  0.48786000  0.01475000  0.61482000  1.0
  C  C51  1  0.98786000  0.98524000  0.88518000  1.0
  C  C52  1  0.29298000  0.16217000  0.35300000  1.0
  C  C53  1  0.79297000  0.83783000  0.14700000  1.0
  C  C54  1  0.70703000  0.83783000  0.64700000  1.0
  C  C55  1  0.20703000  0.16216000  0.85300000  1.0
  C  C56  1  0.18102000  0.06099000  0.32177000  1.0
  C  C57  1  0.68101000  0.93901000  0.17822000  1.0
  C  C58  1  0.81899000  0.93900000  0.67823000  1.0
  C  C59  1  0.31899000  0.06099000  0.82178000  1.0
  C  C60  1  0.23281000  0.92048000  0.32315000  1.0
  C  C61  1  0.73280000  0.07953000  0.17685000  1.0
  C  C62  1  0.76720000  0.07952000  0.67685000  1.0
  C  C63  1  0.26719000  0.92047000  0.82315000  1.0
  C  C64  1  0.68372000  0.95674000  0.41314000  1.0
  C  C65  1  0.18371000  0.04327000  0.08686000  1.0
  C  C66  1  0.31629000  0.04327000  0.58686000  1.0
  C  C67  1  0.81629000  0.95673000  0.91314000  1.0
  C  C68  1  0.39386000  0.88272000  0.35462000  1.0
  C  C69  1  0.89385000  0.11728000  0.14539000  1.0
  C  C70  1  0.60615000  0.11728000  0.64539000  1.0
  C  C71  1  0.10615000  0.88272000  0.85462000  1.0
  C  C72  1  0.15542000  0.36491000  0.28737000  1.0
  C  C73  1  0.65541000  0.63509000  0.21263000  1.0
  C  C74  1  0.84459000  0.63509000  0.71263000  1.0
  C  C75  1  0.34459000  0.36490000  0.78738000  1.0
  C  C76  1  0.78931000  0.06447000  0.44019000  1.0
  C  C77  1  0.28931000  0.93553000  0.05981000  1.0
  C  C78  1  0.21069000  0.93554000  0.55981000  1.0
  C  C79  1  0.71069000  0.06447000  0.94019000  1.0
  N  N80  1  0.84720000  0.54725000  0.97220000  1.0
  N  N81  1  0.34721000  0.45276000  0.52780000  1.0
  N  N82  1  0.15277000  0.45276000  0.02780000  1.0
  N  N83  1  0.65279000  0.54725000  0.47220000  1.0
  N  N84  1  0.56644000  0.23202000  0.41424000  1.0
  N  N85  1  0.06644000  0.76799000  0.08575000  1.0
  N  N86  1  0.43356000  0.76798000  0.58575000  1.0
  N  N87  1  0.93355000  0.23201000  0.91424000  1.0
  N  N88  1  0.70625000  0.59181000  0.95181000  1.0
  N  N89  1  0.20626000  0.40819000  0.54820000  1.0
  N  N90  1  0.29374000  0.40819000  0.04819000  1.0
  N  N91  1  0.79374000  0.59181000  0.45180000  1.0
  N  N92  1  0.57173000  0.63783000  0.93303000  1.0
  N  N93  1  0.07175000  0.36217000  0.56697000  1.0
  N  N94  1  0.42825000  0.36218000  0.06696000  1.0
  N  N95  1  0.92826000  0.63782000  0.43302000  1.0
  O  O96  1  0.15602000  0.58782000  0.21666000  1.0
  O  O97  1  0.65603000  0.41218000  0.28333000  1.0
  O  O98  1  0.84397000  0.41217000  0.78334000  1.0
  O  O99  1  0.34396000  0.58781000  0.71667000  1.0
  O  O100  1  0.34349000  0.55390000  0.32837000  1.0
  O  O101  1  0.84351000  0.44610000  0.17162000  1.0
  O  O102  1  0.65650000  0.44610000  0.67163000  1.0
  O  O103  1  0.15649000  0.55389000  0.82838000  1.0
  O  O104  1  0.25652000  0.30127000  0.35732000  1.0
  O  O105  1  0.75652000  0.69873000  0.14268000  1.0
  O  O106  1  0.74348000  0.69872000  0.64268000  1.0
  O  O107  1  0.24347000  0.30127000  0.85732000  1.0
