# generated using pymatgen
data_CuH12C16NO4
_symmetry_space_group_name_H-M   'P 1'
_cell_length_a   9.64971000
_cell_length_b   9.84413000
_cell_length_c   10.78310000
_cell_angle_alpha   89.81810000
_cell_angle_beta   82.44860000
_cell_angle_gamma   61.21270000
_symmetry_Int_Tables_number   1
_chemical_formula_structural   CuH12C16NO4
_chemical_formula_sum   'Cu2 H24 C32 N2 O8'
_cell_volume   887.80880228
_cell_formula_units_Z   2
loop_
 _symmetry_equiv_pos_site_id
 _symmetry_equiv_pos_as_xyz
  1  'x, y, z'
loop_
 _atom_site_type_symbol
 _atom_site_label
 _atom_site_symmetry_multiplicity
 _atom_site_fract_x
 _atom_site_fract_y
 _atom_site_fract_z
 _atom_site_occupancy
  Cu  Cu0  1  0.62669000  0.50753000  0.50860000  1.0
  Cu  Cu1  1  0.37331000  0.49247000  0.49140000  1.0
  H  H2  1  0.93504000  0.04482000  0.61039000  1.0
  H  H3  1  0.06495000  0.95518000  0.38960000  1.0
  H  H4  1  0.05178000  0.78994000  0.70749000  1.0
  H  H5  1  0.94823000  0.21006000  0.29250000  1.0
  H  H6  1  0.88330000  0.66581000  0.76724000  1.0
  H  H7  1  0.11670000  0.33419000  0.23274000  1.0
  H  H8  1  0.60568000  0.78578000  0.71686000  1.0
  H  H9  1  0.39431000  0.21424000  0.28314000  1.0
  H  H10  1  0.48982000  0.04165000  0.62149000  1.0
  H  H11  1  0.51018000  0.95836000  0.37851000  1.0
  H  H12  1  0.53112000  0.69566000  0.89630000  1.0
  H  H13  1  0.46885000  0.30436000  0.10371000  1.0
  H  H14  1  0.43580000  0.77049000  0.12487000  1.0
  H  H15  1  0.56418000  0.22953000  0.87513000  1.0
  H  H16  1  0.20685000  0.74382000  0.22873000  1.0
  H  H17  1  0.79316000  0.25616000  0.77128000  1.0
  H  H18  1  0.06265000  0.65318000  0.10324000  1.0
  H  H19  1  0.93737000  0.34677000  0.89678000  1.0
  H  H20  1  0.15566000  0.58418000  0.87374000  1.0
  H  H21  1  0.84433000  0.41581000  0.12628000  1.0
  H  H22  1  0.93580000  0.33064000  0.63105000  1.0
  H  H23  1  0.06422000  0.66934000  0.36895000  1.0
  H  H24  1  0.79283000  0.67973000  0.38418000  1.0
  H  H25  1  0.20720000  0.32026000  0.61582000  1.0
  C  C26  1  0.63132000  0.21781000  0.56329000  1.0
  C  C27  1  0.36868000  0.78218000  0.43670000  1.0
  C  C28  1  0.70432000  0.06019000  0.61302000  1.0
  C  C29  1  0.29568000  0.93981000  0.38697000  1.0
  C  C30  1  0.86328000  0.98827000  0.63595000  1.0
  C  C31  1  0.13672000  0.01172000  0.36404000  1.0
  C  C32  1  0.92773000  0.84664000  0.69112000  1.0
  C  C33  1  0.07227000  0.15336000  0.30887000  1.0
  C  C34  1  0.83333000  0.77626000  0.72331000  1.0
  C  C35  1  0.16667000  0.22374000  0.27668000  1.0
  C  C36  1  0.67642000  0.84460000  0.69711000  1.0
  C  C37  1  0.32358000  0.15540000  0.30288000  1.0
  C  C38  1  0.61194000  0.98646000  0.64221000  1.0
  C  C39  1  0.38805000  0.01355000  0.35778000  1.0
  C  C40  1  0.40624000  0.58831000  0.73500000  1.0
  C  C41  1  0.59375000  0.41171000  0.26501000  1.0
  C  C42  1  0.34814000  0.63667000  0.87130000  1.0
  C  C43  1  0.65183000  0.36334000  0.12870000  1.0
  C  C44  1  0.42709000  0.68932000  0.94200000  1.0
  C  C45  1  0.57289000  0.31071000  0.05800000  1.0
  C  C46  1  0.37423000  0.72981000  0.06978000  1.0
  C  C47  1  0.62576000  0.27020000  0.93023000  1.0
  C  C48  1  0.24387000  0.71603000  0.12811000  1.0
  C  C49  1  0.75613000  0.28396000  0.87190000  1.0
  C  C50  1  0.16448000  0.66417000  0.05792000  1.0
  C  C51  1  0.83553000  0.33581000  0.94209000  1.0
  C  C52  1  0.21566000  0.62547000  0.92981000  1.0
  C  C53  1  0.78433000  0.37453000  0.07020000  1.0
  C  C54  1  0.96534000  0.40664000  0.57303000  1.0
  C  C55  1  0.03468000  0.59334000  0.42697000  1.0
  C  C56  1  0.88667000  0.59920000  0.43530000  1.0
  C  C57  1  0.11336000  0.40078000  0.56470000  1.0
  N  N58  1  0.85254000  0.50583000  0.50848000  1.0
  N  N59  1  0.14748000  0.49415000  0.49152000  1.0
  O  O60  1  0.71498000  0.28703000  0.55372000  1.0
  O  O61  1  0.28504000  0.71296000  0.44625000  1.0
  O  O62  1  0.48955000  0.27320000  0.53734000  1.0
  O  O63  1  0.51045000  0.72681000  0.46268000  1.0
  O  O64  1  0.53957000  0.57921000  0.68917000  1.0
  O  O65  1  0.46043000  0.42077000  0.31084000  1.0
  O  O66  1  0.31756000  0.55854000  0.67448000  1.0
  O  O67  1  0.68242000  0.44149000  0.32552000  1.0
