# generated using pymatgen
data_AgH8C9S2N5O3
_symmetry_space_group_name_H-M   'P 1'
_cell_length_a   7.31523000
_cell_length_b   8.75488000
_cell_length_c   10.14530000
_cell_angle_alpha   90.00000000
_cell_angle_beta   106.71100000
_cell_angle_gamma   89.99970000
_symmetry_Int_Tables_number   1
_chemical_formula_structural   AgH8C9S2N5O3
_chemical_formula_sum   'Ag2 H16 C18 S4 N10 O6'
_cell_volume   622.30470695
_cell_formula_units_Z   2
loop_
 _symmetry_equiv_pos_site_id
 _symmetry_equiv_pos_as_xyz
  1  'x, y, z'
loop_
 _atom_site_type_symbol
 _atom_site_label
 _atom_site_symmetry_multiplicity
 _atom_site_fract_x
 _atom_site_fract_y
 _atom_site_fract_z
 _atom_site_occupancy
  Ag  Ag0  1  0.14381000  0.75046000  0.53544000  1.0
  Ag  Ag1  1  0.85620000  0.25046000  0.46456000  1.0
  H  H2  1  0.11779000  0.12217000  0.75091000  1.0
  H  H3  1  0.88221000  0.62216000  0.24909000  1.0
  H  H4  1  0.24245000  0.20170000  0.99802000  1.0
  H  H5  1  0.75754000  0.70170000  0.00198000  1.0
  H  H6  1  0.14717000  0.46750000  0.05983000  1.0
  H  H7  1  0.85281000  0.96750000  0.94018000  1.0
  H  H8  1  0.88196000  0.74093000  0.78953000  1.0
  H  H9  1  0.11804000  0.24093000  0.21046000  1.0
  H  H10  1  0.63504000  0.77225000  0.68955000  1.0
  H  H11  1  0.36496000  0.27224000  0.31045000  1.0
  H  H12  1  0.37325000  0.68333000  0.25611000  1.0
  H  H13  1  0.62676000  0.18332000  0.74389000  1.0
  H  H14  1  0.37566000  0.89201000  0.08130000  1.0
  H  H15  1  0.62435000  0.39199000  0.91871000  1.0
  H  H16  1  0.58755000  0.12046000  0.16800000  1.0
  H  H17  1  0.41246000  0.62045000  0.83200000  1.0
  C  C18  1  0.08547000  0.23392000  0.78525000  1.0
  C  C19  1  0.91453000  0.73392000  0.21476000  1.0
  C  C20  1  0.15312000  0.27833000  0.92215000  1.0
  C  C21  1  0.84687000  0.77833000  0.07785000  1.0
  C  C22  1  0.10109000  0.42350000  0.95479000  1.0
  C  C23  1  0.89889000  0.92350000  0.04521000  1.0
  C  C24  1  0.93770000  0.46626000  0.72982000  1.0
  C  C25  1  0.06230000  0.96626000  0.27018000  1.0
  C  C26  1  0.78163000  0.75249000  0.68604000  1.0
  C  C27  1  0.21837000  0.25248000  0.31396000  1.0
  C  C28  1  0.68537000  0.91520000  0.44827000  1.0
  C  C29  1  0.31463000  0.41520000  0.55173000  1.0
  C  C30  1  0.46157000  0.78532000  0.28363000  1.0
  C  C31  1  0.53845000  0.28531000  0.71637000  1.0
  C  C32  1  0.46152000  0.90000000  0.18837000  1.0
  C  C33  1  0.53849000  0.39999000  0.81163000  1.0
  C  C34  1  0.57816000  0.02593000  0.23571000  1.0
  C  C35  1  0.42185000  0.52592000  0.76429000  1.0
  S  S36  1  0.79529000  0.57726000  0.59464000  1.0
  S  S37  1  0.20471000  0.07725000  0.40535000  1.0
  S  S38  1  0.85700000  0.91794000  0.61026000  1.0
  S  S39  1  0.14300000  0.41793000  0.38973000  1.0
  N  N40  1  0.97600000  0.32589000  0.68802000  1.0
  N  N41  1  0.02400000  0.82588000  0.31198000  1.0
  N  N42  1  0.99459000  0.51754000  0.85901000  1.0
  N  N43  1  0.00539000  0.01754000  0.14099000  1.0
  N  N44  1  0.57435000  0.79243000  0.41358000  1.0
  N  N45  1  0.42565000  0.29243000  0.58641000  1.0
  N  N46  1  0.68930000  0.03629000  0.36686000  1.0
  N  N47  1  0.31071000  0.53628000  0.63314000  1.0
  N  N48  1  0.37065000  0.92837000  0.81889000  1.0
  N  N49  1  0.62935000  0.42837000  0.18111000  1.0
  O  O50  1  0.39543000  0.90104000  0.70083000  1.0
  O  O51  1  0.60457000  0.40105000  0.29918000  1.0
  O  O52  1  0.23419000  0.86432000  0.85177000  1.0
  O  O53  1  0.76580000  0.36432000  0.14824000  1.0
  O  O54  1  0.48179000  0.01941000  0.89989000  1.0
  O  O55  1  0.51820000  0.51941000  0.10011000  1.0
