# generated using pymatgen
data_Cu3H12C15N7
_symmetry_space_group_name_H-M   'P 1'
_cell_length_a   20.75570000
_cell_length_b   23.54300000
_cell_length_c   24.00820000
_cell_angle_alpha   79.10120000
_cell_angle_beta   84.94680000
_cell_angle_gamma   87.50180000
_symmetry_Int_Tables_number   1
_chemical_formula_structural   Cu3H12C15N7
_chemical_formula_sum   'Cu12 H48 C60 N28'
_cell_volume   11470.90849691
_cell_formula_units_Z   4
loop_
 _symmetry_equiv_pos_site_id
 _symmetry_equiv_pos_as_xyz
  1  'x, y, z'
loop_
 _atom_site_type_symbol
 _atom_site_label
 _atom_site_symmetry_multiplicity
 _atom_site_fract_x
 _atom_site_fract_y
 _atom_site_fract_z
 _atom_site_occupancy
  Cu  Cu0  1  0.66907000  0.30799000  0.31640000  1.0
  Cu  Cu1  1  0.69040000  0.27732000  0.44391000  1.0
  Cu  Cu2  1  0.71486000  0.40620000  0.37669000  1.0
  Cu  Cu3  1  0.90180000  0.65097000  0.83526000  1.0
  Cu  Cu4  1  0.80849000  0.65794000  0.94811000  1.0
  Cu  Cu5  1  0.78142000  0.57064000  0.86889000  1.0
  Cu  Cu6  1  0.41675000  0.86980000  0.16564000  1.0
  Cu  Cu7  1  0.33581000  0.84696000  0.06744000  1.0
  Cu  Cu8  1  0.27914000  0.93712000  0.13983000  1.0
  Cu  Cu9  1  0.10702000  0.17284000  0.67474000  1.0
  Cu  Cu10  1  0.17208000  0.21775000  0.55096000  1.0
  Cu  Cu11  1  0.19459000  0.08747000  0.60998000  1.0
  H  H12  1  0.58336000  0.20606000  0.30051000  1.0
  H  H13  1  0.59044000  0.17377000  0.48369000  1.0
  H  H14  1  0.68008000  0.51725000  0.28244000  1.0
  H  H15  1  0.65193000  0.37711000  0.19412000  1.0
  H  H16  1  0.77446000  0.27473000  0.54760000  1.0
  H  H17  1  0.79050000  0.45497000  0.46691000  1.0
  H  H18  1  0.99132000  0.75717000  0.83338000  1.0
  H  H19  1  0.87969000  0.75307000  0.99510000  1.0
  H  H20  1  0.80344000  0.48937000  0.77765000  1.0
  H  H21  1  0.97535000  0.59183000  0.73682000  1.0
  H  H22  1  0.68777000  0.63426000  0.04184000  1.0
  H  H23  1  0.64797000  0.52023000  0.92763000  1.0
  H  H24  1  0.52172000  0.76459000  0.16900000  1.0
  H  H25  1  0.41803000  0.74643000  0.02474000  1.0
  H  H26  1  0.26706000  0.01116000  0.23640000  1.0
  H  H27  1  0.45930000  0.93592000  0.25898000  1.0
  H  H28  1  0.23020000  0.85325000  0.97911000  1.0
  H  H29  1  0.15409000  0.98554000  0.07194000  1.0
  H  H30  1  0.01608000  0.28007000  0.69287000  1.0
  H  H31  1  0.08765000  0.33301000  0.51635000  1.0
  H  H32  1  0.17318000  0.96889000  0.69654000  1.0
  H  H33  1  0.06244000  0.08697000  0.78871000  1.0
  H  H34  1  0.27864000  0.22737000  0.44655000  1.0
  H  H35  1  0.30085000  0.04582000  0.52144000  1.0
  H  H36  1  0.99434000  0.82304000  0.97566000  1.0
  H  H37  1  0.00499000  0.86898000  0.84587000  1.0
  H  H38  1  0.48630000  0.12270000  0.44382000  1.0
  H  H39  1  0.51864000  0.11377000  0.31771000  1.0
  H  H40  1  0.97334000  0.39150000  0.55064000  1.0
  H  H41  1  0.96075000  0.38441000  0.68104000  1.0
  H  H42  1  0.50769000  0.66089000  0.05032000  1.0
  H  H43  1  0.57643000  0.66374000  0.15869000  1.0
  H  H44  1  0.11649000  0.91565000  0.79884000  1.0
  H  H45  1  0.04729000  0.99786000  0.87222000  1.0
  H  H46  1  0.61942000  0.48086000  0.13412000  1.0
  H  H47  1  0.62926000  0.58485000  0.19399000  1.0
  H  H48  1  0.32813000  0.04213000  0.32706000  1.0
  H  H49  1  0.47596000  0.03033000  0.30024000  1.0
  H  H50  1  0.97218000  0.48412000  0.68689000  1.0
  H  H51  1  0.82673000  0.48327000  0.66823000  1.0
  H  H52  1  0.10987000  0.98385000  0.95224000  1.0
  H  H53  1  0.09776000  0.85102000  0.96700000  1.0
  H  H54  1  0.86410000  0.33673000  0.59173000  1.0
  H  H55  1  0.82416000  0.46629000  0.57190000  1.0
  H  H56  1  0.55132000  0.52670000  0.00957000  1.0
  H  H57  1  0.50753000  0.54680000  0.09824000  1.0
  H  H58  1  0.38420000  0.16907000  0.39844000  1.0
  H  H59  1  0.36015000  0.03787000  0.41969000  1.0
  C  C60  1  0.59412000  0.20381000  0.34432000  1.0
  C  C61  1  0.56561000  0.17055000  0.39468000  1.0
  C  C62  1  0.59715000  0.18810000  0.43789000  1.0
  C  C63  1  0.67620000  0.47649000  0.26831000  1.0
  C  C64  1  0.65719000  0.46539000  0.21655000  1.0
  C  C65  1  0.66236000  0.40477000  0.22344000  1.0
  C  C66  1  0.77175000  0.31735000  0.52086000  1.0
  C  C67  1  0.79862000  0.36931000  0.52734000  1.0
  C  C68  1  0.77905000  0.40963000  0.48031000  1.0
  C  C69  1  0.95710000  0.74949000  0.87073000  1.0
  C  C70  1  0.95157000  0.77602000  0.91882000  1.0
  C  C71  1  0.90090000  0.74660000  0.95371000  1.0
  C  C72  1  0.84115000  0.52075000  0.77369000  1.0
  C  C73  1  0.89873000  0.52637000  0.73782000  1.0
  C  C74  1  0.92960000  0.57222000  0.75365000  1.0
  C  C75  1  0.68797000  0.60877000  0.00866000  1.0
  C  C76  1  0.64203000  0.56974000  0.99976000  1.0
  C  C77  1  0.66746000  0.55084000  0.94992000  1.0
  C  C78  1  0.49029000  0.76813000  0.13462000  1.0
  C  C79  1  0.48721000  0.73291000  0.09361000  1.0
  C  C80  1  0.43730000  0.75926000  0.06096000  1.0
  C  C81  1  0.31294000  0.98729000  0.23490000  1.0
  C  C82  1  0.36666000  0.98907000  0.26629000  1.0
  C  C83  1  0.41145000  0.94966000  0.24591000  1.0
  C  C84  1  0.21915000  0.88242000  0.00887000  1.0
  C  C85  1  0.16899000  0.92444000  0.00956000  1.0
  C  C86  1  0.18096000  0.95092000  0.05533000  1.0
  C  C87  1  0.04182000  0.28597000  0.65091000  1.0
  C  C88  1  0.03287000  0.32880000  0.60246000  1.0
  C  C89  1  0.07787000  0.31247000  0.56059000  1.0
  C  C90  1  0.14861000  0.00549000  0.71154000  1.0
  C  C91  1  0.11072000  0.00681000  0.76277000  1.0
  C  C92  1  0.09230000  0.06557000  0.75902000  1.0
  C  C93  1  0.27570000  0.18401000  0.47182000  1.0
  C  C94  1  0.31114000  0.13342000  0.46402000  1.0
  C  C95  1  0.28644000  0.09105000  0.50942000  1.0
  C  C96  1  0.98880000  0.82237000  0.93096000  1.0
  C  C97  1  0.01544000  0.86465000  0.89029000  1.0
  C  C98  1  0.51277000  0.13109000  0.40188000  1.0
  C  C99  1  0.49188000  0.10789000  0.35955000  1.0
  C  C100  1  0.98485000  0.37528000  0.59445000  1.0
  C  C101  1  0.94911000  0.39564000  0.63664000  1.0
  C  C102  1  0.52048000  0.67919000  0.08629000  1.0
  C  C103  1  0.56149000  0.64804000  0.12196000  1.0
  C  C104  1  0.09766000  0.95745000  0.80774000  1.0
  C  C105  1  0.06622000  0.95792000  0.85899000  1.0
  C  C106  1  0.63193000  0.50268000  0.16781000  1.0
  C  C107  1  0.61804000  0.56006000  0.16211000  1.0
  C  C108  1  0.37288000  0.02541000  0.30777000  1.0
  C  C109  1  0.43011000  0.04205000  0.32169000  1.0
  C  C110  1  0.92029000  0.49246000  0.69474000  1.0
  C  C111  1  0.87807000  0.47098000  0.66458000  1.0
  C  C112  1  0.12001000  0.93819000  0.96889000  1.0
  C  C113  1  0.09185000  0.89678000  0.94792000  1.0
  C  C114  1  0.83908000  0.37603000  0.57153000  1.0
  C  C115  1  0.85011000  0.42608000  0.58830000  1.0
  C  C116  1  0.58107000  0.55207000  0.03069000  1.0
  C  C117  1  0.55556000  0.56245000  0.08128000  1.0
  C  C118  1  0.36159000  0.12876000  0.41958000  1.0
  C  C119  1  0.38362000  0.07909000  0.40339000  1.0
  N  N120  1  0.64100000  0.22842000  0.41489000  1.0
  N  N121  1  0.63900000  0.23825000  0.35679000  1.0
  N  N122  1  0.68204000  0.38160000  0.27520000  1.0
  N  N123  1  0.69067000  0.42620000  0.30310000  1.0
  N  N124  1  0.74323000  0.38350000  0.44868000  1.0
  N  N125  1  0.73839000  0.32626000  0.47415000  1.0
  N  N126  1  0.87785000  0.70617000  0.92815000  1.0
  N  N127  1  0.91290000  0.70783000  0.87664000  1.0
  N  N128  1  0.89271000  0.59260000  0.79517000  1.0
  N  N129  1  0.83793000  0.56047000  0.80773000  1.0
  N  N130  1  0.72390000  0.57641000  0.93074000  1.0
  N  N131  1  0.73651000  0.61255000  0.96715000  1.0
  N  N132  1  0.41214000  0.80582000  0.08132000  1.0
  N  N133  1  0.44520000  0.81151000  0.12690000  1.0
  N  N134  1  0.38631000  0.92686000  0.20525000  1.0
  N  N135  1  0.32519000  0.95044000  0.19824000  1.0
  N  N136  1  0.23388000  0.92609000  0.08002000  1.0
  N  N137  1  0.25772000  0.88379000  0.05094000  1.0
  N  N138  1  0.11094000  0.26398000  0.58251000  1.0
  N  N139  1  0.08838000  0.24738000  0.63856000  1.0
  N  N140  1  0.11754000  0.09643000  0.70944000  1.0
  N  N141  1  0.15253000  0.05912000  0.67990000  1.0
  N  N142  1  0.23981000  0.11484000  0.54131000  1.0
  N  N143  1  0.23294000  0.17246000  0.51784000  1.0
  N  N144  1  0.05730000  0.90579000  0.89975000  1.0
  N  N145  1  0.43628000  0.07532000  0.36309000  1.0
  N  N146  1  0.89372000  0.43154000  0.62873000  1.0
  N  N147  1  0.58630000  0.59292000  0.11733000  1.0
