# generated using pymatgen
data_Ni3H30C20(NO5)4
_symmetry_space_group_name_H-M   'P 1'
_cell_length_a   7.41305000
_cell_length_b   8.70195000
_cell_length_c   11.63750000
_cell_angle_alpha   92.58240000
_cell_angle_beta   102.22000000
_cell_angle_gamma   91.96320000
_symmetry_Int_Tables_number   1
_chemical_formula_structural   Ni3H30C20(NO5)4
_chemical_formula_sum   'Ni3 H30 C20 N4 O20'
_cell_volume   732.21933250
_cell_formula_units_Z   1
loop_
 _symmetry_equiv_pos_site_id
 _symmetry_equiv_pos_as_xyz
  1  'x, y, z'
loop_
 _atom_site_type_symbol
 _atom_site_label
 _atom_site_symmetry_multiplicity
 _atom_site_fract_x
 _atom_site_fract_y
 _atom_site_fract_z
 _atom_site_occupancy
  Ni  Ni0  1  0.00000000  0.00000000  0.50000000  1.0
  Ni  Ni1  1  0.74465000  0.28014000  0.84399000  1.0
  Ni  Ni2  1  0.25535000  0.71985000  0.15601000  1.0
  H  H3  1  0.48882000  0.80056000  0.89557000  1.0
  H  H4  1  0.51118000  0.19944000  0.10442000  1.0
  H  H5  1  0.28351000  0.56161000  0.55767000  1.0
  H  H6  1  0.71649000  0.43838000  0.44233000  1.0
  H  H7  1  0.81101000  0.09870000  0.07092000  1.0
  H  H8  1  0.18899000  0.90130000  0.92908000  1.0
  H  H9  1  0.97509000  0.25481000  0.08984000  1.0
  H  H10  1  0.02491000  0.74519000  0.91016000  1.0
  H  H11  1  0.76777000  0.92656000  0.89084000  1.0
  H  H12  1  0.23223000  0.07344000  0.10916000  1.0
  H  H13  1  0.90220000  0.96133000  0.78490000  1.0
  H  H14  1  0.09780000  0.03867000  0.21510000  1.0
  H  H15  1  0.06057000  0.16893000  0.91419000  1.0
  H  H16  1  0.93943000  0.83107000  0.08581000  1.0
  H  H17  1  0.47276000  0.07238000  0.83981000  1.0
  H  H18  1  0.52724000  0.92761000  0.16020000  1.0
  H  H19  1  0.70021000  0.87246000  0.55071000  1.0
  H  H20  1  0.29979000  0.12754000  0.44929000  1.0
  H  H21  1  0.43991000  0.22011000  0.91462000  1.0
  H  H22  1  0.56008000  0.77989000  0.08538000  1.0
  H  H23  1  0.09246000  0.38067000  0.82994000  1.0
  H  H24  1  0.90754000  0.61933000  0.17006000  1.0
  H  H25  1  0.70991000  0.05003000  0.59915000  1.0
  H  H26  1  0.29009000  0.94997000  0.40085000  1.0
  H  H27  1  0.80861000  0.89828000  0.31350000  1.0
  H  H28  1  0.19139000  0.10172000  0.68650000  1.0
  H  H29  1  0.95395000  0.48196000  0.74313000  1.0
  H  H30  1  0.04605000  0.51804000  0.25687000  1.0
  H  H31  1  0.96035000  0.76677000  0.33697000  1.0
  H  H32  1  0.03965000  0.23323000  0.66303000  1.0
  C  C33  1  0.71632000  0.55798000  0.98608000  1.0
  C  C34  1  0.28368000  0.44202000  0.01392000  1.0
  C  C35  1  0.59186000  0.57551000  0.86808000  1.0
  C  C36  1  0.40814000  0.42449000  0.13192000  1.0
  C  C37  1  0.48671000  0.70154000  0.83475000  1.0
  C  C38  1  0.51329000  0.29846000  0.16524000  1.0
  C  C39  1  0.37516000  0.69845000  0.72129000  1.0
  C  C40  1  0.62484000  0.30156000  0.27871000  1.0
  C  C41  1  0.26682000  0.83770000  0.68205000  1.0
  C  C42  1  0.73318000  0.16230000  0.31795000  1.0
  C  C43  1  0.37090000  0.56808000  0.64550000  1.0
  C  C44  1  0.62910000  0.43192000  0.35450000  1.0
  C  C45  1  0.48434000  0.44746000  0.68370000  1.0
  C  C46  1  0.51566000  0.55254000  0.31630000  1.0
  C  C47  1  0.50555000  0.30347000  0.61011000  1.0
  C  C48  1  0.49445000  0.69653000  0.38989000  1.0
  C  C49  1  0.94730000  0.13490000  0.05618000  1.0
  C  C50  1  0.05270000  0.86510000  0.94382000  1.0
  C  C51  1  0.90500000  0.96655000  0.87980000  1.0
  C  C52  1  0.09500000  0.03345000  0.12020000  1.0
  N  N53  1  0.59036000  0.45376000  0.79234000  1.0
  N  N54  1  0.40964000  0.54624000  0.20766000  1.0
  N  N55  1  0.93459000  0.12837000  0.92666000  1.0
  N  N56  1  0.06541000  0.87163000  0.07334000  1.0
  O  O57  1  0.61728000  0.20572000  0.66356000  1.0
  O  O58  1  0.38272000  0.79428000  0.33644000  1.0
  O  O59  1  0.41921000  0.29048000  0.50538000  1.0
  O  O60  1  0.58079000  0.70952000  0.49462000  1.0
  O  O61  1  0.80227000  0.43477000  0.00027000  1.0
  O  O62  1  0.19773000  0.56524000  0.99973000  1.0
  O  O63  1  0.73139000  0.66554000  0.06690000  1.0
  O  O64  1  0.26861000  0.33446000  0.93310000  1.0
  O  O65  1  0.30550000  0.96093000  0.74818000  1.0
  O  O66  1  0.69450000  0.03907000  0.25182000  1.0
  O  O67  1  0.14604000  0.82146000  0.58721000  1.0
  O  O68  1  0.85396000  0.17854000  0.41279000  1.0
  O  O69  1  0.53871000  0.15083000  0.90084000  1.0
  O  O70  1  0.46130000  0.84916000  0.09916000  1.0
  O  O71  1  0.97221000  0.37769000  0.76898000  1.0
  O  O72  1  0.02779000  0.62231000  0.23102000  1.0
  O  O73  1  0.87894000  0.83061000  0.37373000  1.0
  O  O74  1  0.12106000  0.16939000  0.62627000  1.0
  O  O75  1  0.78584000  0.96086000  0.58747000  1.0
  O  O76  1  0.21416000  0.03914000  0.41253000  1.0
