# generated using pymatgen
data_K2CdH6C14(NO4)2
_symmetry_space_group_name_H-M   'P 1'
_cell_length_a   13.00810000
_cell_length_b   13.01000000
_cell_length_c   13.01720272
_cell_angle_alpha   101.81921945
_cell_angle_beta   113.41509516
_cell_angle_gamma   113.36000000
_symmetry_Int_Tables_number   1
_chemical_formula_structural   K2CdH6C14(NO4)2
_chemical_formula_sum   'K8 Cd4 H24 C56 N8 O32'
_cell_volume   1675.36375537
_cell_formula_units_Z   4
loop_
 _symmetry_equiv_pos_site_id
 _symmetry_equiv_pos_as_xyz
  1  'x, y, z'
loop_
 _atom_site_type_symbol
 _atom_site_label
 _atom_site_symmetry_multiplicity
 _atom_site_fract_x
 _atom_site_fract_y
 _atom_site_fract_z
 _atom_site_occupancy
  K  K0  1  0.47928000  0.41711000  0.10678000  1.0
  K  K1  1  0.02071000  0.12752000  0.93784000  1.0
  K  K2  1  0.81031000  0.43784000  0.91710000  1.0
  K  K3  1  0.68969000  0.60678000  0.62753000  1.0
  K  K4  1  0.52072000  0.58289000  0.89322000  1.0
  K  K5  1  0.97930000  0.87248000  0.06216000  1.0
  K  K6  1  0.18969000  0.56215000  0.08290000  1.0
  K  K7  1  0.31031000  0.39322000  0.37247000  1.0
  Cd  Cd8  1  0.25002000  0.09139000  0.84144000  1.0
  Cd  Cd9  1  0.74988000  0.34135000  0.59131000  1.0
  Cd  Cd10  1  0.74998000  0.90861000  0.15856000  1.0
  Cd  Cd11  1  0.25012000  0.65865000  0.40869000  1.0
  H  H12  1  0.07174000  0.93051000  0.53949000  1.0
  H  H13  1  0.42839000  0.96772000  0.85880000  1.0
  H  H14  1  0.89094000  0.35880000  0.43034000  1.0
  H  H15  1  0.60893000  0.03920000  0.46776000  1.0
  H  H16  1  0.92826000  0.06949000  0.46051000  1.0
  H  H17  1  0.57161000  0.03228000  0.14120000  1.0
  H  H18  1  0.10906000  0.64120000  0.56966000  1.0
  H  H19  1  0.39107000  0.96080000  0.53224000  1.0
  H  H20  1  0.07516000  0.95144000  0.35340000  1.0
  H  H21  1  0.42518000  0.77820000  0.87636000  1.0
  H  H22  1  0.09808000  0.37632000  0.45123000  1.0
  H  H23  1  0.40204000  0.85322000  0.27837000  1.0
  H  H24  1  0.92484000  0.04856000  0.64660000  1.0
  H  H25  1  0.57483000  0.22181000  0.12365000  1.0
  H  H26  1  0.90192000  0.62368000  0.54877000  1.0
  H  H27  1  0.59796000  0.14678000  0.72163000  1.0
  H  H28  1  0.28131000  0.12911000  0.38963000  1.0
  H  H29  1  0.21885000  0.60829000  0.84784000  1.0
  H  H30  1  0.23962000  0.34783000  0.62910000  1.0
  H  H31  1  0.26075000  0.88983000  0.10854000  1.0
  H  H32  1  0.71869000  0.87089000  0.61037000  1.0
  H  H33  1  0.78116000  0.39172000  0.15217000  1.0
  H  H34  1  0.76038000  0.65217000  0.37090000  1.0
  H  H35  1  0.73925000  0.11017000  0.89146000  1.0
  C  C36  1  0.36671000  0.18639000  0.68761000  1.0
  C  C37  1  0.13318000  0.82090000  0.81963000  1.0
  C  C38  1  0.99874000  0.31968000  0.68643000  1.0
  C  C39  1  0.50122000  0.18765000  0.32084000  1.0
  C  C40  1  0.63329000  0.81361000  0.31239000  1.0
  C  C41  1  0.86682000  0.17910000  0.18037000  1.0
  C  C42  1  0.00126000  0.68032000  0.31357000  1.0
  C  C43  1  0.49878000  0.81234000  0.67916000  1.0
  C  C44  1  0.15723000  0.00641000  0.54939000  1.0
  C  C45  1  0.34287000  0.89213000  0.84919000  1.0
  C  C46  1  0.95697000  0.34918000  0.50628000  1.0
  C  C47  1  0.54295000  0.04919000  0.39217000  1.0
  C  C48  1  0.84277000  0.99359000  0.45061000  1.0
  C  C49  1  0.65713000  0.10787000  0.15081000  1.0
  C  C50  1  0.04303000  0.65082000  0.49372000  1.0
  C  C51  1  0.45705000  0.95081000  0.60783000  1.0
  C  C52  1  0.47171000  0.27966000  0.82347000  1.0
  C  C53  1  0.02806000  0.85179000  0.80791000  1.0
  C  C54  1  0.95618000  0.30795000  0.77981000  1.0
  C  C55  1  0.54376000  0.32356000  0.35167000  1.0
  C  C56  1  0.52829000  0.72034000  0.17653000  1.0
  C  C57  1  0.97194000  0.14821000  0.19209000  1.0
  C  C58  1  0.04382000  0.69205000  0.22019000  1.0
  C  C59  1  0.45625000  0.67645000  0.64834000  1.0
  C  C60  1  0.16087000  0.01761000  0.44650000  1.0
  C  C61  1  0.33933000  0.78559000  0.85677000  1.0
  C  C62  1  0.07113000  0.35675000  0.51746000  1.0
  C  C63  1  0.42896000  0.94639000  0.28573000  1.0
  C  C64  1  0.83913000  0.98239000  0.55350000  1.0
  C  C65  1  0.66067000  0.21441000  0.14323000  1.0
  C  C66  1  0.92887000  0.64325000  0.48254000  1.0
  C  C67  1  0.57104000  0.05361000  0.71427000  1.0
  C  C68  1  0.37977000  0.20244000  0.58910000  1.0
  C  C69  1  0.12017000  0.70932000  0.82261000  1.0
  C  C70  1  0.11337000  0.32271000  0.70247000  1.0
  C  C71  1  0.38674000  0.08927000  0.20941000  1.0
  C  C72  1  0.62023000  0.79756000  0.41090000  1.0
  C  C73  1  0.87983000  0.29068000  0.17739000  1.0
  C  C74  1  0.88663000  0.67729000  0.29753000  1.0
  C  C75  1  0.61326000  0.91072000  0.79059000  1.0
  C  C76  1  0.27411000  0.11688000  0.46755000  1.0
  C  C77  1  0.22601000  0.69342000  0.84276000  1.0
  C  C78  1  0.14940000  0.34279000  0.61682000  1.0
  C  C79  1  0.35082000  0.96765000  0.19359000  1.0
  C  C80  1  0.72589000  0.88312000  0.53245000  1.0
  C  C81  1  0.77399000  0.30658000  0.15724000  1.0
  C  C82  1  0.85060000  0.65721000  0.38318000  1.0
  C  C83  1  0.64919000  0.03236000  0.80642000  1.0
  C  C84  1  0.50208000  0.30547000  0.60678000  1.0
  C  C85  1  0.99785000  0.60470000  0.80335000  1.0
  C  C86  1  0.19871000  0.30339000  0.80555000  1.0
  C  C87  1  0.30133000  0.10691000  0.10470000  1.0
  C  C88  1  0.49792000  0.69453000  0.39322000  1.0
  C  C89  1  0.00216000  0.39530000  0.19665000  1.0
  C  C90  1  0.80129000  0.69661000  0.19445000  1.0
  C  C91  1  0.69867000  0.89309000  0.89530000  1.0
  N  N92  1  0.25718000  0.08898000  0.66558000  1.0
  N  N93  1  0.24277000  0.90839000  0.83179000  1.0
  N  N94  1  0.92331000  0.33177000  0.58892000  1.0
  N  N95  1  0.57655000  0.16545000  0.40834000  1.0
  N  N96  1  0.74282000  0.91102000  0.33442000  1.0
  N  N97  1  0.75723000  0.09161000  0.16821000  1.0
  N  N98  1  0.07669000  0.66824000  0.41108000  1.0
  N  N99  1  0.42345000  0.83455000  0.59166000  1.0
  O  O100  1  0.55578000  0.38521000  0.84353000  1.0
  O  O101  1  0.94395000  0.78775000  0.82939000  1.0
  O  O102  1  0.04167000  0.32944000  0.88539000  1.0
  O  O103  1  0.45831000  0.34383000  0.28769000  1.0
  O  O104  1  0.44422000  0.61479000  0.15647000  1.0
  O  O105  1  0.05605000  0.21225000  0.17061000  1.0
  O  O106  1  0.95833000  0.67056000  0.11461000  1.0
  O  O107  1  0.54169000  0.65617000  0.71231000  1.0
  O  O108  1  0.46557000  0.24353000  0.90613000  1.0
  O  O109  1  0.03418000  0.94064000  0.77796000  1.0
  O  O110  1  0.83737000  0.27795000  0.74372000  1.0
  O  O111  1  0.66243000  0.40609000  0.44044000  1.0
  O  O112  1  0.53443000  0.75647000  0.09387000  1.0
  O  O113  1  0.96582000  0.05936000  0.22204000  1.0
  O  O114  1  0.16263000  0.72205000  0.25628000  1.0
  O  O115  1  0.33757000  0.59391000  0.55956000  1.0
  O  O116  1  0.48835000  0.37788000  0.55984000  1.0
  O  O117  1  0.01157000  0.57147000  0.88945000  1.0
  O  O118  1  0.31793000  0.38940000  0.87789000  1.0
  O  O119  1  0.18202000  0.05988000  0.07144000  1.0
  O  O120  1  0.51165000  0.62212000  0.44016000  1.0
  O  O121  1  0.98843000  0.42853000  0.11055000  1.0
  O  O122  1  0.68207000  0.61060000  0.12211000  1.0
  O  O123  1  0.81798000  0.94012000  0.92856000  1.0
  O  O124  1  0.60743000  0.30326000  0.66020000  1.0
  O  O125  1  0.89259000  0.55275000  0.69590000  1.0
  O  O126  1  0.14321000  0.19592000  0.80339000  1.0
  O  O127  1  0.35683000  0.16022000  0.05269000  1.0
  O  O128  1  0.39257000  0.69674000  0.33980000  1.0
  O  O129  1  0.10740000  0.44724000  0.30409000  1.0
  O  O130  1  0.85679000  0.80408000  0.19661000  1.0
  O  O131  1  0.64317000  0.83978000  0.94731000  1.0
