# generated using pymatgen
data_Zn4H42C36O13
_symmetry_space_group_name_H-M   'P 1'
_cell_length_a   21.62480000
_cell_length_b   21.69590000
_cell_length_c   21.70410000
_cell_angle_alpha   89.97580000
_cell_angle_beta   60.20530000
_cell_angle_gamma   60.28750000
_symmetry_Int_Tables_number   1
_chemical_formula_structural   Zn4H42C36O13
_chemical_formula_sum   'Zn8 H84 C72 O26'
_cell_volume   7255.18297308
_cell_formula_units_Z   2
loop_
 _symmetry_equiv_pos_site_id
 _symmetry_equiv_pos_as_xyz
  1  'x, y, z'
loop_
 _atom_site_type_symbol
 _atom_site_label
 _atom_site_symmetry_multiplicity
 _atom_site_fract_x
 _atom_site_fract_y
 _atom_site_fract_z
 _atom_site_occupancy
  Zn  Zn0  1  0.08477000  0.95319000  0.03925000  1.0
  Zn  Zn1  1  0.93535000  0.95379000  0.04175000  1.0
  Zn  Zn2  1  0.08104000  0.95419000  0.89357000  1.0
  Zn  Zn3  1  0.93738000  0.10104000  0.03955000  1.0
  Zn  Zn4  1  0.93597000  0.52595000  0.46713000  1.0
  Zn  Zn5  1  0.08552000  0.52550000  0.46623000  1.0
  Zn  Zn6  1  0.08533000  0.37902000  0.46763000  1.0
  Zn  Zn7  1  0.93432000  0.52774000  0.61344000  1.0
  H  H8  1  0.94441000  0.86879000  0.23253000  1.0
  H  H9  1  0.14278000  0.76435000  0.12767000  1.0
  H  H10  1  0.08046000  0.83102000  0.21683000  1.0
  H  H11  1  0.13866000  0.68372000  0.20458000  1.0
  H  H12  1  0.05258000  0.65549000  0.17441000  1.0
  H  H13  1  0.93807000  0.78386000  0.16569000  1.0
  H  H14  1  0.05089000  0.73327000  0.09459000  1.0
  H  H15  1  0.88594000  0.79434000  0.30130000  1.0
  H  H16  1  0.94251000  0.64758000  0.28954000  1.0
  H  H17  1  0.88119000  0.71390000  0.37865000  1.0
  H  H18  1  0.07947000  0.60839000  0.27306000  1.0
  H  H19  1  0.97433000  0.74326000  0.41112000  1.0
  H  H20  1  0.08707000  0.69233000  0.33962000  1.0
  H  H21  1  0.97212000  0.82176000  0.33217000  1.0
  H  H22  1  0.35591000  0.75470000  0.82218000  1.0
  H  H23  1  0.35838000  0.87177000  0.89763000  1.0
  H  H24  1  0.38147000  0.78500000  0.91246000  1.0
  H  H25  1  0.51468000  0.79629000  0.81305000  1.0
  H  H26  1  0.51039000  0.81137000  0.69763000  1.0
  H  H27  1  0.37617000  0.80665000  0.71942000  1.0
  H  H28  1  0.35446000  0.88632000  0.77080000  1.0
  H  H29  1  0.50460000  0.67686000  0.68532000  1.0
  H  H30  1  0.63704000  0.69074000  0.58900000  1.0
  H  H31  1  0.66076000  0.60322000  0.60201000  1.0
  H  H32  1  0.65932000  0.72034000  0.68230000  1.0
  H  H33  1  0.66161000  0.58664000  0.72906000  1.0
  H  H34  1  0.63986000  0.66493000  0.78289000  1.0
  H  H35  1  0.50496000  0.66347000  0.80275000  1.0
  H  H36  1  0.06702000  0.17266000  0.11497000  1.0
  H  H37  1  0.03556000  0.08713000  0.22644000  1.0
  H  H38  1  0.13402000  0.07814000  0.16426000  1.0
  H  H39  1  0.02442000  0.17055000  0.31080000  1.0
  H  H40  1  0.89093000  0.28637000  0.32660000  1.0
  H  H41  1  0.91158000  0.27018000  0.19063000  1.0
  H  H42  1  0.88931000  0.21339000  0.24436000  1.0
  H  H43  1  0.00761000  0.30591000  0.18912000  1.0
  H  H44  1  0.89760000  0.39898000  0.33525000  1.0
  H  H45  1  0.99670000  0.38925000  0.27380000  1.0
  H  H46  1  0.96310000  0.30382000  0.38495000  1.0
  H  H47  1  0.14117000  0.26409000  0.25746000  1.0
  H  H48  1  0.11903000  0.20689000  0.31058000  1.0
  H  H49  1  0.14118000  0.19050000  0.17395000  1.0
  H  H50  1  0.95064000  0.87703000  0.82657000  1.0
  H  H51  1  0.99058000  0.75852000  0.90352000  1.0
  H  H52  1  0.88941000  0.82224000  0.91758000  1.0
  H  H53  1  0.99852000  0.67908000  0.81807000  1.0
  H  H54  1  0.12780000  0.66917000  0.70235000  1.0
  H  H55  1  0.10516000  0.80547000  0.72582000  1.0
  H  H56  1  0.13173000  0.74699000  0.77791000  1.0
  H  H57  1  0.00474000  0.81178000  0.69354000  1.0
  H  H58  1  0.11450000  0.66947000  0.59281000  1.0
  H  H59  1  0.01236000  0.73198000  0.60800000  1.0
  H  H60  1  0.05589000  0.61368000  0.68440000  1.0
  H  H61  1  0.87406000  0.74081000  0.73182000  1.0
  H  H62  1  0.90077000  0.68306000  0.78435000  1.0
  H  H63  1  0.87538000  0.82058000  0.80841000  1.0
  H  H64  1  0.66367000  0.17273000  0.24074000  1.0
  H  H65  1  0.66220000  0.09151000  0.12671000  1.0
  H  H66  1  0.63861000  0.08007000  0.21466000  1.0
  H  H67  1  0.50595000  0.17549000  0.20128000  1.0
  H  H68  1  0.50916000  0.29100000  0.18249000  1.0
  H  H69  1  0.64345000  0.27243000  0.18473000  1.0
  H  H70  1  0.66522000  0.21797000  0.10686000  1.0
  H  H71  1  0.51550000  0.30798000  0.31608000  1.0
  H  H72  1  0.38340000  0.40183000  0.30137000  1.0
  H  H73  1  0.35904000  0.39106000  0.38971000  1.0
  H  H74  1  0.36147000  0.30690000  0.27442000  1.0
  H  H75  1  0.35743000  0.26508000  0.41031000  1.0
  H  H76  1  0.37984000  0.20897000  0.33304000  1.0
  H  H77  1  0.51410000  0.19147000  0.33411000  1.0
  H  H78  1  0.93971000  0.17639000  0.84049000  1.0
  H  H79  1  0.13769000  0.08880000  0.75132000  1.0
  H  H80  1  0.07828000  0.08126000  0.72150000  1.0
  H  H81  1  0.13259000  0.17396000  0.67903000  1.0
  H  H82  1  0.04274000  0.28730000  0.79557000  1.0
  H  H83  1  0.92882000  0.26958000  0.91559000  1.0
  H  H84  1  0.04150000  0.21085000  0.87643000  1.0
  H  H85  1  0.87882000  0.30987000  0.82971000  1.0
  H  H86  1  0.93315000  0.40251000  0.78762000  1.0
  H  H87  1  0.87498000  0.39461000  0.75636000  1.0
  H  H88  1  0.07293000  0.30576000  0.66973000  1.0
  H  H89  1  0.97060000  0.27371000  0.63226000  1.0
  H  H90  1  0.08326000  0.21399000  0.59318000  1.0
  H  H91  1  0.96882000  0.19650000  0.71287000  1.0
  C  C92  1  0.00823000  0.87570000  0.12478000  1.0
  C  C93  1  0.00497000  0.82930000  0.17695000  1.0
  C  C94  1  0.08183000  0.79118000  0.18410000  1.0
  C  C95  1  0.07531000  0.73193000  0.21981000  1.0
  C  C96  1  0.02273000  0.71469000  0.20117000  1.0
  C  C97  1  0.00111000  0.76418000  0.15512000  1.0
  C  C98  1  0.94906000  0.74590000  0.28628000  1.0
  C  C99  1  0.94192000  0.68692000  0.32205000  1.0
  C  C100  1  0.01911000  0.64798000  0.32867000  1.0
  C  C101  1  0.02375000  0.71258000  0.35051000  1.0
  C  C102  1  0.00188000  0.76271000  0.30495000  1.0
  C  C103  1  0.01533000  0.60178000  0.38100000  1.0
  C  C104  1  0.24368000  0.86470000  0.88446000  1.0
  C  C105  1  0.34171000  0.81139000  0.83457000  1.0
  C  C106  1  0.38790000  0.81299000  0.86964000  1.0
  C  C107  1  0.48196000  0.77599000  0.80281000  1.0
  C  C108  1  0.47994000  0.78472000  0.73179000  1.0
  C  C109  1  0.38479000  0.82555000  0.75970000  1.0
  C  C110  1  0.53592000  0.69794000  0.69697000  1.0
  C  C111  1  0.63038000  0.66191000  0.63113000  1.0
  C  C112  1  0.67507000  0.66327000  0.66796000  1.0
  C  C113  1  0.63160000  0.64747000  0.74159000  1.0
  C  C114  1  0.53677000  0.68921000  0.76852000  1.0
  C  C115  1  0.77329000  0.61162000  0.61929000  1.0
  C  C116  1  0.02303000  0.10693000  0.10882000  1.0
  C  C117  1  0.02618000  0.15603000  0.15521000  1.0
  C  C118  1  0.06311000  0.11852000  0.19993000  1.0
  C  C119  1  0.03223000  0.18392000  0.25961000  1.0
  C  C120  1  0.95040000  0.25472000  0.26923000  1.0
  C  C121  1  0.93633000  0.22796000  0.21516000  1.0
  C  C122  1  0.99967000  0.29274000  0.24042000  1.0
  C  C123  1  0.96844000  0.35827000  0.30014000  1.0
  C  C124  1  0.00421000  0.32071000  0.34558000  1.0
  C  C125  1  0.09445000  0.24911000  0.28597000  1.0
  C  C126  1  0.08137000  0.22207000  0.23114000  1.0
  C  C127  1  0.00518000  0.37033000  0.39360000  1.0
  C  C128  1  0.99836000  0.88029000  0.88942000  1.0
  C  C129  1  0.99409000  0.83527000  0.84019000  1.0
  C  C130  1  0.95992000  0.78802000  0.87519000  1.0
  C  C131  1  0.98872000  0.73188000  0.80804000  1.0
  C  C132  1  0.06796000  0.72585000  0.73731000  1.0
  C  C133  1  0.08270000  0.77824000  0.76590000  1.0
  C  C134  1  0.01482000  0.75876000  0.70309000  1.0
  C  C135  1  0.04414000  0.70270000  0.63564000  1.0
  C  C136  1  0.01196000  0.65419000  0.67047000  1.0
  C  C137  1  0.92276000  0.71057000  0.74437000  1.0
  C  C138  1  0.93581000  0.76421000  0.77356000  1.0
  C  C139  1  0.01103000  0.60668000  0.62040000  1.0
  C  C140  1  0.77611000  0.10843000  0.13083000  1.0
  C  C141  1  0.67809000  0.15784000  0.18432000  1.0
  C  C142  1  0.63227000  0.12149000  0.18496000  1.0
  C  C143  1  0.53815000  0.18754000  0.22089000  1.0
  C  C144  1  0.53992000  0.25837000  0.20954000  1.0
  C  C145  1  0.63495000  0.23107000  0.16777000  1.0
  C  C146  1  0.48404000  0.29519000  0.29607000  1.0
  C  C147  1  0.38973000  0.36066000  0.33136000  1.0
  C  C148  1  0.34513000  0.32323000  0.33142000  1.0
  C  C149  1  0.38795000  0.25095000  0.34933000  1.0
  C  C150  1  0.48282000  0.22411000  0.30741000  1.0
  C  C151  1  0.24689000  0.37202000  0.38279000  1.0
  C  C152  1  0.00402000  0.10776000  0.88561000  1.0
  C  C153  1  0.99955000  0.15747000  0.83684000  1.0
  C  C154  1  0.07736000  0.12082000  0.75413000  1.0
  C  C155  1  0.06946000  0.18709000  0.72561000  1.0
  C  C156  1  0.01450000  0.25643000  0.79696000  1.0
  C  C157  1  0.99277000  0.22779000  0.86407000  1.0
  C  C158  1  0.94203000  0.29662000  0.78319000  1.0
  C  C159  1  0.93469000  0.36275000  0.75456000  1.0
  C  C160  1  0.01349000  0.32556000  0.67230000  1.0
  C  C161  1  0.01940000  0.25594000  0.64470000  1.0
  C  C162  1  0.99706000  0.22729000  0.71177000  1.0
  C  C163  1  0.01146000  0.37477000  0.62302000  1.0
  O  O164  1  0.00950000  0.99067000  0.00371000  1.0
  O  O165  1  0.95808000  0.89157000  0.10363000  1.0
  O  O166  1  0.05964000  0.89578000  0.10679000  1.0
  O  O167  1  0.06788000  0.58322000  0.39986000  1.0
  O  O168  1  0.96099000  0.58474000  0.40145000  1.0
  O  O169  1  0.20499000  0.88401000  0.85158000  1.0
  O  O170  1  0.20774000  0.88561000  0.95509000  1.0
  O  O171  1  0.81036000  0.59305000  0.65355000  1.0
  O  O172  1  0.81124000  0.59139000  0.54829000  1.0
  O  O173  1  0.97390000  0.14049000  0.08667000  1.0
  O  O174  1  0.06958000  0.03629000  0.09548000  1.0
  O  O175  1  0.05582000  0.33722000  0.41438000  1.0
  O  O176  1  0.95501000  0.44105000  0.40970000  1.0
  O  O177  1  0.04792000  0.90203000  0.85554000  1.0
  O  O178  1  0.95218000  0.89343000  0.96011000  1.0
  O  O179  1  0.95941000  0.58681000  0.65358000  1.0
  O  O180  1  0.06238000  0.58953000  0.54960000  1.0
  O  O181  1  0.81468000  0.14136000  0.11530000  1.0
  O  O182  1  0.81215000  0.03821000  0.10578000  1.0
  O  O183  1  0.20923000  0.33834000  0.39727000  1.0
  O  O184  1  0.20953000  0.44261000  0.40704000  1.0
  O  O185  1  0.94520000  0.14027000  0.95608000  1.0
  O  O186  1  0.06524000  0.03802000  0.85314000  1.0
  O  O187  1  0.07175000  0.34165000  0.55293000  1.0
  O  O188  1  0.95071000  0.44465000  0.65484000  1.0
  O  O189  1  0.01060000  0.48935000  0.50334000  1.0
