# generated using pymatgen
data_CdH18C32(NO)4
_symmetry_space_group_name_H-M   'P 1'
_cell_length_a   10.84130000
_cell_length_b   11.81710000
_cell_length_c   12.13750000
_cell_angle_alpha   64.06930000
_cell_angle_beta   81.66900000
_cell_angle_gamma   66.74770000
_symmetry_Int_Tables_number   1
_chemical_formula_structural   CdH18C32(NO)4
_chemical_formula_sum   'Cd2 H36 C64 N8 O8'
_cell_volume   1284.10924187
_cell_formula_units_Z   2
loop_
 _symmetry_equiv_pos_site_id
 _symmetry_equiv_pos_as_xyz
  1  'x, y, z'
loop_
 _atom_site_type_symbol
 _atom_site_label
 _atom_site_symmetry_multiplicity
 _atom_site_fract_x
 _atom_site_fract_y
 _atom_site_fract_z
 _atom_site_occupancy
  Cd  Cd0  1  0.07809000  0.11427000  0.87492000  1.0
  Cd  Cd1  1  0.92192000  0.88573000  0.12508000  1.0
  H  H2  1  0.70980000  0.32809000  0.57602000  1.0
  H  H3  1  0.29020000  0.67191000  0.42398000  1.0
  H  H4  1  0.74371000  0.44526000  0.90489000  1.0
  H  H5  1  0.25629000  0.55474000  0.09511000  1.0
  H  H6  1  0.58205000  0.60739000  0.98304000  1.0
  H  H7  1  0.41795000  0.39261000  0.01696000  1.0
  H  H8  1  0.35829000  0.76430000  0.87613000  1.0
  H  H9  1  0.64171000  0.23570000  0.12387000  1.0
  H  H10  1  0.29830000  0.75640000  0.68971000  1.0
  H  H11  1  0.70170000  0.24359000  0.31029000  1.0
  H  H12  1  0.04367000  0.93902000  0.33461000  1.0
  H  H13  1  0.95633000  0.06098000  0.66538000  1.0
  H  H14  1  0.92397000  0.39885000  0.01972000  1.0
  H  H15  1  0.07604000  0.60115000  0.98028000  1.0
  H  H16  1  0.84710000  0.62078000  0.02876000  1.0
  H  H17  1  0.15290000  0.37922000  0.97124000  1.0
  H  H18  1  0.81155000  0.63669000  0.22984000  1.0
  H  H19  1  0.18845000  0.36331000  0.77016000  1.0
  H  H20  1  0.85346000  0.42754000  0.42394000  1.0
  H  H21  1  0.14654000  0.57246000  0.57606000  1.0
  H  H22  1  0.02868000  0.30061000  0.57605000  1.0
  H  H23  1  0.97132000  0.69939000  0.42396000  1.0
  H  H24  1  0.16068000  0.35011000  0.38418000  1.0
  H  H25  1  0.83932000  0.64989000  0.61582000  1.0
  H  H26  1  0.41141000  0.22984000  0.40224000  1.0
  H  H27  1  0.58859000  0.77016000  0.59776000  1.0
  H  H28  1  0.61936000  0.08108000  0.53789000  1.0
  H  H29  1  0.38064000  0.91891000  0.46211000  1.0
  H  H30  1  0.72356000  0.92569000  0.74638000  1.0
  H  H31  1  0.27645000  0.07431000  0.25361000  1.0
  H  H32  1  0.69696000  0.80853000  0.96992000  1.0
  H  H33  1  0.30305000  0.19147000  0.03008000  1.0
  H  H34  1  0.54310000  0.75642000  0.14659000  1.0
  H  H35  1  0.45690000  0.24358000  0.85341000  1.0
  H  H36  1  0.29370000  0.87803000  0.10585000  1.0
  H  H37  1  0.70630000  0.12196000  0.89415000  1.0
  C  C38  1  0.52345000  0.49946000  0.55458000  1.0
  C  C39  1  0.47655000  0.50054000  0.44542000  1.0
  C  C40  1  0.65006000  0.40264000  0.61174000  1.0
  C  C41  1  0.34994000  0.59736000  0.38826000  1.0
  C  C42  1  0.69641000  0.40651000  0.70948000  1.0
  C  C43  1  0.30359000  0.59349000  0.29052000  1.0
  C  C44  1  0.61205000  0.50299000  0.75577000  1.0
  C  C45  1  0.38794000  0.49701000  0.24423000  1.0
  C  C46  1  0.64602000  0.51251000  0.85885000  1.0
  C  C47  1  0.35398000  0.48749000  0.14115000  1.0
  C  C48  1  0.55572000  0.60409000  0.90153000  1.0
  C  C49  1  0.44428000  0.39591000  0.09846000  1.0
  C  C50  1  0.42934000  0.69330000  0.84088000  1.0
  C  C51  1  0.57066000  0.30671000  0.15912000  1.0
  C  C52  1  0.39452000  0.68874000  0.73859000  1.0
  C  C53  1  0.60548000  0.31126000  0.26141000  1.0
  C  C54  1  0.48323000  0.59262000  0.69455000  1.0
  C  C55  1  0.51677000  0.40737000  0.30544000  1.0
  C  C56  1  0.83511000  0.31050000  0.76254000  1.0
  C  C57  1  0.16489000  0.68950000  0.23746000  1.0
  C  C58  1  0.98630000  0.06001000  0.43996000  1.0
  C  C59  1  0.01370000  0.93999000  0.56004000  1.0
  C  C60  1  0.00694000  0.04120000  0.32975000  1.0
  C  C61  1  0.99305000  0.95881000  0.67024000  1.0
  C  C62  1  0.98371000  0.15294000  0.21894000  1.0
  C  C63  1  0.01628000  0.84706000  0.78106000  1.0
  C  C64  1  0.93732000  0.28453000  0.21724000  1.0
  C  C65  1  0.06268000  0.71547000  0.78275000  1.0
  C  C66  1  0.90834000  0.40505000  0.10802000  1.0
  C  C67  1  0.09166000  0.59495000  0.89197000  1.0
  C  C68  1  0.86398000  0.52916000  0.11318000  1.0
  C  C69  1  0.13602000  0.47084000  0.88682000  1.0
  C  C70  1  0.84461000  0.53797000  0.22734000  1.0
  C  C71  1  0.15538000  0.46203000  0.77266000  1.0
  C  C72  1  0.86999000  0.42250000  0.33519000  1.0
  C  C73  1  0.13001000  0.57750000  0.66481000  1.0
  C  C74  1  0.91787000  0.29285000  0.33341000  1.0
  C  C75  1  0.08213000  0.70715000  0.66659000  1.0
  C  C76  1  0.00987000  0.13757000  0.10033000  1.0
  C  C77  1  0.99013000  0.86243000  0.89967000  1.0
  C  C78  1  0.13774000  0.25193000  0.57974000  1.0
  C  C79  1  0.86226000  0.74807000  0.42026000  1.0
  C  C80  1  0.21220000  0.27837000  0.47269000  1.0
  C  C81  1  0.78780000  0.72163000  0.52731000  1.0
  C  C82  1  0.35030000  0.21301000  0.48306000  1.0
  C  C83  1  0.64970000  0.78699000  0.51694000  1.0
  C  C84  1  0.41417000  0.12406000  0.59980000  1.0
  C  C85  1  0.58583000  0.87594000  0.40020000  1.0
  C  C86  1  0.55722000  0.05887000  0.61773000  1.0
  C  C87  1  0.44278000  0.94113000  0.38226000  1.0
  C  C88  1  0.61465000  0.97347000  0.73237000  1.0
  C  C89  1  0.38536000  0.02653000  0.26763000  1.0
  C  C90  1  0.53310000  0.94480000  0.83726000  1.0
  C  C91  1  0.46690000  0.05520000  0.16273000  1.0
  C  C92  1  0.58813000  0.85420000  0.95688000  1.0
  C  C93  1  0.41188000  0.14580000  0.04313000  1.0
  C  C94  1  0.50367000  0.82768000  0.05368000  1.0
  C  C95  1  0.49633000  0.17232000  0.94632000  1.0
  C  C96  1  0.36392000  0.89524000  0.03164000  1.0
  C  C97  1  0.63609000  0.10476000  0.96836000  1.0
  C  C98  1  0.33044000  0.10182000  0.70254000  1.0
  C  C99  1  0.66956000  0.89818000  0.29747000  1.0
  C  C100  1  0.39096000  0.00831000  0.82338000  1.0
  C  C101  1  0.60904000  0.99168000  0.17662000  1.0
  N  N102  1  0.44272000  0.59178000  0.59422000  1.0
  N  N103  1  0.55728000  0.40822000  0.40579000  1.0
  N  N104  1  0.94322000  0.18124000  0.44212000  1.0
  N  N105  1  0.05678000  0.81876000  0.55788000  1.0
  N  N106  1  0.19493000  0.16600000  0.69041000  1.0
  N  N107  1  0.80507000  0.83400000  0.30959000  1.0
  N  N108  1  0.31013000  0.98352000  0.92011000  1.0
  N  N109  1  0.68987000  0.01647000  0.07989000  1.0
  O  O110  1  0.86863000  0.18666000  0.78082000  1.0
  O  O111  1  0.13137000  0.81335000  0.21918000  1.0
  O  O112  1  0.91306000  0.35505000  0.78477000  1.0
  O  O113  1  0.08693000  0.64495000  0.21523000  1.0
  O  O114  1  0.93232000  0.10131000  0.06478000  1.0
  O  O115  1  0.06768000  0.89869000  0.93522000  1.0
  O  O116  1  0.10738000  0.16456000  0.03868000  1.0
  O  O117  1  0.89262000  0.83544000  0.96132000  1.0
