# generated using pymatgen
data_CdH16C14N4O5
_symmetry_space_group_name_H-M   'P 1'
_cell_length_a   7.99619000
_cell_length_b   8.63482000
_cell_length_c   10.87700000
_cell_angle_alpha   86.95470000
_cell_angle_beta   73.42300000
_cell_angle_gamma   88.31200000
_symmetry_Int_Tables_number   1
_chemical_formula_structural   CdH16C14N4O5
_chemical_formula_sum   'Cd2 H32 C28 N8 O10'
_cell_volume   718.69888078
_cell_formula_units_Z   2
loop_
 _symmetry_equiv_pos_site_id
 _symmetry_equiv_pos_as_xyz
  1  'x, y, z'
loop_
 _atom_site_type_symbol
 _atom_site_label
 _atom_site_symmetry_multiplicity
 _atom_site_fract_x
 _atom_site_fract_y
 _atom_site_fract_z
 _atom_site_occupancy
  Cd  Cd0  1  0.50000000  0.50000000  0.00000000  1.0
  Cd  Cd1  1  0.50000000  0.00000000  0.50000000  1.0
  H  H2  1  0.67054000  0.35067000  0.20509000  1.0
  H  H3  1  0.32946000  0.64934000  0.79491000  1.0
  H  H4  1  0.53901000  0.22330000  0.17784000  1.0
  H  H5  1  0.46099000  0.77670000  0.82216000  1.0
  H  H6  1  0.94156000  0.91443000  0.71750000  1.0
  H  H7  1  0.05844000  0.08557000  0.28250000  1.0
  H  H8  1  0.78752000  0.84245000  0.84374000  1.0
  H  H9  1  0.21247000  0.15755000  0.15626000  1.0
  H  H10  1  0.21811000  0.67000000  0.16846000  1.0
  H  H11  1  0.78189000  0.33000000  0.83154000  1.0
  H  H12  1  0.40080000  0.65955000  0.21529000  1.0
  H  H13  1  0.59920000  0.34045000  0.78471000  1.0
  H  H14  1  0.31049000  0.25195000  0.63625000  1.0
  H  H15  1  0.68951000  0.74805000  0.36375000  1.0
  H  H16  1  0.47819000  0.30678000  0.51182000  1.0
  H  H17  1  0.52182000  0.69322000  0.48818000  1.0
  H  H18  1  0.97382000  0.36613000  0.08281000  1.0
  H  H19  1  0.02618000  0.63387000  0.91719000  1.0
  H  H20  1  0.60570000  0.07609000  0.98463000  1.0
  H  H21  1  0.39430000  0.92391000  0.01537000  1.0
  H  H22  1  0.14785000  0.06138000  0.76789000  1.0
  H  H23  1  0.85214000  0.93862000  0.23211000  1.0
  H  H24  1  0.97309000  0.49127000  0.25539000  1.0
  H  H25  1  0.02691000  0.50873000  0.74461000  1.0
  H  H26  1  0.45313000  0.46546000  0.36129000  1.0
  H  H27  1  0.54687000  0.53454000  0.63871000  1.0
  H  H28  1  0.03679000  0.15164000  0.54401000  1.0
  H  H29  1  0.96321000  0.84837000  0.45599000  1.0
  H  H30  1  0.52474000  0.92022000  0.24596000  1.0
  H  H31  1  0.47526000  0.07978000  0.75404000  1.0
  H  H32  1  0.34677000  0.01885000  0.27241000  1.0
  H  H33  1  0.65323000  0.98115000  0.72759000  1.0
  C  C34  1  0.26175000  0.26742000  0.90752000  1.0
  C  C35  1  0.73825000  0.73258000  0.09248000  1.0
  C  C36  1  0.07763000  0.22009000  0.92319000  1.0
  C  C37  1  0.92236000  0.77991000  0.07681000  1.0
  C  C38  1  0.94355000  0.28054000  0.02269000  1.0
  C  C39  1  0.05645000  0.71946000  0.97731000  1.0
  C  C40  1  0.77261000  0.23004000  0.04398000  1.0
  C  C41  1  0.22739000  0.76996000  0.95602000  1.0
  C  C42  1  0.73933000  0.11408000  0.96884000  1.0
  C  C43  1  0.26067000  0.88593000  0.03116000  1.0
  C  C44  1  0.87329000  0.05451000  0.86824000  1.0
  C  C45  1  0.12671000  0.94549000  0.13175000  1.0
  C  C46  1  0.04290000  0.11063000  0.84377000  1.0
  C  C47  1  0.95710000  0.88937000  0.15624000  1.0
  C  C48  1  0.80849000  0.25935000  0.41004000  1.0
  C  C49  1  0.19152000  0.74065000  0.58996000  1.0
  C  C50  1  0.98735000  0.31826000  0.40234000  1.0
  C  C51  1  0.01265000  0.68174000  0.59767000  1.0
  C  C52  1  0.05477000  0.43805000  0.31135000  1.0
  C  C53  1  0.94523000  0.56195000  0.68865000  1.0
  C  C54  1  0.22553000  0.48631000  0.29305000  1.0
  C  C55  1  0.77447000  0.51369000  0.70695000  1.0
  C  C56  1  0.32279000  0.42315000  0.37152000  1.0
  C  C57  1  0.67721000  0.57685000  0.62847000  1.0
  C  C58  1  0.25469000  0.30598000  0.46421000  1.0
  C  C59  1  0.74531000  0.69402000  0.53579000  1.0
  C  C60  1  0.08779000  0.24941000  0.47782000  1.0
  C  C61  1  0.91222000  0.75059000  0.52218000  1.0
  N  N62  1  0.63192000  0.30344000  0.13254000  1.0
  N  N63  1  0.36808000  0.69656000  0.86746000  1.0
  N  N64  1  0.83467000  0.94243000  0.79080000  1.0
  N  N65  1  0.16533000  0.05757000  0.20920000  1.0
  N  N66  1  0.30576000  0.59633000  0.19409000  1.0
  N  N67  1  0.69424000  0.40367000  0.80591000  1.0
  N  N68  1  0.36391000  0.24545000  0.53885000  1.0
  N  N69  1  0.63609000  0.75455000  0.46115000  1.0
  O  O70  1  0.29360000  0.31755000  0.00710000  1.0
  O  O71  1  0.70640000  0.68245000  0.99290000  1.0
  O  O72  1  0.37528000  0.25412000  0.79932000  1.0
  O  O73  1  0.62472000  0.74588000  0.20068000  1.0
  O  O74  1  0.77975000  0.11581000  0.44499000  1.0
  O  O75  1  0.22025000  0.88419000  0.55501000  1.0
  O  O76  1  0.70162000  0.35346000  0.37852000  1.0
  O  O77  1  0.29838000  0.64654000  0.62148000  1.0
  O  O78  1  0.46738000  0.01691000  0.28418000  1.0
  O  O79  1  0.53262000  0.98309000  0.71582000  1.0
