# generated using pymatgen
data_ZnH8(C4O3)2
_symmetry_space_group_name_H-M   'P 1'
_cell_length_a   4.97777000
_cell_length_b   7.83491014
_cell_length_c   12.14220000
_cell_angle_alpha   101.64110292
_cell_angle_beta   90.09440000
_cell_angle_gamma   108.34234680
_symmetry_Int_Tables_number   1
_chemical_formula_structural   ZnH8(C4O3)2
_chemical_formula_sum   'Zn2 H16 C16 O12'
_cell_volume   439.16287654
_cell_formula_units_Z   2
loop_
 _symmetry_equiv_pos_site_id
 _symmetry_equiv_pos_as_xyz
  1  'x, y, z'
loop_
 _atom_site_type_symbol
 _atom_site_label
 _atom_site_symmetry_multiplicity
 _atom_site_fract_x
 _atom_site_fract_y
 _atom_site_fract_z
 _atom_site_occupancy
  Zn  Zn0  1  0.95314000  0.99929000  0.74951000  1.0
  Zn  Zn1  1  0.04686000  0.00071000  0.25049000  1.0
  H  H2  1  0.45283000  0.23301000  0.08749000  1.0
  H  H3  1  0.22215000  0.76390000  0.41060000  1.0
  H  H4  1  0.54716000  0.76699000  0.91251000  1.0
  H  H5  1  0.77786000  0.23610000  0.58940000  1.0
  H  H6  1  0.74539000  0.52457000  0.82262000  1.0
  H  H7  1  0.21968000  0.47665000  0.67834000  1.0
  H  H8  1  0.25461000  0.47543000  0.17738000  1.0
  H  H9  1  0.78032000  0.52334000  0.32165000  1.0
  H  H10  1  0.17250000  0.87547000  0.91258000  1.0
  H  H11  1  0.29686000  0.12363000  0.58738000  1.0
  H  H12  1  0.82750000  0.12453000  0.08742000  1.0
  H  H13  1  0.70313000  0.87637000  0.41262000  1.0
  H  H14  1  0.31148000  0.83524000  0.79073000  1.0
  H  H15  1  0.47428000  0.16290000  0.70957000  1.0
  H  H16  1  0.68852000  0.16476000  0.20927000  1.0
  H  H17  1  0.52573000  0.83711000  0.29044000  1.0
  C  C18  1  0.74359000  0.22114000  0.89911000  1.0
  C  C19  1  0.52194000  0.77790000  0.60057000  1.0
  C  C20  1  0.25640000  0.77886000  0.10089000  1.0
  C  C21  1  0.47807000  0.22210000  0.39943000  1.0
  C  C22  1  0.61665000  0.36443000  0.95072000  1.0
  C  C23  1  0.25226000  0.63492000  0.54901000  1.0
  C  C24  1  0.38335000  0.63558000  0.04928000  1.0
  C  C25  1  0.74774000  0.36508000  0.45099000  1.0
  C  C26  1  0.47898000  0.35217000  0.05080000  1.0
  C  C27  1  0.12773000  0.64621000  0.44826000  1.0
  C  C28  1  0.52101000  0.64783000  0.94921000  1.0
  C  C29  1  0.87227000  0.35379000  0.55174000  1.0
  C  C30  1  0.63578000  0.51293000  0.89964000  1.0
  C  C31  1  0.12207000  0.48790000  0.60096000  1.0
  C  C32  1  0.36421000  0.48707000  0.10036000  1.0
  C  C33  1  0.87793000  0.51209000  0.39904000  1.0
  O  O34  1  0.78451000  0.20502000  0.79223000  1.0
  O  O35  1  0.58014000  0.79364000  0.70733000  1.0
  O  O36  1  0.21548000  0.79498000  0.20777000  1.0
  O  O37  1  0.41985000  0.20635000  0.29266000  1.0
  O  O38  1  0.80973000  0.11885000  0.95460000  1.0
  O  O39  1  0.68878000  0.88059000  0.54518000  1.0
  O  O40  1  0.19028000  0.88115000  0.04540000  1.0
  O  O41  1  0.31123000  0.11941000  0.45482000  1.0
  O  O42  1  0.15720000  0.87305000  0.82921000  1.0
  O  O43  1  0.28279000  0.12586000  0.67066000  1.0
  O  O44  1  0.84279000  0.12695000  0.17079000  1.0
  O  O45  1  0.71720000  0.87414000  0.32934000  1.0
