# generated using pymatgen
data_PrPH10C4SO7
_symmetry_space_group_name_H-M   'P 1'
_cell_length_a   7.18133000
_cell_length_b   10.83200000
_cell_length_c   13.30300000
_cell_angle_alpha   90.00010000
_cell_angle_beta   90.00000000
_cell_angle_gamma   105.02300000
_symmetry_Int_Tables_number   1
_chemical_formula_structural   PrPH10C4SO7
_chemical_formula_sum   'Pr4 P4 H40 C16 S4 O28'
_cell_volume   999.44788587
_cell_formula_units_Z   4
loop_
 _symmetry_equiv_pos_site_id
 _symmetry_equiv_pos_as_xyz
  1  'x, y, z'
loop_
 _atom_site_type_symbol
 _atom_site_label
 _atom_site_symmetry_multiplicity
 _atom_site_fract_x
 _atom_site_fract_y
 _atom_site_fract_z
 _atom_site_occupancy
  Pr  Pr0  1  0.24396000  0.48932000  0.42287000  1.0
  Pr  Pr1  1  0.25604000  0.51068000  0.92287000  1.0
  Pr  Pr2  1  0.75604000  0.51068000  0.57713000  1.0
  Pr  Pr3  1  0.74396000  0.48932000  0.07713000  1.0
  P  P4  1  0.28467000  0.60111000  0.15083000  1.0
  P  P5  1  0.21533000  0.39890000  0.65082000  1.0
  P  P6  1  0.71533000  0.39890000  0.84917000  1.0
  P  P7  1  0.78467000  0.60110000  0.34918000  1.0
  H  H8  1  0.26196000  0.27009000  0.29182000  1.0
  H  H9  1  0.23804000  0.72991000  0.79182000  1.0
  H  H10  1  0.73804000  0.72991000  0.70818000  1.0
  H  H11  1  0.76196000  0.27009000  0.20818000  1.0
  H  H12  1  0.46242000  0.28379000  0.34400000  1.0
  H  H13  1  0.03757000  0.71621000  0.84400000  1.0
  H  H14  1  0.53758000  0.71621000  0.65600000  1.0
  H  H15  1  0.96243000  0.28379000  0.15600000  1.0
  H  H16  1  0.31411000  0.78941000  0.24979000  1.0
  H  H17  1  0.18589000  0.21059000  0.74978000  1.0
  H  H18  1  0.68590000  0.21059000  0.75021000  1.0
  H  H19  1  0.81410000  0.78940000  0.25022000  1.0
  H  H20  1  0.52065000  0.79980000  0.17517000  1.0
  H  H21  1  0.97935000  0.20020000  0.67517000  1.0
  H  H22  1  0.47935000  0.20020000  0.82483000  1.0
  H  H23  1  0.02065000  0.79980000  0.32483000  1.0
  H  H24  1  0.12719000  0.82006000  0.09460000  1.0
  H  H25  1  0.37281000  0.17994000  0.59460000  1.0
  H  H26  1  0.87281000  0.17994000  0.90540000  1.0
  H  H27  1  0.62719000  0.82006000  0.40540000  1.0
  H  H28  1  0.33367000  0.83839000  0.02113000  1.0
  H  H29  1  0.16633000  0.16161000  0.52113000  1.0
  H  H30  1  0.66633000  0.16161000  0.97887000  1.0
  H  H31  1  0.83367000  0.83838000  0.47887000  1.0
  H  H32  1  0.49988000  0.03446000  0.12887000  1.0
  H  H33  1  0.00012000  0.96554000  0.62887000  1.0
  H  H34  1  0.50012000  0.96554000  0.87113000  1.0
  H  H35  1  0.99988000  0.03446000  0.37113000  1.0
  H  H36  1  0.28488000  0.01065000  0.19856000  1.0
  H  H37  1  0.21511000  0.98935000  0.69856000  1.0
  H  H38  1  0.71511000  0.98935000  0.80144000  1.0
  H  H39  1  0.78489000  0.01065000  0.30144000  1.0
  H  H40  1  0.10740000  0.02750000  0.03392000  1.0
  H  H41  1  0.39260000  0.97250000  0.53392000  1.0
  H  H42  1  0.89260000  0.97250000  0.96608000  1.0
  H  H43  1  0.60740000  0.02750000  0.46608000  1.0
  H  H44  1  0.33515000  0.07822000  0.97332000  1.0
  H  H45  1  0.16485000  0.92177000  0.47332000  1.0
  H  H46  1  0.66485000  0.92177000  0.02668000  1.0
  H  H47  1  0.83515000  0.07823000  0.52668000  1.0
  C  C48  1  0.36182000  0.77329000  0.17338000  1.0
  C  C49  1  0.13818000  0.22671000  0.67338000  1.0
  C  C50  1  0.63819000  0.22671000  0.82662000  1.0
  C  C51  1  0.86181000  0.77329000  0.32662000  1.0
  C  C52  1  0.28537000  0.85398000  0.09755000  1.0
  C  C53  1  0.21462000  0.14602000  0.59755000  1.0
  C  C54  1  0.71462000  0.14602000  0.90245000  1.0
  C  C55  1  0.78538000  0.85398000  0.40245000  1.0
  C  C56  1  0.34236000  0.99645000  0.12391000  1.0
  C  C57  1  0.15764000  0.00355000  0.62391000  1.0
  C  C58  1  0.65763000  0.00355000  0.87609000  1.0
  C  C59  1  0.84236000  0.99645000  0.37610000  1.0
  C  C60  1  0.26122000  0.07173000  0.04607000  1.0
  C  C61  1  0.23877000  0.92827000  0.54607000  1.0
  C  C62  1  0.73877000  0.92827000  0.95393000  1.0
  C  C63  1  0.76123000  0.07173000  0.45393000  1.0
  S  S64  1  0.27169000  0.23086000  0.08421000  1.0
  S  S65  1  0.22829000  0.76913000  0.58421000  1.0
  S  S66  1  0.72831000  0.76914000  0.91579000  1.0
  S  S67  1  0.77171000  0.23087000  0.41579000  1.0
  O  O68  1  0.25163000  0.53778000  0.25330000  1.0
  O  O69  1  0.24838000  0.46222000  0.75331000  1.0
  O  O70  1  0.74837000  0.46222000  0.74670000  1.0
  O  O71  1  0.75163000  0.53778000  0.24669000  1.0
  O  O72  1  0.10182000  0.57110000  0.08271000  1.0
  O  O73  1  0.39818000  0.42890000  0.58271000  1.0
  O  O74  1  0.89818000  0.42890000  0.91729000  1.0
  O  O75  1  0.60182000  0.57110000  0.41729000  1.0
  O  O76  1  0.44042000  0.56162000  0.08650000  1.0
  O  O77  1  0.05959000  0.43838000  0.58650000  1.0
  O  O78  1  0.55958000  0.43838000  0.91350000  1.0
  O  O79  1  0.94041000  0.56162000  0.41350000  1.0
  O  O80  1  0.15198000  0.21837000  0.17579000  1.0
  O  O81  1  0.34803000  0.78164000  0.67580000  1.0
  O  O82  1  0.84803000  0.78164000  0.82421000  1.0
  O  O83  1  0.65197000  0.21836000  0.32420000  1.0
  O  O84  1  0.47504000  0.29273000  0.10510000  1.0
  O  O85  1  0.02497000  0.70727000  0.60510000  1.0
  O  O86  1  0.52497000  0.70727000  0.89490000  1.0
  O  O87  1  0.97503000  0.29273000  0.39490000  1.0
  O  O88  1  0.18902000  0.28878000  0.00032000  1.0
  O  O89  1  0.31098000  0.71122000  0.50033000  1.0
  O  O90  1  0.81098000  0.71122000  0.99968000  1.0
  O  O91  1  0.68902000  0.28878000  0.49967000  1.0
  O  O92  1  0.33496000  0.30093000  0.35395000  1.0
  O  O93  1  0.16505000  0.69907000  0.85395000  1.0
  O  O94  1  0.66504000  0.69907000  0.64605000  1.0
  O  O95  1  0.83495000  0.30093000  0.14605000  1.0
