# generated using pymatgen
data_NiH22C27(N2O3)2
_symmetry_space_group_name_H-M   'P 1'
_cell_length_a   10.31810000
_cell_length_b   10.72360000
_cell_length_c   11.80780000
_cell_angle_alpha   101.79100000
_cell_angle_beta   108.81600000
_cell_angle_gamma   100.54100000
_symmetry_Int_Tables_number   1
_chemical_formula_structural   NiH22C27(N2O3)2
_chemical_formula_sum   'Ni2 H44 C54 N8 O12'
_cell_volume   1166.11095152
_cell_formula_units_Z   2
loop_
 _symmetry_equiv_pos_site_id
 _symmetry_equiv_pos_as_xyz
  1  'x, y, z'
loop_
 _atom_site_type_symbol
 _atom_site_label
 _atom_site_symmetry_multiplicity
 _atom_site_fract_x
 _atom_site_fract_y
 _atom_site_fract_z
 _atom_site_occupancy
  Ni  Ni0  1  0.50000000  0.00000000  0.50000000  1.0
  Ni  Ni1  1  0.50000000  0.00000000  0.00000000  1.0
  H  H2  1  0.41506000  0.67998000  0.16409000  1.0
  H  H3  1  0.58494000  0.32002000  0.83590000  1.0
  H  H4  1  0.41271000  0.47376000  0.02125000  1.0
  H  H5  1  0.58729000  0.52623000  0.97874000  1.0
  H  H6  1  0.28808000  0.45222000  0.38964000  1.0
  H  H7  1  0.71191000  0.54778000  0.61035000  1.0
  H  H8  1  0.52642000  0.25235000  0.39593000  1.0
  H  H9  1  0.47358000  0.74765000  0.60407000  1.0
  H  H10  1  0.14814000  0.84755000  0.33638000  1.0
  H  H11  1  0.85186000  0.15246000  0.66363000  1.0
  H  H12  1  0.89875000  0.81896000  0.19397000  1.0
  H  H13  1  0.10126000  0.18104000  0.80604000  1.0
  H  H14  1  0.83740000  0.98383000  0.08344000  1.0
  H  H15  1  0.16260000  0.01617000  0.91657000  1.0
  H  H16  1  0.02160000  0.18490000  0.10879000  1.0
  H  H17  1  0.97840000  0.81510000  0.89121000  1.0
  H  H18  1  0.68028000  0.25621000  0.19907000  1.0
  H  H19  1  0.31972000  0.74380000  0.80093000  1.0
  H  H20  1  0.86904000  0.45429000  0.22210000  1.0
  H  H21  1  0.13096000  0.54571000  0.77790000  1.0
  H  H22  1  0.85950000  0.25227000  0.86212000  1.0
  H  H23  1  0.14050000  0.74774000  0.13789000  1.0
  H  H24  1  0.67080000  0.06820000  0.85318000  1.0
  H  H25  1  0.32920000  0.93180000  0.14683000  1.0
  H  H26  1  0.02710000  0.56624000  0.13766000  1.0
  H  H27  1  0.97290000  0.43376000  0.86234000  1.0
  H  H28  1  0.70641000  0.14124000  0.47626000  1.0
  H  H29  1  0.29359000  0.85876000  0.52374000  1.0
  H  H30  1  0.73216000  0.99090000  0.44381000  1.0
  H  H31  1  0.26784000  0.00910000  0.55619000  1.0
  H  H32  1  0.63274000  0.89645000  0.15103000  1.0
  H  H33  1  0.36726000  0.10354000  0.84897000  1.0
  H  H34  1  0.61255000  0.00793000  0.25715000  1.0
  H  H35  1  0.38745000  0.99207000  0.74285000  1.0
  H  H36  1  0.61928000  0.74534000  0.32332000  1.0
  H  H37  1  0.38072000  0.25466000  0.67668000  1.0
  H  H38  1  0.67838000  0.53159000  0.33354000  1.0
  H  H39  1  0.32162000  0.46841000  0.66646000  1.0
  H  H40  1  0.09371000  0.76145000  0.60587000  1.0
  H  H41  1  0.90629000  0.23854000  0.39413000  1.0
  H  H42  1  0.01750000  0.96084000  0.58237000  1.0
  H  H43  1  0.98250000  0.03915000  0.41764000  1.0
  H  H44  1  0.84431000  0.41507000  0.44453000  1.0
  H  H45  1  0.15569000  0.58492000  0.55547000  1.0
  C  C46  1  0.34693000  0.70691000  0.36926000  1.0
  C  C47  1  0.65307000  0.29310000  0.63074000  1.0
  C  C48  1  0.34872000  0.58082000  0.28540000  1.0
  C  C49  1  0.65127000  0.41918000  0.71459000  1.0
  C  C50  1  0.38750000  0.58555000  0.18273000  1.0
  C  C51  1  0.61249000  0.41445000  0.81726000  1.0
  C  C52  1  0.38959000  0.47099000  0.10441000  1.0
  C  C53  1  0.61040000  0.52900000  0.89558000  1.0
  C  C54  1  0.36443000  0.34872000  0.13001000  1.0
  C  C55  1  0.63557000  0.65128000  0.86999000  1.0
  C  C56  1  0.33120000  0.34545000  0.23628000  1.0
  C  C57  1  0.66880000  0.65455000  0.76371000  1.0
  C  C58  1  0.31841000  0.45885000  0.31031000  1.0
  C  C59  1  0.68158000  0.54115000  0.68968000  1.0
  C  C60  1  0.38018000  0.23271000  0.04245000  1.0
  C  C61  1  0.61982000  0.76729000  0.95755000  1.0
  C  C62  1  0.41734000  0.19154000  0.35424000  1.0
  C  C63  1  0.58266000  0.80846000  0.64576000  1.0
  C  C64  1  0.22578000  0.03315000  0.30187000  1.0
  C  C65  1  0.77422000  0.96685000  0.69813000  1.0
  C  C66  1  0.12170000  0.92047000  0.28709000  1.0
  C  C67  1  0.87830000  0.07953000  0.71292000  1.0
  C  C68  1  0.98293000  0.90506000  0.20753000  1.0
  C  C69  1  0.01707000  0.09494000  0.79248000  1.0
  C  C70  1  0.94711000  0.99918000  0.14400000  1.0
  C  C71  1  0.05288000  0.00081000  0.85601000  1.0
  C  C72  1  0.04879000  0.11225000  0.15810000  1.0
  C  C73  1  0.95122000  0.88775000  0.84191000  1.0
  C  C74  1  0.18726000  0.12721000  0.23769000  1.0
  C  C75  1  0.81274000  0.87280000  0.76231000  1.0
  C  C76  1  0.72334000  0.26107000  0.12657000  1.0
  C  C77  1  0.27666000  0.73894000  0.87343000  1.0
  C  C78  1  0.82814000  0.37039000  0.13863000  1.0
  C  C79  1  0.17186000  0.62962000  0.86137000  1.0
  C  C80  1  0.87903000  0.37323000  0.04178000  1.0
  C  C81  1  0.12097000  0.62677000  0.95823000  1.0
  C  C82  1  0.82316000  0.25982000  0.93917000  1.0
  C  C83  1  0.17685000  0.74018000  0.06083000  1.0
  C  C84  1  0.71808000  0.15523000  0.93357000  1.0
  C  C85  1  0.28192000  0.84477000  0.06644000  1.0
  C  C86  1  0.98118000  0.48999000  0.04800000  1.0
  C  C87  1  0.01882000  0.51002000  0.95200000  1.0
  C  C88  1  0.72418000  0.74392000  0.38272000  1.0
  C  C89  1  0.27582000  0.25608000  0.61728000  1.0
  C  C90  1  0.75763000  0.62496000  0.38994000  1.0
  C  C91  1  0.24237000  0.37504000  0.61006000  1.0
  C  C92  1  0.89367000  0.62672000  0.46894000  1.0
  C  C93  1  0.10633000  0.37328000  0.53106000  1.0
  C  C94  1  0.98843000  0.75147000  0.53899000  1.0
  C  C95  1  0.01157000  0.24853000  0.46101000  1.0
  C  C96  1  0.94551000  0.86439000  0.52638000  1.0
  C  C97  1  0.05449000  0.13561000  0.47362000  1.0
  C  C98  1  0.93240000  0.50416000  0.47705000  1.0
  C  C99  1  0.06760000  0.49584000  0.52295000  1.0
  N  N100  1  0.31178000  0.22693000  0.27417000  1.0
  N  N101  1  0.68821000  0.77307000  0.72583000  1.0
  N  N102  1  0.37102000  0.07735000  0.37418000  1.0
  N  N103  1  0.62898000  0.92265000  0.62583000  1.0
  N  N104  1  0.66640000  0.15557000  0.02467000  1.0
  N  N105  1  0.33360000  0.84443000  0.97533000  1.0
  N  N106  1  0.81572000  0.86257000  0.44956000  1.0
  N  N107  1  0.18428000  0.13742000  0.55044000  1.0
  O  O108  1  0.42377000  0.81269000  0.36546000  1.0
  O  O109  1  0.57623000  0.18731000  0.63454000  1.0
  O  O110  1  0.27355000  0.70062000  0.43740000  1.0
  O  O111  1  0.72645000  0.29938000  0.56259000  1.0
  O  O112  1  0.41485000  0.13857000  0.08630000  1.0
  O  O113  1  0.58515000  0.86143000  0.91370000  1.0
  O  O114  1  0.36182000  0.24090000  0.93323000  1.0
  O  O115  1  0.63818000  0.75909000  0.06677000  1.0
  O  O116  1  0.66202000  0.04636000  0.42479000  1.0
  O  O117  1  0.33798000  0.95364000  0.57521000  1.0
  O  O118  1  0.62226000  0.98882000  0.17518000  1.0
  O  O119  1  0.37774000  0.01117000  0.82482000  1.0
