# generated using pymatgen
data_CaH16C16(N5O3)2
_symmetry_space_group_name_H-M   'P 1'
_cell_length_a   7.90694000
_cell_length_b   10.12910000
_cell_length_c   14.42610000
_cell_angle_alpha   107.19100000
_cell_angle_beta   94.53770000
_cell_angle_gamma   96.15440000
_symmetry_Int_Tables_number   1
_chemical_formula_structural   CaH16C16(N5O3)2
_chemical_formula_sum   'Ca2 H32 C32 N20 O12'
_cell_volume   1089.91773133
_cell_formula_units_Z   2
loop_
 _symmetry_equiv_pos_site_id
 _symmetry_equiv_pos_as_xyz
  1  'x, y, z'
loop_
 _atom_site_type_symbol
 _atom_site_label
 _atom_site_symmetry_multiplicity
 _atom_site_fract_x
 _atom_site_fract_y
 _atom_site_fract_z
 _atom_site_occupancy
  Ca  Ca0  1  0.75799000  0.99085000  0.03714000  1.0
  Ca  Ca1  1  0.24201000  0.00914000  0.96286000  1.0
  H  H2  1  0.38018000  0.24020000  0.69069000  1.0
  H  H3  1  0.61982000  0.75980000  0.30931000  1.0
  H  H4  1  0.44736000  0.87678000  0.45883000  1.0
  H  H5  1  0.55265000  0.12321000  0.54116000  1.0
  H  H6  1  0.37596000  0.65786000  0.88082000  1.0
  H  H7  1  0.62402000  0.34214000  0.11919000  1.0
  H  H8  1  0.05068000  0.35862000  0.91207000  1.0
  H  H9  1  0.94931000  0.64138000  0.08792000  1.0
  H  H10  1  0.94808000  0.23045000  0.80171000  1.0
  H  H11  1  0.05192000  0.76956000  0.19829000  1.0
  H  H12  1  0.11373000  0.58882000  0.52875000  1.0
  H  H13  1  0.88628000  0.41118000  0.47124000  1.0
  H  H14  1  0.40670000  0.74973000  0.70603000  1.0
  H  H15  1  0.59330000  0.25026000  0.29395000  1.0
  H  H16  1  0.48649000  0.92113000  0.70565000  1.0
  H  H17  1  0.51354000  0.07888000  0.29436000  1.0
  H  H18  1  0.28605000  0.07251000  0.53608000  1.0
  H  H19  1  0.71397000  0.92748000  0.46392000  1.0
  H  H20  1  0.96418000  0.47897000  0.66899000  1.0
  H  H21  1  0.03581000  0.52103000  0.33102000  1.0
  H  H22  1  0.09031000  0.25669000  0.61016000  1.0
  H  H23  1  0.90968000  0.74331000  0.38985000  1.0
  H  H24  1  0.02234000  0.01867000  0.61317000  1.0
  H  H25  1  0.97768000  0.98133000  0.38684000  1.0
  H  H26  1  0.05054000  0.15927000  0.16939000  1.0
  H  H27  1  0.94944000  0.84073000  0.83062000  1.0
  H  H28  1  0.90349000  0.25745000  0.19083000  1.0
  H  H29  1  0.09650000  0.74255000  0.80917000  1.0
  H  H30  1  0.48047000  0.79577000  0.06110000  1.0
  H  H31  1  0.51953000  0.20423000  0.93890000  1.0
  H  H32  1  0.61558000  0.70032000  0.01356000  1.0
  H  H33  1  0.38441000  0.29968000  0.98644000  1.0
  C  C34  1  0.88561000  0.19014000  0.93517000  1.0
  C  C35  1  0.11438000  0.80985000  0.06483000  1.0
  C  C36  1  0.58157000  0.87055000  0.83379000  1.0
  C  C37  1  0.41842000  0.12944000  0.16619000  1.0
  C  C38  1  0.56904000  0.44339000  0.83822000  1.0
  C  C39  1  0.43096000  0.55662000  0.16179000  1.0
  C  C40  1  0.40141000  0.44837000  0.79074000  1.0
  C  C41  1  0.59859000  0.55164000  0.20926000  1.0
  C  C42  1  0.04463000  0.79908000  0.57445000  1.0
  C  C43  1  0.95540000  0.20092000  0.42556000  1.0
  C  C44  1  0.88304000  0.76164000  0.60834000  1.0
  C  C45  1  0.11697000  0.23835000  0.39166000  1.0
  C  C46  1  0.31850000  0.33385000  0.71400000  1.0
  C  C47  1  0.68148000  0.66616000  0.28601000  1.0
  C  C48  1  0.33478000  0.85792000  0.49460000  1.0
  C  C49  1  0.66522000  0.14206000  0.50539000  1.0
  C  C50  1  0.31810000  0.56670000  0.82054000  1.0
  C  C51  1  0.68189000  0.43331000  0.17948000  1.0
  C  C52  1  0.93159000  0.29050000  0.87645000  1.0
  C  C53  1  0.06840000  0.70949000  0.12355000  1.0
  C  C54  1  0.14816000  0.69774000  0.53254000  1.0
  C  C55  1  0.85185000  0.30224000  0.46744000  1.0
  C  C56  1  0.52010000  0.82886000  0.72398000  1.0
  C  C57  1  0.47990000  0.17113000  0.27601000  1.0
  C  C58  1  0.24482000  0.96725000  0.53786000  1.0
  C  C59  1  0.75521000  0.03275000  0.46215000  1.0
  C  C60  1  0.08716000  0.46615000  0.70308000  1.0
  C  C61  1  0.91282000  0.53386000  0.29693000  1.0
  C  C62  1  0.15915000  0.34298000  0.67015000  1.0
  C  C63  1  0.84085000  0.65703000  0.32985000  1.0
  C  C64  1  0.09834000  0.93767000  0.57939000  1.0
  C  C65  1  0.90169000  0.06232000  0.42062000  1.0
  N  N66  1  0.66379000  0.34054000  0.80529000  1.0
  N  N67  1  0.33621000  0.65946000  0.19472000  1.0
  N  N68  1  0.80010000  0.37832000  0.87199000  1.0
  N  N69  1  0.19991000  0.62169000  0.12801000  1.0
  N  N70  1  0.16544000  0.57609000  0.77714000  1.0
  N  N71  1  0.83455000  0.42392000  0.22286000  1.0
  N  N72  1  0.64847000  0.53888000  0.92241000  1.0
  N  N73  1  0.35152000  0.46112000  0.07760000  1.0
  N  N74  1  0.77749000  0.85407000  0.64568000  1.0
  N  N75  1  0.22254000  0.14593000  0.35433000  1.0
  N  N76  1  0.81918000  0.62987000  0.60575000  1.0
  N  N77  1  0.18083000  0.37013000  0.39425000  1.0
  N  N78  1  0.65093000  0.77302000  0.66560000  1.0
  N  N79  1  0.34908000  0.22698000  0.33440000  1.0
  N  N80  1  0.79400000  0.49598000  0.94326000  1.0
  N  N81  1  0.20599000  0.50403000  0.05673000  1.0
  N  N82  1  0.67297000  0.63874000  0.64338000  1.0
  N  N83  1  0.32704000  0.36126000  0.35661000  1.0
  N  N84  1  0.29034000  0.72589000  0.49340000  1.0
  N  N85  1  0.70966000  0.27410000  0.50658000  1.0
  O  O86  1  0.47281000  0.91654000  0.89041000  1.0
  O  O87  1  0.52717000  0.08344000  0.10957000  1.0
  O  O88  1  0.00067000  0.11970000  0.95103000  1.0
  O  O89  1  0.99932000  0.88031000  0.04898000  1.0
  O  O90  1  0.73291000  0.85819000  0.86195000  1.0
  O  O91  1  0.26706000  0.14180000  0.13805000  1.0
  O  O92  1  0.73881000  0.18222000  0.96408000  1.0
  O  O93  1  0.26117000  0.81777000  0.03591000  1.0
  O  O94  1  0.92636000  0.15795000  0.17316000  1.0
  O  O95  1  0.07363000  0.84206000  0.82684000  1.0
  O  O96  1  0.60470000  0.78996000  0.06333000  1.0
  O  O97  1  0.39530000  0.21004000  0.93666000  1.0
