# generated using pymatgen
data_ZnH12C9(NO2)2
_symmetry_space_group_name_H-M   'P 1'
_cell_length_a   7.42230000
_cell_length_b   7.94590000
_cell_length_c   18.63740000
_cell_angle_alpha   88.52820000
_cell_angle_beta   86.59260000
_cell_angle_gamma   83.94060000
_symmetry_Int_Tables_number   1
_chemical_formula_structural   ZnH12C9(NO2)2
_chemical_formula_sum   'Zn4 H48 C36 N8 O16'
_cell_volume   1090.89317326
_cell_formula_units_Z   4
loop_
 _symmetry_equiv_pos_site_id
 _symmetry_equiv_pos_as_xyz
  1  'x, y, z'
loop_
 _atom_site_type_symbol
 _atom_site_label
 _atom_site_symmetry_multiplicity
 _atom_site_fract_x
 _atom_site_fract_y
 _atom_site_fract_z
 _atom_site_occupancy
  Zn  Zn0  1  0.80775000  0.18944000  0.16461000  1.0
  Zn  Zn1  1  0.19225000  0.81056000  0.83539000  1.0
  Zn  Zn2  1  0.28930000  0.01921000  0.30372000  1.0
  Zn  Zn3  1  0.71070000  0.98079000  0.69628000  1.0
  H  H4  1  0.38580000  0.78107000  0.14044000  1.0
  H  H5  1  0.61420000  0.21892000  0.85956000  1.0
  H  H6  1  0.40574000  0.91005000  0.06080000  1.0
  H  H7  1  0.59427000  0.08995000  0.93920000  1.0
  H  H8  1  0.23246000  0.96627000  0.13040000  1.0
  H  H9  1  0.76754000  0.03372000  0.86959000  1.0
  H  H10  1  0.43533000  0.66864000  0.26960000  1.0
  H  H11  1  0.56467000  0.33136000  0.73039000  1.0
  H  H12  1  0.58210000  0.55937000  0.33302000  1.0
  H  H13  1  0.41789000  0.44063000  0.66698000  1.0
  H  H14  1  0.38249000  0.47375000  0.30900000  1.0
  H  H15  1  0.61750000  0.52625000  0.69099000  1.0
  H  H16  1  0.79736000  0.73396000  0.28689000  1.0
  H  H17  1  0.20264000  0.26604000  0.71311000  1.0
  H  H18  1  0.94461000  0.63613000  0.21850000  1.0
  H  H19  1  0.05539000  0.36387000  0.78150000  1.0
  H  H20  1  0.77236000  0.80206000  0.19588000  1.0
  H  H21  1  0.22764000  0.19794000  0.80412000  1.0
  H  H22  1  0.85868000  0.46582000  0.35980000  1.0
  H  H23  1  0.14133000  0.53420000  0.64020000  1.0
  H  H24  1  0.07126000  0.54823000  0.36390000  1.0
  H  H25  1  0.92875000  0.45178000  0.63610000  1.0
  H  H26  1  0.96203000  0.46062000  0.44337000  1.0
  H  H27  1  0.03798000  0.53939000  0.55663000  1.0
  H  H28  1  0.36007000  0.44388000  0.03950000  1.0
  H  H29  1  0.63994000  0.55611000  0.96050000  1.0
  H  H30  1  0.28203000  0.37157000  0.91668000  1.0
  H  H31  1  0.71798000  0.62842000  0.08332000  1.0
  H  H32  1  0.00461000  0.21440000  0.90372000  1.0
  H  H33  1  0.99539000  0.78560000  0.09628000  1.0
  H  H34  1  0.81937000  0.14773000  0.01473000  1.0
  H  H35  1  0.18062000  0.85227000  0.98527000  1.0
  H  H36  1  0.82376000  0.88674000  0.47156000  1.0
  H  H37  1  0.17624000  0.11325000  0.52844000  1.0
  H  H38  1  0.66250000  0.67868000  0.54608000  1.0
  H  H39  1  0.33749000  0.32132000  0.45391000  1.0
  H  H40  1  0.34573000  0.62610000  0.51729000  1.0
  H  H41  1  0.65427000  0.37389000  0.48271000  1.0
  H  H42  1  0.20878000  0.78186000  0.41215000  1.0
  H  H43  1  0.79122000  0.21814000  0.58785000  1.0
  H  H44  1  0.11600000  0.32512000  0.20342000  1.0
  H  H45  1  0.88399000  0.67488000  0.79658000  1.0
  H  H46  1  0.29541000  0.42156000  0.16363000  1.0
  H  H47  1  0.70459000  0.57844000  0.83637000  1.0
  H  H48  1  0.63121000  0.11641000  0.31680000  1.0
  H  H49  1  0.36879000  0.88359000  0.68320000  1.0
  H  H50  1  0.80811000  0.09143000  0.37552000  1.0
  H  H51  1  0.19189000  0.90857000  0.62448000  1.0
  C  C52  1  0.50056000  0.01206000  0.15542000  1.0
  C  C53  1  0.49944000  0.98794000  0.84458000  1.0
  C  C54  1  0.37287000  0.91182000  0.11881000  1.0
  C  C55  1  0.62713000  0.08817000  0.88119000  1.0
  C  C56  1  0.59361000  0.44592000  0.22805000  1.0
  C  C57  1  0.40638000  0.55408000  0.77195000  1.0
  C  C58  1  0.49489000  0.54512000  0.28868000  1.0
  C  C59  1  0.50510000  0.45488000  0.71132000  1.0
  C  C60  1  0.00246000  0.88306000  0.24640000  1.0
  C  C61  1  0.99754000  0.11694000  0.75360000  1.0
  C  C62  1  0.87033000  0.75690000  0.23529000  1.0
  C  C63  1  0.12968000  0.24310000  0.76471000  1.0
  C  C64  1  0.07657000  0.27361000  0.36748000  1.0
  C  C65  1  0.92343000  0.72639000  0.63252000  1.0
  C  C66  1  0.98954000  0.44923000  0.38516000  1.0
  C  C67  1  0.01047000  0.55078000  0.61485000  1.0
  C  C68  1  0.12990000  0.33724000  0.09221000  1.0
  C  C69  1  0.87010000  0.66276000  0.90779000  1.0
  C  C70  1  0.24139000  0.37854000  0.03116000  1.0
  C  C71  1  0.75861000  0.62145000  0.96884000  1.0
  C  C72  1  0.19762000  0.33651000  0.96352000  1.0
  C  C73  1  0.80239000  0.66349000  0.03648000  1.0
  C  C74  1  0.04345000  0.25097000  0.95588000  1.0
  C  C75  1  0.95655000  0.74903000  0.04412000  1.0
  C  C76  1  0.94006000  0.21404000  0.01693000  1.0
  C  C77  1  0.05994000  0.78596000  0.98307000  1.0
  C  C78  1  0.60217000  0.94314000  0.40063000  1.0
  C  C79  1  0.39783000  0.05686000  0.59937000  1.0
  C  C80  1  0.68893000  0.85749000  0.45921000  1.0
  C  C81  1  0.31107000  0.14251000  0.54079000  1.0
  C  C82  1  0.59835000  0.74335000  0.50045000  1.0
  C  C83  1  0.40164000  0.25665000  0.49955000  1.0
  C  C84  1  0.42180000  0.71263000  0.48471000  1.0
  C  C85  1  0.57820000  0.28736000  0.51529000  1.0
  C  C86  1  0.34537000  0.79874000  0.42706000  1.0
  C  C87  1  0.65463000  0.20125000  0.57294000  1.0
  N  N88  1  0.97982000  0.25652000  0.08386000  1.0
  N  N89  1  0.02018000  0.74347000  0.91614000  1.0
  N  N90  1  0.16929000  0.38200000  0.15865000  1.0
  N  N91  1  0.83070000  0.61800000  0.84135000  1.0
  N  N92  1  0.43244000  0.91029000  0.38502000  1.0
  N  N93  1  0.56755000  0.08972000  0.61498000  1.0
  N  N94  1  0.68642000  0.05746000  0.36047000  1.0
  N  N95  1  0.31358000  0.94253000  0.63953000  1.0
  O  O96  1  0.63579000  0.05969000  0.11723000  1.0
  O  O97  1  0.36421000  0.94031000  0.88277000  1.0
  O  O98  1  0.47753000  0.04394000  0.22226000  1.0
  O  O99  1  0.52247000  0.95605000  0.77774000  1.0
  O  O100  1  0.73162000  0.34061000  0.24489000  1.0
  O  O101  1  0.26838000  0.65938000  0.75511000  1.0
  O  O102  1  0.53924000  0.46120000  0.16523000  1.0
  O  O103  1  0.46076000  0.53880000  0.83477000  1.0
  O  O104  1  0.13340000  0.83597000  0.28644000  1.0
  O  O105  1  0.86660000  0.16403000  0.71356000  1.0
  O  O106  1  0.98872000  0.02979000  0.21684000  1.0
  O  O107  1  0.01128000  0.97021000  0.78316000  1.0
  O  O108  1  0.20188000  0.26223000  0.31541000  1.0
  O  O109  1  0.79812000  0.73778000  0.68459000  1.0
  O  O110  1  0.02680000  0.14609000  0.40125000  1.0
  O  O111  1  0.97320000  0.85393000  0.59876000  1.0
