# generated using pymatgen
data_LiH11C8S(NO)2
_symmetry_space_group_name_H-M   'P 1'
_cell_length_a   7.36495000
_cell_length_b   10.30750000
_cell_length_c   13.14340000
_cell_angle_alpha   71.84700000
_cell_angle_beta   89.99980000
_cell_angle_gamma   89.99980000
_symmetry_Int_Tables_number   1
_chemical_formula_structural   LiH11C8S(NO)2
_chemical_formula_sum   'Li4 H44 C32 S4 N8 O8'
_cell_volume   948.10987132
_cell_formula_units_Z   4
loop_
 _symmetry_equiv_pos_site_id
 _symmetry_equiv_pos_as_xyz
  1  'x, y, z'
loop_
 _atom_site_type_symbol
 _atom_site_label
 _atom_site_symmetry_multiplicity
 _atom_site_fract_x
 _atom_site_fract_y
 _atom_site_fract_z
 _atom_site_occupancy
  Li  Li0  1  0.46853000  0.50908000  0.09959000  1.0
  Li  Li1  1  0.96853000  0.99091000  0.40041000  1.0
  Li  Li2  1  0.53148000  0.49091000  0.90041000  1.0
  Li  Li3  1  0.03148000  0.00909000  0.59959000  1.0
  H  H4  1  0.79092000  0.26050000  0.30470000  1.0
  H  H5  1  0.29092000  0.23950000  0.19530000  1.0
  H  H6  1  0.20908000  0.73950000  0.69530000  1.0
  H  H7  1  0.70908000  0.76050000  0.80470000  1.0
  H  H8  1  0.68039000  0.96226000  0.63564000  1.0
  H  H9  1  0.18038000  0.53774000  0.86436000  1.0
  H  H10  1  0.31962000  0.03774000  0.36436000  1.0
  H  H11  1  0.81962000  0.46226000  0.13564000  1.0
  H  H12  1  0.45573000  0.99508000  0.67148000  1.0
  H  H13  1  0.95573000  0.50492000  0.82853000  1.0
  H  H14  1  0.54428000  0.00492000  0.32853000  1.0
  H  H15  1  0.04428000  0.49508000  0.17147000  1.0
  H  H16  1  0.36558000  0.58333000  0.37870000  1.0
  H  H17  1  0.86558000  0.91668000  0.12129000  1.0
  H  H18  1  0.63441000  0.41667000  0.62129000  1.0
  H  H19  1  0.13441000  0.08334000  0.87871000  1.0
  H  H20  1  0.27095000  0.49587000  0.50719000  1.0
  H  H21  1  0.77094000  0.00413000  0.99281000  1.0
  H  H22  1  0.72905000  0.50413000  0.49281000  1.0
  H  H23  1  0.22904000  0.99588000  0.00719000  1.0
  H  H24  1  0.12730000  0.58647000  0.39958000  1.0
  H  H25  1  0.62730000  0.91354000  0.10041000  1.0
  H  H26  1  0.87269000  0.41353000  0.60041000  1.0
  H  H27  1  0.37269000  0.08647000  0.89959000  1.0
  H  H28  1  0.10995000  0.33414000  0.42622000  1.0
  H  H29  1  0.60995000  0.16586000  0.07379000  1.0
  H  H30  1  0.89005000  0.66585000  0.57379000  1.0
  H  H31  1  0.39004000  0.83415000  0.92621000  1.0
  H  H32  1  0.21257000  0.42256000  0.29993000  1.0
  H  H33  1  0.71257000  0.07744000  0.20007000  1.0
  H  H34  1  0.78743000  0.57743000  0.70007000  1.0
  H  H35  1  0.28742000  0.92257000  0.79993000  1.0
  H  H36  1  0.79759000  0.15326000  0.70062000  1.0
  H  H37  1  0.29758000  0.34674000  0.79939000  1.0
  H  H38  1  0.20242000  0.84674000  0.29939000  1.0
  H  H39  1  0.70242000  0.65326000  0.20062000  1.0
  H  H40  1  0.68253000  0.02770000  0.80386000  1.0
  H  H41  1  0.18252000  0.47230000  0.69614000  1.0
  H  H42  1  0.31748000  0.97230000  0.19614000  1.0
  H  H43  1  0.81749000  0.52770000  0.30386000  1.0
  H  H44  1  0.57180000  0.18381000  0.73592000  1.0
  H  H45  1  0.07180000  0.31619000  0.76408000  1.0
  H  H46  1  0.42821000  0.81619000  0.26409000  1.0
  H  H47  1  0.92821000  0.68381000  0.23591000  1.0
  C  C48  1  0.68364000  0.24948000  0.36332000  1.0
  C  C49  1  0.18364000  0.25051000  0.13667000  1.0
  C  C50  1  0.31635000  0.75052000  0.63668000  1.0
  C  C51  1  0.81635000  0.74948000  0.86333000  1.0
  C  C52  1  0.40594000  0.21634000  0.51580000  1.0
  C  C53  1  0.90594000  0.28366000  0.98421000  1.0
  C  C54  1  0.59406000  0.78365000  0.48421000  1.0
  C  C55  1  0.09406000  0.71635000  0.01579000  1.0
  C  C56  1  0.58871000  0.04083000  0.64580000  1.0
  C  C57  1  0.08870000  0.45917000  0.85421000  1.0
  C  C58  1  0.41130000  0.95917000  0.35420000  1.0
  C  C59  1  0.91130000  0.54083000  0.14579000  1.0
  C  C60  1  0.70651000  0.15526000  0.46461000  1.0
  C  C61  1  0.20651000  0.34474000  0.03539000  1.0
  C  C62  1  0.29349000  0.84474000  0.53539000  1.0
  C  C63  1  0.79349000  0.65526000  0.96461000  1.0
  C  C64  1  0.52400000  0.32584000  0.33373000  1.0
  C  C65  1  0.02400000  0.17416000  0.16627000  1.0
  C  C66  1  0.47599000  0.67416000  0.66627000  1.0
  C  C67  1  0.97599000  0.82584000  0.83373000  1.0
  C  C68  1  0.24968000  0.52286000  0.42040000  1.0
  C  C69  1  0.74968000  0.97714000  0.07960000  1.0
  C  C70  1  0.75031000  0.47714000  0.57959000  1.0
  C  C71  1  0.25031000  0.02286000  0.92040000  1.0
  C  C72  1  0.22688000  0.39502000  0.38688000  1.0
  C  C73  1  0.72688000  0.10498000  0.11312000  1.0
  C  C74  1  0.77312000  0.60497000  0.61312000  1.0
  C  C75  1  0.27311000  0.89503000  0.88688000  1.0
  C  C76  1  0.66490000  0.10582000  0.72578000  1.0
  C  C77  1  0.16490000  0.39417000  0.77422000  1.0
  C  C78  1  0.33510000  0.89417000  0.27422000  1.0
  C  C79  1  0.83511000  0.60583000  0.22578000  1.0
  S  S80  1  0.24440000  0.20095000  0.60975000  1.0
  S  S81  1  0.74439000  0.29905000  0.89025000  1.0
  S  S82  1  0.75561000  0.79905000  0.39026000  1.0
  S  S83  1  0.25561000  0.70095000  0.10974000  1.0
  N  N84  1  0.56333000  0.14050000  0.53866000  1.0
  N  N85  1  0.06333000  0.35950000  0.96134000  1.0
  N  N86  1  0.43668000  0.85950000  0.46134000  1.0
  N  N87  1  0.93668000  0.64050000  0.03866000  1.0
  N  N88  1  0.38842000  0.30647000  0.41426000  1.0
  N  N89  1  0.88842000  0.19353000  0.08575000  1.0
  N  N90  1  0.61158000  0.69353000  0.58575000  1.0
  N  N91  1  0.11158000  0.80647000  0.91425000  1.0
  O  O92  1  0.49279000  0.40870000  0.24238000  1.0
  O  O93  1  0.99279000  0.09131000  0.25762000  1.0
  O  O94  1  0.50720000  0.59130000  0.75762000  1.0
  O  O95  1  0.00720000  0.90869000  0.74238000  1.0
  O  O96  1  0.84668000  0.07982000  0.49375000  1.0
  O  O97  1  0.34668000  0.42017000  0.00625000  1.0
  O  O98  1  0.15333000  0.92018000  0.50625000  1.0
  O  O99  1  0.65333000  0.57982000  0.99375000  1.0
