# generated using pymatgen
data_CoH17C24N6O5
_symmetry_space_group_name_H-M   'P 1'
_cell_length_a   10.11060000
_cell_length_b   14.76180000
_cell_length_c   20.07751038
_cell_angle_alpha   100.39157798
_cell_angle_beta   104.28466187
_cell_angle_gamma   90.90810000
_symmetry_Int_Tables_number   1
_chemical_formula_structural   CoH17C24N6O5
_chemical_formula_sum   'Co4 H68 C96 N24 O20'
_cell_volume   2850.57089158
_cell_formula_units_Z   4
loop_
 _symmetry_equiv_pos_site_id
 _symmetry_equiv_pos_as_xyz
  1  'x, y, z'
loop_
 _atom_site_type_symbol
 _atom_site_label
 _atom_site_symmetry_multiplicity
 _atom_site_fract_x
 _atom_site_fract_y
 _atom_site_fract_z
 _atom_site_occupancy
  Co  Co0  1  0.54242000  0.63512000  0.65126000  1.0
  Co  Co1  1  0.45757000  0.36488000  0.34874000  1.0
  Co  Co2  1  0.93414000  0.65830000  0.79248000  1.0
  Co  Co3  1  0.06586000  0.34170000  0.20752000  1.0
  H  H4  1  0.40886000  0.78746000  0.72259000  1.0
  H  H5  1  0.59113000  0.21253000  0.27741000  1.0
  H  H6  1  0.42312000  0.96069000  0.74769000  1.0
  H  H7  1  0.57687000  0.03930000  0.25231000  1.0
  H  H8  1  0.06551000  0.77866000  0.72411000  1.0
  H  H9  1  0.93450000  0.22133000  0.27588000  1.0
  H  H10  1  0.38234000  0.66860000  0.78004000  1.0
  H  H11  1  0.61767000  0.33138000  0.21996000  1.0
  H  H12  1  0.09122000  0.62526000  0.66510000  1.0
  H  H13  1  0.90876000  0.37474000  0.33489000  1.0
  H  H14  1  0.74797000  0.62536000  0.48855000  1.0
  H  H15  1  0.25203000  0.37464000  0.51144000  1.0
  H  H16  1  0.15787000  0.60815000  0.45964000  1.0
  H  H17  1  0.84213000  0.39185000  0.54036000  1.0
  H  H18  1  0.73095000  0.67822000  0.95536000  1.0
  H  H19  1  0.26906000  0.32178000  0.04464000  1.0
  H  H20  1  0.77054000  0.73913000  0.07655000  1.0
  H  H21  1  0.22948000  0.26087000  0.92345000  1.0
  H  H22  1  0.76036000  0.61607000  0.05119000  1.0
  H  H23  1  0.23964000  0.38392000  0.94881000  1.0
  H  H24  1  0.91276000  0.51217000  0.88381000  1.0
  H  H25  1  0.08724000  0.48784000  0.11619000  1.0
  H  H26  1  0.94434000  0.50054000  0.68116000  1.0
  H  H27  1  0.05566000  0.49946000  0.31884000  1.0
  H  H28  1  0.74144000  0.81130000  0.19398000  1.0
  H  H29  1  0.25855000  0.18870000  0.80602000  1.0
  H  H30  1  0.72685000  0.51603000  0.13039000  1.0
  H  H31  1  0.27315000  0.48397000  0.86961000  1.0
  H  H32  1  0.32112000  0.67154000  0.98532000  1.0
  H  H33  1  0.67888000  0.32847000  0.01468000  1.0
  H  H34  1  0.65207000  0.95187000  0.59129000  1.0
  H  H35  1  0.34792000  0.04813000  0.40871000  1.0
  H  H36  1  0.73692000  0.69512000  0.39768000  1.0
  H  H37  1  0.26309000  0.30488000  0.60232000  1.0
  H  H38  1  0.70228000  0.57292000  0.36846000  1.0
  H  H39  1  0.29772000  0.42708000  0.63154000  1.0
  H  H40  1  0.76194000  0.79343000  0.31700000  1.0
  H  H41  1  0.23806000  0.20657000  0.68300000  1.0
  H  H42  1  0.92726000  0.32993000  0.65666000  1.0
  H  H43  1  0.07275000  0.67007000  0.34334000  1.0
  H  H44  1  0.77737000  0.99566000  0.83000000  1.0
  H  H45  1  0.22265000  0.00435000  0.17000000  1.0
  H  H46  1  0.59830000  0.28632000  0.57104000  1.0
  H  H47  1  0.40168000  0.71366000  0.42897000  1.0
  H  H48  1  0.04720000  0.93590000  0.69281000  1.0
  H  H49  1  0.95281000  0.06409000  0.30718000  1.0
  H  H50  1  0.58543000  0.44797000  0.55909000  1.0
  H  H51  1  0.41456000  0.55202000  0.44092000  1.0
  H  H52  1  0.81156000  0.83781000  0.85679000  1.0
  H  H53  1  0.18846000  0.16219000  0.14321000  1.0
  H  H54  1  0.89910000  0.34027000  0.86895000  1.0
  H  H55  1  0.10090000  0.65974000  0.13105000  1.0
  H  H56  1  0.62951000  0.77893000  0.57418000  1.0
  H  H57  1  0.37048000  0.22106000  0.42582000  1.0
  H  H58  1  0.74335000  0.49793000  0.25299000  1.0
  H  H59  1  0.25666000  0.50208000  0.74701000  1.0
  H  H60  1  0.80090000  0.17264000  0.85520000  1.0
  H  H61  1  0.19911000  0.82736000  0.14480000  1.0
  H  H62  1  0.94842000  0.12312000  0.87612000  1.0
  H  H63  1  0.05158000  0.87688000  0.12387000  1.0
  H  H64  1  0.56067000  0.37016000  0.78366000  1.0
  H  H65  1  0.43933000  0.62984000  0.21635000  1.0
  H  H66  1  0.54817000  0.52990000  0.76231000  1.0
  H  H67  1  0.45183000  0.47010000  0.23770000  1.0
  H  H68  1  0.47702000  0.15288000  0.55536000  1.0
  H  H69  1  0.52295000  0.84713000  0.44465000  1.0
  H  H70  1  0.64134000  0.12949000  0.57089000  1.0
  H  H71  1  0.35862000  0.87051000  0.42910000  1.0
  C  C72  1  0.46113000  0.82696000  0.69469000  1.0
  C  C73  1  0.53888000  0.17304000  0.30532000  1.0
  C  C74  1  0.46902000  0.92272000  0.70824000  1.0
  C  C75  1  0.53097000  0.07727000  0.29176000  1.0
  C  C76  1  0.53966000  0.97049000  0.67171000  1.0
  C  C77  1  0.46033000  0.02951000  0.32829000  1.0
  C  C78  1  0.00435000  0.82971000  0.74675000  1.0
  C  C79  1  0.99566000  0.17029000  0.25324000  1.0
  C  C80  1  0.42516000  0.67226000  0.83591000  1.0
  C  C81  1  0.57484000  0.32773000  0.16409000  1.0
  C  C82  1  0.04983000  0.62281000  0.60926000  1.0
  C  C83  1  0.95017000  0.37719000  0.39074000  1.0
  C  C84  1  0.90970000  0.62692000  0.58072000  1.0
  C  C85  1  0.09030000  0.37309000  0.41928000  1.0
  C  C86  1  0.13871000  0.61552000  0.56501000  1.0
  C  C87  1  0.86128000  0.38449000  0.43499000  1.0
  C  C88  1  0.81081000  0.63441000  0.62547000  1.0
  C  C89  1  0.18919000  0.36558000  0.37453000  1.0
  C  C90  1  0.66240000  0.67530000  0.81797000  1.0
  C  C91  1  0.33760000  0.32470000  0.18203000  1.0
  C  C92  1  0.56635000  0.67544000  0.86404000  1.0
  C  C93  1  0.43365000  0.32456000  0.13596000  1.0
  C  C94  1  0.28907000  0.61286000  0.59428000  1.0
  C  C95  1  0.71093000  0.38715000  0.40572000  1.0
  C  C96  1  0.53191000  0.67530000  0.97930000  1.0
  C  C97  1  0.46810000  0.32470000  0.02070000  1.0
  C  C98  1  0.85801000  0.62438000  0.50877000  1.0
  C  C99  1  0.14199000  0.37562000  0.49123000  1.0
  C  C100  1  0.08809000  0.61351000  0.49354000  1.0
  C  C101  1  0.91191000  0.38649000  0.50646000  1.0
  C  C102  1  0.62037000  0.67670000  0.93580000  1.0
  C  C103  1  0.37963000  0.32330000  0.06420000  1.0
  C  C104  1  0.33729000  0.67103000  0.88008000  1.0
  C  C105  1  0.66272000  0.32897000  0.11992000  1.0
  C  C106  1  0.71819000  0.67458000  0.08008000  1.0
  C  C107  1  0.28182000  0.32542000  0.91992000  1.0
  C  C108  1  0.18623000  0.66616000  0.85005000  1.0
  C  C109  1  0.81378000  0.33385000  0.14995000  1.0
  C  C110  1  0.91484000  0.46866000  0.83409000  1.0
  C  C111  1  0.08516000  0.53134000  0.16590000  1.0
  C  C112  1  0.90122000  0.21931000  0.74056000  1.0
  C  C113  1  0.09877000  0.78069000  0.25943000  1.0
  C  C114  1  0.57931000  0.22035000  0.69648000  1.0
  C  C115  1  0.42068000  0.77964000  0.30353000  1.0
  C  C116  1  0.94775000  0.61880000  0.46561000  1.0
  C  C117  1  0.05223000  0.38120000  0.53438000  1.0
  C  C118  1  0.91361000  0.98011000  0.76028000  1.0
  C  C119  1  0.08641000  0.01989000  0.23971000  1.0
  C  C120  1  0.93030000  0.46283000  0.72088000  1.0
  C  C121  1  0.06970000  0.53718000  0.27912000  1.0
  C  C122  1  0.90187000  0.06993000  0.73941000  1.0
  C  C123  1  0.09814000  0.93007000  0.26058000  1.0
  C  C124  1  0.73432000  0.66484000  0.15458000  1.0
  C  C125  1  0.26569000  0.33515000  0.84542000  1.0
  C  C126  1  0.75247000  0.64461000  0.29253000  1.0
  C  C127  1  0.24753000  0.35539000  0.70747000  1.0
  C  C128  1  0.74334000  0.74265000  0.20713000  1.0
  C  C129  1  0.25664000  0.25735000  0.79286000  1.0
  C  C130  1  0.73426000  0.57679000  0.17143000  1.0
  C  C131  1  0.26574000  0.42321000  0.82857000  1.0
  C  C132  1  0.39001000  0.67283000  0.95139000  1.0
  C  C133  1  0.61000000  0.32718000  0.04861000  1.0
  C  C134  1  0.59544000  0.91849000  0.62074000  1.0
  C  C135  1  0.40456000  0.08150000  0.37927000  1.0
  C  C136  1  0.90859000  0.31981000  0.76005000  1.0
  C  C137  1  0.09141000  0.68020000  0.23995000  1.0
  C  C138  1  0.76628000  0.63294000  0.36642000  1.0
  C  C139  1  0.23373000  0.36706000  0.63359000  1.0
  C  C140  1  0.75294000  0.73251000  0.27584000  1.0
  C  C141  1  0.24705000  0.26750000  0.72415000  1.0
  C  C142  1  0.92086000  0.36757000  0.70732000  1.0
  C  C143  1  0.07914000  0.63244000  0.29268000  1.0
  C  C144  1  0.84654000  0.95157000  0.80715000  1.0
  C  C145  1  0.15347000  0.04844000  0.19284000  1.0
  C  C146  1  0.58573000  0.33638000  0.61561000  1.0
  C  C147  1  0.41425000  0.66361000  0.38440000  1.0
  C  C148  1  0.99411000  0.91672000  0.72977000  1.0
  C  C149  1  0.00589000  0.08328000  0.27022000  1.0
  C  C150  1  0.55904000  0.07063000  0.69320000  1.0
  C  C151  1  0.44097000  0.92937000  0.30681000  1.0
  C  C152  1  0.57885000  0.31247000  0.67950000  1.0
  C  C153  1  0.42114000  0.68753000  0.32051000  1.0
  C  C154  1  0.57993000  0.42869000  0.60836000  1.0
  C  C155  1  0.42005000  0.57130000  0.39164000  1.0
  C  C156  1  0.86307000  0.86280000  0.82126000  1.0
  C  C157  1  0.13694000  0.13720000  0.17873000  1.0
  C  C158  1  0.90659000  0.37270000  0.82542000  1.0
  C  C159  1  0.09340000  0.62731000  0.17457000  1.0
  C  C160  1  0.58328000  0.82266000  0.61105000  1.0
  C  C161  1  0.41672000  0.17734000  0.38896000  1.0
  C  C162  1  0.74298000  0.56655000  0.23986000  1.0
  C  C163  1  0.25702000  0.43346000  0.76014000  1.0
  C  C164  1  0.56804000  0.38499000  0.73351000  1.0
  C  C165  1  0.43196000  0.61501000  0.26650000  1.0
  C  C166  1  0.56218000  0.47422000  0.72173000  1.0
  C  C167  1  0.43782000  0.52577000  0.27828000  1.0
  N  N168  1  0.51982000  0.77712000  0.64790000  1.0
  N  N169  1  0.48017000  0.22287000  0.35210000  1.0
  N  N170  1  0.94002000  0.80230000  0.79190000  1.0
  N  N171  1  0.05999000  0.19771000  0.20810000  1.0
  N  N172  1  0.92545000  0.51390000  0.78288000  1.0
  N  N173  1  0.07455000  0.48610000  0.21712000  1.0
  N  N174  1  0.56761000  0.49732000  0.66040000  1.0
  N  N175  1  0.43238000  0.50267000  0.33961000  1.0
  N  N176  1  0.57767000  0.11357000  0.75945000  1.0
  N  N177  1  0.42234000  0.88643000  0.24056000  1.0
  N  N178  1  0.58989000  0.20652000  0.76135000  1.0
  N  N179  1  0.41012000  0.79347000  0.23866000  1.0
  N  N180  1  0.89571000  0.17542000  0.67545000  1.0
  N  N181  1  0.10430000  0.82458000  0.32455000  1.0
  N  N182  1  0.89893000  0.08281000  0.67514000  1.0
  N  N183  1  0.10108000  0.91720000  0.32486000  1.0
  N  N184  1  0.90192000  0.15454000  0.78202000  1.0
  N  N185  1  0.09808000  0.84546000  0.21797000  1.0
  N  N186  1  0.56156000  0.13537000  0.65194000  1.0
  N  N187  1  0.43842000  0.86463000  0.34806000  1.0
  N  N188  1  0.90134000  0.17432000  0.85294000  1.0
  N  N189  1  0.09867000  0.82568000  0.14706000  1.0
  N  N190  1  0.54886000  0.11359000  0.57971000  1.0
  N  N191  1  0.45111000  0.88641000  0.42030000  1.0
  O  O192  1  0.68331000  0.63278000  0.59492000  1.0
  O  O193  1  0.31669000  0.36720000  0.40508000  1.0
  O  O194  1  0.78930000  0.66890000  0.84588000  1.0
  O  O195  1  0.21071000  0.33110000  0.15412000  1.0
  O  O196  1  0.37135000  0.60921000  0.55489000  1.0
  O  O197  1  0.62865000  0.39079000  0.44511000  1.0
  O  O198  1  0.14031000  0.66094000  0.78388000  1.0
  O  O199  1  0.85970000  0.33904000  0.21612000  1.0
  O  O200  1  0.33633000  0.61738000  0.66029000  1.0
  O  O201  1  0.66367000  0.38263000  0.33971000  1.0
  O  O202  1  0.10302000  0.66666667  0.88856000  1.0
  O  O203  1  0.89698000  0.33333333  0.11144000  1.0
  O  O204  1  0.85561000  0.64242000  0.69117000  1.0
  O  O205  1  0.14440000  0.35759000  0.30883000  1.0
  O  O206  1  0.90781000  0.61853000  0.39555000  1.0
  O  O207  1  0.09220000  0.38146000  0.60445000  1.0
  O  O208  1  0.57342000  0.67548000  0.04941000  1.0
  O  O209  1  0.42658000  0.32452000  0.95058000  1.0
  O  O210  1  0.61471000  0.68216000  0.75432000  1.0
  O  O211  1  0.38529000  0.31784000  0.24567000  1.0
