# generated using pymatgen
data_H15PbC20S2N5
_symmetry_space_group_name_H-M   'P 1'
_cell_length_a   9.63322000
_cell_length_b   9.95575000
_cell_length_c   11.32000000
_cell_angle_alpha   105.35600000
_cell_angle_beta   105.90400000
_cell_angle_gamma   91.88760000
_symmetry_Int_Tables_number   1
_chemical_formula_structural   H15PbC20S2N5
_chemical_formula_sum   'H30 Pb2 C40 S4 N10'
_cell_volume   1000.28656184
_cell_formula_units_Z   2
loop_
 _symmetry_equiv_pos_site_id
 _symmetry_equiv_pos_as_xyz
  1  'x, y, z'
loop_
 _atom_site_type_symbol
 _atom_site_label
 _atom_site_symmetry_multiplicity
 _atom_site_fract_x
 _atom_site_fract_y
 _atom_site_fract_z
 _atom_site_occupancy
  H  H0  1  0.82558000  0.96955000  0.86545000  1.0
  H  H1  1  0.17441000  0.03044000  0.13450000  1.0
  H  H2  1  0.01653000  0.80797000  0.90429000  1.0
  H  H3  1  0.98345000  0.19202000  0.09569000  1.0
  H  H4  1  0.68855000  0.46236000  0.67045000  1.0
  H  H5  1  0.31143000  0.53762000  0.32954000  1.0
  H  H6  1  0.51347000  0.63776000  0.64185000  1.0
  H  H7  1  0.48650000  0.36223000  0.35811000  1.0
  H  H8  1  0.08874000  0.57934000  0.86691000  1.0
  H  H9  1  0.91122000  0.42067000  0.13311000  1.0
  H  H10  1  0.84023000  0.33790000  0.77209000  1.0
  H  H11  1  0.15974000  0.66209000  0.22789000  1.0
  H  H12  1  0.23789000  0.46816000  0.96507000  1.0
  H  H13  1  0.76209000  0.53184000  0.03493000  1.0
  H  H14  1  0.41961000  0.30333000  0.00791000  1.0
  H  H15  1  0.58037000  0.69667000  0.99208000  1.0
  H  H16  1  0.12020000  0.95689000  0.79822000  1.0
  H  H17  1  0.87979000  0.04312000  0.20174000  1.0
  H  H18  1  0.92182000  0.10718000  0.74734000  1.0
  H  H19  1  0.07816000  0.89282000  0.25264000  1.0
  H  H20  1  0.47809000  0.33675000  0.74806000  1.0
  H  H21  1  0.52195000  0.66317000  0.25188000  1.0
  H  H22  1  0.33667000  0.53140000  0.69891000  1.0
  H  H23  1  0.66343000  0.46857000  0.30113000  1.0
  H  H24  1  0.98805000  0.21533000  0.44357000  1.0
  H  H25  1  0.01194000  0.78472000  0.55652000  1.0
  H  H26  1  0.14138000  0.03615000  0.50611000  1.0
  H  H27  1  0.85860000  0.96385000  0.49389000  1.0
  H  H28  1  0.11939000  0.61033000  0.60267000  1.0
  H  H29  1  0.88068000  0.38970000  0.39746000  1.0
  Pb  Pb30  1  0.46699000  0.98992000  0.75569000  1.0
  Pb  Pb31  1  0.53302000  0.01007000  0.24430000  1.0
  C  C32  1  0.80050000  0.85613000  0.82364000  1.0
  C  C33  1  0.19949000  0.14387000  0.17633000  1.0
  C  C34  1  0.90602000  0.76642000  0.84455000  1.0
  C  C35  1  0.09397000  0.23358000  0.15543000  1.0
  C  C36  1  0.86809000  0.62058000  0.79404000  1.0
  C  C37  1  0.13189000  0.37943000  0.20596000  1.0
  C  C38  1  0.72383000  0.57345000  0.71777000  1.0
  C  C39  1  0.27616000  0.42656000  0.28221000  1.0
  C  C40  1  0.62593000  0.67067000  0.70056000  1.0
  C  C41  1  0.37407000  0.32933000  0.29941000  1.0
  C  C42  1  0.97743000  0.52808000  0.82510000  1.0
  C  C43  1  0.02255000  0.47192000  0.17491000  1.0
  C  C44  1  0.95120000  0.39009000  0.81214000  1.0
  C  C45  1  0.04877000  0.60991000  0.18785000  1.0
  C  C46  1  0.06342000  0.30159000  0.84791000  1.0
  C  C47  1  0.93656000  0.69841000  0.15209000  1.0
  C  C48  1  0.20611000  0.35553000  0.92458000  1.0
  C  C49  1  0.79386000  0.64447000  0.07541000  1.0
  C  C50  1  0.30805000  0.26359000  0.94962000  1.0
  C  C51  1  0.69194000  0.73641000  0.05036000  1.0
  C  C52  1  0.14142000  0.07118000  0.83384000  1.0
  C  C53  1  0.85858000  0.92883000  0.16613000  1.0
  C  C54  1  0.03143000  0.15473000  0.80496000  1.0
  C  C55  1  0.96856000  0.84528000  0.19503000  1.0
  C  C56  1  0.36899000  0.31412000  0.68009000  1.0
  C  C57  1  0.63104000  0.68584000  0.31991000  1.0
  C  C58  1  0.29090000  0.42238000  0.65173000  1.0
  C  C59  1  0.70916000  0.57760000  0.34830000  1.0
  C  C60  1  0.14962000  0.39137000  0.56574000  1.0
  C  C61  1  0.85042000  0.60865000  0.43434000  1.0
  C  C62  1  0.09678000  0.24833000  0.51019000  1.0
  C  C63  1  0.90324000  0.75171000  0.48987000  1.0
  C  C64  1  0.18197000  0.14744000  0.54557000  1.0
  C  C65  1  0.81803000  0.85257000  0.45444000  1.0
  C  C66  1  0.06635000  0.50643000  0.54272000  1.0
  C  C67  1  0.93370000  0.49361000  0.45742000  1.0
  C  C68  1  0.31920000  0.77293000  0.91091000  1.0
  C  C69  1  0.68081000  0.22708000  0.08907000  1.0
  C  C70  1  0.66372000  0.13622000  0.58132000  1.0
  C  C71  1  0.33628000  0.86380000  0.41869000  1.0
  S  S72  1  0.70027000  0.21819000  0.48449000  1.0
  S  S73  1  0.29973000  0.78181000  0.51551000  1.0
  S  S74  1  0.29826000  0.77242000  0.04926000  1.0
  S  S75  1  0.70173000  0.22758000  0.95072000  1.0
  N  N76  1  0.66196000  0.80962000  0.75405000  1.0
  N  N77  1  0.33803000  0.19038000  0.24591000  1.0
  N  N78  1  0.31584000  0.17803000  0.63001000  1.0
  N  N79  1  0.68418000  0.82193000  0.36998000  1.0
  N  N80  1  0.64295000  0.07708000  0.65393000  1.0
  N  N81  1  0.35706000  0.92294000  0.34608000  1.0
  N  N82  1  0.33232000  0.77173000  0.80928000  1.0
  N  N83  1  0.66767000  0.22828000  0.19072000  1.0
  N  N84  1  0.27885000  0.12312000  0.90394000  1.0
  N  N85  1  0.72114000  0.87688000  0.09603000  1.0
