# generated using pymatgen
data_CuH6C5N2Cl
_symmetry_space_group_name_H-M   'P 1'
_cell_length_a   3.85914000
_cell_length_b   12.24950000
_cell_length_c   12.79370000
_cell_angle_alpha   89.99970000
_cell_angle_beta   89.99920000
_cell_angle_gamma   82.45700000
_symmetry_Int_Tables_number   1
_chemical_formula_structural   CuH6C5N2Cl
_chemical_formula_sum   'Cu4 H24 C20 N8 Cl4'
_cell_volume   599.55715531
_cell_formula_units_Z   4
loop_
 _symmetry_equiv_pos_site_id
 _symmetry_equiv_pos_as_xyz
  1  'x, y, z'
loop_
 _atom_site_type_symbol
 _atom_site_label
 _atom_site_symmetry_multiplicity
 _atom_site_fract_x
 _atom_site_fract_y
 _atom_site_fract_z
 _atom_site_occupancy
  Cu  Cu0  1  0.43825000  0.83303000  0.30230000  1.0
  Cu  Cu1  1  0.43825000  0.33304000  0.19770000  1.0
  Cu  Cu2  1  0.56175000  0.16696000  0.69770000  1.0
  Cu  Cu3  1  0.56174000  0.66696000  0.80230000  1.0
  H  H4  1  0.72776000  0.91838000  0.49441000  1.0
  H  H5  1  0.72776000  0.41838000  0.00559000  1.0
  H  H6  1  0.27225000  0.08163000  0.50559000  1.0
  H  H7  1  0.27223000  0.58162000  0.99441000  1.0
  H  H8  1  0.73608000  0.86915000  0.68299000  1.0
  H  H9  1  0.73606000  0.36914000  0.81701000  1.0
  H  H10  1  0.26392000  0.13086000  0.31701000  1.0
  H  H11  1  0.26391000  0.63085000  0.18299000  1.0
  H  H12  1  0.26179000  0.59105000  0.61415000  1.0
  H  H13  1  0.26180000  0.09105000  0.88586000  1.0
  H  H14  1  0.73821000  0.40896000  0.38585000  1.0
  H  H15  1  0.73820000  0.90896000  0.11415000  1.0
  H  H16  1  0.12592000  0.54873000  0.43481000  1.0
  H  H17  1  0.12591000  0.04873000  0.06519000  1.0
  H  H18  1  0.87409000  0.45127000  0.56519000  1.0
  H  H19  1  0.87410000  0.95127000  0.93481000  1.0
  H  H20  1  0.44486000  0.58519000  0.34565000  1.0
  H  H21  1  0.44486000  0.08518000  0.15435000  1.0
  H  H22  1  0.55515000  0.41482000  0.65435000  1.0
  H  H23  1  0.55516000  0.91482000  0.84565000  1.0
  H  H24  1  0.02956000  0.66620000  0.35246000  1.0
  H  H25  1  0.02956000  0.16620000  0.14754000  1.0
  H  H26  1  0.97044000  0.33380000  0.64754000  1.0
  H  H27  1  0.97045000  0.83379000  0.85246000  1.0
  C  C28  1  0.62261000  0.84494000  0.52128000  1.0
  C  C29  1  0.62261000  0.34494000  0.97872000  1.0
  C  C30  1  0.37740000  0.15507000  0.47872000  1.0
  C  C31  1  0.37740000  0.65507000  0.02128000  1.0
  C  C32  1  0.62703000  0.81685000  0.62629000  1.0
  C  C33  1  0.62702000  0.31684000  0.87370000  1.0
  C  C34  1  0.37297000  0.18316000  0.37370000  1.0
  C  C35  1  0.37296000  0.68316000  0.12630000  1.0
  C  C36  1  0.37016000  0.66340000  0.58589000  1.0
  C  C37  1  0.37016000  0.16339000  0.91411000  1.0
  C  C38  1  0.62984000  0.33661000  0.41411000  1.0
  C  C39  1  0.62983000  0.83661000  0.08589000  1.0
  C  C40  1  0.36844000  0.68976000  0.48022000  1.0
  C  C41  1  0.36845000  0.18976000  0.01978000  1.0
  C  C42  1  0.63155000  0.31024000  0.51978000  1.0
  C  C43  1  0.63155000  0.81024000  0.98022000  1.0
  C  C44  1  0.23458000  0.61837000  0.39958000  1.0
  C  C45  1  0.23457000  0.11836000  0.10043000  1.0
  C  C46  1  0.76543000  0.38164000  0.60042000  1.0
  C  C47  1  0.76544000  0.88164000  0.89958000  1.0
  N  N48  1  0.49392000  0.78286000  0.44718000  1.0
  N  N49  1  0.49392000  0.28286000  0.05281000  1.0
  N  N50  1  0.50608000  0.21714000  0.55282000  1.0
  N  N51  1  0.50608000  0.71714000  0.94718000  1.0
  N  N52  1  0.50036000  0.72529000  0.66021000  1.0
  N  N53  1  0.50036000  0.22529000  0.83979000  1.0
  N  N54  1  0.49964000  0.27471000  0.33979000  1.0
  N  N55  1  0.49964000  0.77471000  0.16022000  1.0
  Cl  Cl56  1  0.92272000  0.95725000  0.29989000  1.0
  Cl  Cl57  1  0.92271000  0.45725000  0.20010000  1.0
  Cl  Cl58  1  0.07729000  0.04275000  0.70011000  1.0
  Cl  Cl59  1  0.07730000  0.54275000  0.79989000  1.0
