# generated using pymatgen
data_Cd3H26C42(N2O3)4
_symmetry_space_group_name_H-M   'P 1'
_cell_length_a   10.36510000
_cell_length_b   15.95500000
_cell_length_c   17.05280000
_cell_angle_alpha   84.97870000
_cell_angle_beta   76.99860000
_cell_angle_gamma   85.68970000
_symmetry_Int_Tables_number   1
_chemical_formula_structural   Cd3H26C42(N2O3)4
_chemical_formula_sum   'Cd6 H52 C84 N16 O24'
_cell_volume   2732.79641784
_cell_formula_units_Z   2
loop_
 _symmetry_equiv_pos_site_id
 _symmetry_equiv_pos_as_xyz
  1  'x, y, z'
loop_
 _atom_site_type_symbol
 _atom_site_label
 _atom_site_symmetry_multiplicity
 _atom_site_fract_x
 _atom_site_fract_y
 _atom_site_fract_z
 _atom_site_occupancy
  Cd  Cd0  1  0.87914000  0.67829000  0.15867000  1.0
  Cd  Cd1  1  0.12086000  0.32171000  0.84133000  1.0
  Cd  Cd2  1  0.09097000  0.67976000  0.31772000  1.0
  Cd  Cd3  1  0.90903000  0.32024000  0.68228000  1.0
  Cd  Cd4  1  0.49598000  0.54947000  0.24560000  1.0
  Cd  Cd5  1  0.50402000  0.45053000  0.75440000  1.0
  H  H6  1  0.38428000  0.70271000  0.15681000  1.0
  H  H7  1  0.61572000  0.29729000  0.84319000  1.0
  H  H8  1  0.66356000  0.59666000  0.95760000  1.0
  H  H9  1  0.33644000  0.40334000  0.04240000  1.0
  H  H10  1  0.24877000  0.61837000  0.95731000  1.0
  H  H11  1  0.75123000  0.38163000  0.04269000  1.0
  H  H12  1  0.73197000  0.61815000  0.52915000  1.0
  H  H13  1  0.26803000  0.38185000  0.47085000  1.0
  H  H14  1  0.32118000  0.59690000  0.53091000  1.0
  H  H15  1  0.67882000  0.40310000  0.46909000  1.0
  H  H16  1  0.58418000  0.69739000  0.31575000  1.0
  H  H17  1  0.41582000  0.30261000  0.68425000  1.0
  H  H18  1  0.79266000  0.51065000  0.27141000  1.0
  H  H19  1  0.20734000  0.48935000  0.72859000  1.0
  H  H20  1  0.80612000  0.35574000  0.26355000  1.0
  H  H21  1  0.19388000  0.64426000  0.73645000  1.0
  H  H22  1  0.09852000  0.38941000  0.03957000  1.0
  H  H23  1  0.90147000  0.61059000  0.96043000  1.0
  H  H24  1  0.06824000  0.54514000  0.05497000  1.0
  H  H25  1  0.93176000  0.45486000  0.94503000  1.0
  H  H26  1  0.03205000  0.24937000  0.08267000  1.0
  H  H27  1  0.96795000  0.75063000  0.91733000  1.0
  H  H28  1  0.76273000  0.10679000  0.26186000  1.0
  H  H29  1  0.23727000  0.89321000  0.73814000  1.0
  H  H30  1  0.68744000  0.96388000  0.29970000  1.0
  H  H31  1  0.31256000  0.03612000  0.70030000  1.0
  H  H32  1  0.70136000  0.81139000  0.27297000  1.0
  H  H33  1  0.29863000  0.18861000  0.72703000  1.0
  H  H34  1  0.99505000  0.84694000  0.06634000  1.0
  H  H35  1  0.00495000  0.15306000  0.93366000  1.0
  H  H36  1  0.99495000  0.00243000  0.08433000  1.0
  H  H37  1  0.00505000  0.99756000  0.91567000  1.0
  H  H38  1  0.93589000  0.54357000  0.44123000  1.0
  H  H39  1  0.06411000  0.45643000  0.55877000  1.0
  H  H40  1  0.92573000  0.38679000  0.46970000  1.0
  H  H41  1  0.07428000  0.61321000  0.53030000  1.0
  H  H42  1  0.21255000  0.36067000  0.24412000  1.0
  H  H43  1  0.78746000  0.63933000  0.75588000  1.0
  H  H44  1  0.20825000  0.51653000  0.22450000  1.0
  H  H45  1  0.79175000  0.48347000  0.77550000  1.0
  H  H46  1  0.99698000  0.24516000  0.42970000  1.0
  H  H47  1  0.00302000  0.75484000  0.57030000  1.0
  H  H48  1  0.20606000  0.11798000  0.22497000  1.0
  H  H49  1  0.79394000  0.88202000  0.77503000  1.0
  H  H50  1  0.01327000  0.99413000  0.41236000  1.0
  H  H51  1  0.98673000  0.00587000  0.58764000  1.0
  H  H52  1  0.99122000  0.83719000  0.41613000  1.0
  H  H53  1  0.00878000  0.16281000  0.58387000  1.0
  H  H54  1  0.22535000  0.82346000  0.18650000  1.0
  H  H55  1  0.77465000  0.17654000  0.81350000  1.0
  H  H56  1  0.25764000  0.97912000  0.17218000  1.0
  H  H57  1  0.74235000  0.02088000  0.82782000  1.0
  C  C58  1  0.30178000  0.66666667  0.05974000  1.0
  C  C59  1  0.69822000  0.33337000  0.94026000  1.0
  C  C60  1  0.40560000  0.67756000  0.09748000  1.0
  C  C61  1  0.59440000  0.32244000  0.90252000  1.0
  C  C62  1  0.53656000  0.65513000  0.05951000  1.0
  C  C63  1  0.46344000  0.34487000  0.94049000  1.0
  C  C64  1  0.56271000  0.61755000  0.98594000  1.0
  C  C65  1  0.43729000  0.38245000  0.01406000  1.0
  C  C66  1  0.45851000  0.60197000  0.95061000  1.0
  C  C67  1  0.54149000  0.39803000  0.04939000  1.0
  C  C68  1  0.32902000  0.62932000  0.98615000  1.0
  C  C69  1  0.67098000  0.37068000  0.01385000  1.0
  C  C70  1  0.16013000  0.68671000  0.09940000  1.0
  C  C71  1  0.83987000  0.31329000  0.90060000  1.0
  C  C72  1  0.64893000  0.66536000  0.09880000  1.0
  C  C73  1  0.35107000  0.33464000  0.90120000  1.0
  C  C74  1  0.48189000  0.55020000  0.87906000  1.0
  C  C75  1  0.51811000  0.44980000  0.12094000  1.0
  C  C76  1  0.67213000  0.66385000  0.41878000  1.0
  C  C77  1  0.32787000  0.33615000  0.58121000  1.0
  C  C78  1  0.65027000  0.62845000  0.49828000  1.0
  C  C79  1  0.34973000  0.37155000  0.50171000  1.0
  C  C80  1  0.52516000  0.60193000  0.53761000  1.0
  C  C81  1  0.47484000  0.39807000  0.46239000  1.0
  C  C82  1  0.41875000  0.61693000  0.49959000  1.0
  C  C83  1  0.58125000  0.38307000  0.50041000  1.0
  C  C84  1  0.43923000  0.65304000  0.42027000  1.0
  C  C85  1  0.56077000  0.34696000  0.57973000  1.0
  C  C86  1  0.56687000  0.67399000  0.37907000  1.0
  C  C87  1  0.43313000  0.32601000  0.62093000  1.0
  C  C88  1  0.81100000  0.68275000  0.37692000  1.0
  C  C89  1  0.18900000  0.31725000  0.62308000  1.0
  C  C90  1  0.50975000  0.55135000  0.61695000  1.0
  C  C91  1  0.49025000  0.44865000  0.38305000  1.0
  C  C92  1  0.32505000  0.66353000  0.37948000  1.0
  C  C93  1  0.67495000  0.33647000  0.62052000  1.0
  C  C94  1  0.85918000  0.48186000  0.22087000  1.0
  C  C95  1  0.14082000  0.51813000  0.77913000  1.0
  C  C96  1  0.86780000  0.39505000  0.21666000  1.0
  C  C97  1  0.13220000  0.60495000  0.78334000  1.0
  C  C98  1  0.95365000  0.35991000  0.15031000  1.0
  C  C99  1  0.04635000  0.64009000  0.84970000  1.0
  C  C100  1  0.02959000  0.41442000  0.09162000  1.0
  C  C101  1  0.97041000  0.58558000  0.90838000  1.0
  C  C102  1  0.01364000  0.50056000  0.10006000  1.0
  C  C103  1  0.98635000  0.49944000  0.89994000  1.0
  C  C104  1  0.96514000  0.27017000  0.13798000  1.0
  C  C105  1  0.03485000  0.72983000  0.86202000  1.0
  C  C106  1  0.83712000  0.08419000  0.21014000  1.0
  C  C107  1  0.16288000  0.91581000  0.78986000  1.0
  C  C108  1  0.84168000  0.99563000  0.19407000  1.0
  C  C109  1  0.15832000  0.00436000  0.80593000  1.0
  C  C110  1  0.75700000  0.94081000  0.24700000  1.0
  C  C111  1  0.24300000  0.05920000  0.75300000  1.0
  C  C112  1  0.76382000  0.85605000  0.23243000  1.0
  C  C113  1  0.23618000  0.14395000  0.76757000  1.0
  C  C114  1  0.92843000  0.87639000  0.11681000  1.0
  C  C115  1  0.07157000  0.12361000  0.88319000  1.0
  C  C116  1  0.92827000  0.96176000  0.12696000  1.0
  C  C117  1  0.07173000  0.03824000  0.87304000  1.0
  C  C118  1  0.99486000  0.50037000  0.39929000  1.0
  C  C119  1  0.00515000  0.49963000  0.60071000  1.0
  C  C120  1  0.98985000  0.41362000  0.41485000  1.0
  C  C121  1  0.01015000  0.58638000  0.58515000  1.0
  C  C122  1  0.06886000  0.36113000  0.35876000  1.0
  C  C123  1  0.93114000  0.63887000  0.64124000  1.0
  C  C124  1  0.14915000  0.39872000  0.28907000  1.0
  C  C125  1  0.85086000  0.60128000  0.71093000  1.0
  C  C126  1  0.14723000  0.48590000  0.27811000  1.0
  C  C127  1  0.85277000  0.51410000  0.72189000  1.0
  C  C128  1  0.06207000  0.27010000  0.37374000  1.0
  C  C129  1  0.93793000  0.72990000  0.62626000  1.0
  C  C130  1  0.15382000  0.08962000  0.28354000  1.0
  C  C131  1  0.84618000  0.91038000  0.71646000  1.0
  C  C132  1  0.13821000  0.99908000  0.29187000  1.0
  C  C133  1  0.86179000  0.00092000  0.70813000  1.0
  C  C134  1  0.06239000  0.95805000  0.36155000  1.0
  C  C135  1  0.93761000  0.04195000  0.63845000  1.0
  C  C136  1  0.05002000  0.87183000  0.36385000  1.0
  C  C137  1  0.94998000  0.12817000  0.63615000  1.0
  C  C138  1  0.18136000  0.86394000  0.23500000  1.0
  C  C139  1  0.81864000  0.13606000  0.76500000  1.0
  C  C140  1  0.19859000  0.95006000  0.22766000  1.0
  C  C141  1  0.80141000  0.04994000  0.77234000  1.0
  N  N142  1  0.92893000  0.53407000  0.16306000  1.0
  N  N143  1  0.07107000  0.46593000  0.83694000  1.0
  N  N144  1  0.89587000  0.21699000  0.18921000  1.0
  N  N145  1  0.10413000  0.78301000  0.81079000  1.0
  N  N146  1  0.91794000  0.13557000  0.16471000  1.0
  N  N147  1  0.08206000  0.86443000  0.83529000  1.0
  N  N148  1  0.84859000  0.82406000  0.16904000  1.0
  N  N149  1  0.15141000  0.17594000  0.83096000  1.0
  N  N150  1  0.07201000  0.53603000  0.33224000  1.0
  N  N151  1  0.92799000  0.46397000  0.66776000  1.0
  N  N152  1  0.12840000  0.22050000  0.32088000  1.0
  N  N153  1  0.87160000  0.77950000  0.67912000  1.0
  N  N154  1  0.10577000  0.13640000  0.34274000  1.0
  N  N155  1  0.89423000  0.86360000  0.65727000  1.0
  N  N156  1  0.10802000  0.82550000  0.30157000  1.0
  N  N157  1  0.89198000  0.17451000  0.69843000  1.0
  O  O158  1  0.07449000  0.69403000  0.05560000  1.0
  O  O159  1  0.92551000  0.30597000  0.94440000  1.0
  O  O160  1  0.12780000  0.69285000  0.17563000  1.0
  O  O161  1  0.87220000  0.30715000  0.82437000  1.0
  O  O162  1  0.62986000  0.65710000  0.17653000  1.0
  O  O163  1  0.37014000  0.34290000  0.82347000  1.0
  O  O164  1  0.76135000  0.68142000  0.05460000  1.0
  O  O165  1  0.23865000  0.31858000  0.94540000  1.0
  O  O166  1  0.59884000  0.52154000  0.84899000  1.0
  O  O167  1  0.40116000  0.47846000  0.15101000  1.0
  O  O168  1  0.38070000  0.53382000  0.85307000  1.0
  O  O169  1  0.61930000  0.46618000  0.14693000  1.0
  O  O170  1  0.84634000  0.68109000  0.30011000  1.0
  O  O171  1  0.15367000  0.31891000  0.69988000  1.0
  O  O172  1  0.89228000  0.69594000  0.41988000  1.0
  O  O173  1  0.10772000  0.30406000  0.58011000  1.0
  O  O174  1  0.61340000  0.53497000  0.64567000  1.0
  O  O175  1  0.38661000  0.46503000  0.35433000  1.0
  O  O176  1  0.39746000  0.52322000  0.65102000  1.0
  O  O177  1  0.60254000  0.47679000  0.34898000  1.0
  O  O178  1  0.20983000  0.67900000  0.42178000  1.0
  O  O179  1  0.79017000  0.32101000  0.57822000  1.0
  O  O180  1  0.34572000  0.65663000  0.30266000  1.0
  O  O181  1  0.65428000  0.34337000  0.69734000  1.0
