# generated using pymatgen
data_NaZnH3(C3O2)3
_symmetry_space_group_name_H-M   'P 1'
_cell_length_a   6.89898000
_cell_length_b   9.80228000
_cell_length_c   12.39480000
_cell_angle_alpha   90.00000000
_cell_angle_beta   90.00000000
_cell_angle_gamma   91.63620000
_symmetry_Int_Tables_number   1
_chemical_formula_structural   NaZnH3(C3O2)3
_chemical_formula_sum   'Na4 Zn4 H12 C36 O24'
_cell_volume   837.86568510
_cell_formula_units_Z   4
loop_
 _symmetry_equiv_pos_site_id
 _symmetry_equiv_pos_as_xyz
  1  'x, y, z'
loop_
 _atom_site_type_symbol
 _atom_site_label
 _atom_site_symmetry_multiplicity
 _atom_site_fract_x
 _atom_site_fract_y
 _atom_site_fract_z
 _atom_site_occupancy
  Na  Na0  1  0.97026000  0.35006000  0.74093000  1.0
  Na  Na1  1  0.47026000  0.35006000  0.75907000  1.0
  Na  Na2  1  0.02975000  0.64994000  0.25907000  1.0
  Na  Na3  1  0.52975000  0.64994000  0.24093000  1.0
  Zn  Zn4  1  0.17727000  0.59203000  0.93125000  1.0
  Zn  Zn5  1  0.67727000  0.59203000  0.56875000  1.0
  Zn  Zn6  1  0.82273000  0.40797000  0.06875000  1.0
  Zn  Zn7  1  0.32273000  0.40797000  0.43125000  1.0
  H  H8  1  0.31698000  0.96013000  0.44697000  1.0
  H  H9  1  0.81698000  0.96013000  0.05303000  1.0
  H  H10  1  0.68302000  0.03987000  0.55303000  1.0
  H  H11  1  0.18302000  0.03987000  0.94697000  1.0
  H  H12  1  0.11438000  0.09178000  0.75667000  1.0
  H  H13  1  0.61438000  0.09178000  0.74332000  1.0
  H  H14  1  0.88562000  0.90822000  0.24333000  1.0
  H  H15  1  0.38562000  0.90822000  0.25668000  1.0
  H  H16  1  0.03347000  0.85153000  0.80550000  1.0
  H  H17  1  0.53347000  0.85153000  0.69450000  1.0
  H  H18  1  0.96653000  0.14847000  0.19450000  1.0
  H  H19  1  0.46653000  0.14847000  0.30550000  1.0
  C  C20  1  0.13330000  0.76899000  0.65513000  1.0
  C  C21  1  0.63330000  0.76898000  0.84487000  1.0
  C  C22  1  0.86670000  0.23102000  0.34487000  1.0
  C  C23  1  0.36670000  0.23101000  0.15513000  1.0
  C  C24  1  0.21867000  0.79980000  0.55396000  1.0
  C  C25  1  0.71867000  0.79980000  0.94603000  1.0
  C  C26  1  0.78133000  0.20020000  0.44604000  1.0
  C  C27  1  0.28133000  0.20020000  0.05396000  1.0
  C  C28  1  0.25479000  0.93615000  0.52560000  1.0
  C  C29  1  0.75479000  0.93614000  0.97440000  1.0
  C  C30  1  0.74521000  0.06385000  0.47440000  1.0
  C  C31  1  0.24521000  0.06386000  0.02560000  1.0
  C  C32  1  0.21494000  0.04216000  0.59710000  1.0
  C  C33  1  0.71493000  0.04216000  0.90290000  1.0
  C  C34  1  0.78506000  0.95784000  0.40290000  1.0
  C  C35  1  0.28507000  0.95784000  0.09710000  1.0
  C  C36  1  0.13892000  0.01020000  0.69905000  1.0
  C  C37  1  0.63891000  0.01020000  0.80095000  1.0
  C  C38  1  0.86109000  0.98980000  0.30095000  1.0
  C  C39  1  0.36109000  0.98980000  0.19905000  1.0
  C  C40  1  0.09641000  0.87518000  0.72703000  1.0
  C  C41  1  0.59641000  0.87518000  0.77297000  1.0
  C  C42  1  0.90359000  0.12482000  0.27297000  1.0
  C  C43  1  0.40359000  0.12482000  0.22703000  1.0
  C  C44  1  0.05916000  0.62815000  0.68315000  1.0
  C  C45  1  0.55916000  0.62815000  0.81685000  1.0
  C  C46  1  0.94084000  0.37185000  0.31685000  1.0
  C  C47  1  0.44084000  0.37185000  0.18315000  1.0
  C  C48  1  0.28230000  0.69266000  0.47626000  1.0
  C  C49  1  0.78230000  0.69266000  0.02374000  1.0
  C  C50  1  0.71770000  0.30734000  0.52374000  1.0
  C  C51  1  0.21770000  0.30734000  0.97626000  1.0
  C  C52  1  0.25287000  0.18828000  0.56608000  1.0
  C  C53  1  0.75287000  0.18828000  0.93392000  1.0
  C  C54  1  0.74714000  0.81172000  0.43392000  1.0
  C  C55  1  0.24713000  0.81172000  0.06608000  1.0
  O  O56  1  0.08808000  0.57691000  0.77634000  1.0
  O  O57  1  0.58808000  0.57691000  0.72366000  1.0
  O  O58  1  0.91192000  0.42309000  0.22366000  1.0
  O  O59  1  0.41192000  0.42309000  0.27634000  1.0
  O  O60  1  0.96039000  0.56266000  0.61272000  1.0
  O  O61  1  0.46039000  0.56266000  0.88728000  1.0
  O  O62  1  0.03961000  0.43734000  0.38728000  1.0
  O  O63  1  0.53961000  0.43734000  0.11272000  1.0
  O  O64  1  0.34440000  0.58008000  0.51827000  1.0
  O  O65  1  0.84439000  0.58008000  0.98173000  1.0
  O  O66  1  0.65561000  0.41992000  0.48173000  1.0
  O  O67  1  0.15560000  0.41992000  0.01827000  1.0
  O  O68  1  0.28146000  0.71680000  0.37695000  1.0
  O  O69  1  0.78146000  0.71679000  0.12305000  1.0
  O  O70  1  0.71853000  0.28320000  0.62305000  1.0
  O  O71  1  0.21854000  0.28320000  0.87695000  1.0
  O  O72  1  0.31016000  0.21147000  0.46866000  1.0
  O  O73  1  0.81016000  0.21147000  0.03134000  1.0
  O  O74  1  0.68984000  0.78853000  0.53134000  1.0
  O  O75  1  0.18984000  0.78853000  0.96866000  1.0
  O  O76  1  0.22869000  0.28176000  0.63439000  1.0
  O  O77  1  0.72869000  0.28176000  0.86561000  1.0
  O  O78  1  0.77131000  0.71824000  0.36561000  1.0
  O  O79  1  0.27131000  0.71824000  0.13439000  1.0
