# generated using pymatgen
data_SrH8C2(N4O3)2
_symmetry_space_group_name_H-M   'P 1'
_cell_length_a   5.61524000
_cell_length_b   6.63649990
_cell_length_c   15.19850605
_cell_angle_alpha   81.88181485
_cell_angle_beta   79.35558431
_cell_angle_gamma   64.97899662
_symmetry_Int_Tables_number   1
_chemical_formula_structural   SrH8C2(N4O3)2
_chemical_formula_sum   'Sr2 H16 C4 N16 O12'
_cell_volume   503.12858004
_cell_formula_units_Z   2
loop_
 _symmetry_equiv_pos_site_id
 _symmetry_equiv_pos_as_xyz
  1  'x, y, z'
loop_
 _atom_site_type_symbol
 _atom_site_label
 _atom_site_symmetry_multiplicity
 _atom_site_fract_x
 _atom_site_fract_y
 _atom_site_fract_z
 _atom_site_occupancy
  Sr  Sr0  1  0.97657000  0.75002000  0.24999000  1.0
  Sr  Sr1  1  0.02344000  0.24997000  0.75001000  1.0
  H  H2  1  0.52004000  0.57206000  0.11465000  1.0
  H  H3  1  0.20693000  0.92792000  0.38537000  1.0
  H  H4  1  0.47994000  0.42795000  0.88535000  1.0
  H  H5  1  0.79308000  0.07208000  0.61463000  1.0
  H  H6  1  0.37869000  0.05893000  0.21738000  1.0
  H  H7  1  0.65484000  0.44103000  0.28261000  1.0
  H  H8  1  0.62131000  0.94107000  0.78262000  1.0
  H  H9  1  0.34516000  0.55897000  0.71739000  1.0
  H  H10  1  0.36744000  0.42189000  0.10478000  1.0
  H  H11  1  0.89428000  0.07810000  0.39519000  1.0
  H  H12  1  0.63256000  0.57811000  0.89522000  1.0
  H  H13  1  0.10572000  0.92190000  0.60481000  1.0
  H  H14  1  0.43630000  0.19201000  0.28243000  1.0
  H  H15  1  0.91069000  0.30802000  0.21757000  1.0
  H  H16  1  0.56368000  0.80799000  0.71758000  1.0
  H  H17  1  0.08932000  0.69197000  0.78243000  1.0
  C  C18  1  0.06906000  0.07063000  0.99792000  1.0
  C  C19  1  0.13758000  0.42951000  0.50207000  1.0
  C  C20  1  0.93094000  0.92937000  0.00208000  1.0
  C  C21  1  0.86242000  0.57049000  0.49793000  1.0
  N  N22  1  0.14593000  0.12060000  0.06961000  1.0
  N  N23  1  0.33608000  0.37956000  0.43036000  1.0
  N  N24  1  0.85407000  0.87940000  0.93039000  1.0
  N  N25  1  0.66392000  0.62044000  0.56964000  1.0
  N  N26  1  0.27378000  0.25413000  0.03815000  1.0
  N  N27  1  0.56599000  0.24593000  0.46180000  1.0
  N  N28  1  0.72620000  0.74588000  0.96185000  1.0
  N  N29  1  0.43402000  0.75406000  0.53820000  1.0
  N  N30  1  0.27239000  0.28534000  0.95087000  1.0
  N  N31  1  0.50855000  0.21469000  0.54909000  1.0
  N  N32  1  0.72760000  0.71467000  0.04913000  1.0
  N  N33  1  0.49144000  0.78531000  0.45091000  1.0
  N  N34  1  0.14932000  0.17580000  0.92389000  1.0
  N  N35  1  0.24899000  0.32425000  0.57610000  1.0
  N  N36  1  0.85069000  0.82421000  0.07610000  1.0
  N  N37  1  0.75100000  0.67575000  0.42390000  1.0
  O  O38  1  0.11285000  0.06191000  0.15512000  1.0
  O  O39  1  0.32970000  0.43843000  0.34486000  1.0
  O  O40  1  0.88715000  0.93809000  0.84488000  1.0
  O  O41  1  0.67029000  0.56158000  0.65514000  1.0
  O  O42  1  0.37957000  0.52224000  0.14405000  1.0
  O  O43  1  0.04610000  0.97786000  0.35592000  1.0
  O  O44  1  0.62043000  0.47776000  0.85595000  1.0
  O  O45  1  0.95390000  0.02214000  0.64408000  1.0
  O  O46  1  0.51423000  0.05157000  0.25210000  1.0
  O  O47  1  0.81763000  0.44852000  0.24786000  1.0
  O  O48  1  0.48576000  0.94843000  0.74791000  1.0
  O  O49  1  0.18237000  0.55147000  0.75214000  1.0
