# generated using pymatgen
data_NiH12C16N2O5
_symmetry_space_group_name_H-M   'P 1'
_cell_length_a   7.86381000
_cell_length_b   9.68338000
_cell_length_c   11.24810000
_cell_angle_alpha   110.68350000
_cell_angle_beta   109.79850000
_cell_angle_gamma   91.11500000
_symmetry_Int_Tables_number   1
_chemical_formula_structural   NiH12C16N2O5
_chemical_formula_sum   'Ni2 H24 C32 N4 O10'
_cell_volume   744.47813804
_cell_formula_units_Z   2
loop_
 _symmetry_equiv_pos_site_id
 _symmetry_equiv_pos_as_xyz
  1  'x, y, z'
loop_
 _atom_site_type_symbol
 _atom_site_label
 _atom_site_symmetry_multiplicity
 _atom_site_fract_x
 _atom_site_fract_y
 _atom_site_fract_z
 _atom_site_occupancy
  Ni  Ni0  1  0.16237000  0.75006000  0.20719000  1.0
  Ni  Ni1  1  0.83763000  0.24994000  0.79281000  1.0
  H  H2  1  0.02146000  0.57055000  0.26491000  1.0
  H  H3  1  0.97855000  0.42946000  0.73510000  1.0
  H  H4  1  0.88621000  0.55381000  0.11211000  1.0
  H  H5  1  0.11380000  0.44619000  0.88789000  1.0
  H  H6  1  0.34407000  0.95114000  0.51859000  1.0
  H  H7  1  0.65593000  0.04886000  0.48141000  1.0
  H  H8  1  0.29390000  0.19734000  0.66641000  1.0
  H  H9  1  0.70609000  0.80266000  0.33359000  1.0
  H  H10  1  0.05586000  0.33133000  0.55806000  1.0
  H  H11  1  0.94413000  0.66867000  0.44194000  1.0
  H  H12  1  0.81449000  0.33385000  0.34201000  1.0
  H  H13  1  0.18551000  0.66615000  0.65799000  1.0
  H  H14  1  0.64289000  0.20748000  0.09148000  1.0
  H  H15  1  0.35710000  0.79252000  0.90852000  1.0
  H  H16  1  0.59433000  0.99119000  0.86805000  1.0
  H  H17  1  0.40567000  0.00881000  0.13194000  1.0
  H  H18  1  0.68299000  0.74534000  0.74964000  1.0
  H  H19  1  0.31701000  0.25465000  0.25036000  1.0
  H  H20  1  0.92853000  0.64462000  0.88638000  1.0
  H  H21  1  0.07147000  0.35538000  0.11362000  1.0
  H  H22  1  0.61717000  0.64893000  0.03420000  1.0
  H  H23  1  0.38285000  0.35108000  0.96581000  1.0
  H  H24  1  0.62428000  0.62573000  0.50074000  1.0
  H  H25  1  0.37572000  0.37426000  0.49925000  1.0
  C  C26  1  0.24290000  0.01295000  0.47546000  1.0
  C  C27  1  0.75709000  0.98705000  0.52454000  1.0
  C  C28  1  0.21288000  0.15079000  0.55730000  1.0
  C  C29  1  0.78712000  0.84921000  0.44270000  1.0
  C  C30  1  0.08267000  0.22461000  0.49734000  1.0
  C  C31  1  0.91733000  0.77539000  0.50266000  1.0
  C  C32  1  0.84276000  0.22641000  0.28343000  1.0
  C  C33  1  0.15723000  0.77359000  0.71657000  1.0
  C  C34  1  0.74892000  0.15708000  0.14550000  1.0
  C  C35  1  0.25107000  0.84292000  0.85450000  1.0
  C  C36  1  0.69792000  0.94110000  0.92471000  1.0
  C  C37  1  0.30207000  0.05890000  0.07529000  1.0
  C  C38  1  0.74785000  0.80715000  0.85959000  1.0
  C  C39  1  0.25214000  0.19285000  0.14041000  1.0
  C  C40  1  0.88726000  0.74939000  0.93597000  1.0
  C  C41  1  0.11274000  0.25062000  0.06403000  1.0
  C  C42  1  0.98160000  0.15996000  0.35516000  1.0
  C  C43  1  0.01839000  0.84004000  0.64484000  1.0
  C  C44  1  0.02132000  0.02104000  0.28088000  1.0
  C  C45  1  0.97868000  0.97896000  0.71912000  1.0
  C  C46  1  0.78735000  0.01684000  0.06764000  1.0
  C  C47  1  0.21265000  0.98316000  0.93237000  1.0
  C  C48  1  0.92517000  0.94976000  0.13619000  1.0
  C  C49  1  0.07483000  0.05024000  0.86382000  1.0
  C  C50  1  0.36949000  0.64640000  0.08256000  1.0
  C  C51  1  0.63052000  0.35361000  0.91745000  1.0
  C  C52  1  0.50450000  0.57461000  0.02642000  1.0
  C  C53  1  0.49551000  0.42539000  0.97359000  1.0
  C  C54  1  0.32506000  0.59037000  0.39317000  1.0
  C  C55  1  0.67493000  0.40963000  0.60682000  1.0
  C  C56  1  0.49765000  0.55604000  0.47781000  1.0
  C  C57  1  0.50235000  0.44395000  0.52218000  1.0
  N  N58  1  0.14982000  0.94964000  0.34089000  1.0
  N  N59  1  0.85018000  0.05036000  0.65911000  1.0
  N  N60  1  0.97437000  0.81892000  0.07069000  1.0
  N  N61  1  0.02563000  0.18108000  0.92931000  1.0
  O  O62  1  0.94644000  0.62636000  0.20838000  1.0
  O  O63  1  0.05356000  0.37365000  0.79162000  1.0
  O  O64  1  0.21687000  0.56848000  0.05595000  1.0
  O  O65  1  0.78314000  0.43152000  0.94406000  1.0
  O  O66  1  0.40662000  0.78440000  0.15999000  1.0
  O  O67  1  0.59338000  0.21561000  0.84001000  1.0
  O  O68  1  0.34861000  0.69788000  0.35585000  1.0
  O  O69  1  0.65139000  0.30213000  0.64415000  1.0
  O  O70  1  0.17227000  0.51397000  0.36302000  1.0
  O  O71  1  0.82773000  0.48603000  0.63698000  1.0
