# generated using pymatgen
data_LiH12C14(NO)3
_symmetry_space_group_name_H-M   'P 1'
_cell_length_a   7.70012000
_cell_length_b   10.19550000
_cell_length_c   16.11900000
_cell_angle_alpha   90.23350000
_cell_angle_beta   90.00000000
_cell_angle_gamma   90.00000000
_symmetry_Int_Tables_number   1
_chemical_formula_structural   LiH12C14(NO)3
_chemical_formula_sum   'Li4 H48 C56 N12 O12'
_cell_volume   1265.43694907
_cell_formula_units_Z   4
loop_
 _symmetry_equiv_pos_site_id
 _symmetry_equiv_pos_as_xyz
  1  'x, y, z'
loop_
 _atom_site_type_symbol
 _atom_site_label
 _atom_site_symmetry_multiplicity
 _atom_site_fract_x
 _atom_site_fract_y
 _atom_site_fract_z
 _atom_site_occupancy
  Li  Li0  1  0.34108000  0.36185000  0.68426000  1.0
  Li  Li1  1  0.84108000  0.13815000  0.81574000  1.0
  Li  Li2  1  0.65892000  0.63816000  0.31574000  1.0
  Li  Li3  1  0.15892000  0.86184000  0.18426000  1.0
  H  H4  1  0.12036000  0.53734000  0.34576000  1.0
  H  H5  1  0.62034000  0.96266000  0.15424000  1.0
  H  H6  1  0.87965000  0.46266000  0.65424000  1.0
  H  H7  1  0.37965000  0.03734000  0.84576000  1.0
  H  H8  1  0.07308000  0.30325000  0.38295000  1.0
  H  H9  1  0.57307000  0.19675000  0.11705000  1.0
  H  H10  1  0.92692000  0.69675000  0.61705000  1.0
  H  H11  1  0.42693000  0.80325000  0.88295000  1.0
  H  H12  1  0.11577000  0.17661000  0.59350000  1.0
  H  H13  1  0.61577000  0.32339000  0.90650000  1.0
  H  H14  1  0.88423000  0.82339000  0.40650000  1.0
  H  H15  1  0.38423000  0.67661000  0.09350000  1.0
  H  H16  1  0.05921000  0.13784000  0.48826000  1.0
  H  H17  1  0.55920000  0.36217000  0.01174000  1.0
  H  H18  1  0.94079000  0.86216000  0.51174000  1.0
  H  H19  1  0.44079000  0.63784000  0.98826000  1.0
  H  H20  1  0.27838000  0.12705000  0.52331000  1.0
  H  H21  1  0.77838000  0.37295000  0.97669000  1.0
  H  H22  1  0.72162000  0.87295000  0.47670000  1.0
  H  H23  1  0.22162000  0.62705000  0.02330000  1.0
  H  H24  1  0.22988000  0.75946000  0.38749000  1.0
  H  H25  1  0.72987000  0.74055000  0.11251000  1.0
  H  H26  1  0.77012000  0.24055000  0.61251000  1.0
  H  H27  1  0.27011000  0.25945000  0.88748000  1.0
  H  H28  1  0.52454000  0.92681000  0.63056000  1.0
  H  H29  1  0.02454000  0.57319000  0.86944000  1.0
  H  H30  1  0.47546000  0.07319000  0.36944000  1.0
  H  H31  1  0.97547000  0.42681000  0.13056000  1.0
  H  H32  1  0.61735000  0.82471000  0.76192000  1.0
  H  H33  1  0.11734000  0.67528000  0.73808000  1.0
  H  H34  1  0.38266000  0.17529000  0.23808000  1.0
  H  H35  1  0.88268000  0.32471000  0.26192000  1.0
  H  H36  1  0.66523000  0.49490000  0.80029000  1.0
  H  H37  1  0.16522000  0.00510000  0.69971000  1.0
  H  H38  1  0.33478000  0.50510000  0.19971000  1.0
  H  H39  1  0.83478000  0.99490000  0.30029000  1.0
  H  H40  1  0.45059000  0.51629000  0.83617000  1.0
  H  H41  1  0.95058000  0.98371000  0.66383000  1.0
  H  H42  1  0.54942000  0.48372000  0.16383000  1.0
  H  H43  1  0.04942000  0.01628000  0.33617000  1.0
  H  H44  1  0.61103000  0.64032000  0.85526000  1.0
  H  H45  1  0.11103000  0.85968000  0.64474000  1.0
  H  H46  1  0.38897000  0.35969000  0.14474000  1.0
  H  H47  1  0.88897000  0.14032000  0.35526000  1.0
  H  H48  1  0.37845000  0.90165000  0.49077000  1.0
  H  H49  1  0.87845000  0.59835000  0.00923000  1.0
  H  H50  1  0.62155000  0.09835000  0.50923000  1.0
  H  H51  1  0.12155000  0.40165000  0.99077000  1.0
  C  C52  1  0.29802000  0.52861000  0.53979000  1.0
  C  C53  1  0.79802000  0.97139000  0.96021000  1.0
  C  C54  1  0.70198000  0.47139000  0.46021000  1.0
  C  C55  1  0.20198000  0.02861000  0.03978000  1.0
  C  C56  1  0.24583000  0.58380000  0.46281000  1.0
  C  C57  1  0.74582000  0.91620000  0.03719000  1.0
  C  C58  1  0.75417000  0.41620000  0.53719000  1.0
  C  C59  1  0.25417000  0.08380000  0.96281000  1.0
  C  C60  1  0.16295000  0.49941000  0.40552000  1.0
  C  C61  1  0.66294000  0.00059000  0.09448000  1.0
  C  C62  1  0.83705000  0.50059000  0.59448000  1.0
  C  C63  1  0.33705000  0.99941000  0.90552000  1.0
  C  C64  1  0.13567000  0.37021000  0.42632000  1.0
  C  C65  1  0.63566000  0.12979000  0.07368000  1.0
  C  C66  1  0.86434000  0.62979000  0.57368000  1.0
  C  C67  1  0.36433000  0.87021000  0.92632000  1.0
  C  C68  1  0.18830000  0.32331000  0.50491000  1.0
  C  C69  1  0.68829000  0.17670000  0.99509000  1.0
  C  C70  1  0.81170000  0.67670000  0.49509000  1.0
  C  C71  1  0.31170000  0.82330000  0.00491000  1.0
  C  C72  1  0.15699000  0.18333000  0.52854000  1.0
  C  C73  1  0.65699000  0.31667000  0.97146000  1.0
  C  C74  1  0.84301000  0.81667000  0.47146000  1.0
  C  C75  1  0.34301000  0.68333000  0.02854000  1.0
  C  C76  1  0.27563000  0.71963000  0.44627000  1.0
  C  C77  1  0.77563000  0.78037000  0.05373000  1.0
  C  C78  1  0.72437000  0.28037000  0.55373000  1.0
  C  C79  1  0.22437000  0.21963000  0.94627000  1.0
  C  C80  1  0.38503000  0.61160000  0.60001000  1.0
  C  C81  1  0.88502000  0.88840000  0.89999000  1.0
  C  C82  1  0.61498000  0.38840000  0.39999000  1.0
  C  C83  1  0.11497000  0.11160000  0.10001000  1.0
  C  C84  1  0.41483000  0.74588000  0.58080000  1.0
  C  C85  1  0.91483000  0.75412000  0.91920000  1.0
  C  C86  1  0.58517000  0.25412000  0.41920000  1.0
  C  C87  1  0.08517000  0.24588000  0.08080000  1.0
  C  C88  1  0.50088000  0.82277000  0.64121000  1.0
  C  C89  1  0.00088000  0.67723000  0.85879000  1.0
  C  C90  1  0.49912000  0.17723000  0.35879000  1.0
  C  C91  1  0.99913000  0.32277000  0.14121000  1.0
  C  C92  1  0.55051000  0.76614000  0.71507000  1.0
  C  C93  1  0.05050000  0.73385000  0.78493000  1.0
  C  C94  1  0.44950000  0.23386000  0.28493000  1.0
  C  C95  1  0.94950000  0.26614000  0.21507000  1.0
  C  C96  1  0.51370000  0.63226000  0.72992000  1.0
  C  C97  1  0.01369000  0.86774000  0.77008000  1.0
  C  C98  1  0.48631000  0.36775000  0.27008000  1.0
  C  C99  1  0.98631000  0.13225000  0.22992000  1.0
  C  C100  1  0.56279000  0.56847000  0.81011000  1.0
  C  C101  1  0.06278000  0.93153000  0.68989000  1.0
  C  C102  1  0.43722000  0.43154000  0.18989000  1.0
  C  C103  1  0.93722000  0.06846000  0.31011000  1.0
  C  C104  1  0.35656000  0.79791000  0.50341000  1.0
  C  C105  1  0.85656000  0.70209000  0.99660000  1.0
  C  C106  1  0.64344000  0.20209000  0.49659000  1.0
  C  C107  1  0.14344000  0.29791000  0.00341000  1.0
  N  N108  1  0.26736000  0.40132000  0.56009000  1.0
  N  N109  1  0.76736000  0.09868000  0.93991000  1.0
  N  N110  1  0.73264000  0.59868000  0.43991000  1.0
  N  N111  1  0.23263000  0.90131000  0.06008000  1.0
  N  N112  1  0.43348000  0.55759000  0.67327000  1.0
  N  N113  1  0.93348000  0.94241000  0.82673000  1.0
  N  N114  1  0.56652000  0.44241000  0.32673000  1.0
  N  N115  1  0.06652000  0.05758000  0.17327000  1.0
  N  N116  1  0.03307000  0.33187000  0.77723000  1.0
  N  N117  1  0.53307000  0.16813000  0.72277000  1.0
  N  N118  1  0.96693000  0.66813000  0.22277000  1.0
  N  N119  1  0.46693000  0.83188000  0.27723000  1.0
  O  O120  1  0.15070000  0.41502000  0.76086000  1.0
  O  O121  1  0.65071000  0.08498000  0.73914000  1.0
  O  O122  1  0.84930000  0.58498000  0.23914000  1.0
  O  O123  1  0.34929000  0.91502000  0.26086000  1.0
  O  O124  1  0.02995000  0.22187000  0.73951000  1.0
  O  O125  1  0.52996000  0.27813000  0.76049000  1.0
  O  O126  1  0.97005000  0.77813000  0.26049000  1.0
  O  O127  1  0.47004000  0.72187000  0.23951000  1.0
  O  O128  1  0.91891000  0.35599000  0.83134000  1.0
  O  O129  1  0.41891000  0.14401000  0.66866000  1.0
  O  O130  1  0.08109000  0.64401000  0.16866000  1.0
  O  O131  1  0.58109000  0.85599000  0.33134000  1.0
