# generated using pymatgen
data_CoH16C15(NO2)3
_symmetry_space_group_name_H-M   'P 1'
_cell_length_a   7.96602000
_cell_length_b   9.64941000
_cell_length_c   11.86820000
_cell_angle_alpha   91.24640000
_cell_angle_beta   102.12100000
_cell_angle_gamma   113.25800000
_symmetry_Int_Tables_number   1
_chemical_formula_structural   CoH16C15(NO2)3
_chemical_formula_sum   'Co2 H32 C30 N6 O12'
_cell_volume   813.87506276
_cell_formula_units_Z   2
loop_
 _symmetry_equiv_pos_site_id
 _symmetry_equiv_pos_as_xyz
  1  'x, y, z'
loop_
 _atom_site_type_symbol
 _atom_site_label
 _atom_site_symmetry_multiplicity
 _atom_site_fract_x
 _atom_site_fract_y
 _atom_site_fract_z
 _atom_site_occupancy
  Co  Co0  1  0.50000000  0.00000000  0.00000000  1.0
  Co  Co1  1  0.00000000  0.50000000  0.00000000  1.0
  H  H2  1  0.02174000  0.81036000  0.28948000  1.0
  H  H3  1  0.97825000  0.18964000  0.71052000  1.0
  H  H4  1  0.17871000  0.97444000  0.47695000  1.0
  H  H5  1  0.82129000  0.02555000  0.52305000  1.0
  H  H6  1  0.19925000  0.24093000  0.49229000  1.0
  H  H7  1  0.80076000  0.75907000  0.50771000  1.0
  H  H8  1  0.09344000  0.34419000  0.31371000  1.0
  H  H9  1  0.90656000  0.65581000  0.68631000  1.0
  H  H10  1  0.94017000  0.79753000  0.08305000  1.0
  H  H11  1  0.05982000  0.20247000  0.91695000  1.0
  H  H12  1  0.85957000  0.92801000  0.01034000  1.0
  H  H13  1  0.14043000  0.07199000  0.98967000  1.0
  H  H14  1  0.82659000  0.52886000  0.30771000  1.0
  H  H15  1  0.17343000  0.47115000  0.69227000  1.0
  H  H16  1  0.82886000  0.32385000  0.62732000  1.0
  H  H17  1  0.17116000  0.67616000  0.37267000  1.0
  H  H18  1  0.53543000  0.27147000  0.49421000  1.0
  H  H19  1  0.46459000  0.72855000  0.50579000  1.0
  H  H20  1  0.52043000  0.38468000  0.37895000  1.0
  H  H21  1  0.47958000  0.61533000  0.62104000  1.0
  H  H22  1  0.59910000  0.89295000  0.26643000  1.0
  H  H23  1  0.40089000  0.10705000  0.73357000  1.0
  H  H24  1  0.46700000  0.26243000  0.17366000  1.0
  H  H25  1  0.53299000  0.73756000  0.82634000  1.0
  H  H26  1  0.21943000  0.75848000  0.09486000  1.0
  H  H27  1  0.78057000  0.24152000  0.90514000  1.0
  H  H28  1  0.72914000  0.53315000  0.09710000  1.0
  H  H29  1  0.27085000  0.46685000  0.90290000  1.0
  H  H30  1  0.30369000  0.65053000  0.15744000  1.0
  H  H31  1  0.69630000  0.34946000  0.84256000  1.0
  H  H32  1  0.66020000  0.36540000  0.03152000  1.0
  H  H33  1  0.33978000  0.63460000  0.96848000  1.0
  C  C34  1  0.98754000  0.13337000  0.20375000  1.0
  C  C35  1  0.01245000  0.86663000  0.79626000  1.0
  C  C36  1  0.96082000  0.97975000  0.19693000  1.0
  C  C37  1  0.03918000  0.02025000  0.80307000  1.0
  C  C38  1  0.03391000  0.92682000  0.29649000  1.0
  C  C39  1  0.96609000  0.07318000  0.70352000  1.0
  C  C40  1  0.12175000  0.01907000  0.40175000  1.0
  C  C41  1  0.87826000  0.98092000  0.59825000  1.0
  C  C42  1  0.13766000  0.16885000  0.40940000  1.0
  C  C43  1  0.86234000  0.83114000  0.59061000  1.0
  C  C44  1  0.07608000  0.22632000  0.31035000  1.0
  C  C45  1  0.92392000  0.77367000  0.68966000  1.0
  C  C46  1  0.93848000  0.20791000  0.10051000  1.0
  C  C47  1  0.06151000  0.79209000  0.89950000  1.0
  C  C48  1  0.86383000  0.86916000  0.08783000  1.0
  C  C49  1  0.13615000  0.13084000  0.91217000  1.0
  C  C50  1  0.66309000  0.76354000  0.08979000  1.0
  C  C51  1  0.33690000  0.23646000  0.91021000  1.0
  C  C52  1  0.80503000  0.41646000  0.46350000  1.0
  C  C53  1  0.19499000  0.58355000  0.53650000  1.0
  C  C54  1  0.90192000  0.51639000  0.39231000  1.0
  C  C55  1  0.09811000  0.48362000  0.60768000  1.0
  C  C56  1  0.90407000  0.40082000  0.57123000  1.0
  C  C57  1  0.09597000  0.59919000  0.42876000  1.0
  C  C58  1  0.59674000  0.32000000  0.42213000  1.0
  C  C59  1  0.40328000  0.68002000  0.57787000  1.0
  C  C60  1  0.57607000  0.99614000  0.27109000  1.0
  C  C61  1  0.42393000  0.00386000  0.72890000  1.0
  C  C62  1  0.50915000  0.18219000  0.22101000  1.0
  C  C63  1  0.49085000  0.81781000  0.77899000  1.0
  N  N64  1  0.56071000  0.19336000  0.33735000  1.0
  N  N65  1  0.43930000  0.80665000  0.66265000  1.0
  N  N66  1  0.60455000  0.07553000  0.37108000  1.0
  N  N67  1  0.39546000  0.92447000  0.62891000  1.0
  N  N68  1  0.51821000  0.05789000  0.17573000  1.0
  N  N69  1  0.48178000  0.94210000  0.82427000  1.0
  O  O70  1  0.05663000  0.34158000  0.09588000  1.0
  O  O71  1  0.94336000  0.65842000  0.90413000  1.0
  O  O72  1  0.78902000  0.13661000  0.01980000  1.0
  O  O73  1  0.21098000  0.86339000  0.98021000  1.0
  O  O74  1  0.52870000  0.79962000  0.03828000  1.0
  O  O75  1  0.47130000  0.20037000  0.96172000  1.0
  O  O76  1  0.63169000  0.64490000  0.13951000  1.0
  O  O77  1  0.36830000  0.35509000  0.86049000  1.0
  O  O78  1  0.19090000  0.67131000  0.14280000  1.0
  O  O79  1  0.80909000  0.32869000  0.85720000  1.0
  O  O80  1  0.77297000  0.45490000  0.07477000  1.0
  O  O81  1  0.22701000  0.54510000  0.92523000  1.0
