# generated using pymatgen
data_Zn4H26C22O15
_symmetry_space_group_name_H-M   'P 1'
_cell_length_a   10.86040000
_cell_length_b   10.92960000
_cell_length_c   10.91160000
_cell_angle_alpha   82.40680000
_cell_angle_beta   80.07700000
_cell_angle_gamma   89.85240000
_symmetry_Int_Tables_number   1
_chemical_formula_structural   Zn4H26C22O15
_chemical_formula_sum   'Zn4 H26 C22 O15'
_cell_volume   1264.37110053
_cell_formula_units_Z   1
loop_
 _symmetry_equiv_pos_site_id
 _symmetry_equiv_pos_as_xyz
  1  'x, y, z'
loop_
 _atom_site_type_symbol
 _atom_site_label
 _atom_site_symmetry_multiplicity
 _atom_site_fract_x
 _atom_site_fract_y
 _atom_site_fract_z
 _atom_site_occupancy
  Zn  Zn0  1  0.39004000  0.60014000  0.61573000  1.0
  Zn  Zn1  1  0.59514000  0.38542000  0.60622000  1.0
  Zn  Zn2  1  0.61744000  0.62124000  0.38349000  1.0
  Zn  Zn3  1  0.40602000  0.41577000  0.41472000  1.0
  H  H4  1  0.07234000  0.77499000  0.56613000  1.0
  H  H5  1  0.10262000  0.34651000  0.36379000  1.0
  H  H6  1  0.75858000  0.93026000  0.45733000  1.0
  H  H7  1  0.73707000  0.06961000  0.53067000  1.0
  H  H8  1  0.79632000  0.07781000  0.36534000  1.0
  H  H9  1  0.21891000  0.14591000  0.67186000  1.0
  H  H10  1  0.30798000  0.08620000  0.79116000  1.0
  H  H11  1  0.17258000  0.00300000  0.77032000  1.0
  H  H12  1  0.80417000  0.49638000  0.04411000  1.0
  H  H13  1  0.78466000  0.44872000  0.89875000  1.0
  H  H14  1  0.86664000  0.58913000  0.90102000  1.0
  H  H15  1  0.93642000  0.76765000  0.49595000  1.0
  H  H16  1  0.64574000  0.62632000  0.85762000  1.0
  H  H17  1  0.67203000  0.68453000  0.99457000  1.0
  H  H18  1  0.21219000  0.46569000  0.95211000  1.0
  H  H19  1  0.28112000  0.33646000  0.88695000  1.0
  H  H20  1  0.17734000  0.31416000  0.03270000  1.0
  H  H21  1  0.39550000  0.29031000  0.07200000  1.0
  H  H22  1  0.32434000  0.41450000  0.13924000  1.0
  H  H23  1  0.92166000  0.78956000  0.65656000  1.0
  H  H24  1  0.86644000  0.57157000  0.64294000  1.0
  H  H25  1  0.00374000  0.57759000  0.70769000  1.0
  H  H26  1  0.88661000  0.26652000  0.34916000  1.0
  H  H27  1  0.86625000  0.40002000  0.24336000  1.0
  H  H28  1  0.98477000  0.29472000  0.19991000  1.0
  H  H29  1  0.08344000  0.47763000  0.26001000  1.0
  C  C30  1  0.45409000  0.17530000  0.55089000  1.0
  C  C31  1  0.03510000  0.53125000  0.52117000  1.0
  C  C32  1  0.97569000  0.47672000  0.44211000  1.0
  C  C33  1  0.51676000  0.97126000  0.49609000  1.0
  C  C34  1  0.96524000  0.60134000  0.62111000  1.0
  C  C35  1  0.97470000  0.74174000  0.58244000  1.0
  C  C36  1  0.03106000  0.40921000  0.33373000  1.0
  C  C37  1  0.93642000  0.33886000  0.27895000  1.0
  C  C38  1  0.73269000  0.02781000  0.44499000  1.0
  C  C39  1  0.25230000  0.06205000  0.72229000  1.0
  C  C40  1  0.66384000  0.59905000  0.95346000  1.0
  C  C41  1  0.43085000  0.03701000  0.56581000  1.0
  C  C42  1  0.78709000  0.52918000  0.94895000  1.0
  C  C43  1  0.35948000  0.38339000  0.04838000  1.0
  C  C44  1  0.25192000  0.37492000  0.97542000  1.0
  C  C45  1  0.55531000  0.52300000  0.03188000  1.0
  C  C46  1  0.47005000  0.46446000  0.98146000  1.0
  C  C47  1  0.51089000  0.83692000  0.49367000  1.0
  C  C48  1  0.48476000  0.47914000  0.84070000  1.0
  C  C49  1  0.54645000  0.51632000  0.17030000  1.0
  C  C50  1  0.83560000  0.48527000  0.46251000  1.0
  C  C51  1  0.17253000  0.52536000  0.51467000  1.0
  O  O52  1  0.50625000  0.50560000  0.50738000  1.0
  O  O53  1  0.77494000  0.39850000  0.53847000  1.0
  O  O54  1  0.23903000  0.48463000  0.42010000  1.0
  O  O55  1  0.79166000  0.57668000  0.40058000  1.0
  O  O56  1  0.21599000  0.56083000  0.60658000  1.0
  O  O57  1  0.60943000  0.04082000  0.41349000  1.0
  O  O58  1  0.32381000  0.98826000  0.63636000  1.0
  O  O59  1  0.41666000  0.55901000  0.79083000  1.0
  O  O60  1  0.48725000  0.42411000  0.24010000  1.0
  O  O61  1  0.53815000  0.21309000  0.60545000  1.0
  O  O62  1  0.59604000  0.79217000  0.41609000  1.0
  O  O63  1  0.38374000  0.23982000  0.48700000  1.0
  O  O64  1  0.42197000  0.77628000  0.56906000  1.0
  O  O65  1  0.56151000  0.40723000  0.78516000  1.0
  O  O66  1  0.59991000  0.60387000  0.21024000  1.0
