# generated using pymatgen
data_CuH12(C8N5)2
_symmetry_space_group_name_H-M   'P 1'
_cell_length_a   7.08571000
_cell_length_b   9.48860000
_cell_length_c   13.84830000
_cell_angle_alpha   90.00000000
_cell_angle_beta   90.00050000
_cell_angle_gamma   89.87340000
_symmetry_Int_Tables_number   1
_chemical_formula_structural   CuH12(C8N5)2
_chemical_formula_sum   'Cu2 H24 C32 N20'
_cell_volume   931.06696070
_cell_formula_units_Z   2
loop_
 _symmetry_equiv_pos_site_id
 _symmetry_equiv_pos_as_xyz
  1  'x, y, z'
loop_
 _atom_site_type_symbol
 _atom_site_label
 _atom_site_symmetry_multiplicity
 _atom_site_fract_x
 _atom_site_fract_y
 _atom_site_fract_z
 _atom_site_occupancy
  Cu  Cu0  1  0.00001000  0.00000000  0.50000000  1.0
  Cu  Cu1  1  0.50000000  0.00000000  0.00000000  1.0
  H  H2  1  0.83385000  0.46248000  0.33560000  1.0
  H  H3  1  0.66616000  0.53751000  0.83560000  1.0
  H  H4  1  0.16618000  0.53752000  0.66440000  1.0
  H  H5  1  0.33382000  0.46248000  0.16440000  1.0
  H  H6  1  0.18173000  0.50042000  0.38631000  1.0
  H  H7  1  0.31827000  0.49957000  0.88631000  1.0
  H  H8  1  0.81830000  0.49959000  0.61369000  1.0
  H  H9  1  0.68170000  0.50042000  0.11369000  1.0
  H  H10  1  0.28255000  0.24661000  0.47436000  1.0
  H  H11  1  0.21745000  0.75338000  0.97435000  1.0
  H  H12  1  0.71747000  0.75339000  0.52565000  1.0
  H  H13  1  0.78253000  0.24662000  0.02565000  1.0
  H  H14  1  0.57159000  0.28685000  0.35341000  1.0
  H  H15  1  0.92842000  0.71314000  0.85342000  1.0
  H  H16  1  0.42842000  0.71314000  0.64658000  1.0
  H  H17  1  0.07158000  0.28685000  0.14659000  1.0
  H  H18  1  0.62389000  0.12205000  0.41029000  1.0
  H  H19  1  0.87611000  0.87795000  0.91030000  1.0
  H  H20  1  0.37612000  0.87795000  0.58970000  1.0
  H  H21  1  0.12388000  0.12205000  0.08971000  1.0
  H  H22  1  0.67936000  0.14933000  0.28655000  1.0
  H  H23  1  0.82065000  0.85066000  0.78656000  1.0
  H  H24  1  0.32067000  0.85066000  0.71345000  1.0
  H  H25  1  0.17935000  0.14933000  0.21346000  1.0
  C  C26  1  0.86169000  0.25484000  0.38623000  1.0
  C  C27  1  0.63832000  0.74516000  0.88624000  1.0
  C  C28  1  0.13833000  0.74516000  0.61377000  1.0
  C  C29  1  0.36168000  0.25484000  0.11378000  1.0
  C  C30  1  0.10389000  0.40360000  0.39683000  1.0
  C  C31  1  0.39612000  0.59640000  0.89683000  1.0
  C  C32  1  0.89614000  0.59638000  0.60316000  1.0
  C  C33  1  0.60386000  0.40363000  0.10316000  1.0
  C  C34  1  0.15248000  0.27836000  0.43958000  1.0
  C  C35  1  0.34753000  0.72164000  0.93958000  1.0
  C  C36  1  0.84753000  0.72164000  0.56041000  1.0
  C  C37  1  0.65246000  0.27835000  0.06041000  1.0
  C  C38  1  0.67359000  0.20001000  0.35801000  1.0
  C  C39  1  0.82642000  0.79998000  0.85802000  1.0
  C  C40  1  0.32642000  0.79999000  0.64198000  1.0
  C  C41  1  0.17359000  0.20001000  0.14199000  1.0
  C  C42  1  0.92217000  0.86382000  0.30501000  1.0
  C  C43  1  0.57781000  0.13619000  0.80502000  1.0
  C  C44  1  0.07782000  0.13619000  0.69498000  1.0
  C  C45  1  0.42217000  0.86382000  0.19499000  1.0
  C  C46  1  0.94702000  0.81402000  0.21145000  1.0
  C  C47  1  0.55296000  0.18597000  0.71145000  1.0
  C  C48  1  0.05295000  0.18597000  0.78855000  1.0
  C  C49  1  0.44704000  0.81404000  0.28855000  1.0
  C  C50  1  0.87928000  0.89417000  0.13352000  1.0
  C  C51  1  0.62073000  0.10582000  0.63353000  1.0
  C  C52  1  0.12071000  0.10582000  0.86647000  1.0
  C  C53  1  0.37927000  0.89418000  0.36648000  1.0
  C  C54  1  0.03865000  0.68488000  0.19583000  1.0
  C  C55  1  0.46135000  0.31511000  0.69583000  1.0
  C  C56  1  0.96133000  0.31510000  0.80417000  1.0
  C  C57  1  0.53865000  0.68490000  0.30418000  1.0
  N  N58  1  0.00078000  0.18705000  0.43303000  1.0
  N  N59  1  0.49923000  0.81296000  0.93303000  1.0
  N  N60  1  0.99924000  0.81295000  0.56697000  1.0
  N  N61  1  0.50076000  0.18705000  0.06697000  1.0
  N  N62  1  0.92177000  0.38652000  0.36410000  1.0
  N  N63  1  0.57824000  0.61348000  0.86410000  1.0
  N  N64  1  0.07826000  0.61348000  0.63589000  1.0
  N  N65  1  0.42173000  0.38653000  0.13590000  1.0
  N  N66  1  0.89415000  0.90496000  0.38368000  1.0
  N  N67  1  0.60585000  0.09505000  0.88368000  1.0
  N  N68  1  0.10585000  0.09504000  0.61632000  1.0
  N  N69  1  0.39415000  0.90496000  0.11632000  1.0
  N  N70  1  0.31945000  0.96178000  0.43044000  1.0
  N  N71  1  0.18053000  0.03824000  0.93044000  1.0
  N  N72  1  0.68056000  0.03823000  0.56956000  1.0
  N  N73  1  0.81946000  0.96177000  0.06956000  1.0
  N  N74  1  0.11669000  0.57720000  0.18372000  1.0
  N  N75  1  0.38332000  0.42280000  0.68372000  1.0
  N  N76  1  0.88328000  0.42279000  0.81628000  1.0
  N  N77  1  0.61669000  0.57720000  0.31628000  1.0
