# generated using pymatgen
data_ZnH6C5N8
_symmetry_space_group_name_H-M   'P 1'
_cell_length_a   4.72277000
_cell_length_b   9.83046000
_cell_length_c   16.94440000
_cell_angle_alpha   89.99930000
_cell_angle_beta   89.99970000
_cell_angle_gamma   87.37350000
_symmetry_Int_Tables_number   1
_chemical_formula_structural   ZnH6C5N8
_chemical_formula_sum   'Zn4 H24 C20 N32'
_cell_volume   785.85126634
_cell_formula_units_Z   4
loop_
 _symmetry_equiv_pos_site_id
 _symmetry_equiv_pos_as_xyz
  1  'x, y, z'
loop_
 _atom_site_type_symbol
 _atom_site_label
 _atom_site_symmetry_multiplicity
 _atom_site_fract_x
 _atom_site_fract_y
 _atom_site_fract_z
 _atom_site_occupancy
  Zn  Zn0  1  0.25118000  0.89326000  0.64191000  1.0
  Zn  Zn1  1  0.74882000  0.60675000  0.14192000  1.0
  Zn  Zn2  1  0.74882000  0.10675000  0.35809000  1.0
  Zn  Zn3  1  0.25118000  0.39325000  0.85808000  1.0
  H  H4  1  0.89345000  0.67652000  0.87331000  1.0
  H  H5  1  0.10655000  0.82348000  0.37332000  1.0
  H  H6  1  0.10655000  0.32348000  0.12669000  1.0
  H  H7  1  0.89346000  0.17652000  0.62668000  1.0
  H  H8  1  0.77709000  0.77125000  0.78967000  1.0
  H  H9  1  0.22291000  0.72875000  0.28967000  1.0
  H  H10  1  0.22290000  0.22876000  0.21033000  1.0
  H  H11  1  0.77710000  0.27125000  0.71033000  1.0
  H  H12  1  0.06257000  0.96197000  0.82296000  1.0
  H  H13  1  0.93744000  0.53803000  0.32297000  1.0
  H  H14  1  0.93744000  0.03803000  0.17704000  1.0
  H  H15  1  0.06257000  0.46197000  0.67704000  1.0
  H  H16  1  0.84307000  0.92192000  0.90137000  1.0
  H  H17  1  0.15695000  0.57807000  0.40137000  1.0
  H  H18  1  0.15694000  0.07808000  0.09863000  1.0
  H  H19  1  0.84307000  0.42193000  0.59862000  1.0
  H  H20  1  0.47805000  0.84724000  0.88990000  1.0
  H  H21  1  0.52194000  0.65275000  0.38991000  1.0
  H  H22  1  0.52195000  0.15277000  0.11010000  1.0
  H  H23  1  0.47806000  0.34724000  0.61009000  1.0
  H  H24  1  0.31703000  0.97944000  0.94676000  1.0
  H  H25  1  0.68299000  0.52055000  0.44676000  1.0
  H  H26  1  0.68297000  0.02056000  0.05324000  1.0
  H  H27  1  0.31703000  0.47945000  0.55323000  1.0
  C  C28  1  0.19128000  0.68336000  0.78087000  1.0
  C  C29  1  0.80871000  0.81663000  0.28088000  1.0
  C  C30  1  0.80871000  0.31664000  0.21913000  1.0
  C  C31  1  0.19128000  0.18337000  0.71913000  1.0
  C  C32  1  0.95926000  0.74997000  0.82865000  1.0
  C  C33  1  0.04074000  0.75003000  0.32866000  1.0
  C  C34  1  0.04073000  0.25002000  0.17135000  1.0
  C  C35  1  0.95926000  0.24997000  0.67134000  1.0
  C  C36  1  0.03018000  0.88493000  0.86824000  1.0
  C  C37  1  0.96982000  0.61507000  0.36824000  1.0
  C  C38  1  0.96982000  0.11507000  0.13176000  1.0
  C  C39  1  0.03019000  0.38494000  0.63175000  1.0
  C  C40  1  0.28626000  0.87685000  0.92305000  1.0
  C  C41  1  0.71374000  0.62315000  0.42305000  1.0
  C  C42  1  0.71374000  0.12315000  0.07695000  1.0
  C  C43  1  0.28627000  0.37686000  0.57695000  1.0
  C  C44  1  0.26253000  0.77843000  0.98911000  1.0
  C  C45  1  0.73747000  0.72156000  0.48912000  1.0
  C  C46  1  0.73748000  0.22156000  0.01089000  1.0
  C  C47  1  0.26251000  0.27844000  0.51088000  1.0
  N  N48  1  0.31854000  0.73335000  0.71659000  1.0
  N  N49  1  0.68146000  0.76665000  0.21660000  1.0
  N  N50  1  0.68144000  0.26665000  0.28341000  1.0
  N  N51  1  0.31854000  0.23335000  0.78340000  1.0
  N  N52  1  0.52035000  0.63905000  0.69279000  1.0
  N  N53  1  0.47967000  0.86095000  0.19279000  1.0
  N  N54  1  0.47965000  0.36095000  0.30722000  1.0
  N  N55  1  0.52033000  0.13905000  0.80721000  1.0
  N  N56  1  0.51906000  0.53555000  0.74015000  1.0
  N  N57  1  0.48095000  0.96445000  0.24016000  1.0
  N  N58  1  0.48094000  0.46446000  0.25985000  1.0
  N  N59  1  0.51905000  0.03554000  0.75985000  1.0
  N  N60  1  0.31411000  0.55993000  0.79567000  1.0
  N  N61  1  0.68588000  0.94007000  0.29568000  1.0
  N  N62  1  0.68587000  0.44007000  0.20433000  1.0
  N  N63  1  0.31411000  0.05993000  0.70432000  1.0
  N  N64  1  0.46835000  0.68575000  0.00949000  1.0
  N  N65  1  0.53164000  0.81424000  0.50950000  1.0
  N  N66  1  0.53165000  0.31425000  0.99050000  1.0
  N  N67  1  0.46836000  0.18575000  0.49051000  1.0
  N  N68  1  0.37015000  0.61951000  0.07152000  1.0
  N  N69  1  0.62985000  0.88050000  0.57151000  1.0
  N  N70  1  0.62985000  0.38049000  0.92848000  1.0
  N  N71  1  0.37015000  0.11950000  0.42848000  1.0
  N  N72  1  0.10289000  0.66962000  0.08668000  1.0
  N  N73  1  0.89712000  0.83038000  0.58668000  1.0
  N  N74  1  0.89712000  0.33039000  0.91331000  1.0
  N  N75  1  0.10288000  0.16962000  0.41332000  1.0
  N  N76  1  0.03525000  0.76916000  0.03619000  1.0
  N  N77  1  0.96475000  0.73083000  0.53619000  1.0
  N  N78  1  0.96476000  0.23084000  0.96381000  1.0
  N  N79  1  0.03526000  0.26916000  0.46381000  1.0
