# generated using pymatgen
data_SrH16C11(NO4)2
_symmetry_space_group_name_H-M   'P 1'
_cell_length_a   8.20686000
_cell_length_b   9.53360000
_cell_length_c   9.53358000
_cell_angle_alpha   76.83750000
_cell_angle_beta   74.82040000
_cell_angle_gamma   74.82010000
_symmetry_Int_Tables_number   1
_chemical_formula_structural   SrH16C11(NO4)2
_chemical_formula_sum   'Sr2 H32 C22 N4 O16'
_cell_volume   684.55582224
_cell_formula_units_Z   2
loop_
 _symmetry_equiv_pos_site_id
 _symmetry_equiv_pos_as_xyz
  1  'x, y, z'
loop_
 _atom_site_type_symbol
 _atom_site_label
 _atom_site_symmetry_multiplicity
 _atom_site_fract_x
 _atom_site_fract_y
 _atom_site_fract_z
 _atom_site_occupancy
  Sr  Sr0  1  0.25000000  0.00528000  0.99472000  1.0
  Sr  Sr1  1  0.75000000  0.99473000  0.00528000  1.0
  H  H2  1  0.23216000  0.78741000  0.75100000  1.0
  H  H3  1  0.26784000  0.24900000  0.21260000  1.0
  H  H4  1  0.76783000  0.21260000  0.24900000  1.0
  H  H5  1  0.73217000  0.75100000  0.78740000  1.0
  H  H6  1  0.02453000  0.80609000  0.71638000  1.0
  H  H7  1  0.47548000  0.28362000  0.19391000  1.0
  H  H8  1  0.97547000  0.19391000  0.28362000  1.0
  H  H9  1  0.52453000  0.71638000  0.80609000  1.0
  H  H10  1  0.49639000  0.75755000  0.45569000  1.0
  H  H11  1  0.00361000  0.54430000  0.24245000  1.0
  H  H12  1  0.50361000  0.24244000  0.54430000  1.0
  H  H13  1  0.99639000  0.45570000  0.75756000  1.0
  H  H14  1  0.41895000  0.91245000  0.54873000  1.0
  H  H15  1  0.08105000  0.45127000  0.08755000  1.0
  H  H16  1  0.58106000  0.08754000  0.45126000  1.0
  H  H17  1  0.91894000  0.54873000  0.91246000  1.0
  H  H18  1  0.09525000  0.64557000  0.57059000  1.0
  H  H19  1  0.40476000  0.42941000  0.35443000  1.0
  H  H20  1  0.90474000  0.35443000  0.42941000  1.0
  H  H21  1  0.59525000  0.57059000  0.64557000  1.0
  H  H22  1  0.32065000  0.59008000  0.56598000  1.0
  H  H23  1  0.17936000  0.43403000  0.40992000  1.0
  H  H24  1  0.67934000  0.40992000  0.43403000  1.0
  H  H25  1  0.82065000  0.56597000  0.59008000  1.0
  H  H26  1  0.36354000  0.69288000  0.28020000  1.0
  H  H27  1  0.13646000  0.71979000  0.30712000  1.0
  H  H28  1  0.63645000  0.30712000  0.71980000  1.0
  H  H29  1  0.86354000  0.28020000  0.69288000  1.0
  H  H30  1  0.14298000  0.89199000  0.45663000  1.0
  H  H31  1  0.35702000  0.54337000  0.10801000  1.0
  H  H32  1  0.85702000  0.10801000  0.54336000  1.0
  H  H33  1  0.64298000  0.45664000  0.89199000  1.0
  C  C34  1  0.14383000  0.84780000  0.67826000  1.0
  C  C35  1  0.35617000  0.32174000  0.15221000  1.0
  C  C36  1  0.85617000  0.15221000  0.32174000  1.0
  C  C37  1  0.64383000  0.67826000  0.84779000  1.0
  C  C38  1  0.09435000  0.01346000  0.68531000  1.0
  C  C39  1  0.40565000  0.31469000  0.98655000  1.0
  C  C40  1  0.90565000  0.98655000  0.31469000  1.0
  C  C41  1  0.59436000  0.68531000  0.01346000  1.0
  C  C42  1  0.39614000  0.85860000  0.46747000  1.0
  C  C43  1  0.10387000  0.53253000  0.14140000  1.0
  C  C44  1  0.60386000  0.14139000  0.53253000  1.0
  C  C45  1  0.89613000  0.46747000  0.85861000  1.0
  C  C46  1  0.40716000  0.96090000  0.31740000  1.0
  C  C47  1  0.09284000  0.68260000  0.03911000  1.0
  C  C48  1  0.59284000  0.03910000  0.68260000  1.0
  C  C49  1  0.90716000  0.31740000  0.96090000  1.0
  C  C50  1  0.22233000  0.66613000  0.50933000  1.0
  C  C51  1  0.27767000  0.49068000  0.33387000  1.0
  C  C52  1  0.77766000  0.33387000  0.49068000  1.0
  C  C53  1  0.72233000  0.50932000  0.66613000  1.0
  C  C54  1  0.25000000  0.65135000  0.34864000  1.0
  C  C55  1  0.75000000  0.34864000  0.65136000  1.0
  N  N56  1  0.22230000  0.81948000  0.52434000  1.0
  N  N57  1  0.27771000  0.47566000  0.18052000  1.0
  N  N58  1  0.77770000  0.18052000  0.47566000  1.0
  N  N59  1  0.72229000  0.52434000  0.81948000  1.0
  O  O60  1  0.04794000  0.04436000  0.81514000  1.0
  O  O61  1  0.45206000  0.18485000  0.95564000  1.0
  O  O62  1  0.95206000  0.95564000  0.18485000  1.0
  O  O63  1  0.54794000  0.81515000  0.04436000  1.0
  O  O64  1  0.09599000  0.10298000  0.56587000  1.0
  O  O65  1  0.40401000  0.43413000  0.89702000  1.0
  O  O66  1  0.90401000  0.89702000  0.43412000  1.0
  O  O67  1  0.59600000  0.56588000  0.10298000  1.0
  O  O68  1  0.54804000  0.00328000  0.26625000  1.0
  O  O69  1  0.95197000  0.73375000  0.99672000  1.0
  O  O70  1  0.45197000  0.99671000  0.73374000  1.0
  O  O71  1  0.04803000  0.26625000  0.00328000  1.0
  O  O72  1  0.27646000  0.99265000  0.26012000  1.0
  O  O73  1  0.22354000  0.73988000  0.00735000  1.0
  O  O74  1  0.72354000  0.00735000  0.73988000  1.0
  O  O75  1  0.77646000  0.26012000  0.99266000  1.0
