# generated using pymatgen
data_CdH6C10Br4(NCl)2
_symmetry_space_group_name_H-M   'P 1'
_cell_length_a   3.85984000
_cell_length_b   14.01630000
_cell_length_c   14.01630000
_cell_angle_alpha   89.99930000
_cell_angle_beta   89.99920000
_cell_angle_gamma   89.99950000
_symmetry_Int_Tables_number   1
_chemical_formula_structural   CdH6C10Br4(NCl)2
_chemical_formula_sum   'Cd2 H12 C20 Br8 N4 Cl4'
_cell_volume   758.29129634
_cell_formula_units_Z   2
loop_
 _symmetry_equiv_pos_site_id
 _symmetry_equiv_pos_as_xyz
  1  'x, y, z'
loop_
 _atom_site_type_symbol
 _atom_site_label
 _atom_site_symmetry_multiplicity
 _atom_site_fract_x
 _atom_site_fract_y
 _atom_site_fract_z
 _atom_site_occupancy
  Cd  Cd0  1  0.50000000  0.50000000  0.00000000  1.0
  Cd  Cd1  1  0.50000000  0.00000000  0.50000000  1.0
  H  H2  1  0.26792000  0.52954000  0.78147000  1.0
  H  H3  1  0.26794000  0.47046000  0.21854000  1.0
  H  H4  1  0.73206000  0.21853000  0.52953000  1.0
  H  H5  1  0.73205000  0.78147000  0.47047000  1.0
  H  H6  1  0.26795000  0.02953000  0.71853000  1.0
  H  H7  1  0.26794000  0.97046000  0.28147000  1.0
  H  H8  1  0.73205000  0.71853000  0.97046000  1.0
  H  H9  1  0.73206000  0.28147000  0.02954000  1.0
  H  H10  1  0.50002000  0.81613000  0.68387000  1.0
  H  H11  1  0.49999000  0.18387000  0.31612000  1.0
  H  H12  1  0.50000000  0.31612000  0.81612000  1.0
  H  H13  1  0.50001000  0.68388000  0.18388000  1.0
  C  C14  1  0.37249000  0.60091000  0.79258000  1.0
  C  C15  1  0.37250000  0.39910000  0.20741000  1.0
  C  C16  1  0.62751000  0.20741000  0.60089000  1.0
  C  C17  1  0.62750000  0.79259000  0.39911000  1.0
  C  C18  1  0.37250000  0.10090000  0.70741000  1.0
  C  C19  1  0.37250000  0.89910000  0.29260000  1.0
  C  C20  1  0.62751000  0.70741000  0.89909000  1.0
  C  C21  1  0.62750000  0.29258000  0.10090000  1.0
  C  C22  1  0.37155000  0.66992000  0.72092000  1.0
  C  C23  1  0.37154000  0.33008000  0.27908000  1.0
  C  C24  1  0.62845000  0.27908000  0.66992000  1.0
  C  C25  1  0.62844000  0.72092000  0.33008000  1.0
  C  C26  1  0.37155000  0.16992000  0.77908000  1.0
  C  C27  1  0.37156000  0.83007000  0.22092000  1.0
  C  C28  1  0.62845000  0.77909000  0.83008000  1.0
  C  C29  1  0.62845000  0.22092000  0.16992000  1.0
  C  C30  1  0.50000000  0.76123000  0.73877000  1.0
  C  C31  1  0.49999000  0.23877000  0.26123000  1.0
  C  C32  1  0.50002000  0.26122000  0.76122000  1.0
  C  C33  1  0.49997000  0.73878000  0.23878000  1.0
  Br  Br34  1  0.19609000  0.63803000  0.59829000  1.0
  Br  Br35  1  0.19609000  0.36197000  0.40171000  1.0
  Br  Br36  1  0.80393000  0.40171000  0.63802000  1.0
  Br  Br37  1  0.80391000  0.59829000  0.36199000  1.0
  Br  Br38  1  0.19610000  0.13802000  0.90171000  1.0
  Br  Br39  1  0.19608000  0.86198000  0.09829000  1.0
  Br  Br40  1  0.80393000  0.90171000  0.86198000  1.0
  Br  Br41  1  0.80391000  0.09829000  0.13802000  1.0
  N  N42  1  0.49999000  0.62051000  0.87949000  1.0
  N  N43  1  0.50001000  0.37949000  0.12051000  1.0
  N  N44  1  0.50000000  0.12051000  0.62051000  1.0
  N  N45  1  0.50000000  0.87948000  0.37949000  1.0
  Cl  Cl46  1  1.00000000  0.40841000  0.90841000  1.0
  Cl  Cl47  1  0.99999000  0.59159000  0.09160000  1.0
  Cl  Cl48  1  1.00000000  0.09160000  0.40840000  1.0
  Cl  Cl49  1  0.00000000  0.90841000  0.59160000  1.0
