# generated using pymatgen
data_AgH10C14N5O3
_symmetry_space_group_name_H-M   'P 1'
_cell_length_a   7.95070000
_cell_length_b   8.84847000
_cell_length_c   11.50440000
_cell_angle_alpha   89.21850000
_cell_angle_beta   88.63010000
_cell_angle_gamma   76.07510000
_symmetry_Int_Tables_number   1
_chemical_formula_structural   AgH10C14N5O3
_chemical_formula_sum   'Ag2 H20 C28 N10 O6'
_cell_volume   785.31643555
_cell_formula_units_Z   2
loop_
 _symmetry_equiv_pos_site_id
 _symmetry_equiv_pos_as_xyz
  1  'x, y, z'
loop_
 _atom_site_type_symbol
 _atom_site_label
 _atom_site_symmetry_multiplicity
 _atom_site_fract_x
 _atom_site_fract_y
 _atom_site_fract_z
 _atom_site_occupancy
  Ag  Ag0  1  0.89953000  0.71586000  0.95970000  1.0
  Ag  Ag1  1  0.10047000  0.28415000  0.04030000  1.0
  H  H2  1  0.03374000  0.12211000  0.81477000  1.0
  H  H3  1  0.96623000  0.87790000  0.18522000  1.0
  H  H4  1  0.84722000  0.17062000  0.64278000  1.0
  H  H5  1  0.15278000  0.82940000  0.35721000  1.0
  H  H6  1  0.69886000  0.65067000  0.75791000  1.0
  H  H7  1  0.30114000  0.34934000  0.24209000  1.0
  H  H8  1  0.46131000  0.66021000  0.67840000  1.0
  H  H9  1  0.53869000  0.33980000  0.32160000  1.0
  H  H10  1  0.74969000  0.27078000  0.47525000  1.0
  H  H11  1  0.25030000  0.72924000  0.52475000  1.0
  H  H12  1  0.36349000  0.98079000  0.71371000  1.0
  H  H13  1  0.63650000  0.01921000  0.28629000  1.0
  H  H14  1  0.31797000  0.25332000  0.78381000  1.0
  H  H15  1  0.68203000  0.74667000  0.21621000  1.0
  H  H16  1  0.76548000  0.07543000  0.99684000  1.0
  H  H17  1  0.23453000  0.92455000  0.00317000  1.0
  H  H18  1  0.32688000  0.47387000  0.82827000  1.0
  H  H19  1  0.67313000  0.52612000  0.17173000  1.0
  H  H20  1  0.70338000  0.27294000  0.08805000  1.0
  H  H21  1  0.29663000  0.72705000  0.91196000  1.0
  C  C22  1  0.95632000  0.23917000  0.79602000  1.0
  C  C23  1  0.04365000  0.76084000  0.20398000  1.0
  C  C24  1  0.84939000  0.26722000  0.70000000  1.0
  C  C25  1  0.15059000  0.73280000  0.30000000  1.0
  C  C26  1  0.74636000  0.41701000  0.68330000  1.0
  C  C27  1  0.25363000  0.58301000  0.31670000  1.0
  C  C28  1  0.76818000  0.52844000  0.76469000  1.0
  C  C29  1  0.23182000  0.47158000  0.23530000  1.0
  C  C30  1  0.62129000  0.45973000  0.58960000  1.0
  C  C31  1  0.37871000  0.54029000  0.41039000  1.0
  C  C32  1  0.48031000  0.59051000  0.59971000  1.0
  C  C33  1  0.51969000  0.40950000  0.40029000  1.0
  C  C34  1  0.63920000  0.36973000  0.48828000  1.0
  C  C35  1  0.36080000  0.63029000  0.51172000  1.0
  C  C36  1  0.45020000  0.01121000  0.77693000  1.0
  C  C37  1  0.54979000  0.98879000  0.22307000  1.0
  C  C38  1  0.42533000  0.16340000  0.81661000  1.0
  C  C39  1  0.57467000  0.83659000  0.18339000  1.0
  C  C40  1  0.53699000  0.19515000  0.89978000  1.0
  C  C41  1  0.46302000  0.80484000  0.10022000  1.0
  C  C42  1  0.66856000  0.06544000  0.93391000  1.0
  C  C43  1  0.33144000  0.93454000  0.06609000  1.0
  C  C44  1  0.51816000  0.35033000  0.95075000  1.0
  C  C45  1  0.48185000  0.64965000  0.04926000  1.0
  C  C46  1  0.40383000  0.48246000  0.90386000  1.0
  C  C47  1  0.59618000  0.51753000  0.09615000  1.0
  C  C48  1  0.61333000  0.37122000  0.04829000  1.0
  C  C49  1  0.38668000  0.62877000  0.95171000  1.0
  N  N50  1  0.87233000  0.49587000  0.85517000  1.0
  N  N51  1  0.12766000  0.50414000  0.14483000  1.0
  N  N52  1  0.96531000  0.34953000  0.87284000  1.0
  N  N53  1  0.03467000  0.65047000  0.12715000  1.0
  N  N54  1  0.68379000  0.92132000  0.89421000  1.0
  N  N55  1  0.31620000  0.07866000  0.10578000  1.0
  N  N56  1  0.57477000  0.89215000  0.81531000  1.0
  N  N57  1  0.42522000  0.10784000  0.18469000  1.0
  N  N58  1  0.08664000  0.83082000  0.73878000  1.0
  N  N59  1  0.91337000  0.16918000  0.26123000  1.0
  O  O60  1  0.07488000  0.88278000  0.84421000  1.0
  O  O61  1  0.92512000  0.11722000  0.15579000  1.0
  O  O62  1  0.11551000  0.91810000  0.65660000  1.0
  O  O63  1  0.88449000  0.08189000  0.34340000  1.0
  O  O64  1  0.06989000  0.69544000  0.72117000  1.0
  O  O65  1  0.93013000  0.30455000  0.27883000  1.0
