# generated using pymatgen
data_CoH21C30N3O4
_symmetry_space_group_name_H-M   'P 1'
_cell_length_a   12.17760000
_cell_length_b   13.51620000
_cell_length_c   16.95170000
_cell_angle_alpha   74.65100000
_cell_angle_beta   71.03280000
_cell_angle_gamma   86.87340000
_symmetry_Int_Tables_number   1
_chemical_formula_structural   CoH21C30N3O4
_chemical_formula_sum   'Co4 H84 C120 N12 O16'
_cell_volume   2543.03530915
_cell_formula_units_Z   4
loop_
 _symmetry_equiv_pos_site_id
 _symmetry_equiv_pos_as_xyz
  1  'x, y, z'
loop_
 _atom_site_type_symbol
 _atom_site_label
 _atom_site_symmetry_multiplicity
 _atom_site_fract_x
 _atom_site_fract_y
 _atom_site_fract_z
 _atom_site_occupancy
  Co  Co0  1  0.27260000  0.36774000  0.11706000  1.0
  Co  Co1  1  0.72740000  0.63226000  0.88294000  1.0
  Co  Co2  1  0.23553000  0.37048000  0.36057000  1.0
  Co  Co3  1  0.76447000  0.62952000  0.63943000  1.0
  H  H4  1  0.43713000  0.19657000  0.09364000  1.0
  H  H5  1  0.56287000  0.80342000  0.90636000  1.0
  H  H6  1  0.43216000  0.01575000  0.08834000  1.0
  H  H7  1  0.56784000  0.98424000  0.91166000  1.0
  H  H8  1  0.05640000  0.02275000  0.18198000  1.0
  H  H9  1  0.94360000  0.97726000  0.81801000  1.0
  H  H10  1  0.07900000  0.20587000  0.17978000  1.0
  H  H11  1  0.92100000  0.79413000  0.82021000  1.0
  H  H12  1  0.14011000  0.86758000  0.15311000  1.0
  H  H13  1  0.85989000  0.13242000  0.84689000  1.0
  H  H14  1  0.40642000  0.87104000  0.06960000  1.0
  H  H15  1  0.59358000  0.12896000  0.93039000  1.0
  H  H16  1  0.11819000  0.72849000  0.11649000  1.0
  H  H17  1  0.88181000  0.27151000  0.88351000  1.0
  H  H18  1  0.11283000  0.54253000  0.12151000  1.0
  H  H19  1  0.88716000  0.45747000  0.87849000  1.0
  H  H20  1  0.47008000  0.52826000  0.06339000  1.0
  H  H21  1  0.52992000  0.47174000  0.93661000  1.0
  H  H22  1  0.49064000  0.70805000  0.05954000  1.0
  H  H23  1  0.50936000  0.29195000  0.94045000  1.0
  H  H24  1  0.04221000  0.37552000  0.94059000  1.0
  H  H25  1  0.95779000  0.62448000  0.05941000  1.0
  H  H26  1  0.01807000  0.36620000  0.80048000  1.0
  H  H27  1  0.98193000  0.63379000  0.19953000  1.0
  H  H28  1  0.41270000  0.38252000  0.82561000  1.0
  H  H29  1  0.58730000  0.61748000  0.17438000  1.0
  H  H30  1  0.10201000  0.35877000  0.65083000  1.0
  H  H31  1  0.89798000  0.64123000  0.34917000  1.0
  H  H32  1  0.47226000  0.37821000  0.53030000  1.0
  H  H33  1  0.52773000  0.62179000  0.46970000  1.0
  H  H34  1  0.50010000  0.38595000  0.66743000  1.0
  H  H35  1  0.49990000  0.61405000  0.33257000  1.0
  H  H36  1  0.51768000  0.38069000  0.33055000  1.0
  H  H37  1  0.48232000  0.61931000  0.66946000  1.0
  H  H38  1  0.85144000  0.35593000  0.07180000  1.0
  H  H39  1  0.14856000  0.64407000  0.92820000  1.0
  H  H40  1  0.64828000  0.35475000  0.06874000  1.0
  H  H41  1  0.35171000  0.64525000  0.93126000  1.0
  H  H42  1  0.98828000  0.36009000  0.15228000  1.0
  H  H43  1  0.01172000  0.63992000  0.84773000  1.0
  H  H44  1  0.85597000  0.37285000  0.41787000  1.0
  H  H45  1  0.14403000  0.62716000  0.58213000  1.0
  H  H46  1  0.65324000  0.37864000  0.41249000  1.0
  H  H47  1  0.34676000  0.62136000  0.58752000  1.0
  H  H48  1  0.42603000  0.21906000  0.33014000  1.0
  H  H49  1  0.57398000  0.78093000  0.66986000  1.0
  H  H50  1  0.44553000  0.04170000  0.30998000  1.0
  H  H51  1  0.55446000  0.95829000  0.69002000  1.0
  H  H52  1  0.07014000  0.01191000  0.40509000  1.0
  H  H53  1  0.92986000  0.98809000  0.59492000  1.0
  H  H54  1  0.06717000  0.18985000  0.41896000  1.0
  H  H55  1  0.93284000  0.81015000  0.58104000  1.0
  H  H56  1  0.36212000  0.88720000  0.31557000  1.0
  H  H57  1  0.63788000  0.11280000  0.68443000  1.0
  H  H58  1  0.09544000  0.85774000  0.39733000  1.0
  H  H59  1  0.90456000  0.14226000  0.60267000  1.0
  H  H60  1  0.37750000  0.74879000  0.27196000  1.0
  H  H61  1  0.62250000  0.25121000  0.72805000  1.0
  H  H62  1  0.38506000  0.56535000  0.26815000  1.0
  H  H63  1  0.61494000  0.43464000  0.73186000  1.0
  H  H64  1  0.04437000  0.50583000  0.42550000  1.0
  H  H65  1  0.95563000  0.49417000  0.57450000  1.0
  H  H66  1  0.01969000  0.68478000  0.43808000  1.0
  H  H67  1  0.98031000  0.31522000  0.56192000  1.0
  H  H68  1  0.99888000  0.89138000  0.98734000  1.0
  H  H69  1  0.00113000  0.10863000  0.01266000  1.0
  H  H70  1  0.17727000  0.14528000  0.92849000  1.0
  H  H71  1  0.82274000  0.85472000  0.07151000  1.0
  H  H72  1  0.38111000  0.16310000  0.83498000  1.0
  H  H73  1  0.61890000  0.83690000  0.16502000  1.0
  H  H74  1  0.37933000  0.86642000  0.80944000  1.0
  H  H75  1  0.62067000  0.13358000  0.19056000  1.0
  H  H76  1  0.17336000  0.83559000  0.90137000  1.0
  H  H77  1  0.82664000  0.16441000  0.09862000  1.0
  H  H78  1  0.47159000  0.88378000  0.52701000  1.0
  H  H79  1  0.52841000  0.11621000  0.47299000  1.0
  H  H80  1  0.35726000  0.15363000  0.54381000  1.0
  H  H81  1  0.64275000  0.84636000  0.45619000  1.0
  H  H82  1  0.15276000  0.17450000  0.62487000  1.0
  H  H83  1  0.84725000  0.82550000  0.37513000  1.0
  H  H84  1  0.07656000  0.86268000  0.68936000  1.0
  H  H85  1  0.92343000  0.13732000  0.31065000  1.0
  H  H86  1  0.27880000  0.82731000  0.61108000  1.0
  H  H87  1  0.72119000  0.17268000  0.38892000  1.0
  C  C88  1  0.35480000  0.15549000  0.11029000  1.0
  C  C89  1  0.64521000  0.84451000  0.88971000  1.0
  C  C90  1  0.35071000  0.05467000  0.10692000  1.0
  C  C91  1  0.64929000  0.94533000  0.89309000  1.0
  C  C92  1  0.24236000  0.00357000  0.13021000  1.0
  C  C93  1  0.75764000  0.99643000  0.86979000  1.0
  C  C94  1  0.14277000  0.05930000  0.15864000  1.0
  C  C95  1  0.85723000  0.94070000  0.84136000  1.0
  C  C96  1  0.15465000  0.16057000  0.15926000  1.0
  C  C97  1  0.84536000  0.83943000  0.84074000  1.0
  C  C98  1  0.22932000  0.89912000  0.12671000  1.0
  C  C99  1  0.77068000  0.10088000  0.87329000  1.0
  C  C100  1  0.31699000  0.84016000  0.09424000  1.0
  C  C101  1  0.68301000  0.15984000  0.90576000  1.0
  C  C102  1  0.30482000  0.73526000  0.09175000  1.0
  C  C103  1  0.69518000  0.26475000  0.90825000  1.0
  C  C104  1  0.19794000  0.68597000  0.10695000  1.0
  C  C105  1  0.80206000  0.31403000  0.89305000  1.0
  C  C106  1  0.19419000  0.58299000  0.10914000  1.0
  C  C107  1  0.80581000  0.41700000  0.89086000  1.0
  C  C108  1  0.39296000  0.57358000  0.07699000  1.0
  C  C109  1  0.60704000  0.42642000  0.92301000  1.0
  C  C110  1  0.40389000  0.67598000  0.07447000  1.0
  C  C111  1  0.59611000  0.32403000  0.92553000  1.0
  C  C112  1  0.24275000  0.38188000  0.97359000  1.0
  C  C113  1  0.75727000  0.61812000  0.02641000  1.0
  C  C114  1  0.22953000  0.37711000  0.89051000  1.0
  C  C115  1  0.77047000  0.62290000  0.10949000  1.0
  C  C116  1  0.11658000  0.37279000  0.88418000  1.0
  C  C117  1  0.88343000  0.62721000  0.11582000  1.0
  C  C118  1  0.10349000  0.36752000  0.80786000  1.0
  C  C119  1  0.89651000  0.63248000  0.19214000  1.0
  C  C120  1  0.20145000  0.36689000  0.73455000  1.0
  C  C121  1  0.79855000  0.63311000  0.26545000  1.0
  C  C122  1  0.31584000  0.37313000  0.74002000  1.0
  C  C123  1  0.68416000  0.62688000  0.25998000  1.0
  C  C124  1  0.32683000  0.37730000  0.81963000  1.0
  C  C125  1  0.67317000  0.62270000  0.18037000  1.0
  C  C126  1  0.18870000  0.36272000  0.65570000  1.0
  C  C127  1  0.81129000  0.63728000  0.34430000  1.0
  C  C128  1  0.28493000  0.36513000  0.58391000  1.0
  C  C129  1  0.71507000  0.63487000  0.41609000  1.0
  C  C130  1  0.39817000  0.37374000  0.58851000  1.0
  C  C131  1  0.60183000  0.62626000  0.41149000  1.0
  C  C132  1  0.41307000  0.37763000  0.66470000  1.0
  C  C133  1  0.58693000  0.62237000  0.33529000  1.0
  C  C134  1  0.26897000  0.36040000  0.50187000  1.0
  C  C135  1  0.73102000  0.63960000  0.49813000  1.0
  C  C136  1  0.45004000  0.37214000  0.19667000  1.0
  C  C137  1  0.54996000  0.62786000  0.80333000  1.0
  C  C138  1  0.57116000  0.36763000  0.19986000  1.0
  C  C139  1  0.42884000  0.63237000  0.80015000  1.0
  C  C140  1  0.59080000  0.37316000  0.27480000  1.0
  C  C141  1  0.40920000  0.62683000  0.72521000  1.0
  C  C142  1  0.70450000  0.36876000  0.27992000  1.0
  C  C143  1  0.29550000  0.63123000  0.72008000  1.0
  C  C144  1  0.80058000  0.36229000  0.20532000  1.0
  C  C145  1  0.19942000  0.63771000  0.79469000  1.0
  C  C146  1  0.77794000  0.35829000  0.12903000  1.0
  C  C147  1  0.22206000  0.64171000  0.87097000  1.0
  C  C148  1  0.66602000  0.35889000  0.12668000  1.0
  C  C149  1  0.33398000  0.64112000  0.87333000  1.0
  C  C150  1  0.91454000  0.36136000  0.20964000  1.0
  C  C151  1  0.08546000  0.63864000  0.79036000  1.0
  C  C152  1  0.93364000  0.36445000  0.28531000  1.0
  C  C153  1  0.06635000  0.63556000  0.71469000  1.0
  C  C154  1  0.83843000  0.36980000  0.35948000  1.0
  C  C155  1  0.16157000  0.63020000  0.64052000  1.0
  C  C156  1  0.72674000  0.37252000  0.35644000  1.0
  C  C157  1  0.27325000  0.62748000  0.64357000  1.0
  C  C158  1  0.05458000  0.36311000  0.28840000  1.0
  C  C159  1  0.94542000  0.63689000  0.71161000  1.0
  C  C160  1  0.34942000  0.17084000  0.34492000  1.0
  C  C161  1  0.65059000  0.82916000  0.65508000  1.0
  C  C162  1  0.35999000  0.07200000  0.33482000  1.0
  C  C163  1  0.64001000  0.92799000  0.66518000  1.0
  C  C164  1  0.25978000  0.01037000  0.35580000  1.0
  C  C165  1  0.74022000  0.98963000  0.64420000  1.0
  C  C166  1  0.15197000  0.05410000  0.38797000  1.0
  C  C167  1  0.84803000  0.94589000  0.61203000  1.0
  C  C168  1  0.14929000  0.15375000  0.39541000  1.0
  C  C169  1  0.85071000  0.84625000  0.60459000  1.0
  C  C170  1  0.27253000  0.90755000  0.34428000  1.0
  C  C171  1  0.72747000  0.09245000  0.65572000  1.0
  C  C172  1  0.18464000  0.83755000  0.36735000  1.0
  C  C173  1  0.81536000  0.16245000  0.63265000  1.0
  C  C174  1  0.19804000  0.73382000  0.35779000  1.0
  C  C175  1  0.80196000  0.26617000  0.64221000  1.0
  C  C176  1  0.30160000  0.69765000  0.30866000  1.0
  C  C177  1  0.69840000  0.30235000  0.69134000  1.0
  C  C178  1  0.30690000  0.59606000  0.30574000  1.0
  C  C179  1  0.69310000  0.40394000  0.69427000  1.0
  C  C180  1  0.11616000  0.56222000  0.39346000  1.0
  C  C181  1  0.88383000  0.43778000  0.60654000  1.0
  C  C182  1  0.10340000  0.66271000  0.39969000  1.0
  C  C183  1  0.89660000  0.33729000  0.60031000  1.0
  C  C184  1  0.03441000  0.96730000  0.97956000  1.0
  C  C185  1  0.96559000  0.03270000  0.02044000  1.0
  C  C186  1  0.15524000  0.98734000  0.92439000  1.0
  C  C187  1  0.84477000  0.01266000  0.07561000  1.0
  C  C188  1  0.21740000  0.08060000  0.90407000  1.0
  C  C189  1  0.78260000  0.91940000  0.09593000  1.0
  C  C190  1  0.33288000  0.09062000  0.85130000  1.0
  C  C191  1  0.66712000  0.90938000  0.14870000  1.0
  C  C192  1  0.33198000  0.92725000  0.83663000  1.0
  C  C193  1  0.66803000  0.07275000  0.16337000  1.0
  C  C194  1  0.21609000  0.90973000  0.88852000  1.0
  C  C195  1  0.78391000  0.09028000  0.11148000  1.0
  C  C196  1  0.45593000  0.96514000  0.52317000  1.0
  C  C197  1  0.54407000  0.03485000  0.47682000  1.0
  C  C198  1  0.33771000  0.98723000  0.56995000  1.0
  C  C199  1  0.66229000  0.01277000  0.43005000  1.0
  C  C200  1  0.29905000  0.08609000  0.57526000  1.0
  C  C201  1  0.70096000  0.91390000  0.42474000  1.0
  C  C202  1  0.18360000  0.09804000  0.62092000  1.0
  C  C203  1  0.81640000  0.90196000  0.37908000  1.0
  C  C204  1  0.14118000  0.92584000  0.65658000  1.0
  C  C205  1  0.85881000  0.07416000  0.34342000  1.0
  C  C206  1  0.25481000  0.90581000  0.61266000  1.0
  C  C207  1  0.74519000  0.09419000  0.38734000  1.0
  N  N208  1  0.25862000  0.20959000  0.13486000  1.0
  N  N209  1  0.74138000  0.79042000  0.86514000  1.0
  N  N210  1  0.28973000  0.52551000  0.09597000  1.0
  N  N211  1  0.71027000  0.47449000  0.90403000  1.0
  N  N212  1  0.24600000  0.21357000  0.37285000  1.0
  N  N213  1  0.75400000  0.78643000  0.62715000  1.0
  N  N214  1  0.21670000  0.52765000  0.34806000  1.0
  N  N215  1  0.78330000  0.47234000  0.65194000  1.0
  N  N216  1  0.39144000  0.01606000  0.81744000  1.0
  N  N217  1  0.60857000  0.98394000  0.18256000  1.0
  N  N218  1  0.10406000  0.02015000  0.66140000  1.0
  N  N219  1  0.89595000  0.97985000  0.33861000  1.0
  O  O220  1  0.15394000  0.38992000  0.03692000  1.0
  O  O221  1  0.84607000  0.61007000  0.96308000  1.0
  O  O222  1  0.34376000  0.37491000  0.98200000  1.0
  O  O223  1  0.65626000  0.62509000  0.01799000  1.0
  O  O224  1  0.35714000  0.36199000  0.43530000  1.0
  O  O225  1  0.64286000  0.63801000  0.56470000  1.0
  O  O226  1  0.16652000  0.35587000  0.49757000  1.0
  O  O227  1  0.83348000  0.64412000  0.50243000  1.0
  O  O228  1  0.43082000  0.34758000  0.13436000  1.0
  O  O229  1  0.56918000  0.65242000  0.86564000  1.0
  O  O230  1  0.37117000  0.40258000  0.25491000  1.0
  O  O231  1  0.62883000  0.59742000  0.74509000  1.0
  O  O232  1  0.13859000  0.35738000  0.22178000  1.0
  O  O233  1  0.86141000  0.64262000  0.77822000  1.0
  O  O234  1  0.06875000  0.36644000  0.35913000  1.0
  O  O235  1  0.93125000  0.63356000  0.64087000  1.0
