# generated using pymatgen
data_CoH15C21N2O5
_symmetry_space_group_name_H-M   'P 1'
_cell_length_a   10.10020000
_cell_length_b   10.23840000
_cell_length_c   10.66480000
_cell_angle_alpha   71.53260000
_cell_angle_beta   66.29090000
_cell_angle_gamma   84.55350000
_symmetry_Int_Tables_number   1
_chemical_formula_structural   CoH15C21N2O5
_chemical_formula_sum   'Co2 H30 C42 N4 O10'
_cell_volume   957.09646966
_cell_formula_units_Z   2
loop_
 _symmetry_equiv_pos_site_id
 _symmetry_equiv_pos_as_xyz
  1  'x, y, z'
loop_
 _atom_site_type_symbol
 _atom_site_label
 _atom_site_symmetry_multiplicity
 _atom_site_fract_x
 _atom_site_fract_y
 _atom_site_fract_z
 _atom_site_occupancy
  Co  Co0  1  0.08445000  0.70826000  0.34862000  1.0
  Co  Co1  1  0.91554000  0.29178000  0.65136000  1.0
  H  H2  1  0.03111000  0.59900000  0.20458000  1.0
  H  H3  1  0.96887000  0.40102000  0.79544000  1.0
  H  H4  1  0.93645000  0.51922000  0.37940000  1.0
  H  H5  1  0.06348000  0.48084000  0.62064000  1.0
  H  H6  1  0.87670000  0.81091000  0.20766000  1.0
  H  H7  1  0.12335000  0.18910000  0.79233000  1.0
  H  H8  1  0.80353000  0.04782000  0.10239000  1.0
  H  H9  1  0.19646000  0.95218000  0.89765000  1.0
  H  H10  1  0.89876000  0.25112000  0.12961000  1.0
  H  H11  1  0.10116000  0.74888000  0.87048000  1.0
  H  H12  1  0.05830000  0.20727000  0.26750000  1.0
  H  H13  1  0.94168000  0.79278000  0.73255000  1.0
  H  H14  1  0.19295000  0.14653000  0.38855000  1.0
  H  H15  1  0.80708000  0.85348000  0.61151000  1.0
  H  H16  1  0.36945000  0.05585000  0.50358000  1.0
  H  H17  1  0.63059000  0.94409000  0.49649000  1.0
  H  H18  1  0.41967000  0.80204000  0.55634000  1.0
  H  H19  1  0.58041000  0.19790000  0.44359000  1.0
  H  H20  1  0.29943000  0.65359000  0.48379000  1.0
  H  H21  1  0.70063000  0.34642000  0.51608000  1.0
  H  H22  1  0.34330000  0.38652000  0.75579000  1.0
  H  H23  1  0.65669000  0.61342000  0.24424000  1.0
  H  H24  1  0.68459000  0.67982000  0.43547000  1.0
  H  H25  1  0.31539000  0.32014000  0.56454000  1.0
  H  H26  1  0.29384000  0.58475000  0.82848000  1.0
  H  H27  1  0.70613000  0.41518000  0.17153000  1.0
  H  H28  1  0.52551000  0.72389000  0.02455000  1.0
  H  H29  1  0.47450000  0.27610000  0.97544000  1.0
  H  H30  1  0.75789000  0.67179000  0.84600000  1.0
  H  H31  1  0.24211000  0.32821000  0.15398000  1.0
  C  C32  1  0.91477000  0.90203000  0.21686000  1.0
  C  C33  1  0.08526000  0.09801000  0.78316000  1.0
  C  C34  1  0.87474000  0.03396000  0.15958000  1.0
  C  C35  1  0.12525000  0.96607000  0.84045000  1.0
  C  C36  1  0.92736000  0.14681000  0.17531000  1.0
  C  C37  1  0.07260000  0.85321000  0.82474000  1.0
  C  C38  1  0.01877000  0.12301000  0.24841000  1.0
  C  C39  1  0.98121000  0.87700000  0.75164000  1.0
  C  C40  1  0.05825000  0.98872000  0.30056000  1.0
  C  C41  1  0.94177000  0.01131000  0.69947000  1.0
  C  C42  1  0.15915000  0.94966000  0.37096000  1.0
  C  C43  1  0.84087000  0.05035000  0.62904000  1.0
  C  C44  1  0.22261000  0.03911000  0.40778000  1.0
  C  C45  1  0.77743000  0.96089000  0.59225000  1.0
  C  C46  1  0.31932000  0.98790000  0.47316000  1.0
  C  C47  1  0.68072000  0.01205000  0.52687000  1.0
  C  C48  1  0.34764000  0.84782000  0.50222000  1.0
  C  C49  1  0.65242000  0.15216000  0.49775000  1.0
  C  C50  1  0.28025000  0.76314000  0.46416000  1.0
  C  C51  1  0.71980000  0.23686000  0.53577000  1.0
  C  C52  1  0.25401000  0.67006000  0.05440000  1.0
  C  C53  1  0.74597000  0.32994000  0.94556000  1.0
  C  C54  1  0.41158000  0.43724000  0.64342000  1.0
  C  C55  1  0.58842000  0.56270000  0.35658000  1.0
  C  C56  1  0.51607000  0.53806000  0.60962000  1.0
  C  C57  1  0.48391000  0.46190000  0.39041000  1.0
  C  C58  1  0.60378000  0.60036000  0.46439000  1.0
  C  C59  1  0.39622000  0.39958000  0.53560000  1.0
  C  C60  1  0.52617000  0.58289000  0.72403000  1.0
  C  C61  1  0.47381000  0.41709000  0.27598000  1.0
  C  C62  1  0.39690000  0.60643000  0.82958000  1.0
  C  C63  1  0.60307000  0.39353000  0.17043000  1.0
  C  C64  1  0.39539000  0.65671000  0.93749000  1.0
  C  C65  1  0.60462000  0.34323000  0.06250000  1.0
  C  C66  1  0.52682000  0.68564000  0.93968000  1.0
  C  C67  1  0.47315000  0.31436000  0.06035000  1.0
  C  C68  1  0.65610000  0.65918000  0.83798000  1.0
  C  C69  1  0.34384000  0.34081000  0.16202000  1.0
  C  C70  1  0.65884000  0.60750000  0.72971000  1.0
  C  C71  1  0.34114000  0.39250000  0.27025000  1.0
  C  C72  1  0.80378000  0.57122000  0.63277000  1.0
  C  C73  1  0.19621000  0.42879000  0.36720000  1.0
  N  N74  1  0.00569000  0.87864000  0.28562000  1.0
  N  N75  1  0.99434000  0.12143000  0.71439000  1.0
  N  N76  1  0.18759000  0.81250000  0.39941000  1.0
  N  N77  1  0.81244000  0.18754000  0.60055000  1.0
  O  O78  1  0.25272000  0.74349000  0.13101000  1.0
  O  O79  1  0.74725000  0.25661000  0.86888000  1.0
  O  O80  1  0.14456000  0.60239000  0.07024000  1.0
  O  O81  1  0.85544000  0.39755000  0.92975000  1.0
  O  O82  1  0.80814000  0.45753000  0.60321000  1.0
  O  O83  1  0.19188000  0.54253000  0.39668000  1.0
  O  O84  1  0.91166000  0.65174000  0.58919000  1.0
  O  O85  1  0.08832000  0.34830000  0.41078000  1.0
  O  O86  1  0.95897000  0.61014000  0.30602000  1.0
  O  O87  1  0.04096000  0.38991000  0.69396000  1.0
