# generated using pymatgen
data_BaH8C6N8O5
_symmetry_space_group_name_H-M   'P 1'
_cell_length_a   6.88465000
_cell_length_b   6.88459000
_cell_length_c   13.23637616
_cell_angle_alpha   101.42770835
_cell_angle_beta   101.44403751
_cell_angle_gamma   103.71700000
_symmetry_Int_Tables_number   1
_chemical_formula_structural   BaH8C6N8O5
_chemical_formula_sum   'Ba2 H16 C12 N16 O10'
_cell_volume   577.22313623
_cell_formula_units_Z   2
loop_
 _symmetry_equiv_pos_site_id
 _symmetry_equiv_pos_as_xyz
  1  'x, y, z'
loop_
 _atom_site_type_symbol
 _atom_site_label
 _atom_site_symmetry_multiplicity
 _atom_site_fract_x
 _atom_site_fract_y
 _atom_site_fract_z
 _atom_site_occupancy
  Ba  Ba0  1  0.84031000  0.84034000  0.99998000  1.0
  Ba  Ba1  1  0.09034000  0.59038000  0.50000000  1.0
  H  H2  1  0.26549000  0.64488000  0.97212000  1.0
  H  H3  1  0.67261000  0.29339000  0.02798000  1.0
  H  H4  1  0.54349000  0.42272000  0.52785000  1.0
  H  H5  1  0.89495000  0.01577000  0.47209000  1.0
  H  H6  1  0.10721000  0.54110000  0.04567000  1.0
  H  H7  1  0.49528000  0.06162000  0.95449000  1.0
  H  H8  1  0.31166000  0.24556000  0.45428000  1.0
  H  H9  1  0.79109000  0.85755000  0.54562000  1.0
  H  H10  1  0.19083000  0.22883000  0.93806000  1.0
  H  H11  1  0.29064000  0.25266000  0.06170000  1.0
  H  H12  1  0.50282000  0.04069000  0.56193000  1.0
  H  H13  1  0.47889000  0.94099000  0.43827000  1.0
  H  H14  1  0.20542000  0.73950000  0.25477000  1.0
  H  H15  1  0.48471000  0.95055000  0.74536000  1.0
  H  H16  1  0.20078000  0.23488000  0.24521000  1.0
  H  H17  1  0.98948000  0.95534000  0.75470000  1.0
  C  C18  1  0.36327000  0.77589000  0.12922000  1.0
  C  C19  1  0.64651000  0.23401000  0.87088000  1.0
  C  C20  1  0.48422000  0.39672000  0.37073000  1.0
  C  C21  1  0.02594000  0.11343000  0.62921000  1.0
  C  C22  1  0.64591000  0.96480000  0.23863000  1.0
  C  C23  1  0.72601000  0.40713000  0.76138000  1.0
  C  C24  1  0.65746000  0.47593000  0.26124000  1.0
  C  C25  1  0.21464000  0.39601000  0.73872000  1.0
  C  C26  1  0.86751000  0.08956000  0.27792000  1.0
  C  C27  1  0.81149000  0.58942000  0.72206000  1.0
  C  C28  1  0.83975000  0.56140000  0.22194000  1.0
  C  C29  1  0.33937000  0.61760000  0.77801000  1.0
  N  N30  1  0.51978000  0.92102000  0.30088000  1.0
  N  N31  1  0.62005000  0.21875000  0.69919000  1.0
  N  N32  1  0.46903000  0.36995000  0.19902000  1.0
  N  N33  1  0.17081000  0.26975000  0.80091000  1.0
  N  N34  1  0.55589000  0.87923000  0.13209000  1.0
  N  N35  1  0.74696000  0.42373000  0.86793000  1.0
  N  N36  1  0.67397000  0.49704000  0.36779000  1.0
  N  N37  1  0.12923000  0.30610000  0.63216000  1.0
  N  N38  1  0.20919000  0.66910000  0.03881000  1.0
  N  N39  1  0.63015000  0.17041000  0.96131000  1.0
  N  N40  1  0.42054000  0.38039000  0.46115000  1.0
  N  N41  1  0.91919000  0.95941000  0.53877000  1.0
  N  N42  1  0.33939000  0.80147000  0.22970000  1.0
  N  N43  1  0.57169000  0.10960000  0.77042000  1.0
  N  N44  1  0.35982000  0.32179000  0.27025000  1.0
  N  N45  1  0.05140000  0.08938000  0.72967000  1.0
  O  O46  1  0.94462000  0.17526000  0.37653000  1.0
  O  O47  1  0.79858000  0.56791000  0.62344000  1.0
  O  O48  1  0.81831000  0.54859000  0.12334000  1.0
  O  O49  1  0.42499000  0.69472000  0.87664000  1.0
  O  O50  1  0.96530000  0.10017000  0.20553000  1.0
  O  O51  1  0.89455000  0.75954000  0.79443000  1.0
  O  O52  1  0.00984000  0.64435000  0.29437000  1.0
  O  O53  1  0.35006000  0.71531000  0.70560000  1.0
  O  O54  1  0.17183000  0.17181000  0.99989000  1.0
  O  O55  1  0.42201000  0.92186000  0.50011000  1.0
