# generated using pymatgen
data_AgH3C4S(NO)2
_symmetry_space_group_name_H-M   'P 1'
_cell_length_a   3.72930000
_cell_length_b   12.48560000
_cell_length_c   12.99710000
_cell_angle_alpha   90.00010000
_cell_angle_beta   90.09440000
_cell_angle_gamma   89.99970000
_symmetry_Int_Tables_number   1
_chemical_formula_structural   AgH3C4S(NO)2
_chemical_formula_sum   'Ag4 H12 C16 S4 N8 O8'
_cell_volume   605.17727225
_cell_formula_units_Z   4
loop_
 _symmetry_equiv_pos_site_id
 _symmetry_equiv_pos_as_xyz
  1  'x, y, z'
loop_
 _atom_site_type_symbol
 _atom_site_label
 _atom_site_symmetry_multiplicity
 _atom_site_fract_x
 _atom_site_fract_y
 _atom_site_fract_z
 _atom_site_occupancy
  Ag  Ag0  1  0.99359000  0.94902000  0.90107000  1.0
  Ag  Ag1  1  0.00640000  0.44901000  0.59893000  1.0
  Ag  Ag2  1  0.00641000  0.05098000  0.09893000  1.0
  Ag  Ag3  1  0.99358000  0.55098000  0.40107000  1.0
  H  H4  1  0.91707000  0.72410000  0.86892000  1.0
  H  H5  1  0.08293000  0.22410000  0.63108000  1.0
  H  H6  1  0.08292000  0.27589000  0.13107000  1.0
  H  H7  1  0.91709000  0.77590000  0.36893000  1.0
  H  H8  1  0.96230000  0.62467000  0.77090000  1.0
  H  H9  1  0.03771000  0.12467000  0.72910000  1.0
  H  H10  1  0.03770000  0.37533000  0.22909000  1.0
  H  H11  1  0.96230000  0.87533000  0.27091000  1.0
  H  H12  1  0.53675000  0.65134000  0.82160000  1.0
  H  H13  1  0.46326000  0.15134000  0.67840000  1.0
  H  H14  1  0.46325000  0.34866000  0.17840000  1.0
  H  H15  1  0.53676000  0.84866000  0.32160000  1.0
  C  C16  1  0.73591000  0.77309000  0.72094000  1.0
  C  C17  1  0.26410000  0.27309000  0.77906000  1.0
  C  C18  1  0.26408000  0.22690000  0.27906000  1.0
  C  C19  1  0.73592000  0.72691000  0.22094000  1.0
  C  C20  1  0.58405000  0.76082000  0.62358000  1.0
  C  C21  1  0.41595000  0.26082000  0.87642000  1.0
  C  C22  1  0.41593000  0.23918000  0.37642000  1.0
  C  C23  1  0.58407000  0.73918000  0.12358000  1.0
  C  C24  1  0.79118000  0.68921000  0.80048000  1.0
  C  C25  1  0.20883000  0.18921000  0.69952000  1.0
  C  C26  1  0.20881000  0.31078000  0.19952000  1.0
  C  C27  1  0.79119000  0.81079000  0.30048000  1.0
  C  C28  1  0.41671000  0.66553000  0.57505000  1.0
  C  C29  1  0.58328000  0.16554000  0.92495000  1.0
  C  C30  1  0.58327000  0.33446000  0.42495000  1.0
  C  C31  1  0.41674000  0.83447000  0.07505000  1.0
  S  S32  1  0.59307000  0.88116000  0.56322000  1.0
  S  S33  1  0.40693000  0.38116000  0.93678000  1.0
  S  S34  1  0.40692000  0.11885000  0.43678000  1.0
  S  S35  1  0.59308000  0.61885000  0.06322000  1.0
  N  N36  1  0.84143000  0.87694000  0.73838000  1.0
  N  N37  1  0.15858000  0.37694000  0.76162000  1.0
  N  N38  1  0.15857000  0.12306000  0.26162000  1.0
  N  N39  1  0.84143000  0.62306000  0.23838000  1.0
  N  N40  1  0.78421000  0.94350000  0.66230000  1.0
  N  N41  1  0.21579000  0.44351000  0.83770000  1.0
  N  N42  1  0.21580000  0.05649000  0.33770000  1.0
  N  N43  1  0.78420000  0.55650000  0.16230000  1.0
  O  O44  1  0.42091000  0.57885000  0.62640000  1.0
  O  O45  1  0.57906000  0.07885000  0.87360000  1.0
  O  O46  1  0.57905000  0.42115000  0.37360000  1.0
  O  O47  1  0.42096000  0.92115000  0.12641000  1.0
  O  O48  1  0.27626000  0.68132000  0.48691000  1.0
  O  O49  1  0.72375000  0.18132000  0.01309000  1.0
  O  O50  1  0.72372000  0.31868000  0.51308000  1.0
  O  O51  1  0.27627000  0.81869000  0.98692000  1.0
