# generated using pymatgen
data_CuH12C12SN3O5
_symmetry_space_group_name_H-M   'P 1'
_cell_length_a   7.72020000
_cell_length_b   9.29870000
_cell_length_c   10.80580000
_cell_angle_alpha   99.48880000
_cell_angle_beta   96.71370000
_cell_angle_gamma   94.13580000
_symmetry_Int_Tables_number   1
_chemical_formula_structural   CuH12C12SN3O5
_chemical_formula_sum   'Cu2 H24 C24 S2 N6 O10'
_cell_volume   756.55012003
_cell_formula_units_Z   2
loop_
 _symmetry_equiv_pos_site_id
 _symmetry_equiv_pos_as_xyz
  1  'x, y, z'
loop_
 _atom_site_type_symbol
 _atom_site_label
 _atom_site_symmetry_multiplicity
 _atom_site_fract_x
 _atom_site_fract_y
 _atom_site_fract_z
 _atom_site_occupancy
  Cu  Cu0  1  0.72723000  0.79513000  0.94272000  1.0
  Cu  Cu1  1  0.27277000  0.20487000  0.05728000  1.0
  H  H2  1  0.98518000  0.38545000  0.07183000  1.0
  H  H3  1  0.01481000  0.61456000  0.92817000  1.0
  H  H4  1  0.15709000  0.76585000  0.35923000  1.0
  H  H5  1  0.84292000  0.23415000  0.64077000  1.0
  H  H6  1  0.45859000  0.67517000  0.37360000  1.0
  H  H7  1  0.54140000  0.32482000  0.62641000  1.0
  H  H8  1  0.50365000  0.44217000  0.23688000  1.0
  H  H9  1  0.49635000  0.55782000  0.76313000  1.0
  H  H10  1  0.09191000  0.92127000  0.16469000  1.0
  H  H11  1  0.90809000  0.07873000  0.83530000  1.0
  H  H12  1  0.94025000  0.93121000  0.27726000  1.0
  H  H13  1  0.05977000  0.06880000  0.72273000  1.0
  H  H14  1  0.81566000  0.74671000  0.67345000  1.0
  H  H15  1  0.18435000  0.25329000  0.32656000  1.0
  H  H16  1  0.72027000  0.83305000  0.47548000  1.0
  H  H17  1  0.27975000  0.16694000  0.52452000  1.0
  H  H18  1  0.36931000  0.09668000  0.68215000  1.0
  H  H19  1  0.63069000  0.90332000  0.31784000  1.0
  H  H20  1  0.47327000  0.99179000  0.86771000  1.0
  H  H21  1  0.52672000  0.00821000  0.13228000  1.0
  H  H22  1  0.38253000  0.65676000  0.96247000  1.0
  H  H23  1  0.61746000  0.34324000  0.03754000  1.0
  H  H24  1  0.35766000  0.82476000  0.98549000  1.0
  H  H25  1  0.64233000  0.17524000  0.01451000  1.0
  C  C26  1  0.08625000  0.45440000  0.13819000  1.0
  C  C27  1  0.91375000  0.54560000  0.86180000  1.0
  C  C28  1  0.05061000  0.58444000  0.21071000  1.0
  C  C29  1  0.94939000  0.41556000  0.78928000  1.0
  C  C30  1  0.18364000  0.66600000  0.29889000  1.0
  C  C31  1  0.81637000  0.33400000  0.70111000  1.0
  C  C32  1  0.34924000  0.61557000  0.30828000  1.0
  C  C33  1  0.65076000  0.38443000  0.69173000  1.0
  C  C34  1  0.37597000  0.48501000  0.23235000  1.0
  C  C35  1  0.62402000  0.51499000  0.76766000  1.0
  C  C36  1  0.95120000  0.91385000  0.17527000  1.0
  C  C37  1  0.04880000  0.08615000  0.82472000  1.0
  C  C38  1  0.87439000  0.04161000  0.12321000  1.0
  C  C39  1  0.12561000  0.95840000  0.87678000  1.0
  C  C40  1  0.71263000  0.82033000  0.66957000  1.0
  C  C41  1  0.28738000  0.17966000  0.33044000  1.0
  C  C42  1  0.65972000  0.87241000  0.55922000  1.0
  C  C43  1  0.34029000  0.12758000  0.44078000  1.0
  C  C44  1  0.53093000  0.97189000  0.55809000  1.0
  C  C45  1  0.46908000  0.02810000  0.44191000  1.0
  C  C46  1  0.46477000  0.01620000  0.67254000  1.0
  C  C47  1  0.53523000  0.98379000  0.32745000  1.0
  C  C48  1  0.52365000  0.95858000  0.77873000  1.0
  C  C49  1  0.47635000  0.04141000  0.22127000  1.0
  S  S50  1  0.83803000  0.64758000  0.18553000  1.0
  S  S51  1  0.16198000  0.35242000  0.81447000  1.0
  N  N52  1  0.64423000  0.86111000  0.77777000  1.0
  N  N53  1  0.35577000  0.13889000  0.22223000  1.0
  N  N54  1  0.86139000  0.77501000  0.10698000  1.0
  N  N55  1  0.13860000  0.22500000  0.89302000  1.0
  N  N56  1  0.24587000  0.40556000  0.15031000  1.0
  N  N57  1  0.75413000  0.59443000  0.84969000  1.0
  O  O58  1  0.44445000  0.75349000  0.99713000  1.0
  O  O59  1  0.55554000  0.24651000  0.00289000  1.0
  O  O60  1  0.75995000  0.00712000  0.02130000  1.0
  O  O61  1  0.24005000  0.99288000  0.97870000  1.0
  O  O62  1  0.91907000  0.16984000  0.17614000  1.0
  O  O63  1  0.08093000  0.83017000  0.82385000  1.0
  O  O64  1  0.72543000  0.52670000  0.10736000  1.0
  O  O65  1  0.27457000  0.47331000  0.89265000  1.0
  O  O66  1  0.79568000  0.69856000  0.31296000  1.0
  O  O67  1  0.20433000  0.30145000  0.68705000  1.0
