# generated using pymatgen
data_AlH5C10O5F
_symmetry_space_group_name_H-M   'P 1'
_cell_length_a   6.62534000
_cell_length_b   8.84201000
_cell_length_c   17.75730046
_cell_angle_alpha   95.63615138
_cell_angle_beta   100.37469962
_cell_angle_gamma   104.41540000
_symmetry_Int_Tables_number   1
_chemical_formula_structural   AlH5C10O5F
_chemical_formula_sum   'Al2 H10 C20 O10 F2'
_cell_volume   979.78921883
_cell_formula_units_Z   2
loop_
 _symmetry_equiv_pos_site_id
 _symmetry_equiv_pos_as_xyz
  1  'x, y, z'
loop_
 _atom_site_type_symbol
 _atom_site_label
 _atom_site_symmetry_multiplicity
 _atom_site_fract_x
 _atom_site_fract_y
 _atom_site_fract_z
 _atom_site_occupancy
  Al  Al0  1  0.99834000  0.49930000  0.50238000  1.0
  Al  Al1  1  0.49686000  0.49643000  0.50075000  1.0
  H  H2  1  0.16183000  0.38889000  0.40774000  1.0
  H  H3  1  0.83109000  0.68777000  0.55290000  1.0
  H  H4  1  0.09032000  0.57343000  0.73730000  1.0
  H  H5  1  0.16410000  0.58098000  0.88096000  1.0
  H  H6  1  0.69703000  0.38846000  0.86688000  1.0
  H  H7  1  0.62658000  0.38870000  0.72384000  1.0
  H  H8  1  0.31212000  0.61359000  0.13370000  1.0
  H  H9  1  0.37835000  0.61049000  0.27633000  1.0
  H  H10  1  0.90491000  0.41412000  0.26268000  1.0
  H  H11  1  0.83540000  0.41001000  0.11969000  1.0
  C  C12  1  0.66107000  0.21902000  0.49916000  1.0
  C  C13  1  0.67676000  0.50273000  0.36260000  1.0
  C  C14  1  0.33933000  0.78168000  0.50686000  1.0
  C  C15  1  0.31901000  0.48785000  0.63772000  1.0
  C  C16  1  0.35554000  0.48233000  0.72247000  1.0
  C  C17  1  0.22311000  0.53411000  0.76658000  1.0
  C  C18  1  0.26386000  0.53765000  0.84631000  1.0
  C  C19  1  0.43713000  0.48689000  0.88364000  1.0
  C  C20  1  0.56558000  0.43026000  0.83843000  1.0
  C  C21  1  0.52595000  0.42952000  0.75892000  1.0
  C  C22  1  0.48289000  0.49469000  0.96507000  1.0
  C  C23  1  0.52346000  0.50345000  0.03551000  1.0
  C  C24  1  0.56759000  0.51004000  0.11687000  1.0
  C  C25  1  0.44058000  0.56872000  0.16207000  1.0
  C  C26  1  0.47765000  0.56735000  0.24143000  1.0
  C  C27  1  0.64395000  0.51035000  0.27800000  1.0
  C  C28  1  0.77515000  0.45704000  0.23383000  1.0
  C  C29  1  0.73703000  0.45541000  0.15425000  1.0
  C  C30  1  0.60072000  0.04670000  0.50449000  1.0
  C  C31  1  0.40144000  0.95427000  0.50205000  1.0
  O  O32  1  0.85915000  0.28512000  0.51074000  1.0
  O  O33  1  0.52802000  0.52237000  0.39602000  1.0
  O  O34  1  0.48831000  0.71474000  0.51953000  1.0
  O  O35  1  0.14952000  0.52076000  0.60633000  1.0
  O  O36  1  0.14063000  0.71839000  0.49766000  1.0
  O  O37  1  0.46201000  0.46322000  0.60265000  1.0
  O  O38  1  0.51066000  0.28324000  0.48323000  1.0
  O  O39  1  0.84883000  0.47425000  0.39528000  1.0
  O  O40  1  0.20524000  0.43062000  0.46241000  1.0
  O  O41  1  0.78944000  0.57397000  0.53776000  1.0
  F  F42  1  0.76734000  0.98385000  0.51342000  1.0
  F  F43  1  0.23586000  0.01778000  0.49362000  1.0
