# generated using pymatgen
data_ZnH9C9NO5
_symmetry_space_group_name_H-M   'P 1'
_cell_length_a   6.02654000
_cell_length_b   9.27547000
_cell_length_c   17.82540000
_cell_angle_alpha   89.99990000
_cell_angle_beta   89.99970000
_cell_angle_gamma   90.00000000
_symmetry_Int_Tables_number   1
_chemical_formula_structural   ZnH9C9NO5
_chemical_formula_sum   'Zn4 H36 C36 N4 O20'
_cell_volume   996.42187369
_cell_formula_units_Z   4
loop_
 _symmetry_equiv_pos_site_id
 _symmetry_equiv_pos_as_xyz
  1  'x, y, z'
loop_
 _atom_site_type_symbol
 _atom_site_label
 _atom_site_symmetry_multiplicity
 _atom_site_fract_x
 _atom_site_fract_y
 _atom_site_fract_z
 _atom_site_occupancy
  Zn  Zn0  1  0.55322000  0.24817000  0.44032000  1.0
  Zn  Zn1  1  0.94678000  0.75182000  0.94032000  1.0
  Zn  Zn2  1  0.44678000  0.74818000  0.05968000  1.0
  Zn  Zn3  1  0.05322000  0.25183000  0.55968000  1.0
  H  H4  1  0.62664000  0.12554000  0.32069000  1.0
  H  H5  1  0.87337000  0.87446000  0.82069000  1.0
  H  H6  1  0.37335000  0.62554000  0.17931000  1.0
  H  H7  1  0.12664000  0.37446000  0.67931000  1.0
  H  H8  1  0.48703000  0.45497000  0.31495000  1.0
  H  H9  1  0.01297000  0.54503000  0.81495000  1.0
  H  H10  1  0.51295000  0.95496000  0.18505000  1.0
  H  H11  1  0.98705000  0.04504000  0.68505000  1.0
  H  H12  1  0.49781000  0.72097000  0.28982000  1.0
  H  H13  1  0.00219000  0.27903000  0.78982000  1.0
  H  H14  1  0.50217000  0.22097000  0.21018000  1.0
  H  H15  1  0.99783000  0.77903000  0.71018000  1.0
  H  H16  1  0.58757000  0.78776000  0.52668000  1.0
  H  H17  1  0.91244000  0.21224000  0.02668000  1.0
  H  H18  1  0.41244000  0.28776000  0.97332000  1.0
  H  H19  1  0.08757000  0.71224000  0.47332000  1.0
  H  H20  1  0.58630000  0.51806000  0.54249000  1.0
  H  H21  1  0.91371000  0.48194000  0.04249000  1.0
  H  H22  1  0.41371000  0.01806000  0.95751000  1.0
  H  H23  1  0.08630000  0.98194000  0.45751000  1.0
  H  H24  1  0.96648000  0.15381000  0.28250000  1.0
  H  H25  1  0.53352000  0.84619000  0.78251000  1.0
  H  H26  1  0.03350000  0.65381000  0.21750000  1.0
  H  H27  1  0.46649000  0.34619000  0.71750000  1.0
  H  H28  1  0.85997000  0.39560000  0.22538000  1.0
  H  H29  1  0.64003000  0.60441000  0.72538000  1.0
  H  H30  1  0.14003000  0.89560000  0.27462000  1.0
  H  H31  1  0.35996000  0.10440000  0.77462000  1.0
  H  H32  1  0.13891000  0.38825000  0.25966000  1.0
  H  H33  1  0.36109000  0.61175000  0.75966000  1.0
  H  H34  1  0.86106000  0.88825000  0.24034000  1.0
  H  H35  1  0.63893000  0.11175000  0.74034000  1.0
  H  H36  1  0.92852000  0.47917000  0.31208000  1.0
  H  H37  1  0.57148000  0.52083000  0.81208000  1.0
  H  H38  1  0.07147000  0.97917000  0.18792000  1.0
  H  H39  1  0.42852000  0.02083000  0.68792000  1.0
  C  C40  1  0.50902000  0.53203000  0.36039000  1.0
  C  C41  1  0.99098000  0.46798000  0.86039000  1.0
  C  C42  1  0.49097000  0.03202000  0.13961000  1.0
  C  C43  1  0.00904000  0.96797000  0.63961000  1.0
  C  C44  1  0.51549000  0.67949000  0.34666000  1.0
  C  C45  1  0.98451000  0.32051000  0.84666000  1.0
  C  C46  1  0.48451000  0.17949000  0.15334000  1.0
  C  C47  1  0.01549000  0.82051000  0.65334000  1.0
  C  C48  1  0.54666000  0.77430000  0.40668000  1.0
  C  C49  1  0.95334000  0.22570000  0.90668000  1.0
  C  C50  1  0.45333000  0.27430000  0.09332000  1.0
  C  C51  1  0.04668000  0.72569000  0.59332000  1.0
  C  C52  1  0.56731000  0.71648000  0.47872000  1.0
  C  C53  1  0.93270000  0.28352000  0.97871000  1.0
  C  C54  1  0.43269000  0.21648000  0.02128000  1.0
  C  C55  1  0.06731000  0.78352000  0.52129000  1.0
  C  C56  1  0.56410000  0.56741000  0.48763000  1.0
  C  C57  1  0.93591000  0.43259000  0.98764000  1.0
  C  C58  1  0.43591000  0.06740000  0.01237000  1.0
  C  C59  1  0.06409000  0.93260000  0.51237000  1.0
  C  C60  1  0.56065000  0.93442000  0.39234000  1.0
  C  C61  1  0.93935000  0.06558000  0.89234000  1.0
  C  C62  1  0.43935000  0.43442000  0.10766000  1.0
  C  C63  1  0.06066000  0.56558000  0.60766000  1.0
  C  C64  1  0.03341000  0.23897000  0.39083000  1.0
  C  C65  1  0.46660000  0.76103000  0.89083000  1.0
  C  C66  1  0.96658000  0.73896000  0.10917000  1.0
  C  C67  1  0.53341000  0.26103000  0.60917000  1.0
  C  C68  1  0.90717000  0.24555000  0.31626000  1.0
  C  C69  1  0.59283000  0.75445000  0.81626000  1.0
  C  C70  1  0.09282000  0.74555000  0.18374000  1.0
  C  C71  1  0.40718000  0.25445000  0.68374000  1.0
  C  C72  1  0.96346000  0.38610000  0.27582000  1.0
  C  C73  1  0.53654000  0.61390000  0.77581000  1.0
  C  C74  1  0.03652000  0.88611000  0.22418000  1.0
  C  C75  1  0.46347000  0.11389000  0.72418000  1.0
  N  N76  1  0.53694000  0.47632000  0.42964000  1.0
  N  N77  1  0.96306000  0.52368000  0.92964000  1.0
  N  N78  1  0.46305000  0.97631000  0.07036000  1.0
  N  N79  1  0.03695000  0.02369000  0.57036000  1.0
  O  O80  1  0.56783000  0.97254000  0.32372000  1.0
  O  O81  1  0.93217000  0.02746000  0.82372000  1.0
  O  O82  1  0.43216000  0.47254000  0.17628000  1.0
  O  O83  1  0.06784000  0.52746000  0.67628000  1.0
  O  O84  1  0.56720000  0.01787000  0.44898000  1.0
  O  O85  1  0.93281000  0.98213000  0.94898000  1.0
  O  O86  1  0.43280000  0.51787000  0.05102000  1.0
  O  O87  1  0.06719000  0.48213000  0.55102000  1.0
  O  O88  1  0.92013000  0.24972000  0.45194000  1.0
  O  O89  1  0.57987000  0.75028000  0.95194000  1.0
  O  O90  1  0.07986000  0.74972000  0.04806000  1.0
  O  O91  1  0.42013000  0.25028000  0.54806000  1.0
  O  O92  1  0.67289000  0.23357000  0.32618000  1.0
  O  O93  1  0.82711000  0.76643000  0.82618000  1.0
  O  O94  1  0.32710000  0.73357000  0.17382000  1.0
  O  O95  1  0.17289000  0.26643000  0.67382000  1.0
  O  O96  1  0.23971000  0.22413000  0.38685000  1.0
  O  O97  1  0.26029000  0.77587000  0.88685000  1.0
  O  O98  1  0.76027000  0.72413000  0.11316000  1.0
  O  O99  1  0.73972000  0.27587000  0.61316000  1.0
