# generated using pymatgen
data_CdH10C14(SN3)2
_symmetry_space_group_name_H-M   'P 1'
_cell_length_a   3.82154000
_cell_length_b   9.17250000
_cell_length_c   11.54372417
_cell_angle_alpha   73.84574049
_cell_angle_beta   85.21852653
_cell_angle_gamma   85.55520000
_symmetry_Int_Tables_number   1
_chemical_formula_structural   CdH10C14(SN3)2
_chemical_formula_sum   'Cd1 H10 C14 S2 N6'
_cell_volume   386.68964425
_cell_formula_units_Z   1
loop_
 _symmetry_equiv_pos_site_id
 _symmetry_equiv_pos_as_xyz
  1  'x, y, z'
loop_
 _atom_site_type_symbol
 _atom_site_label
 _atom_site_symmetry_multiplicity
 _atom_site_fract_x
 _atom_site_fract_y
 _atom_site_fract_z
 _atom_site_occupancy
  Cd  Cd0  1  0.00001000  0.00000000  0.00000000  1.0
  H  H1  1  0.70508000  0.33790000  0.99753000  1.0
  H  H2  1  0.29498000  0.66210000  0.00246000  1.0
  H  H3  1  0.66909000  0.51796000  0.12934000  1.0
  H  H4  1  0.33091000  0.48204000  0.87065000  1.0
  H  H5  1  0.91571000  0.43077000  0.33128000  1.0
  H  H6  1  0.08425000  0.56922000  0.66873000  1.0
  H  H7  1  0.19299000  0.99745000  0.26019000  1.0
  H  H8  1  0.80704000  0.00255000  0.73981000  1.0
  H  H9  1  0.19982000  0.21097000  0.49434000  1.0
  H  H10  1  0.80015000  0.78903000  0.50566000  1.0
  C  C11  1  0.80983000  0.30556000  0.08663000  1.0
  C  C12  1  0.19022000  0.69444000  0.91336000  1.0
  C  C13  1  0.79136000  0.40384000  0.15970000  1.0
  C  C14  1  0.20865000  0.59617000  0.84029000  1.0
  C  C15  1  0.92883000  0.35467000  0.27314000  1.0
  C  C16  1  0.07115000  0.64533000  0.72686000  1.0
  C  C17  1  0.08529000  0.20751000  0.30968000  1.0
  C  C18  1  0.91470000  0.79249000  0.69032000  1.0
  C  C19  1  0.08384000  0.11402000  0.23182000  1.0
  C  C20  1  0.91618000  0.88598000  0.76818000  1.0
  C  C21  1  0.24342000  0.14851000  0.42521000  1.0
  C  C22  1  0.75655000  0.85149000  0.57480000  1.0
  C  C23  1  0.44142000  0.77018000  0.21138000  1.0
  C  C24  1  0.55857000  0.22982000  0.78862000  1.0
  S  S25  1  0.36089000  0.66071000  0.34389000  1.0
  S  S26  1  0.63906000  0.33929000  0.65611000  1.0
  N  N27  1  0.95148000  0.16183000  0.12325000  1.0
  N  N28  1  0.04856000  0.83817000  0.87675000  1.0
  N  N29  1  0.43552000  0.02251000  0.44335000  1.0
  N  N30  1  0.56448000  0.97750000  0.55664000  1.0
  N  N31  1  0.49452000  0.85408000  0.11144000  1.0
  N  N32  1  0.50550000  0.14591000  0.88857000  1.0
