# generated using pymatgen
data_ZnH12C16(NO3)2
_symmetry_space_group_name_H-M   'P 1'
_cell_length_a   6.95133000
_cell_length_b   14.96910000
_cell_length_c   16.13640000
_cell_angle_alpha   107.39200000
_cell_angle_beta   90.00000000
_cell_angle_gamma   90.00000000
_symmetry_Int_Tables_number   1
_chemical_formula_structural   ZnH12C16(NO3)2
_chemical_formula_sum   'Zn4 H48 C64 N8 O24'
_cell_volume   1602.31173071
_cell_formula_units_Z   4
loop_
 _symmetry_equiv_pos_site_id
 _symmetry_equiv_pos_as_xyz
  1  'x, y, z'
loop_
 _atom_site_type_symbol
 _atom_site_label
 _atom_site_symmetry_multiplicity
 _atom_site_fract_x
 _atom_site_fract_y
 _atom_site_fract_z
 _atom_site_occupancy
  Zn  Zn0  1  0.73393000  0.96594000  0.67973000  1.0
  Zn  Zn1  1  0.23394000  0.53405000  0.82027000  1.0
  Zn  Zn2  1  0.26606000  0.03405000  0.32027000  1.0
  Zn  Zn3  1  0.76607000  0.46594000  0.17973000  1.0
  H  H4  1  0.21758000  0.11953000  0.15574000  1.0
  H  H5  1  0.71758000  0.38048000  0.34426000  1.0
  H  H6  1  0.78243000  0.88048000  0.84426000  1.0
  H  H7  1  0.28242000  0.61953000  0.65574000  1.0
  H  H8  1  0.85554000  0.16712000  0.69250000  1.0
  H  H9  1  0.35556000  0.33287000  0.80750000  1.0
  H  H10  1  0.14443000  0.83288000  0.30751000  1.0
  H  H11  1  0.64445000  0.66712000  0.19250000  1.0
  H  H12  1  0.90032000  0.25979000  0.58948000  1.0
  H  H13  1  0.40033000  0.24020000  0.91052000  1.0
  H  H14  1  0.09964000  0.74021000  0.41053000  1.0
  H  H15  1  0.59968000  0.75980000  0.08948000  1.0
  H  H16  1  0.83345000  0.17989000  0.42887000  1.0
  H  H17  1  0.33345000  0.32011000  0.07114000  1.0
  H  H18  1  0.16653000  0.82011000  0.57114000  1.0
  H  H19  1  0.66655000  0.67989000  0.92886000  1.0
  H  H20  1  0.74116000  0.01210000  0.38179000  1.0
  H  H21  1  0.24116000  0.48790000  0.11821000  1.0
  H  H22  1  0.25884000  0.98790000  0.61822000  1.0
  H  H23  1  0.75884000  0.51210000  0.88179000  1.0
  H  H24  1  0.65518000  0.87239000  0.35321000  1.0
  H  H25  1  0.15519000  0.62760000  0.14679000  1.0
  H  H26  1  0.34481000  0.12761000  0.64679000  1.0
  H  H27  1  0.84483000  0.37240000  0.85321000  1.0
  H  H28  1  0.57745000  0.70305000  0.33065000  1.0
  H  H29  1  0.07746000  0.79695000  0.16935000  1.0
  H  H30  1  0.42253000  0.29696000  0.66934000  1.0
  H  H31  1  0.92254000  0.20305000  0.83065000  1.0
  H  H32  1  0.58494000  0.64037000  0.45702000  1.0
  H  H33  1  0.08496000  0.85962000  0.04297000  1.0
  H  H34  1  0.41504000  0.35962000  0.54297000  1.0
  H  H35  1  0.91505000  0.14037000  0.95703000  1.0
  H  H36  1  0.65693000  0.75017000  0.60467000  1.0
  H  H37  1  0.15695000  0.74982000  0.89533000  1.0
  H  H38  1  0.34305000  0.24982000  0.39532000  1.0
  H  H39  1  0.84306000  0.25017000  0.10467000  1.0
  H  H40  1  0.47358000  0.13197000  0.97180000  1.0
  H  H41  1  0.97357000  0.36804000  0.52820000  1.0
  H  H42  1  0.52643000  0.86804000  0.02820000  1.0
  H  H43  1  0.02643000  0.63197000  0.47180000  1.0
  H  H44  1  0.10971000  0.93954000  0.89828000  1.0
  H  H45  1  0.60972000  0.56047000  0.60172000  1.0
  H  H46  1  0.89028000  0.06047000  0.10172000  1.0
  H  H47  1  0.39029000  0.43954000  0.39827000  1.0
  H  H48  1  0.25633000  0.88814000  0.80640000  1.0
  H  H49  1  0.75633000  0.61187000  0.69361000  1.0
  H  H50  1  0.74367000  0.11187000  0.19361000  1.0
  H  H51  1  0.24367000  0.38813000  0.30639000  1.0
  C  C52  1  0.83123000  0.13592000  0.62319000  1.0
  C  C53  1  0.33123000  0.36407000  0.87681000  1.0
  C  C54  1  0.16876000  0.86407000  0.37682000  1.0
  C  C55  1  0.66877000  0.63593000  0.12319000  1.0
  C  C56  1  0.85419000  0.18695000  0.56454000  1.0
  C  C57  1  0.35420000  0.31305000  0.93546000  1.0
  C  C58  1  0.14579000  0.81305000  0.43547000  1.0
  C  C59  1  0.64581000  0.68695000  0.06454000  1.0
  C  C60  1  0.81905000  0.14208000  0.47681000  1.0
  C  C61  1  0.31905000  0.35792000  0.02319000  1.0
  C  C62  1  0.18094000  0.85793000  0.52320000  1.0
  C  C63  1  0.68095000  0.64208000  0.97680000  1.0
  C  C64  1  0.76588000  0.04790000  0.45036000  1.0
  C  C65  1  0.26588000  0.45210000  0.04964000  1.0
  C  C66  1  0.23411000  0.95211000  0.54965000  1.0
  C  C67  1  0.73413000  0.54790000  0.95036000  1.0
  C  C68  1  0.74715000  0.00077000  0.51294000  1.0
  C  C69  1  0.24717000  0.49923000  0.98706000  1.0
  C  C70  1  0.25283000  0.99923000  0.48706000  1.0
  C  C71  1  0.75285000  0.50077000  0.01294000  1.0
  C  C72  1  0.69615000  0.90035000  0.49200000  1.0
  C  C73  1  0.19618000  0.59964000  0.00800000  1.0
  C  C74  1  0.30383000  0.09965000  0.50799000  1.0
  C  C75  1  0.80384000  0.40035000  0.99201000  1.0
  C  C76  1  0.65417000  0.84375000  0.40786000  1.0
  C  C77  1  0.15419000  0.65625000  0.09214000  1.0
  C  C78  1  0.34582000  0.15626000  0.59214000  1.0
  C  C79  1  0.84582000  0.34374000  0.90786000  1.0
  C  C80  1  0.61113000  0.74969000  0.39490000  1.0
  C  C81  1  0.11114000  0.75030000  0.10510000  1.0
  C  C82  1  0.38886000  0.25031000  0.60509000  1.0
  C  C83  1  0.88886000  0.24969000  0.89490000  1.0
  C  C84  1  0.61235000  0.71395000  0.46536000  1.0
  C  C85  1  0.11237000  0.78605000  0.03464000  1.0
  C  C86  1  0.38762000  0.28605000  0.53463000  1.0
  C  C87  1  0.88764000  0.21395000  0.96536000  1.0
  C  C88  1  0.65458000  0.77426000  0.54720000  1.0
  C  C89  1  0.15460000  0.72573000  0.95279000  1.0
  C  C90  1  0.34540000  0.22573000  0.45279000  1.0
  C  C91  1  0.84541000  0.27426000  0.04720000  1.0
  C  C92  1  0.46024000  0.04720000  0.80577000  1.0
  C  C93  1  0.96024000  0.45280000  0.69423000  1.0
  C  C94  1  0.53976000  0.95280000  0.19422000  1.0
  C  C95  1  0.03977000  0.54720000  0.30577000  1.0
  C  C96  1  0.32952000  0.02916000  0.87413000  1.0
  C  C97  1  0.82951000  0.47084000  0.62587000  1.0
  C  C98  1  0.67049000  0.97084000  0.12587000  1.0
  C  C99  1  0.17048000  0.52916000  0.37413000  1.0
  C  C100  1  0.36287000  0.07796000  0.95794000  1.0
  C  C101  1  0.86285000  0.42205000  0.54206000  1.0
  C  C102  1  0.63714000  0.92205000  0.04206000  1.0
  C  C103  1  0.13714000  0.57795000  0.45794000  1.0
  C  C104  1  0.26943000  0.06169000  0.03441000  1.0
  C  C105  1  0.76941000  0.43831000  0.46559000  1.0
  C  C106  1  0.73060000  0.93831000  0.96560000  1.0
  C  C107  1  0.23058000  0.56169000  0.53441000  1.0
  C  C108  1  0.03382000  0.97379000  0.78266000  1.0
  C  C109  1  0.53381000  0.52622000  0.71734000  1.0
  C  C110  1  0.96618000  0.02622000  0.21734000  1.0
  C  C111  1  0.46618000  0.47379000  0.28266000  1.0
  C  C112  1  0.18301000  0.95307000  0.84327000  1.0
  C  C113  1  0.68302000  0.54693000  0.65673000  1.0
  C  C114  1  0.81698000  0.04693000  0.15674000  1.0
  C  C115  1  0.31698000  0.45307000  0.34327000  1.0
  N  N116  1  0.77825000  0.04575000  0.59816000  1.0
  N  N117  1  0.27826000  0.45424000  0.90184000  1.0
  N  N118  1  0.22173000  0.95425000  0.40185000  1.0
  N  N119  1  0.72175000  0.54575000  0.09816000  1.0
  N  N120  1  0.69472000  0.86515000  0.56022000  1.0
  N  N121  1  0.19474000  0.63484000  0.93978000  1.0
  N  N122  1  0.30526000  0.13484000  0.43978000  1.0
  N  N123  1  0.80527000  0.36515000  0.06022000  1.0
  O  O124  1  0.48547000  0.97324000  0.73905000  1.0
  O  O125  1  0.98548000  0.52676000  0.76095000  1.0
  O  O126  1  0.51452000  0.02675000  0.26095000  1.0
  O  O127  1  0.01452000  0.47325000  0.23905000  1.0
  O  O128  1  0.54086000  0.12416000  0.81618000  1.0
  O  O129  1  0.04087000  0.37584000  0.68382000  1.0
  O  O130  1  0.45914000  0.87583000  0.18382000  1.0
  O  O131  1  0.95914000  0.62417000  0.31618000  1.0
  O  O132  1  0.89312000  0.91325000  0.75947000  1.0
  O  O133  1  0.39312000  0.58676000  0.74053000  1.0
  O  O134  1  0.10688000  0.08676000  0.24053000  1.0
  O  O135  1  0.60687000  0.41325000  0.25947000  1.0
  O  O136  1  0.04385000  0.04366000  0.75553000  1.0
  O  O137  1  0.54385000  0.45634000  0.74447000  1.0
  O  O138  1  0.95614000  0.95634000  0.24448000  1.0
  O  O139  1  0.45614000  0.54366000  0.25552000  1.0
  O  O140  1  0.19271000  0.98792000  0.03541000  1.0
  O  O141  1  0.69265000  0.51209000  0.46459000  1.0
  O  O142  1  0.80738000  0.01209000  0.96460000  1.0
  O  O143  1  0.30735000  0.48791000  0.53541000  1.0
  O  O144  1  0.28019000  0.13671000  0.10609000  1.0
  O  O145  1  0.78019000  0.36330000  0.39392000  1.0
  O  O146  1  0.71982000  0.86330000  0.89392000  1.0
  O  O147  1  0.21980000  0.63671000  0.60608000  1.0
