# generated using pymatgen
data_Al2H10C17S2O11
_symmetry_space_group_name_H-M   'P 1'
_cell_length_a   6.85961000
_cell_length_b   11.14410000
_cell_length_c   12.56680000
_cell_angle_alpha   74.69070000
_cell_angle_beta   77.21010000
_cell_angle_gamma   72.10990000
_symmetry_Int_Tables_number   1
_chemical_formula_structural   Al2H10C17S2O11
_chemical_formula_sum   'Al2 H10 C17 S2 O11'
_cell_volume   871.41038317
_cell_formula_units_Z   1
loop_
 _symmetry_equiv_pos_site_id
 _symmetry_equiv_pos_as_xyz
  1  'x, y, z'
loop_
 _atom_site_type_symbol
 _atom_site_label
 _atom_site_symmetry_multiplicity
 _atom_site_fract_x
 _atom_site_fract_y
 _atom_site_fract_z
 _atom_site_occupancy
  Al  Al0  1  0.50101000  0.50029000  0.49718000  1.0
  Al  Al1  1  0.00240000  0.49695000  0.49901000  1.0
  H  H2  1  0.25477000  0.59756000  0.36471000  1.0
  H  H3  1  0.78825000  0.34621000  0.58683000  1.0
  H  H4  1  0.13050000  0.11505000  0.49690000  1.0
  H  H5  1  0.75512000  0.11742000  0.50385000  1.0
  H  H6  1  0.25322000  0.88104000  0.49504000  1.0
  H  H7  1  0.61756000  0.49144000  0.12928000  1.0
  H  H8  1  0.93929000  0.78398000  0.50252000  1.0
  H  H9  1  0.51534000  0.51235000  0.78325000  1.0
  H  H10  1  0.45776000  0.59167000  0.89716000  1.0
  H  H11  1  0.53548000  0.42051000  0.92130000  1.0
  C  C12  1  0.82527000  0.51082000  0.29983000  1.0
  C  C13  1  0.63940000  0.72781000  0.49598000  1.0
  C  C14  1  0.17891000  0.49110000  0.69484000  1.0
  C  C15  1  0.36304000  0.27050000  0.50320000  1.0
  C  C16  1  0.57209000  0.86629000  0.49842000  1.0
  C  C17  1  0.43566000  0.13012000  0.50115000  1.0
  C  C18  1  0.71549000  0.93387000  0.50144000  1.0
  C  C19  1  0.29310000  0.06361000  0.49837000  1.0
  C  C20  1  0.64469000  0.06577000  0.50239000  1.0
  C  C21  1  0.36202000  0.93348000  0.49703000  1.0
  C  C22  1  0.22816000  0.50288000  0.89068000  1.0
  C  C23  1  0.77755000  0.49695000  0.10589000  1.0
  C  C24  1  0.11906000  0.49341000  0.81399000  1.0
  C  C25  1  0.88942000  0.50629000  0.18126000  1.0
  C  C26  1  0.89992000  0.49501000  0.99940000  1.0
  C  C27  1  0.10194000  0.50342000  0.99610000  1.0
  C  C28  1  0.44565000  0.50798000  0.87068000  1.0
  S  S29  1  0.86873000  0.48531000  0.86998000  1.0
  S  S30  1  0.14279000  0.51205000  0.12372000  1.0
  O  O31  1  0.63974000  0.50821000  0.34399000  1.0
  O  O32  1  0.83370000  0.67054000  0.50000000  1.0
  O  O33  1  0.03640000  0.48387000  0.64770000  1.0
  O  O34  1  0.49838000  0.32527000  0.50814000  1.0
  O  O35  1  0.36166000  0.49587000  0.64740000  1.0
  O  O36  1  0.17013000  0.32439000  0.50065000  1.0
  O  O37  1  0.96650000  0.51799000  0.34808000  1.0
  O  O38  1  0.50698000  0.67292000  0.48909000  1.0
  O  O39  1  0.24117000  0.56194000  0.44447000  1.0
  O  O40  1  0.76126000  0.43625000  0.54900000  1.0
  O  O41  1  0.91938000  0.87674000  0.50320000  1.0
