# generated using pymatgen
data_CdH8C8I2(N2O)2
_symmetry_space_group_name_H-M   'P 1'
_cell_length_a   4.17328000
_cell_length_b   7.79880000
_cell_length_c   20.43860000
_cell_angle_alpha   89.99960000
_cell_angle_beta   90.49180000
_cell_angle_gamma   89.99990000
_symmetry_Int_Tables_number   1
_chemical_formula_structural   CdH8C8I2(N2O)2
_chemical_formula_sum   'Cd2 H16 C16 I4 N8 O4'
_cell_volume   665.18194448
_cell_formula_units_Z   2
loop_
 _symmetry_equiv_pos_site_id
 _symmetry_equiv_pos_as_xyz
  1  'x, y, z'
loop_
 _atom_site_type_symbol
 _atom_site_label
 _atom_site_symmetry_multiplicity
 _atom_site_fract_x
 _atom_site_fract_y
 _atom_site_fract_z
 _atom_site_occupancy
  Cd  Cd0  1  0.50000000  0.50000000  0.50000000  1.0
  Cd  Cd1  1  0.49999000  0.00000000  0.00000000  1.0
  H  H2  1  0.31316000  0.88200000  0.55790000  1.0
  H  H3  1  0.68686000  0.38201000  0.94211000  1.0
  H  H4  1  0.68686000  0.11800000  0.44211000  1.0
  H  H5  1  0.31315000  0.61798000  0.05789000  1.0
  H  H6  1  0.79644000  0.48767000  0.65526000  1.0
  H  H7  1  0.20356000  0.98769000  0.84476000  1.0
  H  H8  1  0.20353000  0.51233000  0.34475000  1.0
  H  H9  1  0.79641000  0.01231000  0.15524000  1.0
  H  H10  1  0.49408000  0.09261000  0.64539000  1.0
  H  H11  1  0.50596000  0.59262000  0.85461000  1.0
  H  H12  1  0.50593000  0.90740000  0.35461000  1.0
  H  H13  1  0.49407000  0.40737000  0.14539000  1.0
  H  H14  1  0.84310000  0.99995000  0.72778000  1.0
  H  H15  1  0.15691000  0.49996000  0.77222000  1.0
  H  H16  1  0.15690000  0.00005000  0.27222000  1.0
  H  H17  1  0.84308000  0.50005000  0.22778000  1.0
  C  C18  1  0.46012000  0.84264000  0.59953000  1.0
  C  C19  1  0.53990000  0.34265000  0.90048000  1.0
  C  C20  1  0.53987000  0.15737000  0.40047000  1.0
  C  C21  1  0.46011000  0.65734000  0.09952000  1.0
  C  C22  1  0.72616000  0.62248000  0.65325000  1.0
  C  C23  1  0.27384000  0.12249000  0.84675000  1.0
  C  C24  1  0.27382000  0.37751000  0.34675000  1.0
  C  C25  1  0.72615000  0.87750000  0.15324000  1.0
  C  C26  1  0.55835000  0.95740000  0.64651000  1.0
  C  C27  1  0.44167000  0.45740000  0.85349000  1.0
  C  C28  1  0.44166000  0.04261000  0.35349000  1.0
  C  C29  1  0.55832000  0.54259000  0.14650000  1.0
  C  C30  1  0.84734000  0.73671000  0.70341000  1.0
  C  C31  1  0.15269000  0.23672000  0.79659000  1.0
  C  C32  1  0.15266000  0.26328000  0.29659000  1.0
  C  C33  1  0.84731000  0.76329000  0.20340000  1.0
  I  I34  1  0.98207000  0.73345000  0.44876000  1.0
  I  I35  1  0.01793000  0.23344000  0.05125000  1.0
  I  I36  1  0.01793000  0.26656000  0.55124000  1.0
  I  I37  1  0.98208000  0.76656000  0.94876000  1.0
  N  N38  1  0.55009000  0.67508000  0.60331000  1.0
  N  N39  1  0.44993000  0.17510000  0.89670000  1.0
  N  N40  1  0.44991000  0.32492000  0.39669000  1.0
  N  N41  1  0.55007000  0.82490000  0.10330000  1.0
  N  N42  1  0.74820000  0.90463000  0.69649000  1.0
  N  N43  1  0.25184000  0.40464000  0.80352000  1.0
  N  N44  1  0.25180000  0.09537000  0.30351000  1.0
  N  N45  1  0.74819000  0.59535000  0.19649000  1.0
  O  O46  1  0.03459000  0.69450000  0.74923000  1.0
  O  O47  1  0.96544000  0.19450000  0.75077000  1.0
  O  O48  1  0.96541000  0.30550000  0.25077000  1.0
  O  O49  1  0.03456000  0.80550000  0.24922000  1.0
