# generated using pymatgen
data_K2CuH8C10O11
_symmetry_space_group_name_H-M   'P 1'
_cell_length_a   7.77077000
_cell_length_b   10.64430000
_cell_length_c   10.66040000
_cell_angle_alpha   66.41800000
_cell_angle_beta   73.63300000
_cell_angle_gamma   89.80010000
_symmetry_Int_Tables_number   1
_chemical_formula_structural   K2CuH8C10O11
_chemical_formula_sum   'K4 Cu2 H16 C20 O22'
_cell_volume   769.37566326
_cell_formula_units_Z   2
loop_
 _symmetry_equiv_pos_site_id
 _symmetry_equiv_pos_as_xyz
  1  'x, y, z'
loop_
 _atom_site_type_symbol
 _atom_site_label
 _atom_site_symmetry_multiplicity
 _atom_site_fract_x
 _atom_site_fract_y
 _atom_site_fract_z
 _atom_site_occupancy
  K  K0  1  0.83285000  0.48275000  0.80606000  1.0
  K  K1  1  0.16717000  0.51725000  0.19395000  1.0
  K  K2  1  0.81458000  0.14567000  0.47213000  1.0
  K  K3  1  0.18538000  0.85430000  0.52789000  1.0
  Cu  Cu4  1  0.50293000  0.76200000  0.76693000  1.0
  Cu  Cu5  1  0.49707000  0.23800000  0.23306000  1.0
  H  H6  1  0.43752000  0.07329000  0.93349000  1.0
  H  H7  1  0.56248000  0.92671000  0.06651000  1.0
  H  H8  1  0.26522000  0.46746000  0.56340000  1.0
  H  H9  1  0.73479000  0.53255000  0.43659000  1.0
  H  H10  1  0.98834000  0.32085000  0.57464000  1.0
  H  H11  1  0.01164000  0.67916000  0.42537000  1.0
  H  H12  1  0.85618000  0.21445000  0.71498000  1.0
  H  H13  1  0.14379000  0.78555000  0.28503000  1.0
  H  H14  1  0.86265000  0.21762000  0.08410000  1.0
  H  H15  1  0.13736000  0.78236000  0.91593000  1.0
  H  H16  1  0.05542000  0.29313000  0.03389000  1.0
  H  H17  1  0.94459000  0.70686000  0.96613000  1.0
  H  H18  1  0.04743000  0.98843000  0.72468000  1.0
  H  H19  1  0.95256000  0.01158000  0.27529000  1.0
  H  H20  1  0.85116000  0.91612000  0.77107000  1.0
  H  H21  1  0.14883000  0.08387000  0.22890000  1.0
  C  C22  1  0.33206000  0.39576000  0.76140000  1.0
  C  C23  1  0.66796000  0.60426000  0.23859000  1.0
  C  C24  1  0.38042000  0.28434000  0.86640000  1.0
  C  C25  1  0.61959000  0.71566000  0.13358000  1.0
  C  C26  1  0.40200000  0.16043000  0.85147000  1.0
  C  C27  1  0.59801000  0.83957000  0.14851000  1.0
  C  C28  1  0.37350000  0.14538000  0.73445000  1.0
  C  C29  1  0.62649000  0.85462000  0.26555000  1.0
  C  C30  1  0.32192000  0.25578000  0.63046000  1.0
  C  C31  1  0.67808000  0.74421000  0.36955000  1.0
  C  C32  1  0.30110000  0.38002000  0.64532000  1.0
  C  C33  1  0.69890000  0.61999000  0.35467000  1.0
  C  C34  1  0.32261000  0.53494000  0.76557000  1.0
  C  C35  1  0.67741000  0.46505000  0.23444000  1.0
  C  C36  1  0.39174000  0.28698000  0.00359000  1.0
  C  C37  1  0.60829000  0.71303000  0.99640000  1.0
  C  C38  1  0.38927000  0.00696000  0.73035000  1.0
  C  C39  1  0.61072000  0.99304000  0.26964000  1.0
  C  C40  1  0.30559000  0.24869000  0.49644000  1.0
  C  C41  1  0.69438000  0.75133000  0.50357000  1.0
  O  O42  1  0.20721000  0.60829000  0.72265000  1.0
  O  O43  1  0.79280000  0.39171000  0.27738000  1.0
  O  O44  1  0.44694000  0.56814000  0.81052000  1.0
  O  O45  1  0.55310000  0.43186000  0.18949000  1.0
  O  O46  1  0.24724000  0.28747000  0.09573000  1.0
  O  O47  1  0.75277000  0.71255000  0.90427000  1.0
  O  O48  1  0.54627000  0.27779000  0.02514000  1.0
  O  O49  1  0.45379000  0.72221000  0.97485000  1.0
  O  O50  1  0.54215000  0.96096000  0.72945000  1.0
  O  O51  1  0.45781000  0.03905000  0.27053000  1.0
  O  O52  1  0.25283000  0.93799000  0.73587000  1.0
  O  O53  1  0.74716000  0.06201000  0.26416000  1.0
  O  O54  1  0.43041000  0.18929000  0.44051000  1.0
  O  O55  1  0.56955000  0.81071000  0.55949000  1.0
  O  O56  1  0.18221000  0.30259000  0.44528000  1.0
  O  O57  1  0.81777000  0.69744000  0.55471000  1.0
  O  O58  1  0.86856000  0.31032000  0.64541000  1.0
  O  O59  1  0.13143000  0.68968000  0.35461000  1.0
  O  O60  1  0.95001000  0.28930000  0.00046000  1.0
  O  O61  1  0.05000000  0.71068000  0.99957000  1.0
  O  O62  1  0.93131000  0.00094000  0.70184000  1.0
  O  O63  1  0.06868000  0.99905000  0.29812000  1.0
