# generated using pymatgen
data_LiH8C5NO4
_symmetry_space_group_name_H-M   'P 1'
_cell_length_a   5.13646000
_cell_length_b   7.99100000
_cell_length_c   15.86620000
_cell_angle_alpha   90.00030000
_cell_angle_beta   90.00000000
_cell_angle_gamma   89.99980000
_symmetry_Int_Tables_number   1
_chemical_formula_structural   LiH8C5NO4
_chemical_formula_sum   'Li4 H32 C20 N4 O16'
_cell_volume   651.23534829
_cell_formula_units_Z   4
loop_
 _symmetry_equiv_pos_site_id
 _symmetry_equiv_pos_as_xyz
  1  'x, y, z'
loop_
 _atom_site_type_symbol
 _atom_site_label
 _atom_site_symmetry_multiplicity
 _atom_site_fract_x
 _atom_site_fract_y
 _atom_site_fract_z
 _atom_site_occupancy
  Li  Li0  1  0.53380000  0.28418000  0.34739000  1.0
  Li  Li1  1  0.96620000  0.71582000  0.84739000  1.0
  Li  Li2  1  0.46620000  0.78418000  0.15261000  1.0
  Li  Li3  1  0.03380000  0.21582000  0.65261000  1.0
  H  H4  1  0.05751000  0.77306000  0.26866000  1.0
  H  H5  1  0.44250000  0.22694000  0.76866000  1.0
  H  H6  1  0.94249000  0.27306000  0.23134000  1.0
  H  H7  1  0.55751000  0.72694000  0.73134000  1.0
  H  H8  1  0.27293000  0.69749000  0.39466000  1.0
  H  H9  1  0.22707000  0.30252000  0.89466000  1.0
  H  H10  1  0.72707000  0.19748000  0.10534000  1.0
  H  H11  1  0.77293000  0.80251000  0.60534000  1.0
  H  H12  1  0.97814000  0.65677000  0.44796000  1.0
  H  H13  1  0.52187000  0.34323000  0.94796000  1.0
  H  H14  1  0.02187000  0.15677000  0.05203000  1.0
  H  H15  1  0.47814000  0.84323000  0.55204000  1.0
  H  H16  1  0.24255000  0.99775000  0.42574000  1.0
  H  H17  1  0.25745000  0.00226000  0.92573000  1.0
  H  H18  1  0.75745000  0.49774000  0.07426000  1.0
  H  H19  1  0.74255000  0.50225000  0.57426000  1.0
  H  H20  1  0.05408000  0.92866000  0.51206000  1.0
  H  H21  1  0.44591000  0.07134000  0.01206000  1.0
  H  H22  1  0.94592000  0.42866000  0.98794000  1.0
  H  H23  1  0.55408000  0.57134000  0.48794000  1.0
  H  H24  1  0.63776000  0.96034000  0.29146000  1.0
  H  H25  1  0.86224000  0.03966000  0.79146000  1.0
  H  H26  1  0.36224000  0.46034000  0.20854000  1.0
  H  H27  1  0.13776000  0.53966000  0.70854000  1.0
  H  H28  1  0.06767000  0.39608000  0.38389000  1.0
  H  H29  1  0.43233000  0.60392000  0.88389000  1.0
  H  H30  1  0.93233000  0.89608000  0.11611000  1.0
  H  H31  1  0.56767000  0.10392000  0.61611000  1.0
  H  H32  1  0.22244000  0.34470000  0.46746000  1.0
  H  H33  1  0.27756000  0.65530000  0.96746000  1.0
  H  H34  1  0.77755000  0.84470000  0.03254000  1.0
  H  H35  1  0.72244000  0.15530000  0.53254000  1.0
  C  C36  1  0.74155000  0.61175000  0.30035000  1.0
  C  C37  1  0.75847000  0.38825000  0.80035000  1.0
  C  C38  1  0.25846000  0.11175000  0.19965000  1.0
  C  C39  1  0.24154000  0.88825000  0.69965000  1.0
  C  C40  1  0.92268000  0.75907000  0.32235000  1.0
  C  C41  1  0.57733000  0.24093000  0.82235000  1.0
  C  C42  1  0.07732000  0.25907000  0.17765000  1.0
  C  C43  1  0.42268000  0.74093000  0.67765000  1.0
  C  C44  1  0.07656000  0.74536000  0.40588000  1.0
  C  C45  1  0.42344000  0.25464000  0.90587000  1.0
  C  C46  1  0.92344000  0.24536000  0.09412000  1.0
  C  C47  1  0.57656000  0.75464000  0.59412000  1.0
  C  C48  1  0.07085000  0.92257000  0.44328000  1.0
  C  C49  1  0.42915000  0.07744000  0.94328000  1.0
  C  C50  1  0.92915000  0.42257000  0.05672000  1.0
  C  C51  1  0.57086000  0.57743000  0.55672000  1.0
  C  C52  1  0.83994000  0.00337000  0.40096000  1.0
  C  C53  1  0.66004000  0.99664000  0.90096000  1.0
  C  C54  1  0.16005000  0.50336000  0.09904000  1.0
  C  C55  1  0.33995000  0.49663000  0.59904000  1.0
  N  N56  1  0.77405000  0.91344000  0.33314000  1.0
  N  N57  1  0.72595000  0.08656000  0.83314000  1.0
  N  N58  1  0.22595000  0.41344000  0.16686000  1.0
  N  N59  1  0.27405000  0.58656000  0.66686000  1.0
  O  O60  1  0.78699000  0.46916000  0.33257000  1.0
  O  O61  1  0.71302000  0.53084000  0.83258000  1.0
  O  O62  1  0.21301000  0.96916000  0.16743000  1.0
  O  O63  1  0.28698000  0.03084000  0.66743000  1.0
  O  O64  1  0.55648000  0.64176000  0.24954000  1.0
  O  O65  1  0.94352000  0.35824000  0.74954000  1.0
  O  O66  1  0.44352000  0.14176000  0.25046000  1.0
  O  O67  1  0.05648000  0.85825000  0.75046000  1.0
  O  O68  1  0.72654000  0.13582000  0.42345000  1.0
  O  O69  1  0.77345000  0.86418000  0.92345000  1.0
  O  O70  1  0.27345000  0.63581000  0.07655000  1.0
  O  O71  1  0.22654000  0.36418000  0.57655000  1.0
  O  O72  1  0.23395000  0.35001000  0.40518000  1.0
  O  O73  1  0.26605000  0.64999000  0.90519000  1.0
  O  O74  1  0.76605000  0.85001000  0.09481000  1.0
  O  O75  1  0.73395000  0.14999000  0.59481000  1.0
