# generated using pymatgen
data_UCuH2(CO)10
_symmetry_space_group_name_H-M   'P 1'
_cell_length_a   5.02391000
_cell_length_b   7.04984000
_cell_length_c   8.53831000
_cell_angle_alpha   97.99130000
_cell_angle_beta   107.04000000
_cell_angle_gamma   91.25620000
_symmetry_Int_Tables_number   1
_chemical_formula_structural   UCuH2(CO)10
_chemical_formula_sum   'U1 Cu1 H2 C10 O10'
_cell_volume   285.69679287
_cell_formula_units_Z   1
loop_
 _symmetry_equiv_pos_site_id
 _symmetry_equiv_pos_as_xyz
  1  'x, y, z'
loop_
 _atom_site_type_symbol
 _atom_site_label
 _atom_site_symmetry_multiplicity
 _atom_site_fract_x
 _atom_site_fract_y
 _atom_site_fract_z
 _atom_site_occupancy
  U  U0  1  0.49999000  0.50001000  0.50000000  1.0
  Cu  Cu1  1  0.00001000  0.99999000  0.50000000  1.0
  H  H2  1  0.73664000  0.69424000  0.98586000  1.0
  H  H3  1  0.26337000  0.30576000  0.01414000  1.0
  C  C4  1  0.63207000  0.82749000  0.99235000  1.0
  C  C5  1  0.36794000  0.17251000  0.00765000  1.0
  C  C6  1  0.50577000  0.87729000  0.11619000  1.0
  C  C7  1  0.49424000  0.12271000  0.88381000  1.0
  C  C8  1  0.62928000  0.95012000  0.87654000  1.0
  C  C9  1  0.37073000  0.04988000  0.12346000  1.0
  C  C10  1  0.53070000  0.74968000  0.24446000  1.0
  C  C11  1  0.46930000  0.25032000  0.75554000  1.0
  C  C12  1  0.77914000  0.89797000  0.75051000  1.0
  C  C13  1  0.22086000  0.10202000  0.24948000  1.0
  O  O14  1  0.81007000  0.72199000  0.70610000  1.0
  O  O15  1  0.18992000  0.27801000  0.29390000  1.0
  O  O16  1  0.68080000  0.80497000  0.39618000  1.0
  O  O17  1  0.31919000  0.19502000  0.60382000  1.0
  O  O18  1  0.87467000  0.03699000  0.69732000  1.0
  O  O19  1  0.12534000  0.96301000  0.30268000  1.0
  O  O20  1  0.76643000  0.34137000  0.47479000  1.0
  O  O21  1  0.23357000  0.65863000  0.52521000  1.0
  O  O22  1  0.41000000  0.58433000  0.20905000  1.0
  O  O23  1  0.58999000  0.41568000  0.79095000  1.0
