# generated using pymatgen
data_Ni2H12C11NO9
_symmetry_space_group_name_H-M   'P 1'
_cell_length_a   11.02060000
_cell_length_b   13.46390000
_cell_length_c   14.76790000
_cell_angle_alpha   80.85560000
_cell_angle_beta   89.99160000
_cell_angle_gamma   89.98940000
_symmetry_Int_Tables_number   1
_chemical_formula_structural   Ni2H12C11NO9
_chemical_formula_sum   'Ni8 H48 C44 N4 O36'
_cell_volume   2163.41584040
_cell_formula_units_Z   4
loop_
 _symmetry_equiv_pos_site_id
 _symmetry_equiv_pos_as_xyz
  1  'x, y, z'
loop_
 _atom_site_type_symbol
 _atom_site_label
 _atom_site_symmetry_multiplicity
 _atom_site_fract_x
 _atom_site_fract_y
 _atom_site_fract_z
 _atom_site_occupancy
  Ni  Ni0  1  0.99784000  0.11435000  0.95259000  1.0
  Ni  Ni1  1  0.49742000  0.38502000  0.04748000  1.0
  Ni  Ni2  1  0.00094000  0.88607000  0.04802000  1.0
  Ni  Ni3  1  0.50243000  0.61501000  0.95252000  1.0
  Ni  Ni4  1  0.14223000  0.90527000  0.86424000  1.0
  Ni  Ni5  1  0.64130000  0.59469000  0.13548000  1.0
  Ni  Ni6  1  0.85869000  0.09392000  0.13561000  1.0
  Ni  Ni7  1  0.35835000  0.40528000  0.86453000  1.0
  H  H8  1  0.85615000  0.16794000  0.82387000  1.0
  H  H9  1  0.35601000  0.33215000  0.17605000  1.0
  H  H10  1  0.14313000  0.83265000  0.17582000  1.0
  H  H11  1  0.64398000  0.66787000  0.82401000  1.0
  H  H12  1  0.94567000  0.25847000  0.83036000  1.0
  H  H13  1  0.44563000  0.24139000  0.17017000  1.0
  H  H14  1  0.05403000  0.74171000  0.16945000  1.0
  H  H15  1  0.55430000  0.75869000  0.82956000  1.0
  H  H16  1  0.30943000  0.76170000  0.87080000  1.0
  H  H17  1  0.81103000  0.73679000  0.12861000  1.0
  H  H18  1  0.69145000  0.23829000  0.12918000  1.0
  H  H19  1  0.19098000  0.26149000  0.87036000  1.0
  H  H20  1  0.36316000  0.86860000  0.83058000  1.0
  H  H21  1  0.86210000  0.62960000  0.17049000  1.0
  H  H22  1  0.63725000  0.13166000  0.16939000  1.0
  H  H23  1  0.13705000  0.36838000  0.83038000  1.0
  H  H24  1  0.07995000  0.04160000  0.11637000  1.0
  H  H25  1  0.57803000  0.45926000  0.88391000  1.0
  H  H26  1  0.92226000  0.95948000  0.88371000  1.0
  H  H27  1  0.42170000  0.54070000  0.11609000  1.0
  H  H28  1  0.35979000  0.08169000  0.04903000  1.0
  H  H29  1  0.86013000  0.41875000  0.95083000  1.0
  H  H30  1  0.63891000  0.91825000  0.95093000  1.0
  H  H31  1  0.13996000  0.58152000  0.04929000  1.0
  H  H32  1  0.39396000  0.90871000  0.94171000  1.0
  H  H33  1  0.89423000  0.59144000  0.05851000  1.0
  H  H34  1  0.60562000  0.09111000  0.05850000  1.0
  H  H35  1  0.10576000  0.40884000  0.94161000  1.0
  H  H36  1  0.49866000  0.08954000  0.86857000  1.0
  H  H37  1  0.99857000  0.41033000  0.13148000  1.0
  H  H38  1  0.50079000  0.91044000  0.13168000  1.0
  H  H39  1  0.00142000  0.58989000  0.86867000  1.0
  H  H40  1  0.11011000  0.79181000  0.71170000  1.0
  H  H41  1  0.60999000  0.70809000  0.28844000  1.0
  H  H42  1  0.88974000  0.20774000  0.28837000  1.0
  H  H43  1  0.38987000  0.29189000  0.71161000  1.0
  H  H44  1  0.04788000  0.82685000  0.54858000  1.0
  H  H45  1  0.54793000  0.67295000  0.45163000  1.0
  H  H46  1  0.95202000  0.17283000  0.45154000  1.0
  H  H47  1  0.45207000  0.32698000  0.54845000  1.0
  H  H48  1  0.00650000  0.13948000  0.58166000  1.0
  H  H49  1  0.50630000  0.36043000  0.41834000  1.0
  H  H50  1  0.99369000  0.86020000  0.41859000  1.0
  H  H51  1  0.49371000  0.63952000  0.58169000  1.0
  H  H52  1  0.07293000  0.09075000  0.74181000  1.0
  H  H53  1  0.57236000  0.40928000  0.25812000  1.0
  H  H54  1  0.92737000  0.90880000  0.25845000  1.0
  H  H55  1  0.42758000  0.59071000  0.74190000  1.0
  C  C56  1  0.37776000  0.05119000  0.98546000  1.0
  C  C57  1  0.87791000  0.44907000  0.01452000  1.0
  C  C58  1  0.62140000  0.94864000  0.01461000  1.0
  C  C59  1  0.12211000  0.55118000  0.98562000  1.0
  C  C60  1  0.39149000  0.93606000  0.00754000  1.0
  C  C61  1  0.89189000  0.56420000  0.99264000  1.0
  C  C62  1  0.60790000  0.06383000  0.99263000  1.0
  C  C63  1  0.10808000  0.43605000  0.00750000  1.0
  C  C64  1  0.49333000  0.10166000  0.94029000  1.0
  C  C65  1  0.99332000  0.39834000  0.05973000  1.0
  C  C66  1  0.50604000  0.89829000  0.05997000  1.0
  C  C67  1  0.00665000  0.60191000  0.94042000  1.0
  C  C68  1  0.26722000  0.07493000  0.92157000  1.0
  C  C69  1  0.76698000  0.42545000  0.07804000  1.0
  C  C70  1  0.73289000  0.92552000  0.07750000  1.0
  C  C71  1  0.23302000  0.57476000  0.92203000  1.0
  C  C72  1  0.27656000  0.89470000  0.05748000  1.0
  C  C73  1  0.77718000  0.60576000  0.94249000  1.0
  C  C74  1  0.72281000  0.10517000  0.94251000  1.0
  C  C75  1  0.22278000  0.39443000  0.05761000  1.0
  C  C76  1  0.47972000  0.21442000  0.94261000  1.0
  C  C77  1  0.97946000  0.28557000  0.05734000  1.0
  C  C78  1  0.51996000  0.78556000  0.05761000  1.0
  C  C79  1  0.02047000  0.71467000  0.94280000  1.0
  C  C80  1  0.08696000  0.86771000  0.67893000  1.0
  C  C81  1  0.58679000  0.63220000  0.32118000  1.0
  C  C82  1  0.91301000  0.13188000  0.32119000  1.0
  C  C83  1  0.41312000  0.36778000  0.67888000  1.0
  C  C84  1  0.05130000  0.88873000  0.58779000  1.0
  C  C85  1  0.55125000  0.61112000  0.41236000  1.0
  C  C86  1  0.94867000  0.11094000  0.41235000  1.0
  C  C87  1  0.44874000  0.38882000  0.58771000  1.0
  C  C88  1  0.02004000  0.98743000  0.54836000  1.0
  C  C89  1  0.51999000  0.51242000  0.45175000  1.0
  C  C90  1  0.97998000  0.01228000  0.45183000  1.0
  C  C91  1  0.48002000  0.48751000  0.54831000  1.0
  C  C92  1  0.02885000  0.06100000  0.60574000  1.0
  C  C93  1  0.52864000  0.43891000  0.39430000  1.0
  C  C94  1  0.97129000  0.93866000  0.39449000  1.0
  C  C95  1  0.47135000  0.56104000  0.60575000  1.0
  C  C96  1  0.06608000  0.03484000  0.69623000  1.0
  C  C97  1  0.56571000  0.46514000  0.30377000  1.0
  C  C98  1  0.93408000  0.96474000  0.30401000  1.0
  C  C99  1  0.43425000  0.53483000  0.69626000  1.0
  N  N100  1  0.09397000  0.93945000  0.73273000  1.0
  N  N101  1  0.59358000  0.56052000  0.26729000  1.0
  N  N102  1  0.90613000  0.06009000  0.26744000  1.0
  N  N103  1  0.40632000  0.43946000  0.73275000  1.0
  O  O104  1  0.94495000  0.18981000  0.81712000  1.0
  O  O105  1  0.44492000  0.31029000  0.18276000  1.0
  O  O106  1  0.05433000  0.81038000  0.18266000  1.0
  O  O107  1  0.55505000  0.68968000  0.81727000  1.0
  O  O108  1  0.29489000  0.82380000  0.82598000  1.0
  O  O109  1  0.79495000  0.67582000  0.17417000  1.0
  O  O110  1  0.70588000  0.17611000  0.17389000  1.0
  O  O111  1  0.20557000  0.32382000  0.82581000  1.0
  O  O112  1  0.18904000  0.13661000  0.94457000  1.0
  O  O113  1  0.68875000  0.36407000  0.05470000  1.0
  O  O114  1  0.81202000  0.86582000  0.05257000  1.0
  O  O115  1  0.31125000  0.63617000  0.94535000  1.0
  O  O116  1  0.25950000  0.03030000  0.85220000  1.0
  O  O117  1  0.75895000  0.47004000  0.14745000  1.0
  O  O118  1  0.74091000  0.96962000  0.14718000  1.0
  O  O119  1  0.24101000  0.53014000  0.85267000  1.0
  O  O120  1  0.18308000  0.88506000  0.00640000  1.0
  O  O121  1  0.68356000  0.61520000  0.99355000  1.0
  O  O122  1  0.81654000  0.11405000  0.99360000  1.0
  O  O123  1  0.31635000  0.38498000  0.00652000  1.0
  O  O124  1  0.27335000  0.87776000  0.14363000  1.0
  O  O125  1  0.77433000  0.62313000  0.85639000  1.0
  O  O126  1  0.72553000  0.12287000  0.85643000  1.0
  O  O127  1  0.22567000  0.37704000  0.14372000  1.0
  O  O128  1  0.43982000  0.26920000  0.87107000  1.0
  O  O129  1  0.93955000  0.23082000  0.12891000  1.0
  O  O130  1  0.56036000  0.73091000  0.12907000  1.0
  O  O131  1  0.06085000  0.76918000  0.87125000  1.0
  O  O132  1  0.50511000  0.24262000  0.01870000  1.0
  O  O133  1  0.00470000  0.25741000  0.98120000  1.0
  O  O134  1  0.49453000  0.75731000  0.98157000  1.0
  O  O135  1  0.99481000  0.74304000  0.01876000  1.0
  O  O136  1  0.00597000  0.02873000  0.08416000  1.0
  O  O137  1  0.50382000  0.47270000  0.91578000  1.0
  O  O138  1  0.99676000  0.97248000  0.91540000  1.0
  O  O139  1  0.49597000  0.52733000  0.08426000  1.0
