# generated using pymatgen
data_Zr3H43C62N3O16
_symmetry_space_group_name_H-M   'P 1'
_cell_length_a   14.91320000
_cell_length_b   23.56040000
_cell_length_c   40.71770000
_cell_angle_alpha   93.85970000
_cell_angle_beta   97.78080000
_cell_angle_gamma   90.04410000
_symmetry_Int_Tables_number   1
_chemical_formula_structural   Zr3H43C62N3O16
_chemical_formula_sum   'Zr6 H86 C124 N6 O32'
_cell_volume   14142.03560859
_cell_formula_units_Z   2
loop_
 _symmetry_equiv_pos_site_id
 _symmetry_equiv_pos_as_xyz
  1  'x, y, z'
loop_
 _atom_site_type_symbol
 _atom_site_label
 _atom_site_symmetry_multiplicity
 _atom_site_fract_x
 _atom_site_fract_y
 _atom_site_fract_z
 _atom_site_occupancy
  Zr  Zr0  1  0.04845000  0.91826000  0.04137000  1.0
  Zr  Zr1  1  0.01267000  0.08246000  0.96629000  1.0
  Zr  Zr2  1  0.93015000  0.04862000  0.04151000  1.0
  Zr  Zr3  1  0.13068000  0.95194000  0.96770000  1.0
  Zr  Zr4  1  0.89200000  0.95265000  0.96938000  1.0
  Zr  Zr5  1  0.16626000  0.05076000  0.03715000  1.0
  H  H6  1  0.01322000  0.85924000  0.97209000  1.0
  H  H7  1  0.82923000  0.06447000  0.97718000  1.0
  H  H8  1  0.20277000  0.06067000  0.96993000  1.0
  H  H9  1  0.08389000  0.01339000  0.08919000  1.0
  H  H10  1  0.73392000  0.93168000  0.99395000  1.0
  H  H11  1  0.98331000  0.09549000  0.10681000  1.0
  H  H12  1  0.18160000  0.14583000  0.07580000  1.0
  H  H13  1  0.84296000  0.85856000  0.93112000  1.0
  H  H14  1  0.13825000  0.90720000  0.90531000  1.0
  H  H15  1  0.30737000  0.92819000  0.97908000  1.0
  H  H16  1  0.34271000  0.06416000  0.01841000  1.0
  H  H17  1  0.81827000  0.97312000  0.90724000  1.0
  H  H18  1  0.85534000  0.03790000  0.92136000  1.0
  H  H19  1  0.13510000  0.90870000  0.10344000  1.0
  H  H20  1  0.30559000  0.99056000  0.06899000  1.0
  H  H21  1  0.16568000  0.85570000  0.92848000  1.0
  H  H22  1  0.87451000  0.12605000  0.92843000  1.0
  H  H23  1  0.75302000  0.07429000  0.03345000  1.0
  H  H24  1  0.76136000  0.99708000  0.00834000  1.0
  H  H25  1  0.30032000  0.00009000  0.00126000  1.0
  H  H26  1  0.06204000  0.11270000  0.08480000  1.0
  H  H27  1  0.21643000  0.96179000  0.08083000  1.0
  H  H28  1  0.36682000  0.49715000  0.00071000  1.0
  H  H29  1  0.70087000  0.50263000  0.00775000  1.0
  H  H30  1  0.63700000  0.00875000  0.49809000  1.0
  H  H31  1  0.31482000  0.99444000  0.50944000  1.0
  H  H32  1  0.66246000  0.09884000  0.51572000  1.0
  H  H33  1  0.80026000  0.13606000  0.55102000  1.0
  H  H34  1  0.57228000  0.02513000  0.59984000  1.0
  H  H35  1  0.66192000  0.04077000  0.65535000  1.0
  H  H36  1  0.80899000  0.06846000  0.68939000  1.0
  H  H37  1  0.90438000  0.13404000  0.60427000  1.0
  H  H38  1  0.12141000  0.17252000  0.61641000  1.0
  H  H39  1  0.22610000  0.16587000  0.57375000  1.0
  H  H40  1  0.25501000  0.03320000  0.66522000  1.0
  H  H41  1  0.37378000  0.97939000  0.63814000  1.0
  H  H42  1  0.45627000  0.96173000  0.58977000  1.0
  H  H43  1  0.33855000  0.11059000  0.54627000  1.0
  H  H44  1  0.97134000  0.00828000  0.39099000  1.0
  H  H45  1  0.09833000  0.03983000  0.43454000  1.0
  H  H46  1  0.14024000  0.88135000  0.35008000  1.0
  H  H47  1  0.29574000  0.86407000  0.38149000  1.0
  H  H48  1  0.41536000  0.89028000  0.42775000  1.0
  H  H49  1  0.25247000  0.02793000  0.46119000  1.0
  H  H50  1  0.65000000  0.98676000  0.31269000  1.0
  H  H51  1  0.53264000  0.00859000  0.34934000  1.0
  H  H52  1  0.79237000  0.88553000  0.38659000  1.0
  H  H53  1  0.73008000  0.86909000  0.43741000  1.0
  H  H54  1  0.62882000  0.90252000  0.47827000  1.0
  H  H55  1  0.48557000  0.00876000  0.40696000  1.0
  H  H56  1  0.15846000  0.75393000  0.04704000  1.0
  H  H57  1  0.23491000  0.66048000  0.05317000  1.0
  H  H58  1  0.30794000  0.78812000  0.96732000  1.0
  H  H59  1  0.41953000  0.71769000  0.94966000  1.0
  H  H60  1  0.50197000  0.62771000  0.95787000  1.0
  H  H61  1  0.34901000  0.59164000  0.03666000  1.0
  H  H62  1  0.90387000  0.24192000  0.06268000  1.0
  H  H63  1  0.82819000  0.33535000  0.06974000  1.0
  H  H64  1  0.77280000  0.21920000  0.96174000  1.0
  H  H65  1  0.65094000  0.28585000  0.94148000  1.0
  H  H66  1  0.56266000  0.37304000  0.95093000  1.0
  H  H67  1  0.71797000  0.40667000  0.04743000  1.0
  H  H68  1  0.53470000  0.36903000  0.04789000  1.0
  H  H69  1  0.45706000  0.27877000  0.05430000  1.0
  H  H70  1  0.33456000  0.40439000  0.96526000  1.0
  H  H71  1  0.20805000  0.33602000  0.94705000  1.0
  H  H72  1  0.13032000  0.24465000  0.95354000  1.0
  H  H73  1  0.33108000  0.20956000  0.03558000  1.0
  H  H74  1  0.56035000  0.63704000  0.05310000  1.0
  H  H75  1  0.64472000  0.72807000  0.06442000  1.0
  H  H76  1  0.71213000  0.59011000  0.97280000  1.0
  H  H77  1  0.82542000  0.65708000  0.95791000  1.0
  H  H78  1  0.90265000  0.75098000  0.96662000  1.0
  H  H79  1  0.75964000  0.79534000  0.04989000  1.0
  H  H80  1  0.22822000  0.97588000  0.86550000  1.0
  H  H81  1  0.23266000  0.98614000  0.80531000  1.0
  H  H82  1  0.03037000  0.10800000  0.86773000  1.0
  H  H83  1  0.97041000  0.15247000  0.81583000  1.0
  H  H84  1  0.96188000  0.15545000  0.75443000  1.0
  H  H85  1  0.17389000  0.03190000  0.75287000  1.0
  H  H86  1  0.02659000  0.86248000  0.26144000  1.0
  H  H87  1  0.04937000  0.85806000  0.20185000  1.0
  H  H88  1  0.78905000  0.96419000  0.24048000  1.0
  H  H89  1  0.74840000  0.99865000  0.18379000  1.0
  H  H90  1  0.78720000  0.00764000  0.12659000  1.0
  H  H91  1  0.00796000  0.89191000  0.14520000  1.0
  C  C92  1  0.87981000  0.83632000  0.01139000  1.0
  C  C93  1  0.18170000  0.83203000  0.00408000  1.0
  C  C94  1  0.92743000  0.95975000  0.09963000  1.0
  C  C95  1  0.88958000  0.16974000  0.00797000  1.0
  C  C96  1  0.17942000  0.16709000  0.99822000  1.0
  C  C97  1  0.12159000  0.03513000  0.90563000  1.0
  C  C98  1  0.48428000  0.55103000  0.00270000  1.0
  C  C99  1  0.58003000  0.55280000  0.00640000  1.0
  C  C100  1  0.62719000  0.50147000  0.00608000  1.0
  C  C101  1  0.58304000  0.44871000  0.00373000  1.0
  C  C102  1  0.48803000  0.44704000  0.00336000  1.0
  C  C103  1  0.44047000  0.49831000  0.00213000  1.0
  C  C104  1  0.89796000  0.91923000  0.29004000  1.0
  C  C105  1  0.81460000  0.93231000  0.33244000  1.0
  C  C106  1  0.96886000  0.92958000  0.34297000  1.0
  C  C107  1  0.05591000  0.09595000  0.71373000  1.0
  C  C108  1  0.10969000  0.10332000  0.66485000  1.0
  C  C109  1  0.95809000  0.10771000  0.66677000  1.0
  C  C110  1  0.50682000  0.98216000  0.47350000  1.0
  C  C111  1  0.41326000  0.98057000  0.47577000  1.0
  C  C112  1  0.38606000  0.99887000  0.50652000  1.0
  C  C113  1  0.44516000  0.02113000  0.53407000  1.0
  C  C114  1  0.53765000  0.02788000  0.53062000  1.0
  C  C115  1  0.56524000  0.00640000  0.50060000  1.0
  C  C116  1  0.60893000  0.05673000  0.55498000  1.0
  C  C117  1  0.67395000  0.09044000  0.54195000  1.0
  C  C118  1  0.75035000  0.11159000  0.56158000  1.0
  C  C119  1  0.76695000  0.10077000  0.59572000  1.0
  C  C120  1  0.69873000  0.07135000  0.60986000  1.0
  C  C121  1  0.62082000  0.04986000  0.58888000  1.0
  C  C122  1  0.71462000  0.06181000  0.64429000  1.0
  C  C123  1  0.79572000  0.07703000  0.66321000  1.0
  C  C124  1  0.86603000  0.10199000  0.64841000  1.0
  C  C125  1  0.85013000  0.11496000  0.61542000  1.0
  C  C126  1  0.18215000  0.10283000  0.64330000  1.0
  C  C127  1  0.17459000  0.14077000  0.61732000  1.0
  C  C128  1  0.23190000  0.13660000  0.59358000  1.0
  C  C129  1  0.29647000  0.09233000  0.59335000  1.0
  C  C130  1  0.30577000  0.05470000  0.61987000  1.0
  C  C131  1  0.24928000  0.06215000  0.64522000  1.0
  C  C132  1  0.36675000  0.00860000  0.61827000  1.0
  C  C133  1  0.41335000  0.99903000  0.59140000  1.0
  C  C134  1  0.40407000  0.03598000  0.56491000  1.0
  C  C135  1  0.34728000  0.08222000  0.56658000  1.0
  C  C136  1  0.04912000  0.94328000  0.36782000  1.0
  C  C137  1  0.03709000  0.98786000  0.39221000  1.0
  C  C138  1  0.10690000  0.00476000  0.41635000  1.0
  C  C139  1  0.19084000  0.97603000  0.41859000  1.0
  C  C140  1  0.20284000  0.92990000  0.39475000  1.0
  C  C141  1  0.13124000  0.91552000  0.36879000  1.0
  C  C142  1  0.28604000  0.90005000  0.39895000  1.0
  C  C143  1  0.35338000  0.91492000  0.42480000  1.0
  C  C144  1  0.34293000  0.96188000  0.44791000  1.0
  C  C145  1  0.26209000  0.99139000  0.44412000  1.0
  C  C146  1  0.73037000  0.93567000  0.34798000  1.0
  C  C147  1  0.65407000  0.96871000  0.33681000  1.0
  C  C148  1  0.58881000  0.98076000  0.35730000  1.0
  C  C149  1  0.59533000  0.95978000  0.38954000  1.0
  C  C150  1  0.66743000  0.92138000  0.39903000  1.0
  C  C151  1  0.73376000  0.91082000  0.37800000  1.0
  C  C152  1  0.67620000  0.89927000  0.43082000  1.0
  C  C153  1  0.62049000  0.91792000  0.45338000  1.0
  C  C154  1  0.55218000  0.95888000  0.44526000  1.0
  C  C155  1  0.53830000  0.97777000  0.41345000  1.0
  C  C156  1  0.22862000  0.77623000  0.00656000  1.0
  C  C157  1  0.20814000  0.73979000  0.03105000  1.0
  C  C158  1  0.25067000  0.68831000  0.03432000  1.0
  C  C159  1  0.31646000  0.67062000  0.01368000  1.0
  C  C160  1  0.33735000  0.70743000  0.98897000  1.0
  C  C161  1  0.29185000  0.75985000  0.98591000  1.0
  C  C162  1  0.40426000  0.69019000  0.96876000  1.0
  C  C163  1  0.45010000  0.64015000  0.97332000  1.0
  C  C164  1  0.43116000  0.60374000  0.99817000  1.0
  C  C165  1  0.36388000  0.61885000  0.01735000  1.0
  C  C166  1  0.84368000  0.22582000  0.01142000  1.0
  C  C167  1  0.85810000  0.25827000  0.04237000  1.0
  C  C168  1  0.81537000  0.30955000  0.04627000  1.0
  C  C169  1  0.75194000  0.32914000  0.02032000  1.0
  C  C170  1  0.73404000  0.29486000  0.98961000  1.0
  C  C171  1  0.78397000  0.24440000  0.98546000  1.0
  C  C172  1  0.66539000  0.31215000  0.96473000  1.0
  C  C173  1  0.61647000  0.36064000  0.96991000  1.0
  C  C174  1  0.63581000  0.39590000  0.99983000  1.0
  C  C175  1  0.70350000  0.38033000  0.02419000  1.0
  C  C176  1  0.43982000  0.39281000  0.00580000  1.0
  C  C177  1  0.47379000  0.35634000  0.03110000  1.0
  C  C178  1  0.43045000  0.30612000  0.03471000  1.0
  C  C179  1  0.35050000  0.28899000  0.01327000  1.0
  C  C180  1  0.31511000  0.32553000  0.98785000  1.0
  C  C181  1  0.36120000  0.37715000  0.98490000  1.0
  C  C182  1  0.23505000  0.30836000  0.96641000  1.0
  C  C183  1  0.19181000  0.25792000  0.96985000  1.0
  C  C184  1  0.22674000  0.22179000  0.99503000  1.0
  C  C185  1  0.30472000  0.23744000  0.01626000  1.0
  C  C186  1  0.63100000  0.60732000  0.01202000  1.0
  C  C187  1  0.61238000  0.64730000  0.03800000  1.0
  C  C188  1  0.65931000  0.69799000  0.04429000  1.0
  C  C189  1  0.72661000  0.71240000  0.02466000  1.0
  C  C190  1  0.74574000  0.67248000  0.99836000  1.0
  C  C191  1  0.69771000  0.62007000  0.99303000  1.0
  C  C192  1  0.81085000  0.68738000  0.97794000  1.0
  C  C193  1  0.85390000  0.73953000  0.98286000  1.0
  C  C194  1  0.83534000  0.77884000  0.00901000  1.0
  C  C195  1  0.77388000  0.76515000  0.02975000  1.0
  C  C196  1  0.12857000  0.04187000  0.86991000  1.0
  C  C197  1  0.18575000  0.00687000  0.85219000  1.0
  C  C198  1  0.18816000  0.01271000  0.81889000  1.0
  C  C199  1  0.13187000  0.05256000  0.80138000  1.0
  C  C200  1  0.07343000  0.08749000  0.81936000  1.0
  C  C201  1  0.07447000  0.08190000  0.85371000  1.0
  C  C202  1  0.01396000  0.12571000  0.80195000  1.0
  C  C203  1  0.00973000  0.12786000  0.76818000  1.0
  C  C204  1  0.06796000  0.09375000  0.75026000  1.0
  C  C205  1  0.12946000  0.05789000  0.76679000  1.0
  C  C206  1  0.90589000  0.91361000  0.25421000  1.0
  C  C207  1  0.98009000  0.88344000  0.24321000  1.0
  C  C208  1  0.99288000  0.88161000  0.21036000  1.0
  C  C209  1  0.93520000  0.91210000  0.18716000  1.0
  C  C210  1  0.86024000  0.94270000  0.19819000  1.0
  C  C211  1  0.84576000  0.94122000  0.23176000  1.0
  C  C212  1  0.80568000  0.97576000  0.17541000  1.0
  C  C213  1  0.82638000  0.98061000  0.14380000  1.0
  C  C214  1  0.90043000  0.95028000  0.13289000  1.0
  C  C215  1  0.95184000  0.91546000  0.15397000  1.0
  N  N216  1  0.81527000  0.92874000  0.29942000  1.0
  N  N217  1  0.88968000  0.93483000  0.35491000  1.0
  N  N218  1  0.97651000  0.91699000  0.31082000  1.0
  N  N219  1  0.12793000  0.09117000  0.69699000  1.0
  N  N220  1  0.02690000  0.11399000  0.64908000  1.0
  N  N221  1  0.96979000  0.10241000  0.69969000  1.0
  O  O222  1  0.15326000  0.91164000  0.08162000  1.0
  O  O223  1  0.95025000  0.84572000  0.03242000  1.0
  O  O224  1  0.97361000  0.92138000  0.08624000  1.0
  O  O225  1  0.19621000  0.86380000  0.98079000  1.0
  O  O226  1  0.90481000  0.00738000  0.08789000  1.0
  O  O227  1  0.12904000  0.84424000  0.02543000  1.0
  O  O228  1  0.84415000  0.87016000  0.99040000  1.0
  O  O229  1  0.94041000  0.96680000  0.02157000  1.0
  O  O230  1  0.01725000  0.89898000  0.98007000  1.0
  O  O231  1  0.06653000  0.01045000  0.06530000  1.0
  O  O232  1  0.13696000  0.96461000  0.01791000  1.0
  O  O233  1  0.27729000  0.96406000  0.97467000  1.0
  O  O234  1  0.75408000  0.96787000  0.98713000  1.0
  O  O235  1  0.00757000  0.99415000  0.95704000  1.0
  O  O236  1  0.88611000  0.04656000  0.98480000  1.0
  O  O237  1  0.03811000  0.07543000  0.01796000  1.0
  O  O238  1  0.15623000  0.04407000  0.98088000  1.0
  O  O239  1  0.78662000  0.03930000  0.03647000  1.0
  O  O240  1  0.88318000  0.13692000  0.03123000  1.0
  O  O241  1  0.92897000  0.15878000  0.98247000  1.0
  O  O242  1  0.24942000  0.99983000  0.07782000  1.0
  O  O243  1  0.10943000  0.15489000  0.97728000  1.0
  O  O244  1  0.99180000  0.11056000  0.08576000  1.0
  O  O245  1  0.15889000  0.10817000  0.07896000  1.0
  O  O246  1  0.31001000  0.03117000  0.02393000  1.0
  O  O247  1  0.21247000  0.13573000  0.02144000  1.0
  O  O248  1  0.91352000  0.09372000  0.92520000  1.0
  O  O249  1  0.11888000  0.88336000  0.92204000  1.0
  O  O250  1  0.08882000  0.07629000  0.92167000  1.0
  O  O251  1  0.14799000  0.98785000  0.91762000  1.0
  O  O252  1  0.85770000  0.89801000  0.92871000  1.0
  O  O253  1  0.82054000  0.00197000  0.92571000  1.0
