# generated using pymatgen
data_Zn6H41C43N3O31
_symmetry_space_group_name_H-M   'P 1'
_cell_length_a   18.40640000
_cell_length_b   18.63810000
_cell_length_c   19.22460000
_cell_angle_alpha   109.12300000
_cell_angle_beta   109.42800000
_cell_angle_gamma   108.30800000
_symmetry_Int_Tables_number   1
_chemical_formula_structural   Zn6H41C43N3O31
_chemical_formula_sum   'Zn6 H41 C43 N3 O31'
_cell_volume   5171.70394631
_cell_formula_units_Z   1
loop_
 _symmetry_equiv_pos_site_id
 _symmetry_equiv_pos_as_xyz
  1  'x, y, z'
loop_
 _atom_site_type_symbol
 _atom_site_label
 _atom_site_symmetry_multiplicity
 _atom_site_fract_x
 _atom_site_fract_y
 _atom_site_fract_z
 _atom_site_occupancy
  Zn  Zn0  1  0.49753000  0.56133000  0.56264000  1.0
  Zn  Zn1  1  0.50405000  0.45205000  0.43592000  1.0
  Zn  Zn2  1  0.07935000  0.00914000  0.56828000  1.0
  Zn  Zn3  1  0.95479000  0.01146000  0.44733000  1.0
  Zn  Zn4  1  0.91785000  0.43338000  0.99912000  1.0
  Zn  Zn5  1  0.04704000  0.54297000  0.99051000  1.0
  H  H6  1  0.08700000  0.18304000  0.36521000  1.0
  H  H7  1  0.21753000  0.47541000  0.11806000  1.0
  H  H8  1  0.11409000  0.41689000  0.20389000  1.0
  H  H9  1  0.31745000  0.42809000  0.19739000  1.0
  H  H10  1  0.27753000  0.52169000  0.33322000  1.0
  H  H11  1  0.16265000  0.38859000  0.89039000  1.0
  H  H12  1  0.18046000  0.26238000  0.80927000  1.0
  H  H13  1  0.99299000  0.20944000  0.68358000  1.0
  H  H14  1  0.26155000  0.14228000  0.49747000  1.0
  H  H15  1  0.92721000  0.76973000  0.28505000  1.0
  H  H16  1  0.28455000  0.22417000  0.59206000  1.0
  H  H17  1  0.68237000  0.43069000  0.82259000  1.0
  H  H18  1  0.31461000  0.38450000  0.62845000  1.0
  H  H19  1  0.18677000  0.31905000  0.39960000  1.0
  H  H20  1  0.24357000  0.26730000  0.36511000  1.0
  H  H21  1  0.41081000  0.32787000  0.64176000  1.0
  H  H22  1  0.29754000  0.47736000  0.57543000  1.0
  H  H23  1  0.12450000  0.35242000  0.51665000  1.0
  H  H24  1  0.65333000  0.35743000  0.53348000  1.0
  H  H25  1  0.67864000  0.25553000  0.56064000  1.0
  H  H26  1  0.63701000  0.27660000  0.63327000  1.0
  H  H27  1  0.75021000  0.33467000  0.66950000  1.0
  H  H28  1  0.81425000  0.47488000  0.75876000  1.0
  H  H29  1  0.91251000  0.24498000  0.83125000  1.0
  H  H30  1  0.89857000  0.11169000  0.79583000  1.0
  H  H31  1  0.01496000  0.15885000  0.83631000  1.0
  H  H32  1  0.94535000  0.12051000  0.72890000  1.0
  H  H33  1  0.87806000  0.63432000  0.21694000  1.0
  H  H34  1  0.11818000  0.76986000  0.16041000  1.0
  H  H35  1  0.14868000  0.83141000  0.31536000  1.0
  H  H36  1  0.28037000  0.94328000  0.43085000  1.0
  H  H37  1  0.22809000  0.96869000  0.49133000  1.0
  H  H38  1  0.21710000  0.99663000  0.40935000  1.0
  H  H39  1  0.60158000  0.46764000  0.71883000  1.0
  H  H40  1  0.13092000  0.25734000  0.61063000  1.0
  H  H41  1  0.21516000  0.13221000  0.35950000  1.0
  H  H42  1  0.88046000  0.78636000  0.54279000  1.0
  H  H43  1  0.74138000  0.83680000  0.46724000  1.0
  H  H44  1  0.74358000  0.65266000  0.49645000  1.0
  H  H45  1  0.34443000  0.24273000  0.46725000  1.0
  H  H46  1  0.69465000  0.78890000  0.57806000  1.0
  C  C47  1  0.59260000  0.44989000  0.57602000  1.0
  C  C48  1  0.80519000  0.83982000  0.49505000  1.0
  C  C49  1  0.74772000  0.71665000  0.52012000  1.0
  C  C50  1  0.37096000  0.40736000  0.50904000  1.0
  C  C51  1  0.69071000  0.72615000  0.54700000  1.0
  C  C52  1  0.20857000  0.45807000  0.16491000  1.0
  C  C53  1  0.13175000  0.44205000  0.16476000  1.0
  C  C54  1  0.28058000  0.45442000  0.22205000  1.0
  C  C55  1  0.30834000  0.48875000  0.30542000  1.0
  C  C56  1  0.05296000  0.13335000  0.64700000  1.0
  C  C57  1  0.10524000  0.12351000  0.47729000  1.0
  C  C58  1  0.17475000  0.19996000  0.48378000  1.0
  C  C59  1  0.04893000  0.89957000  0.41915000  1.0
  C  C60  1  0.87712000  0.90256000  0.49352000  1.0
  C  C61  1  0.02150000  0.38757000  0.89851000  1.0
  C  C62  1  0.38448000  0.49129000  0.36631000  1.0
  C  C63  1  0.84895000  0.45964000  0.86969000  1.0
  C  C64  1  0.01403000  0.63343000  0.10428000  1.0
  C  C65  1  0.06648000  0.45432000  0.10657000  1.0
  C  C66  1  0.10675000  0.32460000  0.84575000  1.0
  C  C67  1  0.02998000  0.31234000  0.84831000  1.0
  C  C68  1  0.11693000  0.26129000  0.78899000  1.0
  C  C69  1  0.18010000  0.28610000  0.54168000  1.0
  C  C70  1  0.05187000  0.20312000  0.70841000  1.0
  C  C71  1  0.97435000  0.70497000  0.21162000  1.0
  C  C72  1  0.02545000  0.70709000  0.17274000  1.0
  C  C73  1  0.98721000  0.77502000  0.28305000  1.0
  C  C74  1  0.62256000  0.65154000  0.53969000  1.0
  C  C75  1  0.06286000  0.84431000  0.35293000  1.0
  C  C76  1  0.33341000  0.27294000  0.51977000  1.0
  C  C77  1  0.26528000  0.20575000  0.52561000  1.0
  C  C78  1  0.26508000  0.36348000  0.56429000  1.0
  C  C79  1  0.21953000  0.28065000  0.41058000  1.0
  C  C80  1  0.15431000  0.19457000  0.39682000  1.0
  C  C81  1  0.29738000  0.33375000  0.50135000  1.0
  C  C82  1  0.68473000  0.30577000  0.61518000  1.0
  C  C83  1  0.95371000  0.15267000  0.79266000  1.0
  C  C84  1  0.22166000  0.94766000  0.42838000  1.0
  C  C85  1  0.70304000  0.43855000  0.77720000  1.0
  C  C86  1  0.78630000  0.45418000  0.79502000  1.0
  C  C87  1  0.64506000  0.44211000  0.70862000  1.0
  C  C88  1  0.63965000  0.42001000  0.63060000  1.0
  C  C89  1  0.81634000  0.78415000  0.52239000  1.0
  N  N90  1  0.66879000  0.36830000  0.59309000  1.0
  N  N91  1  0.95721000  0.23590000  0.81454000  1.0
  N  N92  1  0.14611000  0.86255000  0.36864000  1.0
  O  O93  1  0.57473000  0.50846000  0.60824000  1.0
  O  O94  1  0.07639000  0.46432000  0.92104000  1.0
  O  O95  1  0.82040000  0.41705000  0.90474000  1.0
  O  O96  1  0.57494000  0.41370000  0.49796000  1.0
  O  O97  1  0.92996000  0.50726000  0.89563000  1.0
  O  O98  1  0.95524000  0.55754000  0.07610000  1.0
  O  O99  1  0.06906000  0.65206000  0.07549000  1.0
  O  O100  1  0.98490000  0.41007000  0.08370000  1.0
  O  O101  1  0.09508000  0.50733000  0.08232000  1.0
  O  O102  1  0.39939000  0.48541000  0.56624000  1.0
  O  O103  1  0.40127000  0.38847000  0.45981000  1.0
  O  O104  1  0.99686000  0.10227000  0.56971000  1.0
  O  O105  1  0.41215000  0.53988000  0.44383000  1.0
  O  O106  1  0.41848000  0.44489000  0.33883000  1.0
  O  O107  1  0.58755000  0.66858000  0.58702000  1.0
  O  O108  1  0.60224000  0.57583000  0.48788000  1.0
  O  O109  1  0.10670000  0.10401000  0.67071000  1.0
  O  O110  1  0.41827000  0.31837000  0.59224000  1.0
  O  O111  1  0.24421000  0.43097000  0.56431000  1.0
  O  O112  1  0.10512000  0.29066000  0.49766000  1.0
  O  O113  1  0.89980000  0.62850000  0.17665000  1.0
  O  O114  1  0.09361000  0.78571000  0.19785000  1.0
  O  O115  1  0.13146000  0.09215000  0.52376000  1.0
  O  O116  1  0.18908000  0.29218000  0.62024000  1.0
  O  O117  1  0.15482000  0.12059000  0.34233000  1.0
  O  O118  1  0.02435000  0.09696000  0.42735000  1.0
  O  O119  1  0.09969000  0.92437000  0.49682000  1.0
  O  O120  1  0.98711000  0.91693000  0.39366000  1.0
  O  O121  1  0.95558000  0.92207000  0.54001000  1.0
  O  O122  1  0.85297000  0.93214000  0.44276000  1.0
  O  O123  1  0.95832000  0.36855000  0.91440000  1.0
