# generated using pymatgen
data_CuH7C5(NO2)2
_symmetry_space_group_name_H-M   'P 1'
_cell_length_a   7.24125000
_cell_length_b   7.25044000
_cell_length_c   7.70026000
_cell_angle_alpha   88.98420000
_cell_angle_beta   77.11280000
_cell_angle_gamma   87.01540000
_symmetry_Int_Tables_number   1
_chemical_formula_structural   CuH7C5(NO2)2
_chemical_formula_sum   'Cu2 H14 C10 N4 O8'
_cell_volume   393.55521686
_cell_formula_units_Z   2
loop_
 _symmetry_equiv_pos_site_id
 _symmetry_equiv_pos_as_xyz
  1  'x, y, z'
loop_
 _atom_site_type_symbol
 _atom_site_label
 _atom_site_symmetry_multiplicity
 _atom_site_fract_x
 _atom_site_fract_y
 _atom_site_fract_z
 _atom_site_occupancy
  Cu  Cu0  1  0.36185000  0.20855000  0.52664000  1.0
  Cu  Cu1  1  0.63816000  0.79144000  0.47336000  1.0
  H  H2  1  0.68055000  0.30439000  0.57156000  1.0
  H  H3  1  0.31946000  0.69563000  0.42843000  1.0
  H  H4  1  0.55908000  0.21141000  0.75505000  1.0
  H  H5  1  0.44094000  0.78861000  0.24495000  1.0
  H  H6  1  0.50955000  0.43354000  0.71203000  1.0
  H  H7  1  0.49044000  0.56647000  0.28796000  1.0
  H  H8  1  0.15188000  0.47239000  0.70076000  1.0
  H  H9  1  0.84811000  0.52762000  0.29922000  1.0
  H  H10  1  0.10397000  0.27574000  0.81202000  1.0
  H  H11  1  0.89603000  0.72428000  0.18798000  1.0
  H  H12  1  0.02608000  0.32050000  0.62438000  1.0
  H  H13  1  0.97392000  0.67951000  0.37561000  1.0
  H  H14  1  0.68674000  0.02086000  0.92135000  1.0
  H  H15  1  0.31326000  0.97912000  0.07866000  1.0
  C  C16  1  0.05906000  0.16716000  0.32464000  1.0
  C  C17  1  0.94095000  0.83283000  0.67537000  1.0
  C  C18  1  0.02548000  0.08344000  0.15693000  1.0
  C  C19  1  0.97451000  0.91655000  0.84305000  1.0
  C  C20  1  0.82460000  0.01389000  0.95660000  1.0
  C  C21  1  0.17541000  0.98610000  0.04341000  1.0
  C  C22  1  0.84740000  0.09833000  0.11157000  1.0
  C  C23  1  0.15258000  0.90168000  0.88846000  1.0
  C  C24  1  0.67678000  0.19792000  0.22555000  1.0
  C  C25  1  0.32321000  0.80206000  0.77446000  1.0
  N  N26  1  0.54896000  0.30475000  0.65637000  1.0
  N  N27  1  0.45105000  0.69526000  0.34363000  1.0
  N  N28  1  0.13611000  0.33362000  0.68772000  1.0
  N  N29  1  0.86389000  0.66638000  0.31227000  1.0
  O  O30  1  0.58532000  0.09736000  0.35259000  1.0
  O  O31  1  0.41468000  0.90262000  0.64739000  1.0
  O  O32  1  0.63140000  0.35903000  0.18550000  1.0
  O  O33  1  0.36860000  0.64096000  0.81451000  1.0
  O  O34  1  0.21445000  0.10848000  0.36536000  1.0
  O  O35  1  0.78556000  0.89151000  0.63465000  1.0
  O  O36  1  0.93883000  0.28406000  0.40929000  1.0
  O  O37  1  0.06119000  0.71595000  0.59071000  1.0
