# generated using pymatgen
data_KBH14C10SNO2F3
_symmetry_space_group_name_H-M   'P 1'
_cell_length_a   8.20455000
_cell_length_b   9.34874000
_cell_length_c   17.75860000
_cell_angle_alpha   90.00000000
_cell_angle_beta   90.00000000
_cell_angle_gamma   92.78610000
_symmetry_Int_Tables_number   1
_chemical_formula_structural   KBH14C10SNO2F3
_chemical_formula_sum   'K4 B4 H56 C40 S4 N4 O8 F12'
_cell_volume   1360.51368735
_cell_formula_units_Z   4
loop_
 _symmetry_equiv_pos_site_id
 _symmetry_equiv_pos_as_xyz
  1  'x, y, z'
loop_
 _atom_site_type_symbol
 _atom_site_label
 _atom_site_symmetry_multiplicity
 _atom_site_fract_x
 _atom_site_fract_y
 _atom_site_fract_z
 _atom_site_occupancy
  K  K0  1  0.25001000  0.50000000  0.43680000  1.0
  K  K1  1  0.75002000  0.50000000  0.56320000  1.0
  K  K2  1  0.25000000  0.00000000  0.43846000  1.0
  K  K3  1  0.75000000  0.00000000  0.56154000  1.0
  B  B4  1  0.87695000  0.76822000  0.41777000  1.0
  B  B5  1  0.62305000  0.23178000  0.41777000  1.0
  B  B6  1  0.12305000  0.23178000  0.58223000  1.0
  B  B7  1  0.37695000  0.76821000  0.58223000  1.0
  H  H8  1  0.60052000  0.99141000  0.06029000  1.0
  H  H9  1  0.89947000  0.00859000  0.06029000  1.0
  H  H10  1  0.39948000  0.00859000  0.93971000  1.0
  H  H11  1  0.10052000  0.99141000  0.93972000  1.0
  H  H12  1  0.60242000  0.53265000  0.05622000  1.0
  H  H13  1  0.89758000  0.46736000  0.05622000  1.0
  H  H14  1  0.39757000  0.46735000  0.94378000  1.0
  H  H15  1  0.10242000  0.53264000  0.94378000  1.0
  H  H16  1  0.57429000  0.11562000  0.16703000  1.0
  H  H17  1  0.92570000  0.88439000  0.16703000  1.0
  H  H18  1  0.42570000  0.88438000  0.83297000  1.0
  H  H19  1  0.07430000  0.11562000  0.83297000  1.0
  H  H20  1  0.59102000  0.03444000  0.25645000  1.0
  H  H21  1  0.90898000  0.96556000  0.25645000  1.0
  H  H22  1  0.40897000  0.96556000  0.74355000  1.0
  H  H23  1  0.09103000  0.03444000  0.74355000  1.0
  H  H24  1  0.39685000  0.05157000  0.21753000  1.0
  H  H25  1  0.10315000  0.94843000  0.21753000  1.0
  H  H26  1  0.60315000  0.94843000  0.78247000  1.0
  H  H27  1  0.89685000  0.05157000  0.78247000  1.0
  H  H28  1  0.54061000  0.76563000  0.93042000  1.0
  H  H29  1  0.95939000  0.23438000  0.93042000  1.0
  H  H30  1  0.45939000  0.23437000  0.06957000  1.0
  H  H31  1  0.04061000  0.76562000  0.06958000  1.0
  H  H32  1  0.71903000  0.67326000  0.94977000  1.0
  H  H33  1  0.78097000  0.32674000  0.94977000  1.0
  H  H34  1  0.28097000  0.32674000  0.05023000  1.0
  H  H35  1  0.21903000  0.67326000  0.05023000  1.0
  H  H36  1  0.72461000  0.86335000  0.95163000  1.0
  H  H37  1  0.77539000  0.13666000  0.95163000  1.0
  H  H38  1  0.27539000  0.13666000  0.04837000  1.0
  H  H39  1  0.22461000  0.86334000  0.04837000  1.0
  H  H40  1  0.39183000  0.44437000  0.21051000  1.0
  H  H41  1  0.10817000  0.55563000  0.21051000  1.0
  H  H42  1  0.60816000  0.55563000  0.78949000  1.0
  H  H43  1  0.89183000  0.44437000  0.78949000  1.0
  H  H44  1  0.58898000  0.46578000  0.24736000  1.0
  H  H45  1  0.91102000  0.53422000  0.24736000  1.0
  H  H46  1  0.41102000  0.53422000  0.75264000  1.0
  H  H47  1  0.08898000  0.46578000  0.75264000  1.0
  H  H48  1  0.56218000  0.39749000  0.15464000  1.0
  H  H49  1  0.93782000  0.60251000  0.15464000  1.0
  H  H50  1  0.43781000  0.60251000  0.84536000  1.0
  H  H51  1  0.06218000  0.39749000  0.84536000  1.0
  H  H52  1  0.82259000  0.73471000  0.29498000  1.0
  H  H53  1  0.67741000  0.26529000  0.29498000  1.0
  H  H54  1  0.17741000  0.26529000  0.70502000  1.0
  H  H55  1  0.32259000  0.73471000  0.70502000  1.0
  H  H56  1  0.71900000  0.60977000  0.35538000  1.0
  H  H57  1  0.78100000  0.39023000  0.35538000  1.0
  H  H58  1  0.28100000  0.39023000  0.64462000  1.0
  H  H59  1  0.21900000  0.60977000  0.64462000  1.0
  H  H60  1  0.61454000  0.91106000  0.36221000  1.0
  H  H61  1  0.88546000  0.08894000  0.36220000  1.0
  H  H62  1  0.38546000  0.08894000  0.63779000  1.0
  H  H63  1  0.11454000  0.91106000  0.63780000  1.0
  C  C64  1  0.51166000  0.75304000  0.20085000  1.0
  C  C65  1  0.98833000  0.24696000  0.20085000  1.0
  C  C66  1  0.48834000  0.24696000  0.79915000  1.0
  C  C67  1  0.01166000  0.75304000  0.79916000  1.0
  C  C68  1  0.53728000  0.88735000  0.16444000  1.0
  C  C69  1  0.96272000  0.11265000  0.16444000  1.0
  C  C70  1  0.46272000  0.11265000  0.83556000  1.0
  C  C71  1  0.03728000  0.88735000  0.83556000  1.0
  C  C72  1  0.58138000  0.88813000  0.08833000  1.0
  C  C73  1  0.91861000  0.11187000  0.08833000  1.0
  C  C74  1  0.41862000  0.11187000  0.91167000  1.0
  C  C75  1  0.08138000  0.88813000  0.91167000  1.0
  C  C76  1  0.60465000  0.76232000  0.04796000  1.0
  C  C77  1  0.89535000  0.23768000  0.04796000  1.0
  C  C78  1  0.39535000  0.23768000  0.95204000  1.0
  C  C79  1  0.10465000  0.76232000  0.95204000  1.0
  C  C80  1  0.58236000  0.63237000  0.08616000  1.0
  C  C81  1  0.91764000  0.36763000  0.08616000  1.0
  C  C82  1  0.41764000  0.36763000  0.91384000  1.0
  C  C83  1  0.08235000  0.63237000  0.91384000  1.0
  C  C84  1  0.53589000  0.62305000  0.16210000  1.0
  C  C85  1  0.96411000  0.37695000  0.16210000  1.0
  C  C86  1  0.46411000  0.37695000  0.83790000  1.0
  C  C87  1  0.03589000  0.62305000  0.83791000  1.0
  C  C88  1  0.52333000  0.02954000  0.20316000  1.0
  C  C89  1  0.97667000  0.97046000  0.20316000  1.0
  C  C90  1  0.47667000  0.97046000  0.79684000  1.0
  C  C91  1  0.02333000  0.02954000  0.79685000  1.0
  C  C92  1  0.65041000  0.76634000  0.96606000  1.0
  C  C93  1  0.84959000  0.23366000  0.96606000  1.0
  C  C94  1  0.34959000  0.23366000  0.03394000  1.0
  C  C95  1  0.15041000  0.76634000  0.03395000  1.0
  C  C96  1  0.51855000  0.47488000  0.19542000  1.0
  C  C97  1  0.98145000  0.52512000  0.19542000  1.0
  C  C98  1  0.48145000  0.52512000  0.80458000  1.0
  C  C99  1  0.01854000  0.47488000  0.80458000  1.0
  C  C100  1  0.75643000  0.72373000  0.34894000  1.0
  C  C101  1  0.74357000  0.27627000  0.34894000  1.0
  C  C102  1  0.24357000  0.27627000  0.65106000  1.0
  C  C103  1  0.25643000  0.72373000  0.65106000  1.0
  S  S104  1  0.45143000  0.75337000  0.29778000  1.0
  S  S105  1  0.04857000  0.24663000  0.29778000  1.0
  S  S106  1  0.54857000  0.24664000  0.70222000  1.0
  S  S107  1  0.95143000  0.75337000  0.70222000  1.0
  N  N108  1  0.60842000  0.80485000  0.34816000  1.0
  N  N109  1  0.89158000  0.19515000  0.34816000  1.0
  N  N110  1  0.39158000  0.19515000  0.65184000  1.0
  N  N111  1  0.10842000  0.80485000  0.65184000  1.0
  O  O112  1  0.40843000  0.60657000  0.31813000  1.0
  O  O113  1  0.09157000  0.39343000  0.31813000  1.0
  O  O114  1  0.59157000  0.39343000  0.68187000  1.0
  O  O115  1  0.90843000  0.60657000  0.68187000  1.0
  O  O116  1  0.33056000  0.85954000  0.30844000  1.0
  O  O117  1  0.16944000  0.14046000  0.30844000  1.0
  O  O118  1  0.66944000  0.14046000  0.69156000  1.0
  O  O119  1  0.83056000  0.85954000  0.69156000  1.0
  F  F120  1  0.01958000  0.68918000  0.41506000  1.0
  F  F121  1  0.48042000  0.31082000  0.41505000  1.0
  F  F122  1  0.98042000  0.31082000  0.58494000  1.0
  F  F123  1  0.51958000  0.68918000  0.58495000  1.0
  F  F124  1  0.80124000  0.74503000  0.48989000  1.0
  F  F125  1  0.69876000  0.25497000  0.48989000  1.0
  F  F126  1  0.19876000  0.25496000  0.51011000  1.0
  F  F127  1  0.30125000  0.74503000  0.51011000  1.0
  F  F128  1  0.92592000  0.92055000  0.41635000  1.0
  F  F129  1  0.57408000  0.07945000  0.41635000  1.0
  F  F130  1  0.07408000  0.07945000  0.58365000  1.0
  F  F131  1  0.42592000  0.92055000  0.58365000  1.0
