# generated using pymatgen
data_Cu2H4C3S3Cl2
_symmetry_space_group_name_H-M   'P 1'
_cell_length_a   5.81824000
_cell_length_b   10.63910000
_cell_length_c   12.80860000
_cell_angle_alpha   90.00060000
_cell_angle_beta   90.00010000
_cell_angle_gamma   86.61160000
_symmetry_Int_Tables_number   1
_chemical_formula_structural   Cu2H4C3S3Cl2
_chemical_formula_sum   'Cu8 H16 C12 S12 Cl8'
_cell_volume   791.47699142
_cell_formula_units_Z   4
loop_
 _symmetry_equiv_pos_site_id
 _symmetry_equiv_pos_as_xyz
  1  'x, y, z'
loop_
 _atom_site_type_symbol
 _atom_site_label
 _atom_site_symmetry_multiplicity
 _atom_site_fract_x
 _atom_site_fract_y
 _atom_site_fract_z
 _atom_site_occupancy
  Cu  Cu0  1  0.86287000  0.77847000  0.73578000  1.0
  Cu  Cu1  1  0.63713000  0.22153000  0.23578000  1.0
  Cu  Cu2  1  0.13712000  0.22153000  0.26422000  1.0
  Cu  Cu3  1  0.36287000  0.77847000  0.76422000  1.0
  Cu  Cu4  1  0.51712000  0.45788000  0.66027000  1.0
  Cu  Cu5  1  0.98288000  0.54212000  0.16027000  1.0
  Cu  Cu6  1  0.48288000  0.54212000  0.33973000  1.0
  Cu  Cu7  1  0.01712000  0.45789000  0.83973000  1.0
  H  H8  1  0.55760000  0.80179000  0.31161000  1.0
  H  H9  1  0.94241000  0.19820000  0.81161000  1.0
  H  H10  1  0.44240000  0.19822000  0.68838000  1.0
  H  H11  1  0.05759000  0.80178000  0.18839000  1.0
  H  H12  1  0.44841000  0.95873000  0.34234000  1.0
  H  H13  1  0.05163000  0.04126000  0.84234000  1.0
  H  H14  1  0.55158000  0.04127000  0.65766000  1.0
  H  H15  1  0.94839000  0.95873000  0.15767000  1.0
  H  H16  1  0.13555000  0.87201000  0.45111000  1.0
  H  H17  1  0.36447000  0.12800000  0.95111000  1.0
  H  H18  1  0.86444000  0.12799000  0.54888000  1.0
  H  H19  1  0.63554000  0.87201000  0.04890000  1.0
  H  H20  1  0.13463000  0.78687000  0.33030000  1.0
  H  H21  1  0.36538000  0.21314000  0.83030000  1.0
  H  H22  1  0.86537000  0.21313000  0.66969000  1.0
  H  H23  1  0.63462000  0.78686000  0.16970000  1.0
  C  C24  1  0.52836000  0.72386000  0.53729000  1.0
  C  C25  1  0.97165000  0.27614000  0.03729000  1.0
  C  C26  1  0.47163000  0.27614000  0.46271000  1.0
  C  C27  1  0.02836000  0.72387000  0.96272000  1.0
  C  C28  1  0.46540000  0.86106000  0.36993000  1.0
  C  C29  1  0.03462000  0.13893000  0.86993000  1.0
  C  C30  1  0.53459000  0.13894000  0.63006000  1.0
  C  C31  1  0.96538000  0.86107000  0.13008000  1.0
  C  C32  1  0.23752000  0.80971000  0.39832000  1.0
  C  C33  1  0.26249000  0.19030000  0.89832000  1.0
  C  C34  1  0.76247000  0.19030000  0.60168000  1.0
  C  C35  1  0.73751000  0.80970000  0.10169000  1.0
  S  S36  1  0.61901000  0.65794000  0.65140000  1.0
  S  S37  1  0.88099000  0.34206000  0.15139000  1.0
  S  S38  1  0.38099000  0.34206000  0.34860000  1.0
  S  S39  1  0.11901000  0.65795000  0.84861000  1.0
  S  S40  1  0.64235000  0.85465000  0.48674000  1.0
  S  S41  1  0.85767000  0.14534000  0.98674000  1.0
  S  S42  1  0.35764000  0.14535000  0.51326000  1.0
  S  S43  1  0.14234000  0.85465000  0.01327000  1.0
  S  S44  1  0.30139000  0.66240000  0.46853000  1.0
  S  S45  1  0.19861000  0.33760000  0.96853000  1.0
  S  S46  1  0.69860000  0.33760000  0.53146000  1.0
  S  S47  1  0.80139000  0.66240000  0.03147000  1.0
  Cl  Cl48  1  0.61312000  0.91060000  0.83999000  1.0
  Cl  Cl49  1  0.88687000  0.08940000  0.33998000  1.0
  Cl  Cl50  1  0.38687000  0.08941000  0.16001000  1.0
  Cl  Cl51  1  0.11313000  0.91059000  0.66002000  1.0
  Cl  Cl52  1  0.14017000  0.41118000  0.66989000  1.0
  Cl  Cl53  1  0.35983000  0.58882000  0.16989000  1.0
  Cl  Cl54  1  0.85983000  0.58882000  0.33011000  1.0
  Cl  Cl55  1  0.64017000  0.41118000  0.83010000  1.0
