# generated using pymatgen
data_TmH7C8SO9
_symmetry_space_group_name_H-M   'P 1'
_cell_length_a   6.33554000
_cell_length_b   8.51519000
_cell_length_c   10.54960000
_cell_angle_alpha   90.31620000
_cell_angle_beta   99.79580000
_cell_angle_gamma   107.49200000
_symmetry_Int_Tables_number   1
_chemical_formula_structural   TmH7C8SO9
_chemical_formula_sum   'Tm2 H14 C16 S2 O18'
_cell_volume   533.92906625
_cell_formula_units_Z   2
loop_
 _symmetry_equiv_pos_site_id
 _symmetry_equiv_pos_as_xyz
  1  'x, y, z'
loop_
 _atom_site_type_symbol
 _atom_site_label
 _atom_site_symmetry_multiplicity
 _atom_site_fract_x
 _atom_site_fract_y
 _atom_site_fract_z
 _atom_site_occupancy
  Tm  Tm0  1  0.15641000  0.25127000  0.61787000  1.0
  Tm  Tm1  1  0.84360000  0.74873000  0.38213000  1.0
  H  H2  1  0.61746000  0.41254000  0.14574000  1.0
  H  H3  1  0.38254000  0.58746000  0.85426000  1.0
  H  H4  1  0.65873000  0.36848000  0.91957000  1.0
  H  H5  1  0.34126000  0.63152000  0.08043000  1.0
  H  H6  1  0.18323000  0.15292000  0.05564000  1.0
  H  H7  1  0.81677000  0.84708000  0.94436000  1.0
  H  H8  1  0.52074000  0.08110000  0.67725000  1.0
  H  H9  1  0.47926000  0.91890000  0.32275000  1.0
  H  H10  1  0.29174000  0.95647000  0.60478000  1.0
  H  H11  1  0.70826000  0.04353000  0.39522000  1.0
  H  H12  1  0.65430000  0.35834000  0.70827000  1.0
  H  H13  1  0.34570000  0.64165000  0.29172000  1.0
  H  H14  1  0.58120000  0.50968000  0.64693000  1.0
  H  H15  1  0.41881000  0.49032000  0.35307000  1.0
  C  C16  1  0.02236000  0.22276000  0.20128000  1.0
  C  C17  1  0.97763000  0.77724000  0.79872000  1.0
  C  C18  1  0.86818000  0.30244000  0.22860000  1.0
  C  C19  1  0.13182000  0.69756000  0.77140000  1.0
  C  C20  1  0.73728000  0.35166000  0.12482000  1.0
  C  C21  1  0.26271000  0.64834000  0.87518000  1.0
  C  C22  1  0.76149000  0.32762000  0.99807000  1.0
  C  C23  1  0.23851000  0.67237000  0.00193000  1.0
  C  C24  1  0.92570000  0.25821000  0.97325000  1.0
  C  C25  1  0.07430000  0.74179000  0.02675000  1.0
  C  C26  1  0.05367000  0.20451000  0.07525000  1.0
  C  C27  1  0.94633000  0.79549000  0.92475000  1.0
  C  C28  1  0.84660000  0.34532000  0.36356000  1.0
  C  C29  1  0.15340000  0.65468000  0.63644000  1.0
  C  C30  1  0.98657000  0.25161000  0.84340000  1.0
  C  C31  1  0.01343000  0.74839000  0.15660000  1.0
  S  S32  1  0.20944000  0.15869000  0.32159000  1.0
  S  S33  1  0.79056000  0.84131000  0.67841000  1.0
  O  O34  1  0.08001000  0.01507000  0.38327000  1.0
  O  O35  1  0.91999000  0.98493000  0.61673000  1.0
  O  O36  1  0.30498000  0.29937000  0.42059000  1.0
  O  O37  1  0.69503000  0.70063000  0.57941000  1.0
  O  O38  1  0.37473000  0.12334000  0.25634000  1.0
  O  O39  1  0.62527000  0.87666000  0.74366000  1.0
  O  O40  1  0.86069000  0.24321000  0.45072000  1.0
  O  O41  1  0.13931000  0.75679000  0.54928000  1.0
  O  O42  1  0.81772000  0.48249000  0.38423000  1.0
  O  O43  1  0.18228000  0.51751000  0.61577000  1.0
  O  O44  1  0.17442000  0.22853000  0.83622000  1.0
  O  O45  1  0.82558000  0.77147000  0.16378000  1.0
  O  O46  1  0.85999000  0.27208000  0.74014000  1.0
  O  O47  1  0.14001000  0.72792000  0.25986000  1.0
  O  O48  1  0.36890000  0.07421000  0.63383000  1.0
  O  O49  1  0.63110000  0.92580000  0.36616000  1.0
  O  O50  1  0.52805000  0.40741000  0.69166000  1.0
  O  O51  1  0.47195000  0.59259000  0.30834000  1.0
