# generated using pymatgen
data_AlH7C9NO6
_symmetry_space_group_name_H-M   'P 1'
_cell_length_a   6.72109000
_cell_length_b   8.71379000
_cell_length_c   15.32786497
_cell_angle_alpha   94.06375039
_cell_angle_beta   102.31899833
_cell_angle_gamma   104.01730000
_symmetry_Int_Tables_number   1
_chemical_formula_structural   AlH7C9NO6
_chemical_formula_sum   'Al2 H14 C18 N2 O12'
_cell_volume   843.76838238
_cell_formula_units_Z   2
loop_
 _symmetry_equiv_pos_site_id
 _symmetry_equiv_pos_as_xyz
  1  'x, y, z'
loop_
 _atom_site_type_symbol
 _atom_site_label
 _atom_site_symmetry_multiplicity
 _atom_site_fract_x
 _atom_site_fract_y
 _atom_site_fract_z
 _atom_site_occupancy
  Al  Al0  1  0.00008000  0.50008000  0.50001000  1.0
  Al  Al1  1  0.50011000  0.50011000  0.50003000  1.0
  H  H2  1  0.15438000  0.35516000  0.40168000  1.0
  H  H3  1  0.84592000  0.64552000  0.59812000  1.0
  H  H4  1  0.76727000  0.44790000  0.93254000  1.0
  H  H5  1  0.23261000  0.55196000  0.06747000  1.0
  H  H6  1  0.92377000  0.48461000  0.22623000  1.0
  H  H7  1  0.84088000  0.46869000  0.06246000  1.0
  H  H8  1  0.07600000  0.51491000  0.77373000  1.0
  H  H9  1  0.15862000  0.53055000  0.93748000  1.0
  H  H10  1  0.27804000  0.15261000  0.51575000  1.0
  H  H11  1  0.13064000  0.97620000  0.54092000  1.0
  H  H12  1  0.72196000  0.84760000  0.48413000  1.0
  H  H13  1  0.86938000  0.02407000  0.45908000  1.0
  H  H14  1  0.65617000  0.43158000  0.69847000  1.0
  H  H15  1  0.34394000  0.56853000  0.30157000  1.0
  C  C16  1  0.67790000  0.52119000  0.33870000  1.0
  C  C17  1  0.65755000  0.21224000  0.48896000  1.0
  C  C18  1  0.32221000  0.47890000  0.66132000  1.0
  C  C19  1  0.34259000  0.78797000  0.51110000  1.0
  C  C20  1  0.40045000  0.96075000  0.50551000  1.0
  C  C21  1  0.59968000  0.03946000  0.49456000  1.0
  C  C22  1  0.37287000  0.47779000  0.75918000  1.0
  C  C23  1  0.62708000  0.52209000  0.24082000  1.0
  C  C24  1  0.56869000  0.45683000  0.80631000  1.0
  C  C25  1  0.61495000  0.46503000  0.90027000  1.0
  C  C26  1  0.43126000  0.54306000  0.19371000  1.0
  C  C27  1  0.38490000  0.53480000  0.09974000  1.0
  C  C28  1  0.77130000  0.49704000  0.19059000  1.0
  C  C29  1  0.72366000  0.48894000  0.09785000  1.0
  C  C30  1  0.22849000  0.50258000  0.80939000  1.0
  C  C31  1  0.27602000  0.51055000  0.90212000  1.0
  C  C32  1  0.47265000  0.49377000  0.95009000  1.0
  C  C33  1  0.52708000  0.50587000  0.04989000  1.0
  N  N34  1  0.23856000  0.03159000  0.50820000  1.0
  N  N35  1  0.76159000  0.96862000  0.49184000  1.0
  O  O36  1  0.85637000  0.50426000  0.37811000  1.0
  O  O37  1  0.51152000  0.28585000  0.48054000  1.0
  O  O38  1  0.46764000  0.46477000  0.61965000  1.0
  O  O39  1  0.14909000  0.72133000  0.50852000  1.0
  O  O40  1  0.14375000  0.49586000  0.62190000  1.0
  O  O41  1  0.48863000  0.71437000  0.51950000  1.0
  O  O42  1  0.53251000  0.53544000  0.38038000  1.0
  O  O43  1  0.85103000  0.27886000  0.49153000  1.0
  O  O44  1  0.20791000  0.43393000  0.45473000  1.0
  O  O45  1  0.79228000  0.56628000  0.54529000  1.0
  O  O46  1  0.71576000  0.42890000  0.76386000  1.0
  O  O47  1  0.28425000  0.57110000  0.23617000  1.0
