# generated using pymatgen
data_ZnH11C17(NO)4
_symmetry_space_group_name_H-M   'P 1'
_cell_length_a   7.35203000
_cell_length_b   15.12170000
_cell_length_c   16.74510000
_cell_angle_alpha   105.58100000
_cell_angle_beta   90.00000000
_cell_angle_gamma   89.99990000
_symmetry_Int_Tables_number   1
_chemical_formula_structural   ZnH11C17(NO)4
_chemical_formula_sum   'Zn4 H44 C68 N16 O16'
_cell_volume   1793.22759721
_cell_formula_units_Z   4
loop_
 _symmetry_equiv_pos_site_id
 _symmetry_equiv_pos_as_xyz
  1  'x, y, z'
loop_
 _atom_site_type_symbol
 _atom_site_label
 _atom_site_symmetry_multiplicity
 _atom_site_fract_x
 _atom_site_fract_y
 _atom_site_fract_z
 _atom_site_occupancy
  Zn  Zn0  1  0.85334000  0.81301000  0.48595000  1.0
  Zn  Zn1  1  0.85334000  0.68699000  0.01405000  1.0
  Zn  Zn2  1  0.14666000  0.18699000  0.51405000  1.0
  Zn  Zn3  1  0.14666000  0.31301000  0.98595000  1.0
  H  H4  1  0.69490000  0.92741000  0.36594000  1.0
  H  H5  1  0.69490000  0.57259000  0.13406000  1.0
  H  H6  1  0.30510000  0.07259000  0.63407000  1.0
  H  H7  1  0.30510000  0.42741000  0.86593000  1.0
  H  H8  1  0.23843000  0.85214000  0.40120000  1.0
  H  H9  1  0.23843000  0.64786000  0.09880000  1.0
  H  H10  1  0.76157000  0.14786000  0.59880000  1.0
  H  H11  1  0.76157000  0.35214000  0.90120000  1.0
  H  H12  1  0.56707000  0.10670000  0.24698000  1.0
  H  H13  1  0.56707000  0.39330000  0.25302000  1.0
  H  H14  1  0.43293000  0.89330000  0.75302000  1.0
  H  H15  1  0.43293000  0.60670000  0.74698000  1.0
  H  H16  1  0.70474000  0.97005000  0.14526000  1.0
  H  H17  1  0.70474000  0.52995000  0.35474000  1.0
  H  H18  1  0.29526000  0.02995000  0.85474000  1.0
  H  H19  1  0.29526000  0.47005000  0.64526000  1.0
  H  H20  1  0.29687000  0.79752000  0.20713000  1.0
  H  H21  1  0.29687000  0.70248000  0.29287000  1.0
  H  H22  1  0.70313000  0.20248000  0.79287000  1.0
  H  H23  1  0.70313000  0.29752000  0.70713000  1.0
  H  H24  1  0.16404000  0.86978000  0.63063000  1.0
  H  H25  1  0.16404000  0.63022000  0.86937000  1.0
  H  H26  1  0.83596000  0.13022000  0.36937000  1.0
  H  H27  1  0.83596000  0.36977000  0.13063000  1.0
  H  H28  1  0.43609000  0.74572000  0.64199000  1.0
  H  H29  1  0.43609000  0.75428000  0.85801000  1.0
  H  H30  1  0.56391000  0.25428000  0.35801000  1.0
  H  H31  1  0.56391000  0.24572000  0.14199000  1.0
  H  H32  1  0.08588000  0.62725000  0.43949000  1.0
  H  H33  1  0.08588000  0.87275000  0.06051000  1.0
  H  H34  1  0.91412000  0.37275000  0.56050000  1.0
  H  H35  1  0.91413000  0.12725000  0.93949000  1.0
  H  H36  1  0.64184000  0.65088000  0.57020000  1.0
  H  H37  1  0.64184000  0.84912000  0.92980000  1.0
  H  H38  1  0.35817000  0.34913000  0.42980000  1.0
  H  H39  1  0.35817000  0.15087000  0.07020000  1.0
  H  H40  1  0.17199000  0.49035000  0.46310000  1.0
  H  H41  1  0.17199000  0.00965000  0.03690000  1.0
  H  H42  1  0.82802000  0.50965000  0.53690000  1.0
  H  H43  1  0.82802000  0.99035000  0.96310000  1.0
  H  H44  1  0.92516000  0.98839000  0.25845000  1.0
  H  H45  1  0.92516000  0.51161000  0.24156000  1.0
  H  H46  1  0.07483000  0.01162000  0.74156000  1.0
  H  H47  1  0.07484000  0.48838000  0.75844000  1.0
  C  C48  1  0.84119000  0.92253000  0.35813000  1.0
  C  C49  1  0.84119000  0.57747000  0.14187000  1.0
  C  C50  1  0.15880000  0.07747000  0.64187000  1.0
  C  C51  1  0.15881000  0.42253000  0.85813000  1.0
  C  C52  1  0.11868000  0.88035000  0.37861000  1.0
  C  C53  1  0.11868000  0.61965000  0.12139000  1.0
  C  C54  1  0.88132000  0.11965000  0.62139000  1.0
  C  C55  1  0.88132000  0.38035000  0.87861000  1.0
  C  C56  1  0.28645000  0.94036000  0.27543000  1.0
  C  C57  1  0.28645000  0.55964000  0.22457000  1.0
  C  C58  1  0.71355000  0.05964000  0.72457000  1.0
  C  C59  1  0.71355000  0.44036000  0.77543000  1.0
  C  C60  1  0.36285000  0.02838000  0.28871000  1.0
  C  C61  1  0.36285000  0.47162000  0.21129000  1.0
  C  C62  1  0.63715000  0.97162000  0.71129000  1.0
  C  C63  1  0.63715000  0.52838000  0.78871000  1.0
  C  C64  1  0.51175000  0.03804000  0.23942000  1.0
  C  C65  1  0.51174000  0.46196000  0.26058000  1.0
  C  C66  1  0.48825000  0.96196000  0.76058000  1.0
  C  C67  1  0.48825000  0.53804000  0.73942000  1.0
  C  C68  1  0.58789000  0.96240000  0.18281000  1.0
  C  C69  1  0.58789000  0.53760000  0.31719000  1.0
  C  C70  1  0.41211000  0.03760000  0.81719000  1.0
  C  C71  1  0.41211000  0.46240000  0.68281000  1.0
  C  C72  1  0.51370000  0.87470000  0.17218000  1.0
  C  C73  1  0.51370000  0.62530000  0.32782000  1.0
  C  C74  1  0.48630000  0.12530000  0.82782000  1.0
  C  C75  1  0.48630000  0.37470000  0.67218000  1.0
  C  C76  1  0.35939000  0.86495000  0.21759000  1.0
  C  C77  1  0.35939000  0.63505000  0.28241000  1.0
  C  C78  1  0.64061000  0.13505000  0.78241000  1.0
  C  C79  1  0.64061000  0.36495000  0.71759000  1.0
  C  C80  1  0.59448000  0.79076000  0.11351000  1.0
  C  C81  1  0.59448000  0.70924000  0.38649000  1.0
  C  C82  1  0.40552000  0.20924000  0.88649000  1.0
  C  C83  1  0.40552000  0.29076000  0.61351000  1.0
  C  C84  1  0.29695000  0.11089000  0.35532000  1.0
  C  C85  1  0.29695000  0.38911000  0.14467000  1.0
  C  C86  1  0.70305000  0.88911000  0.64468000  1.0
  C  C87  1  0.70305000  0.61089000  0.85532000  1.0
  C  C88  1  0.18744000  0.80011000  0.59364000  1.0
  C  C89  1  0.18744000  0.69989000  0.90636000  1.0
  C  C90  1  0.81256000  0.19989000  0.40636000  1.0
  C  C91  1  0.81256000  0.30011000  0.09364000  1.0
  C  C92  1  0.32019000  0.73916000  0.60073000  1.0
  C  C93  1  0.32019000  0.76084000  0.89927000  1.0
  C  C94  1  0.67981000  0.26084000  0.39927000  1.0
  C  C95  1  0.67981000  0.23916000  0.10073000  1.0
  C  C96  1  0.14026000  0.67583000  0.49402000  1.0
  C  C97  1  0.14026000  0.82417000  0.00598000  1.0
  C  C98  1  0.85974000  0.32417000  0.50598000  1.0
  C  C99  1  0.85974000  0.17583000  0.99402000  1.0
  C  C100  1  0.39533000  0.57912000  0.51883000  1.0
  C  C101  1  0.39533000  0.92088000  0.98117000  1.0
  C  C102  1  0.60468000  0.42089000  0.48117000  1.0
  C  C103  1  0.60468000  0.07911000  0.01883000  1.0
  C  C104  1  0.57936000  0.58473000  0.54065000  1.0
  C  C105  1  0.57936000  0.91527000  0.95934000  1.0
  C  C106  1  0.42064000  0.41527000  0.45934000  1.0
  C  C107  1  0.42064000  0.08473000  0.04066000  1.0
  C  C108  1  0.31631000  0.49480000  0.47851000  1.0
  C  C109  1  0.31631000  0.00520000  0.02149000  1.0
  C  C110  1  0.68369000  0.50520000  0.52149000  1.0
  C  C111  1  0.68369000  0.99480000  0.97851000  1.0
  C  C112  1  0.95238000  0.95279000  0.30522000  1.0
  C  C113  1  0.95238000  0.54721000  0.19478000  1.0
  C  C114  1  0.04761000  0.04721000  0.69479000  1.0
  C  C115  1  0.04761000  0.45279000  0.80522000  1.0
  N  N116  1  0.94675000  0.87781000  0.40345000  1.0
  N  N117  1  0.94675000  0.62218000  0.09655000  1.0
  N  N118  1  0.05324000  0.12218000  0.59655000  1.0
  N  N119  1  0.05324000  0.37781000  0.90345000  1.0
  N  N120  1  0.12664000  0.92538000  0.31876000  1.0
  N  N121  1  0.12664000  0.57462000  0.18124000  1.0
  N  N122  1  0.87335000  0.07462000  0.68124000  1.0
  N  N123  1  0.87336000  0.42538000  0.81876000  1.0
  N  N124  1  0.07677000  0.75984000  0.52718000  1.0
  N  N125  1  0.07677000  0.74016000  0.97282000  1.0
  N  N126  1  0.92323000  0.24016000  0.47282000  1.0
  N  N127  1  0.92322000  0.25984000  0.02718000  1.0
  N  N128  1  0.28870000  0.66027000  0.53718000  1.0
  N  N129  1  0.28870000  0.83973000  0.96282000  1.0
  N  N130  1  0.71130000  0.33973000  0.46282000  1.0
  N  N131  1  0.71130000  0.16027000  0.03718000  1.0
  O  O132  1  0.51642000  0.71472000  0.10112000  1.0
  O  O133  1  0.51642000  0.78528000  0.39888000  1.0
  O  O134  1  0.48358000  0.28528000  0.89888000  1.0
  O  O135  1  0.48358000  0.21472000  0.60112000  1.0
  O  O136  1  0.74693000  0.80427000  0.07938000  1.0
  O  O137  1  0.74693000  0.69573000  0.42062000  1.0
  O  O138  1  0.25308000  0.19574000  0.92062000  1.0
  O  O139  1  0.25308000  0.30427000  0.57938000  1.0
  O  O140  1  0.24556000  0.09127000  0.42257000  1.0
  O  O141  1  0.24556000  0.40873000  0.07743000  1.0
  O  O142  1  0.75444000  0.90873000  0.57743000  1.0
  O  O143  1  0.75444000  0.59127000  0.92257000  1.0
  O  O144  1  0.30075000  0.18856000  0.34293000  1.0
  O  O145  1  0.30075000  0.31144000  0.15707000  1.0
  O  O146  1  0.69925000  0.81145000  0.65707000  1.0
  O  O147  1  0.69925000  0.68856000  0.84293000  1.0
