# generated using pymatgen
data_LiBH14C16O7
_symmetry_space_group_name_H-M   'P 1'
_cell_length_a   6.56390000
_cell_length_b   9.01604000
_cell_length_c   13.56320000
_cell_angle_alpha   89.99960000
_cell_angle_beta   85.61560000
_cell_angle_gamma   89.99980000
_symmetry_Int_Tables_number   1
_chemical_formula_structural   LiBH14C16O7
_chemical_formula_sum   'Li2 B2 H28 C32 O14'
_cell_volume   800.32645087
_cell_formula_units_Z   2
loop_
 _symmetry_equiv_pos_site_id
 _symmetry_equiv_pos_as_xyz
  1  'x, y, z'
loop_
 _atom_site_type_symbol
 _atom_site_label
 _atom_site_symmetry_multiplicity
 _atom_site_fract_x
 _atom_site_fract_y
 _atom_site_fract_z
 _atom_site_occupancy
  Li  Li0  1  0.00306000  0.49294000  0.58588000  1.0
  Li  Li1  1  0.99694000  0.99295000  0.41413000  1.0
  B  B2  1  0.75678000  0.46414000  0.40984000  1.0
  B  B3  1  0.24323000  0.96414000  0.59015000  1.0
  H  H4  1  0.53918000  0.68256000  0.55873000  1.0
  H  H5  1  0.46082000  0.18256000  0.44127000  1.0
  H  H6  1  0.39405000  0.68228000  0.72068000  1.0
  H  H7  1  0.60596000  0.18228000  0.27932000  1.0
  H  H8  1  0.30474000  0.55473000  0.88078000  1.0
  H  H9  1  0.69525000  0.05472000  0.11922000  1.0
  H  H10  1  0.39976000  0.28884000  0.90066000  1.0
  H  H11  1  0.60022000  0.78884000  0.09935000  1.0
  H  H12  1  0.58239000  0.15312000  0.75976000  1.0
  H  H13  1  0.41760000  0.65312000  0.24025000  1.0
  H  H14  1  0.66088000  0.27963000  0.59969000  1.0
  H  H15  1  0.33912000  0.77964000  0.40031000  1.0
  H  H16  1  0.16908000  0.45726000  0.27884000  1.0
  H  H17  1  0.83092000  0.95725000  0.72116000  1.0
  H  H18  1  0.21704000  0.25437000  0.13941000  1.0
  H  H19  1  0.78296000  0.75438000  0.86059000  1.0
  H  H20  1  0.11617000  0.18739000  0.97223000  1.0
  H  H21  1  0.88380000  0.68740000  0.02777000  1.0
  H  H22  1  0.80196000  0.29385000  0.90928000  1.0
  H  H23  1  0.19802000  0.79385000  0.09072000  1.0
  H  H24  1  0.57684000  0.45770000  0.01828000  1.0
  H  H25  1  0.42314000  0.95770000  0.98173000  1.0
  H  H26  1  0.67430000  0.51906000  0.18821000  1.0
  H  H27  1  0.32569000  0.01906000  0.81179000  1.0
  H  H28  1  0.06970000  0.22329000  0.67010000  1.0
  H  H29  1  0.93031000  0.72329000  0.32991000  1.0
  H  H30  1  0.12976000  0.36209000  0.73006000  1.0
  H  H31  1  0.87024000  0.86210000  0.26994000  1.0
  C  C32  1  0.42237000  0.50335000  0.47459000  1.0
  C  C33  1  0.57764000  0.00335000  0.52541000  1.0
  C  C34  1  0.56558000  0.56245000  0.54999000  1.0
  C  C35  1  0.43443000  0.06246000  0.45000000  1.0
  C  C36  1  0.52605000  0.48769000  0.64921000  1.0
  C  C37  1  0.47395000  0.98770000  0.35079000  1.0
  C  C38  1  0.43041000  0.56536000  0.72911000  1.0
  C  C39  1  0.56959000  0.06536000  0.27088000  1.0
  C  C40  1  0.38280000  0.49393000  0.81939000  1.0
  C  C41  1  0.61720000  0.99393000  0.18061000  1.0
  C  C42  1  0.43599000  0.34486000  0.83032000  1.0
  C  C43  1  0.56401000  0.84486000  0.16968000  1.0
  C  C44  1  0.53721000  0.26850000  0.75135000  1.0
  C  C45  1  0.46278000  0.76850000  0.24865000  1.0
  C  C46  1  0.58043000  0.33913000  0.66091000  1.0
  C  C47  1  0.41957000  0.83914000  0.33909000  1.0
  C  C48  1  0.97503000  0.28325000  0.34018000  1.0
  C  C49  1  0.02499000  0.78325000  0.65982000  1.0
  C  C50  1  0.00723000  0.42470000  0.27812000  1.0
  C  C51  1  0.99278000  0.92470000  0.72187000  1.0
  C  C52  1  0.95247000  0.39343000  0.17342000  1.0
  C  C53  1  0.04753000  0.89344000  0.82658000  1.0
  C  C54  1  0.07804000  0.30042000  0.11231000  1.0
  C  C55  1  0.92195000  0.80042000  0.88768000  1.0
  C  C56  1  0.02168000  0.26332000  0.01837000  1.0
  C  C57  1  0.97830000  0.76332000  0.98163000  1.0
  C  C58  1  0.84257000  0.32053000  0.98367000  1.0
  C  C59  1  0.15741000  0.82053000  0.01633000  1.0
  C  C60  1  0.71710000  0.41268000  0.04467000  1.0
  C  C61  1  0.28289000  0.91269000  0.95533000  1.0
  C  C62  1  0.77109000  0.44802000  0.13960000  1.0
  C  C63  1  0.22891000  0.94802000  0.86040000  1.0
  O  O64  1  0.04668000  0.33156000  0.67701000  1.0
  O  O65  1  0.95332000  0.83157000  0.32300000  1.0
  O  O66  1  0.23507000  0.49671000  0.48520000  1.0
  O  O67  1  0.76494000  0.99671000  0.51480000  1.0
  O  O68  1  0.53139000  0.45790000  0.39385000  1.0
  O  O69  1  0.46863000  0.95791000  0.60615000  1.0
  O  O70  1  0.76632000  0.53606000  0.50513000  1.0
  O  O71  1  0.23369000  0.03606000  0.49487000  1.0
  O  O72  1  0.05968000  0.16337000  0.32395000  1.0
  O  O73  1  0.94034000  0.66337000  0.67605000  1.0
  O  O74  1  0.83280000  0.30703000  0.41297000  1.0
  O  O75  1  0.16722000  0.80703000  0.58704000  1.0
  O  O76  1  0.87974000  0.53223000  0.32847000  1.0
  O  O77  1  0.12027000  0.03223000  0.67153000  1.0
