# generated using pymatgen
data_ZnH10C20NO5
_symmetry_space_group_name_H-M   'P 1'
_cell_length_a   11.80520000
_cell_length_b   13.17240000
_cell_length_c   15.26820000
_cell_angle_alpha   90.53690000
_cell_angle_beta   95.21370000
_cell_angle_gamma   96.55030000
_symmetry_Int_Tables_number   1
_chemical_formula_structural   ZnH10C20NO5
_chemical_formula_sum   'Zn2 H20 C40 N2 O10'
_cell_volume   2348.52292738
_cell_formula_units_Z   2
loop_
 _symmetry_equiv_pos_site_id
 _symmetry_equiv_pos_as_xyz
  1  'x, y, z'
loop_
 _atom_site_type_symbol
 _atom_site_label
 _atom_site_symmetry_multiplicity
 _atom_site_fract_x
 _atom_site_fract_y
 _atom_site_fract_z
 _atom_site_occupancy
  Zn  Zn0  1  0.61935000  0.50232000  0.50931000  1.0
  Zn  Zn1  1  0.38065000  0.49768000  0.49069000  1.0
  H  H2  1  0.68185000  0.48925000  0.23449000  1.0
  H  H3  1  0.78712000  0.48153000  0.09997000  1.0
  H  H4  1  0.36498000  0.81383000  0.46727000  1.0
  H  H5  1  0.63505000  0.18618000  0.53274000  1.0
  H  H6  1  0.72505000  0.83828000  0.54540000  1.0
  H  H7  1  0.27498000  0.16172000  0.45459000  1.0
  H  H8  1  0.81984000  0.60825000  0.43798000  1.0
  H  H9  1  0.18018000  0.39175000  0.56204000  1.0
  H  H10  1  0.76910000  0.35510000  0.59475000  1.0
  H  H11  1  0.23091000  0.64489000  0.40526000  1.0
  H  H12  1  0.16547000  0.01923000  0.42432000  1.0
  H  H13  1  0.31812000  0.51075000  0.76551000  1.0
  H  H14  1  0.83456000  0.98077000  0.57568000  1.0
  H  H15  1  0.02363000  0.67255000  0.39498000  1.0
  H  H16  1  0.97638000  0.32745000  0.60503000  1.0
  H  H17  1  0.32031000  0.50976000  0.21036000  1.0
  H  H18  1  0.67965000  0.49024000  0.78963000  1.0
  H  H19  1  0.21381000  0.51821000  0.06212000  1.0
  H  H20  1  0.78615000  0.48180000  0.93787000  1.0
  H  H21  1  0.21286000  0.51848000  0.90002000  1.0
  C  C22  1  0.46214000  0.29920000  0.49731000  1.0
  C  C23  1  0.64837000  0.87617000  0.52943000  1.0
  C  C24  1  0.55474000  0.13865000  0.51489000  1.0
  C  C25  1  0.44530000  0.86135000  0.48509000  1.0
  C  C26  1  0.55310000  0.03117000  0.51274000  1.0
  C  C27  1  0.44693000  0.96883000  0.48726000  1.0
  C  C28  1  0.05404000  0.60880000  0.43165000  1.0
  C  C29  1  0.94596000  0.39120000  0.56837000  1.0
  C  C30  1  0.16798000  0.59435000  0.43683000  1.0
  C  C31  1  0.83202000  0.40564000  0.56318000  1.0
  C  C32  1  0.14085000  0.45167000  0.52559000  1.0
  C  C33  1  0.53791000  0.70080000  0.50269000  1.0
  C  C34  1  0.85916000  0.54832000  0.47443000  1.0
  C  C35  1  0.02209000  0.45948000  0.52443000  1.0
  C  C36  1  0.97792000  0.54052000  0.47560000  1.0
  C  C37  1  0.49916000  0.50040000  0.67092000  1.0
  C  C38  1  0.50081000  0.49960000  0.32907000  1.0
  C  C39  1  0.60315000  0.49391000  0.19218000  1.0
  C  C40  1  0.39682000  0.50608000  0.80781000  1.0
  C  C41  1  0.50108000  0.49977000  0.23095000  1.0
  C  C42  1  0.49889000  0.50023000  0.76904000  1.0
  C  C43  1  0.39865000  0.50565000  0.17843000  1.0
  C  C44  1  0.29225000  0.51319000  0.94149000  1.0
  C  C45  1  0.60132000  0.49435000  0.82156000  1.0
  C  C46  1  0.39620000  0.50632000  0.08650000  1.0
  C  C47  1  0.60376000  0.49368000  0.91349000  1.0
  C  C48  1  0.50023000  0.49996000  0.04654000  1.0
  C  C49  1  0.49973000  0.50003000  0.95345000  1.0
  C  C50  1  0.60474000  0.49349000  0.10044000  1.0
  C  C51  1  0.39524000  0.50650000  0.89955000  1.0
  C  C52  1  0.29269000  0.51308000  0.03095000  1.0
  C  C53  1  0.70727000  0.48692000  0.96904000  1.0
  C  C54  1  0.23102000  0.96475000  0.43670000  1.0
  C  C55  1  0.70773000  0.48682000  0.05850000  1.0
  C  C56  1  0.76901000  0.03526000  0.56329000  1.0
  C  C57  1  0.54402000  0.81539000  0.50538000  1.0
  C  C58  1  0.45601000  0.18461000  0.49462000  1.0
  C  C59  1  0.34550000  0.01793000  0.46558000  1.0
  C  C60  1  0.65453000  0.98208000  0.53442000  1.0
  C  C61  1  0.35167000  0.12383000  0.47056000  1.0
  N  N62  1  0.79030000  0.48385000  0.51695000  1.0
  N  N63  1  0.20970000  0.51616000  0.48307000  1.0
  O  O64  1  0.56209000  0.34755000  0.50640000  1.0
  O  O65  1  0.79715000  0.12756000  0.57469000  1.0
  O  O66  1  0.43793000  0.65245000  0.49359000  1.0
  O  O67  1  0.36806000  0.33834000  0.48995000  1.0
  O  O68  1  0.63197000  0.66166000  0.51003000  1.0
  O  O69  1  0.59637000  0.50509000  0.64005000  1.0
  O  O70  1  0.40359000  0.49492000  0.35995000  1.0
  O  O71  1  0.40247000  0.49601000  0.62559000  1.0
  O  O72  1  0.59749000  0.50398000  0.37440000  1.0
  O  O73  1  0.20289000  0.87245000  0.42531000  1.0
