# generated using pymatgen
data_Al4H28C28S3O29
_symmetry_space_group_name_H-M   'P 1'
_cell_length_a   6.62924000
_cell_length_b   13.96350000
_cell_length_c   16.20040000
_cell_angle_alpha   89.03790000
_cell_angle_beta   89.09660000
_cell_angle_gamma   89.47230000
_symmetry_Int_Tables_number   1
_chemical_formula_structural   Al4H28C28S3O29
_chemical_formula_sum   'Al4 H28 C28 S3 O29'
_cell_volume   1499.17097810
_cell_formula_units_Z   1
loop_
 _symmetry_equiv_pos_site_id
 _symmetry_equiv_pos_as_xyz
  1  'x, y, z'
loop_
 _atom_site_type_symbol
 _atom_site_label
 _atom_site_symmetry_multiplicity
 _atom_site_fract_x
 _atom_site_fract_y
 _atom_site_fract_z
 _atom_site_occupancy
  Al  Al0  1  0.12766000  0.50296000  0.50085000  1.0
  Al  Al1  1  0.62322000  0.50308000  0.50371000  1.0
  Al  Al2  1  0.60704000  0.99435000  0.00594000  1.0
  Al  Al3  1  0.10736000  0.99870000  0.00478000  1.0
  H  H4  1  0.17340000  0.71116000  0.30818000  1.0
  H  H5  1  0.11406000  0.60858000  0.25222000  1.0
  H  H6  1  0.03989000  0.69876000  0.13194000  1.0
  H  H7  1  0.18158000  0.78847000  0.17913000  1.0
  H  H8  1  0.93122000  0.79164000  0.39266000  1.0
  H  H9  1  0.55294000  0.63248000  0.27430000  1.0
  H  H10  1  0.75265000  0.58815000  0.21219000  1.0
  H  H11  1  0.66114000  0.71356000  0.12113000  1.0
  H  H12  1  0.53387000  0.77843000  0.19888000  1.0
  H  H13  1  0.68693000  0.89561000  0.27396000  1.0
  H  H14  1  0.17712000  0.69297000  0.69612000  1.0
  H  H15  1  0.72399000  0.73746000  0.67695000  1.0
  H  H16  1  0.17378000  0.82380000  0.79865000  1.0
  H  H17  1  0.71906000  0.78214000  0.81609000  1.0
  H  H18  1  0.06609000  0.17478000  0.22214000  1.0
  H  H19  1  0.50707000  0.22710000  0.17700000  1.0
  H  H20  1  0.08820000  0.31242000  0.31370000  1.0
  H  H21  1  0.06931000  0.20348000  0.81950000  1.0
  H  H22  1  0.52522000  0.17761000  0.78547000  1.0
  H  H23  1  0.07902000  0.29945000  0.68728000  1.0
  H  H24  1  0.52129000  0.33640000  0.73229000  1.0
  H  H25  1  0.65830000  0.71637000  0.52175000  1.0
  H  H26  1  0.69149000  0.30310000  0.44113000  1.0
  H  H27  1  0.30674000  0.90889000  0.33196000  1.0
  H  H28  1  0.37716000  0.61787000  0.45434000  1.0
  H  H29  1  0.88150000  0.39760000  0.55874000  1.0
  H  H30  1  0.35011000  0.88278000  0.04980000  1.0
  H  H31  1  0.84817000  0.10908000  0.04342000  1.0
  C  C32  1  0.37097000  0.37001000  0.40689000  1.0
  C  C33  1  0.38092000  0.40497000  0.62588000  1.0
  C  C34  1  0.88582000  0.63255000  0.60200000  1.0
  C  C35  1  0.86353000  0.60170000  0.38099000  1.0
  C  C36  1  0.06308000  0.68177000  0.26619000  1.0
  C  C37  1  0.04836000  0.74348000  0.18701000  1.0
  C  C38  1  0.81641000  0.77721000  0.34635000  1.0
  C  C39  1  0.69715000  0.65163000  0.24513000  1.0
  C  C40  1  0.85475000  0.67542000  0.31039000  1.0
  C  C41  1  0.85620000  0.80563000  0.19079000  1.0
  C  C42  1  0.82786000  0.85344000  0.27610000  1.0
  C  C43  1  0.67276000  0.73788000  0.18504000  1.0
  C  C44  1  0.03278000  0.72647000  0.71293000  1.0
  C  C45  1  0.87123000  0.70363000  0.66745000  1.0
  C  C46  1  0.03069000  0.79209000  0.78119000  1.0
  C  C47  1  0.86566000  0.81394000  0.82720000  1.0
  C  C48  1  0.21185000  0.20901000  0.22942000  1.0
  C  C49  1  0.36140000  0.19198000  0.17403000  1.0
  C  C50  1  0.22702000  0.27335000  0.29783000  1.0
  C  C51  1  0.38736000  0.29164000  0.34631000  1.0
  C  C52  1  0.21425000  0.21909000  0.78922000  1.0
  C  C53  1  0.37783000  0.17005000  0.81565000  1.0
  C  C54  1  0.21818000  0.28827000  0.72163000  1.0
  C  C55  1  0.38043000  0.34067000  0.69848000  1.0
  C  C56  1  0.37023000  0.10274000  0.88706000  1.0
  C  C57  1  0.34682000  0.12060000  0.10832000  1.0
  C  C58  1  0.85056000  0.88101000  0.12052000  1.0
  C  C59  1  0.87074000  0.88097000  0.89697000  1.0
  S  S60  1  0.57936000  0.79522000  0.40765000  1.0
  S  S61  1  0.62413000  0.22798000  0.33495000  1.0
  S  S62  1  0.99914000  0.94957000  0.30215000  1.0
  O  O63  1  0.54979000  0.44472000  0.60686000  1.0
  O  O64  1  0.20287000  0.41265000  0.41656000  1.0
  O  O65  1  0.03020000  0.59088000  0.41820000  1.0
  O  O66  1  0.21869000  0.41601000  0.58523000  1.0
  O  O67  1  0.05104000  0.58941000  0.58871000  1.0
  O  O68  1  0.53186000  0.39121000  0.44655000  1.0
  O  O69  1  0.37541000  0.56303000  0.49321000  1.0
  O  O70  1  0.72200000  0.61883000  0.55981000  1.0
  O  O71  1  0.70222000  0.55771000  0.40018000  1.0
  O  O72  1  0.87529000  0.44335000  0.51300000  1.0
  O  O73  1  0.17567000  0.08705000  0.08995000  1.0
  O  O74  1  0.53846000  0.06523000  0.90766000  1.0
  O  O75  1  0.70260000  0.89500000  0.93449000  1.0
  O  O76  1  0.51627000  0.09722000  0.07485000  1.0
  O  O77  1  0.67826000  0.91523000  0.10202000  1.0
  O  O78  1  0.20084000  0.08886000  0.92309000  1.0
  O  O79  1  0.35619000  0.93655000  0.01118000  1.0
  O  O80  1  0.01702000  0.90056000  0.08446000  1.0
  O  O81  1  0.03836000  0.91836000  0.91462000  1.0
  O  O82  1  0.85457000  0.05553000  0.00589000  1.0
  O  O83  1  0.51227000  0.89337000  0.39597000  1.0
  O  O84  1  0.43421000  0.72129000  0.39030000  1.0
  O  O85  1  0.64808000  0.78605000  0.49935000  1.0
  O  O86  1  0.58951000  0.12858000  0.32131000  1.0
  O  O87  1  0.74406000  0.28360000  0.27620000  1.0
  O  O88  1  0.71920000  0.23486000  0.42356000  1.0
  O  O89  1  0.95887000  0.02465000  0.24306000  1.0
  O  O90  1  0.98348000  0.96513000  0.38977000  1.0
  O  O91  1  0.21838000  0.90642000  0.28237000  1.0
