# generated using pymatgen
data_YbH3C4O9
_symmetry_space_group_name_H-M   'P 1'
_cell_length_a   9.86454000
_cell_length_b   10.32110000
_cell_length_c   11.95810000
_cell_angle_alpha   74.22700000
_cell_angle_beta   90.00040000
_cell_angle_gamma   89.99940000
_symmetry_Int_Tables_number   1
_chemical_formula_structural   YbH3C4O9
_chemical_formula_sum   'Yb4 H12 C16 O36'
_cell_volume   1171.64579656
_cell_formula_units_Z   4
loop_
 _symmetry_equiv_pos_site_id
 _symmetry_equiv_pos_as_xyz
  1  'x, y, z'
loop_
 _atom_site_type_symbol
 _atom_site_label
 _atom_site_symmetry_multiplicity
 _atom_site_fract_x
 _atom_site_fract_y
 _atom_site_fract_z
 _atom_site_occupancy
  Yb  Yb0  1  0.07558000  0.20763000  0.11644000  1.0
  Yb  Yb1  1  0.57559000  0.29236000  0.38356000  1.0
  Yb  Yb2  1  0.92441000  0.79238000  0.88354000  1.0
  Yb  Yb3  1  0.42441000  0.70763000  0.61644000  1.0
  H  H4  1  0.26241000  0.09305000  0.33520000  1.0
  H  H5  1  0.76241000  0.40695000  0.16479000  1.0
  H  H6  1  0.73757000  0.90694000  0.66480000  1.0
  H  H7  1  0.23758000  0.59305000  0.83520000  1.0
  H  H8  1  0.05621000  0.13532000  0.38611000  1.0
  H  H9  1  0.55621000  0.36467000  0.11389000  1.0
  H  H10  1  0.94379000  0.86469000  0.61389000  1.0
  H  H11  1  0.44379000  0.63531000  0.88611000  1.0
  H  H12  1  0.16316000  0.98362000  0.30876000  1.0
  H  H13  1  0.66315000  0.51638000  0.19125000  1.0
  H  H14  1  0.83684000  0.01640000  0.69124000  1.0
  H  H15  1  0.33684000  0.48361000  0.80875000  1.0
  C  C16  1  0.37987000  0.28195000  0.10654000  1.0
  C  C17  1  0.87987000  0.21803000  0.39348000  1.0
  C  C18  1  0.62012000  0.71804000  0.89346000  1.0
  C  C19  1  0.12014000  0.78197000  0.60653000  1.0
  C  C20  1  0.32192000  0.34532000  0.20055000  1.0
  C  C21  1  0.82192000  0.15470000  0.29944000  1.0
  C  C22  1  0.67808000  0.65470000  0.79944000  1.0
  C  C23  1  0.17808000  0.84530000  0.70056000  1.0
  C  C24  1  0.95826000  0.05353000  0.95498000  1.0
  C  C25  1  0.45825000  0.44647000  0.54501000  1.0
  C  C26  1  0.04174000  0.94648000  0.04501000  1.0
  C  C27  1  0.54176000  0.55351000  0.45499000  1.0
  C  C28  1  0.94063000  0.49686000  0.04217000  1.0
  C  C29  1  0.44064000  0.00314000  0.45784000  1.0
  C  C30  1  0.05939000  0.50315000  0.95783000  1.0
  C  C31  1  0.55939000  0.99685000  0.54218000  1.0
  O  O32  1  0.30590000  0.20586000  0.06947000  1.0
  O  O33  1  0.80591000  0.29414000  0.43053000  1.0
  O  O34  1  0.69407000  0.79415000  0.93052000  1.0
  O  O35  1  0.19409000  0.70586000  0.56947000  1.0
  O  O36  1  0.50370000  0.31075000  0.06849000  1.0
  O  O37  1  0.00370000  0.18924000  0.43152000  1.0
  O  O38  1  0.49629000  0.68924000  0.93152000  1.0
  O  O39  1  0.99631000  0.81076000  0.56848000  1.0
  O  O40  1  0.19450000  0.34688000  0.20556000  1.0
  O  O41  1  0.69449000  0.15311000  0.29445000  1.0
  O  O42  1  0.80550000  0.65314000  0.79443000  1.0
  O  O43  1  0.30550000  0.84687000  0.70556000  1.0
  O  O44  1  0.40490000  0.38513000  0.26420000  1.0
  O  O45  1  0.90490000  0.11488000  0.23581000  1.0
  O  O46  1  0.59509000  0.61488000  0.73581000  1.0
  O  O47  1  0.09510000  0.88514000  0.76419000  1.0
  O  O48  1  0.96098000  0.17238000  0.96494000  1.0
  O  O49  1  0.46099000  0.32763000  0.53505000  1.0
  O  O50  1  0.03899000  0.82764000  0.03503000  1.0
  O  O51  1  0.53902000  0.67236000  0.46496000  1.0
  O  O52  1  0.89511000  0.01214000  0.87925000  1.0
  O  O53  1  0.39510000  0.48788000  0.62073000  1.0
  O  O54  1  0.10488000  0.98790000  0.12072000  1.0
  O  O55  1  0.60490000  0.51210000  0.37927000  1.0
  O  O56  1  0.91629000  0.38176000  0.11268000  1.0
  O  O57  1  0.41630000  0.11824000  0.38733000  1.0
  O  O58  1  0.08371000  0.61827000  0.88732000  1.0
  O  O59  1  0.58372000  0.88173000  0.61269000  1.0
  O  O60  1  0.87521000  0.60290000  0.03547000  1.0
  O  O61  1  0.37520000  0.89711000  0.46454000  1.0
  O  O62  1  0.12481000  0.39711000  0.96454000  1.0
  O  O63  1  0.62481000  0.10289000  0.53547000  1.0
  O  O64  1  0.16805000  0.07828000  0.30875000  1.0
  O  O65  1  0.66806000  0.42172000  0.19126000  1.0
  O  O66  1  0.83196000  0.92172000  0.69127000  1.0
  O  O67  1  0.33196000  0.57828000  0.80873000  1.0
