# generated using pymatgen
data_Zr6H19C50N(O17F5)2
_symmetry_space_group_name_H-M   'P 1'
_cell_length_a   14.77440933
_cell_length_b   14.78370000
_cell_length_c   14.79230000
_cell_angle_alpha   119.91470000
_cell_angle_beta   90.01656335
_cell_angle_gamma   60.13498386
_symmetry_Int_Tables_number   1
_chemical_formula_structural   Zr6H19C50N(O17F5)2
_chemical_formula_sum   'Zr6 H19 C50 N1 O34 F10'
_cell_volume   2292.53209942
_cell_formula_units_Z   1
loop_
 _symmetry_equiv_pos_site_id
 _symmetry_equiv_pos_as_xyz
  1  'x, y, z'
loop_
 _atom_site_type_symbol
 _atom_site_label
 _atom_site_symmetry_multiplicity
 _atom_site_fract_x
 _atom_site_fract_y
 _atom_site_fract_z
 _atom_site_occupancy
  Zr  Zr0  1  0.38351000  0.49440000  0.11631000  1.0
  Zr  Zr1  1  0.61852000  0.50242000  0.88087000  1.0
  Zr  Zr2  1  0.38054000  0.73674000  0.11939000  1.0
  Zr  Zr3  1  0.62174000  0.25993000  0.87786000  1.0
  Zr  Zr4  1  0.62088000  0.49827000  0.11813000  1.0
  Zr  Zr5  1  0.38085000  0.49859000  0.87921000  1.0
  H  H6  1  0.40805000  0.68308000  0.28020000  1.0
  H  H7  1  0.78306000  0.31410000  0.90514000  1.0
  H  H8  1  0.40404000  0.68962000  0.90760000  1.0
  H  H9  1  0.40862000  0.30781000  0.90222000  1.0
  H  H10  1  0.61356000  0.54541000  0.43297000  1.0
  H  H11  1  0.40159000  0.42577000  0.55220000  1.0
  H  H12  1  0.05859000  0.56274000  0.89236000  1.0
  H  H13  1  0.91346000  0.49350000  0.13712000  1.0
  H  H14  1  0.89056000  0.94740000  0.87878000  1.0
  H  H15  1  0.08689000  0.05077000  0.14432000  1.0
  H  H16  1  0.64586000  0.94686000  0.58540000  1.0
  H  H17  1  0.38228000  0.04899000  0.38715000  1.0
  H  H18  1  0.08001000  0.05308000  0.40174000  1.0
  H  H19  1  0.03245000  0.70184000  0.36899000  1.0
  H  H20  1  0.11671000  0.70564000  0.45486000  1.0
  H  H21  1  0.94574000  0.88013000  0.62436000  1.0
  H  H22  1  0.86116000  0.87730000  0.53858000  1.0
  H  H23  1  0.37603000  0.22963000  0.15243000  1.0
  H  H24  1  0.65235000  0.76676000  0.87026000  1.0
  C  C25  1  0.50568000  0.48453000  0.29515000  1.0
  C  C26  1  0.79434000  0.51778000  0.00572000  1.0
  C  C27  1  0.50378000  0.49615000  0.69443000  1.0
  C  C28  1  0.19251000  0.50848000  0.00658000  1.0
  C  C29  1  0.19422000  0.79769000  0.29631000  1.0
  C  C30  1  0.51344000  0.18922000  0.99902000  1.0
  C  C31  1  0.79848000  0.19787000  0.69097000  1.0
  C  C32  1  0.50141000  0.80759000  0.01098000  1.0
  C  C33  1  0.50878000  0.79874000  0.29729000  1.0
  C  C34  1  0.18940000  0.79924000  0.00485000  1.0
  C  C35  1  0.50661000  0.19811000  0.68725000  1.0
  C  C36  1  0.80003000  0.19789000  0.00564000  1.0
  C  C37  1  0.50688000  0.49174000  0.59132000  1.0
  C  C38  1  0.50699000  0.48139000  0.39465000  1.0
  C  C39  1  0.56584000  0.52534000  0.55559000  1.0
  C  C40  1  0.44817000  0.44768000  0.43043000  1.0
  C  C41  1  0.56689000  0.51928000  0.45899000  1.0
  C  C42  1  0.44788000  0.45243000  0.52638000  1.0
  C  C43  1  0.88928000  0.52964000  0.01198000  1.0
  C  C44  1  0.08491000  0.52232000  0.01497000  1.0
  C  C45  1  0.93041000  0.55303000  0.94619000  1.0
  C  C46  1  0.03966000  0.50706000  0.08575000  1.0
  C  C47  1  0.02667000  0.54803000  0.94650000  1.0
  C  C48  1  0.94481000  0.50950000  0.08388000  1.0
  C  C49  1  0.08416000  0.89967000  0.00872000  1.0
  C  C50  1  0.89531000  0.09828000  0.01230000  1.0
  C  C51  1  0.02510000  0.87397000  0.93614000  1.0
  C  C52  1  0.95148000  0.12442000  0.08808000  1.0
  C  C53  1  0.93349000  0.97044000  0.93722000  1.0
  C  C54  1  0.04374000  0.02775000  0.08618000  1.0
  C  C55  1  0.51562000  0.89847000  0.39231000  1.0
  C  C56  1  0.51115000  0.09749000  0.58160000  1.0
  C  C57  1  0.59111000  0.87263000  0.44877000  1.0
  C  C58  1  0.43930000  0.12282000  0.52191000  1.0
  C  C59  1  0.58858000  0.96948000  0.54143000  1.0
  C  C60  1  0.44062000  0.02616000  0.43021000  1.0
  C  C61  1  0.09050000  0.89766000  0.39281000  1.0
  C  C62  1  0.89530000  0.09709000  0.58748000  1.0
  C  C63  1  0.03817000  0.87073000  0.44408000  1.0
  C  C64  1  0.94837000  0.12229000  0.53283000  1.0
  C  C65  1  0.94382000  0.96762000  0.53816000  1.0
  C  C66  1  0.04212000  0.02747000  0.43931000  1.0
  C  C67  1  0.04283000  0.76514000  0.44230000  1.0
  C  C68  1  0.93600000  0.87450000  0.54850000  1.0
  C  C69  1  0.50755000  0.90776000  0.01569000  1.0
  C  C70  1  0.51842000  0.08879000  0.00485000  1.0
  C  C71  1  0.43207000  0.03954000  0.09592000  1.0
  C  C72  1  0.59721000  0.95693000  0.92783000  1.0
  C  C73  1  0.43675000  0.12808000  0.09053000  1.0
  C  C74  1  0.59177000  0.86834000  0.93241000  1.0
  N  N75  1  0.90762000  0.25451000  0.57346000  1.0
  O  O76  1  0.42765000  0.48759000  0.25680000  1.0
  O  O77  1  0.75804000  0.51109000  0.92606000  1.0
  O  O78  1  0.57826000  0.49952000  0.73648000  1.0
  O  O79  1  0.23723000  0.50016000  0.07830000  1.0
  O  O80  1  0.23555000  0.83611000  0.25987000  1.0
  O  O81  1  0.58602000  0.15381000  0.91978000  1.0
  O  O82  1  0.76314000  0.15832000  0.73184000  1.0
  O  O83  1  0.42215000  0.84325000  0.08377000  1.0
  O  O84  1  0.58169000  0.68273000  0.26016000  1.0
  O  O85  1  0.23257000  0.68356000  0.92532000  1.0
  O  O86  1  0.42682000  0.31376000  0.73061000  1.0
  O  O87  1  0.76242000  0.31401000  0.07885000  1.0
  O  O88  1  0.22972000  0.83803000  0.08027000  1.0
  O  O89  1  0.58198000  0.15927000  0.72758000  1.0
  O  O90  1  0.76476000  0.15842000  0.92551000  1.0
  O  O91  1  0.42876000  0.83803000  0.26188000  1.0
  O  O92  1  0.23466000  0.68212000  0.25906000  1.0
  O  O93  1  0.57574000  0.69263000  0.93155000  1.0
  O  O94  1  0.75987000  0.31372000  0.73167000  1.0
  O  O95  1  0.43397000  0.30422000  0.07359000  1.0
  O  O96  1  0.23252000  0.50387000  0.92675000  1.0
  O  O97  1  0.58097000  0.48838000  0.25857000  1.0
  O  O98  1  0.75952000  0.51049000  0.07923000  1.0
  O  O99  1  0.42618000  0.49631000  0.73269000  1.0
  O  O100  1  0.43519000  0.36157000  0.92910000  1.0
  O  O101  1  0.43119000  0.63538000  0.93361000  1.0
  O  O102  1  0.70293000  0.36600000  0.93136000  1.0
  O  O103  1  0.43447000  0.63040000  0.20015000  1.0
  O  O104  1  0.54940000  0.59890000  0.04952000  1.0
  O  O105  1  0.55221000  0.39755000  0.04669000  1.0
  O  O106  1  0.54994000  0.40112000  0.85029000  1.0
  O  O107  1  0.35241000  0.59574000  0.04805000  1.0
  O  O108  1  0.84001000  0.30373000  0.53553000  1.0
  O  O109  1  0.94913000  0.30192000  0.63722000  1.0
  F  F110  1  0.62065000  0.56926000  0.61645000  1.0
  F  F111  1  0.39035000  0.40739000  0.37089000  1.0
  F  F112  1  0.87724000  0.58136000  0.88010000  1.0
  F  F113  1  0.08884000  0.48584000  0.15710000  1.0
  F  F114  1  0.05601000  0.75316000  0.86155000  1.0
  F  F115  1  0.91907000  0.24523000  0.16478000  1.0
  F  F116  1  0.66822000  0.75176000  0.41623000  1.0
  F  F117  1  0.36529000  0.24344000  0.55228000  1.0
  F  F118  1  0.35064000  0.08529000  0.18132000  1.0
  F  F119  1  0.68104000  0.91122000  0.84482000  1.0
