# generated using pymatgen
data_ZnSiH4C8S4N4(O2F3)2
_symmetry_space_group_name_H-M   'P 1'
_cell_length_a   7.75722000
_cell_length_b   8.88372000
_cell_length_c   9.03720000
_cell_angle_alpha   107.07100000
_cell_angle_beta   94.20040000
_cell_angle_gamma   92.93500000
_symmetry_Int_Tables_number   1
_chemical_formula_structural   ZnSiH4C8S4N4(O2F3)2
_chemical_formula_sum   'Zn1 Si1 H4 C8 S4 N4 O4 F6'
_cell_volume   592.01354676
_cell_formula_units_Z   1
loop_
 _symmetry_equiv_pos_site_id
 _symmetry_equiv_pos_as_xyz
  1  'x, y, z'
loop_
 _atom_site_type_symbol
 _atom_site_label
 _atom_site_symmetry_multiplicity
 _atom_site_fract_x
 _atom_site_fract_y
 _atom_site_fract_z
 _atom_site_occupancy
  Zn  Zn0  1  0.50002000  0.49992000  0.50000000  1.0
  Si  Si1  1  0.99996000  0.49997000  0.50003000  1.0
  H  H2  1  0.13875000  0.39831000  0.21733000  1.0
  H  H3  1  0.86130000  0.60177000  0.78276000  1.0
  H  H4  1  0.15143000  0.22407000  0.37042000  1.0
  H  H5  1  0.84847000  0.77583000  0.62955000  1.0
  C  C6  1  0.34834000  0.45084000  0.12332000  1.0
  C  C7  1  0.65181000  0.54923000  0.87675000  1.0
  C  C8  1  0.58845000  0.51936000  0.01074000  1.0
  C  C9  1  0.41167000  0.48076000  0.98934000  1.0
  C  C10  1  0.35802000  0.12708000  0.43531000  1.0
  C  C11  1  0.64183000  0.87281000  0.56459000  1.0
  C  C12  1  0.58392000  0.01205000  0.53469000  1.0
  C  C13  1  0.41595000  0.98788000  0.46520000  1.0
  S  S14  1  0.66981000  0.51540000  0.19051000  1.0
  S  S15  1  0.33036000  0.48479000  0.80953000  1.0
  S  S16  1  0.66596000  0.20049000  0.55719000  1.0
  S  S17  1  0.33387000  0.79949000  0.44263000  1.0
  N  N18  1  0.47216000  0.46508000  0.23908000  1.0
  N  N19  1  0.52806000  0.53489000  0.76092000  1.0
  N  N20  1  0.47859000  0.24914000  0.47908000  1.0
  N  N21  1  0.52118000  0.75083000  0.52087000  1.0
  O  O22  1  0.18065000  0.41300000  0.12090000  1.0
  O  O23  1  0.81946000  0.58717000  0.87925000  1.0
  O  O24  1  0.19988000  0.12205000  0.36760000  1.0
  O  O25  1  0.80000000  0.87782000  0.63228000  1.0
  F  F26  1  0.22838000  0.52454000  0.51958000  1.0
  F  F27  1  0.77166000  0.47554000  0.48040000  1.0
  F  F28  1  0.00766000  0.37497000  0.60507000  1.0
  F  F29  1  0.99234000  0.62498000  0.39500000  1.0
  F  F30  1  0.98742000  0.65551000  0.66723000  1.0
  F  F31  1  0.01262000  0.34443000  0.33287000  1.0
