# generated using pymatgen
data_CdH12C12(NO4)2
_symmetry_space_group_name_H-M   'P 1'
_cell_length_a   3.63831000
_cell_length_b   10.33552916
_cell_length_c   17.73812818
_cell_angle_alpha   88.96884644
_cell_angle_beta   84.11475015
_cell_angle_gamma   79.87970054
_symmetry_Int_Tables_number   1
_chemical_formula_structural   CdH12C12(NO4)2
_chemical_formula_sum   'Cd2 H24 C24 N4 O16'
_cell_volume   653.18285975
_cell_formula_units_Z   2
loop_
 _symmetry_equiv_pos_site_id
 _symmetry_equiv_pos_as_xyz
  1  'x, y, z'
loop_
 _atom_site_type_symbol
 _atom_site_label
 _atom_site_symmetry_multiplicity
 _atom_site_fract_x
 _atom_site_fract_y
 _atom_site_fract_z
 _atom_site_occupancy
  Cd  Cd0  1  0.03267000  0.99989000  0.00016000  1.0
  Cd  Cd1  1  0.28337000  0.49992000  0.49981000  1.0
  H  H2  1  0.13607000  0.39883000  0.73827000  1.0
  H  H3  1  0.27347000  0.60094000  0.26195000  1.0
  H  H4  1  0.12321000  0.89914000  0.76177000  1.0
  H  H5  1  0.78596000  0.10100000  0.23801000  1.0
  H  H6  1  0.95781000  0.62814000  0.75973000  1.0
  H  H7  1  0.34588000  0.37162000  0.24036000  1.0
  H  H8  1  0.96729000  0.12851000  0.74020000  1.0
  H  H9  1  0.83640000  0.87172000  0.25959000  1.0
  H  H10  1  0.45019000  0.57232000  0.97113000  1.0
  H  H11  1  0.99228000  0.42801000  0.02886000  1.0
  H  H12  1  0.67197000  0.07212000  0.52891000  1.0
  H  H13  1  0.27161000  0.92791000  0.47108000  1.0
  H  H14  1  0.62057000  0.33146000  0.94443000  1.0
  H  H15  1  0.89518000  0.66878000  0.05569000  1.0
  H  H16  1  0.81460000  0.83128000  0.55573000  1.0
  H  H17  1  0.20214000  0.16868000  0.44424000  1.0
  H  H18  1  0.50916000  0.12209000  0.88073000  1.0
  H  H19  1  0.51199000  0.87766000  0.11966000  1.0
  H  H20  1  0.63938000  0.62219000  0.61934000  1.0
  H  H21  1  0.88240000  0.37772000  0.38038000  1.0
  H  H22  1  0.66059000  0.96298000  0.88356000  1.0
  H  H23  1  0.50755000  0.03677000  0.11673000  1.0
  H  H24  1  0.79455000  0.46313000  0.61642000  1.0
  H  H25  1  0.87480000  0.53688000  0.38325000  1.0
  C  C26  1  0.10691000  0.56808000  0.80193000  1.0
  C  C27  1  0.47707000  0.43179000  0.19820000  1.0
  C  C28  1  0.15866000  0.06832000  0.69807000  1.0
  C  C29  1  0.92546000  0.93184000  0.30176000  1.0
  C  C30  1  0.18693000  0.61919000  0.86863000  1.0
  C  C31  1  0.67464000  0.38083000  0.13145000  1.0
  C  C32  1  0.30594000  0.11926000  0.63137000  1.0
  C  C33  1  0.05606000  0.88086000  0.36852000  1.0
  C  C34  1  0.38259000  0.34678000  0.83682000  1.0
  C  C35  1  0.56611000  0.65317000  0.16342000  1.0
  C  C36  1  0.46847000  0.84690000  0.66328000  1.0
  C  C37  1  0.98009000  0.15318000  0.33657000  1.0
  C  C38  1  0.38102000  0.53147000  0.91932000  1.0
  C  C39  1  0.83098000  0.46870000  0.08074000  1.0
  C  C40  1  0.55063000  0.03140000  0.58073000  1.0
  C  C41  1  0.16220000  0.96866000  0.41921000  1.0
  C  C42  1  0.47595000  0.39928000  0.90485000  1.0
  C  C43  1  0.77918000  0.60089000  0.09528000  1.0
  C  C44  1  0.63046000  0.89924000  0.59526000  1.0
  C  C45  1  0.12544000  0.10083000  0.40466000  1.0
  C  C46  1  0.06277000  0.75981000  0.88930000  1.0
  C  C47  1  0.71244000  0.24016000  0.11082000  1.0
  C  C48  1  0.20299000  0.25985000  0.61063000  1.0
  C  C49  1  0.07282000  0.74024000  0.38918000  1.0
  N  N50  1  0.20700000  0.43807000  0.78748000  1.0
  N  N51  1  0.43276000  0.56176000  0.21272000  1.0
  N  N52  1  0.24367000  0.93833000  0.71257000  1.0
  N  N53  1  0.89597000  0.06180000  0.28725000  1.0
  O  O54  1  0.44526000  0.22655000  0.81838000  1.0
  O  O55  1  0.49055000  0.77336000  0.18196000  1.0
  O  O56  1  0.51225000  0.72669000  0.68174000  1.0
  O  O57  1  0.92282000  0.27339000  0.31806000  1.0
  O  O58  1  0.54264000  0.04263000  0.91671000  1.0
  O  O59  1  0.50201000  0.95711000  0.08363000  1.0
  O  O60  1  0.70943000  0.54279000  0.58332000  1.0
  O  O61  1  0.83656000  0.45718000  0.41639000  1.0
  O  O62  1  0.12623000  0.79240000  0.95532000  1.0
  O  O63  1  0.87470000  0.20753000  0.04483000  1.0
  O  O64  1  0.33259000  0.29235000  0.54459000  1.0
  O  O65  1  0.16892000  0.70760000  0.45518000  1.0
  O  O66  1  0.89394000  0.83807000  0.84207000  1.0
  O  O67  1  0.57501000  0.16184000  0.15809000  1.0
  O  O68  1  0.98726000  0.33822000  0.65784000  1.0
  O  O69  1  0.98263000  0.66193000  0.34190000  1.0
