# generated using pymatgen
data_CoH14(C3N2)6
_symmetry_space_group_name_H-M   'P 1'
_cell_length_a   7.88959000
_cell_length_b   9.02639000
_cell_length_c   12.70640000
_cell_angle_alpha   78.78500000
_cell_angle_beta   89.99960000
_cell_angle_gamma   89.99790000
_symmetry_Int_Tables_number   1
_chemical_formula_structural   CoH14(C3N2)6
_chemical_formula_sum   'Co2 H28 C36 N24'
_cell_volume   887.60078360
_cell_formula_units_Z   2
loop_
 _symmetry_equiv_pos_site_id
 _symmetry_equiv_pos_as_xyz
  1  'x, y, z'
loop_
 _atom_site_type_symbol
 _atom_site_label
 _atom_site_symmetry_multiplicity
 _atom_site_fract_x
 _atom_site_fract_y
 _atom_site_fract_z
 _atom_site_occupancy
  Co  Co0  1  0.00000000  0.00000000  0.00000000  1.0
  Co  Co1  1  0.50000000  0.50000000  0.50000000  1.0
  H  H2  1  0.99892000  0.60920000  0.18325000  1.0
  H  H3  1  0.49892000  0.89080000  0.31675000  1.0
  H  H4  1  0.00108000  0.39080000  0.81675000  1.0
  H  H5  1  0.50108000  0.10920000  0.68325000  1.0
  H  H6  1  0.30632000  0.56948000  0.22897000  1.0
  H  H7  1  0.80631000  0.93051000  0.27102000  1.0
  H  H8  1  0.69368000  0.43052000  0.77103000  1.0
  H  H9  1  0.19368000  0.06950000  0.72897000  1.0
  H  H10  1  0.45698000  0.34377000  0.19387000  1.0
  H  H11  1  0.95699000  0.15622000  0.30612000  1.0
  H  H12  1  0.54302000  0.65624000  0.80613000  1.0
  H  H13  1  0.04301000  0.84378000  0.69387000  1.0
  H  H14  1  0.30872000  0.15036000  0.11446000  1.0
  H  H15  1  0.80872000  0.34962000  0.38553000  1.0
  H  H16  1  0.69128000  0.84964000  0.88554000  1.0
  H  H17  1  0.19128000  0.65037000  0.61447000  1.0
  H  H18  1  0.72543000  0.46336000  0.09888000  1.0
  H  H19  1  0.22543000  0.03665000  0.40112000  1.0
  H  H20  1  0.27457000  0.53664000  0.90112000  1.0
  H  H21  1  0.77456000  0.96335000  0.59888000  1.0
  H  H22  1  0.65597000  0.11072000  0.99491000  1.0
  H  H23  1  0.15597000  0.38929000  0.50509000  1.0
  H  H24  1  0.34403000  0.88928000  0.00509000  1.0
  H  H25  1  0.84403000  0.61071000  0.49491000  1.0
  H  H26  1  0.57198000  0.29340000  0.97799000  1.0
  H  H27  1  0.07199000  0.20661000  0.52201000  1.0
  H  H28  1  0.42802000  0.70660000  0.02201000  1.0
  H  H29  1  0.92802000  0.79339000  0.47799000  1.0
  C  C30  1  0.80470000  0.26084000  0.04904000  1.0
  C  C31  1  0.30469000  0.23917000  0.45096000  1.0
  C  C32  1  0.19531000  0.73916000  0.95096000  1.0
  C  C33  1  0.69531000  0.76083000  0.54904000  1.0
  C  C34  1  0.98548000  0.40144000  0.12242000  1.0
  C  C35  1  0.48549000  0.09857000  0.37757000  1.0
  C  C36  1  0.01452000  0.59857000  0.87758000  1.0
  C  C37  1  0.51451000  0.90143000  0.62242000  1.0
  C  C38  1  0.06634000  0.51020000  0.16827000  1.0
  C  C39  1  0.56634000  0.98980000  0.33173000  1.0
  C  C40  1  0.93366000  0.48981000  0.83172000  1.0
  C  C41  1  0.43366000  0.01020000  0.66827000  1.0
  C  C42  1  0.23832000  0.48804000  0.19211000  1.0
  C  C43  1  0.73832000  0.01195000  0.30789000  1.0
  C  C44  1  0.76168000  0.51197000  0.80789000  1.0
  C  C45  1  0.26167000  0.98805000  0.69211000  1.0
  C  C46  1  0.32375000  0.36030000  0.17187000  1.0
  C  C47  1  0.82375000  0.13969000  0.32812000  1.0
  C  C48  1  0.67625000  0.63970000  0.82813000  1.0
  C  C49  1  0.17625000  0.86031000  0.67187000  1.0
  C  C50  1  0.24097000  0.24973000  0.12774000  1.0
  C  C51  1  0.74097000  0.25026000  0.37226000  1.0
  C  C52  1  0.75903000  0.75027000  0.87226000  1.0
  C  C53  1  0.25903000  0.74974000  0.62774000  1.0
  C  C54  1  0.06962000  0.27146000  0.10129000  1.0
  C  C55  1  0.56962000  0.22854000  0.39871000  1.0
  C  C56  1  0.93038000  0.72854000  0.89871000  1.0
  C  C57  1  0.43037000  0.77147000  0.60128000  1.0
  C  C58  1  0.29830000  0.21238000  0.88064000  1.0
  C  C59  1  0.79830000  0.28761000  0.61936000  1.0
  C  C60  1  0.70170000  0.78762000  0.11936000  1.0
  C  C61  1  0.20169000  0.71238000  0.38064000  1.0
  C  C62  1  0.37885000  0.37616000  0.72656000  1.0
  C  C63  1  0.87885000  0.12384000  0.77345000  1.0
  C  C64  1  0.62115000  0.62384000  0.27344000  1.0
  C  C65  1  0.12116000  0.87615000  0.22656000  1.0
  N  N66  1  0.81984000  0.39027000  0.08901000  1.0
  N  N67  1  0.31985000  0.10974000  0.41099000  1.0
  N  N68  1  0.18016000  0.60974000  0.91099000  1.0
  N  N69  1  0.68015000  0.89026000  0.58901000  1.0
  N  N70  1  0.95364000  0.18664000  0.05388000  1.0
  N  N71  1  0.45365000  0.31336000  0.44612000  1.0
  N  N72  1  0.04635000  0.81336000  0.94612000  1.0
  N  N73  1  0.54635000  0.68664000  0.55388000  1.0
  N  N74  1  0.65646000  0.21516000  0.01390000  1.0
  N  N75  1  0.15646000  0.28486000  0.48610000  1.0
  N  N76  1  0.34355000  0.78485000  0.98610000  1.0
  N  N77  1  0.84354000  0.71514000  0.51390000  1.0
  N  N78  1  0.25379000  0.09942000  0.93707000  1.0
  N  N79  1  0.75379000  0.40056000  0.56293000  1.0
  N  N80  1  0.74620000  0.90058000  0.06293000  1.0
  N  N81  1  0.24621000  0.59941000  0.43708000  1.0
  N  N82  1  0.34741000  0.34455000  0.82922000  1.0
  N  N83  1  0.84741000  0.15543000  0.67078000  1.0
  N  N84  1  0.65259000  0.65545000  0.17078000  1.0
  N  N85  1  0.15259000  0.84455000  0.32923000  1.0
  N  N86  1  0.41043000  0.41918000  0.63542000  1.0
  N  N87  1  0.91044000  0.08082000  0.86459000  1.0
  N  N88  1  0.58957000  0.58082000  0.36459000  1.0
  N  N89  1  0.08957000  0.91918000  0.13542000  1.0
