# generated using pymatgen
data_Zn2H23C37N7O8
_symmetry_space_group_name_H-M   'P 1'
_cell_length_a   7.86158000
_cell_length_b   17.70900000
_cell_length_c   25.96990000
_cell_angle_alpha   95.75060000
_cell_angle_beta   89.99990000
_cell_angle_gamma   89.99990000
_symmetry_Int_Tables_number   1
_chemical_formula_structural   Zn2H23C37N7O8
_chemical_formula_sum   'Zn8 H92 C148 N28 O32'
_cell_volume   3597.35282383
_cell_formula_units_Z   4
loop_
 _symmetry_equiv_pos_site_id
 _symmetry_equiv_pos_as_xyz
  1  'x, y, z'
loop_
 _atom_site_type_symbol
 _atom_site_label
 _atom_site_symmetry_multiplicity
 _atom_site_fract_x
 _atom_site_fract_y
 _atom_site_fract_z
 _atom_site_occupancy
  Zn  Zn0  1  0.43033000  0.19608000  0.02393000  1.0
  Zn  Zn1  1  0.98292000  0.30333000  0.95919000  1.0
  Zn  Zn2  1  0.93033000  0.80393000  0.47607000  1.0
  Zn  Zn3  1  0.48292000  0.69667000  0.54081000  1.0
  Zn  Zn4  1  0.56967000  0.80392000  0.97607000  1.0
  Zn  Zn5  1  0.01708000  0.69667000  0.04081000  1.0
  Zn  Zn6  1  0.06967000  0.19608000  0.52393000  1.0
  Zn  Zn7  1  0.51708000  0.30333000  0.45919000  1.0
  H  H8  1  0.29179000  0.04533000  0.98607000  1.0
  H  H9  1  0.65011000  0.45049000  0.07322000  1.0
  H  H10  1  0.33500000  0.77477000  0.09433000  1.0
  H  H11  1  0.11641000  0.56142000  0.11163000  1.0
  H  H12  1  0.42750000  0.57331000  0.16523000  1.0
  H  H13  1  0.63587000  0.77396000  0.09173000  1.0
  H  H14  1  0.89370000  0.83477000  0.13025000  1.0
  H  H15  1  0.81324000  0.72423000  0.26887000  1.0
  H  H16  1  0.54963000  0.66591000  0.23093000  1.0
  H  H17  1  0.11342000  0.67418000  0.22259000  1.0
  H  H18  1  0.25150000  0.61567000  0.29469000  1.0
  H  H19  1  0.26896000  0.83470000  0.38417000  1.0
  H  H20  1  0.12310000  0.89157000  0.31293000  1.0
  H  H21  1  0.28031000  0.76846000  0.45007000  1.0
  H  H22  1  0.46904000  0.58729000  0.34571000  1.0
  H  H23  1  0.57971000  0.57021000  0.44524000  1.0
  H  H24  1  0.82912000  0.94405000  0.21891000  1.0
  H  H25  1  0.92093000  0.06298000  0.18384000  1.0
  H  H26  1  0.42484000  0.97025000  0.15868000  1.0
  H  H27  1  0.33262000  0.85175000  0.19371000  1.0
  H  H28  1  0.08032000  0.17610000  0.19220000  1.0
  H  H29  1  0.38692000  0.04232000  0.08418000  1.0
  H  H30  1  0.21661000  0.26795000  0.12027000  1.0
  H  H31  1  0.79178000  0.95467000  0.51393000  1.0
  H  H32  1  0.15011000  0.54951000  0.42678000  1.0
  H  H33  1  0.83500000  0.22523000  0.40566000  1.0
  H  H34  1  0.61641000  0.43858000  0.38838000  1.0
  H  H35  1  0.92749000  0.42669000  0.33477000  1.0
  H  H36  1  0.13587000  0.22604000  0.40827000  1.0
  H  H37  1  0.39370000  0.16523000  0.36975000  1.0
  H  H38  1  0.31324000  0.27577000  0.23113000  1.0
  H  H39  1  0.04963000  0.33408000  0.26907000  1.0
  H  H40  1  0.61341000  0.32582000  0.27741000  1.0
  H  H41  1  0.75149000  0.38433000  0.20531000  1.0
  H  H42  1  0.76896000  0.16530000  0.11583000  1.0
  H  H43  1  0.62310000  0.10843000  0.18707000  1.0
  H  H44  1  0.78030000  0.23154000  0.04993000  1.0
  H  H45  1  0.96904000  0.41271000  0.15429000  1.0
  H  H46  1  0.07970000  0.42979000  0.05476000  1.0
  H  H47  1  0.32912000  0.05595000  0.28109000  1.0
  H  H48  1  0.42093000  0.93702000  0.31616000  1.0
  H  H49  1  0.92484000  0.02975000  0.34132000  1.0
  H  H50  1  0.83262000  0.14825000  0.30629000  1.0
  H  H51  1  0.58031000  0.82390000  0.30781000  1.0
  H  H52  1  0.88692000  0.95768000  0.41582000  1.0
  H  H53  1  0.71661000  0.73205000  0.37973000  1.0
  H  H54  1  0.70822000  0.95467000  0.01393000  1.0
  H  H55  1  0.34989000  0.54951000  0.92678000  1.0
  H  H56  1  0.66499000  0.22523000  0.90567000  1.0
  H  H57  1  0.88358000  0.43858000  0.88837000  1.0
  H  H58  1  0.57250000  0.42669000  0.83477000  1.0
  H  H59  1  0.36413000  0.22603000  0.90827000  1.0
  H  H60  1  0.10629000  0.16523000  0.86975000  1.0
  H  H61  1  0.18676000  0.27577000  0.73113000  1.0
  H  H62  1  0.45036000  0.33409000  0.76907000  1.0
  H  H63  1  0.88658000  0.32582000  0.77741000  1.0
  H  H64  1  0.74850000  0.38433000  0.70531000  1.0
  H  H65  1  0.73105000  0.16530000  0.61583000  1.0
  H  H66  1  0.87691000  0.10843000  0.68706000  1.0
  H  H67  1  0.71970000  0.23154000  0.54993000  1.0
  H  H68  1  0.53096000  0.41271000  0.65429000  1.0
  H  H69  1  0.42029000  0.42979000  0.55476000  1.0
  H  H70  1  0.17089000  0.05595000  0.78109000  1.0
  H  H71  1  0.07908000  0.93702000  0.81616000  1.0
  H  H72  1  0.57516000  0.02975000  0.84132000  1.0
  H  H73  1  0.66738000  0.14824000  0.80628000  1.0
  H  H74  1  0.91969000  0.82390000  0.80780000  1.0
  H  H75  1  0.61309000  0.95768000  0.91582000  1.0
  H  H76  1  0.78340000  0.73205000  0.87973000  1.0
  H  H77  1  0.20822000  0.04533000  0.48607000  1.0
  H  H78  1  0.84989000  0.45049000  0.57322000  1.0
  H  H79  1  0.16499000  0.77476000  0.59433000  1.0
  H  H80  1  0.38359000  0.56142000  0.61163000  1.0
  H  H81  1  0.07250000  0.57331000  0.66523000  1.0
  H  H82  1  0.86413000  0.77396000  0.59173000  1.0
  H  H83  1  0.60630000  0.83477000  0.63026000  1.0
  H  H84  1  0.68676000  0.72423000  0.76887000  1.0
  H  H85  1  0.95036000  0.66591000  0.73093000  1.0
  H  H86  1  0.38658000  0.67418000  0.72259000  1.0
  H  H87  1  0.24850000  0.61567000  0.79469000  1.0
  H  H88  1  0.23104000  0.83470000  0.88417000  1.0
  H  H89  1  0.37691000  0.89157000  0.81294000  1.0
  H  H90  1  0.21970000  0.76846000  0.95007000  1.0
  H  H91  1  0.03096000  0.58729000  0.84571000  1.0
  H  H92  1  0.92030000  0.57021000  0.94524000  1.0
  H  H93  1  0.67088000  0.94405000  0.71891000  1.0
  H  H94  1  0.57907000  0.06298000  0.68384000  1.0
  H  H95  1  0.07516000  0.97025000  0.65868000  1.0
  H  H96  1  0.16738000  0.85175000  0.69371000  1.0
  H  H97  1  0.41969000  0.17610000  0.69220000  1.0
  H  H98  1  0.11308000  0.04232000  0.58418000  1.0
  H  H99  1  0.28339000  0.26796000  0.62027000  1.0
  C  C100  1  0.02708000  0.07374000  0.98627000  1.0
  C  C101  1  0.16367000  0.02493000  0.99302000  1.0
  C  C102  1  0.85901000  0.04842000  0.99291000  1.0
  C  C103  1  0.06801000  0.15185000  0.97318000  1.0
  C  C104  1  0.69669000  0.09251000  0.98589000  1.0
  C  C105  1  0.44888000  0.34454000  0.02542000  1.0
  C  C106  1  0.47164000  0.42404000  0.01063000  1.0
  C  C107  1  0.25076000  0.41045000  0.93820000  1.0
  C  C108  1  0.38750000  0.45375000  0.96910000  1.0
  C  C109  1  0.58212000  0.47140000  0.04095000  1.0
  C  C110  1  0.31623000  0.71841000  0.10619000  1.0
  C  C111  1  0.21014000  0.60649000  0.11610000  1.0
  C  C112  1  0.35847000  0.61292000  0.14395000  1.0
  C  C113  1  0.57469000  0.71752000  0.15950000  1.0
  C  C114  1  0.67042000  0.76557000  0.13133000  1.0
  C  C115  1  0.81699000  0.79902000  0.15283000  1.0
  C  C116  1  0.87044000  0.78493000  0.20260000  1.0
  C  C117  1  0.77379000  0.73571000  0.23027000  1.0
  C  C118  1  0.62657000  0.70246000  0.20884000  1.0
  C  C119  1  0.10942000  0.78682000  0.26315000  1.0
  C  C120  1  0.14838000  0.70912000  0.25797000  1.0
  C  C121  1  0.22719000  0.67654000  0.29826000  1.0
  C  C122  1  0.27176000  0.72136000  0.34374000  1.0
  C  C123  1  0.23722000  0.79936000  0.34868000  1.0
  C  C124  1  0.15566000  0.83141000  0.30868000  1.0
  C  C125  1  0.34680000  0.71686000  0.43565000  1.0
  C  C126  1  0.44606000  0.62143000  0.38192000  1.0
  C  C127  1  0.49802000  0.61296000  0.43132000  1.0
  C  C128  1  0.07429000  0.88980000  0.20796000  1.0
  C  C129  1  0.95986000  0.95029000  0.20608000  1.0
  C  C130  1  0.01114000  0.01684000  0.18649000  1.0
  C  C131  1  0.17829000  0.02395000  0.16905000  1.0
  C  C132  1  0.29516000  0.96516000  0.17262000  1.0
  C  C133  1  0.24312000  0.89849000  0.19207000  1.0
  C  C134  1  0.16212000  0.16313000  0.15901000  1.0
  C  C135  1  0.32762000  0.09281000  0.10373000  1.0
  C  C136  1  0.22939000  0.20773000  0.12393000  1.0
  C  C137  1  0.52707000  0.92626000  0.51373000  1.0
  C  C138  1  0.66367000  0.97507000  0.50698000  1.0
  C  C139  1  0.35901000  0.95158000  0.50709000  1.0
  C  C140  1  0.56801000  0.84815000  0.52682000  1.0
  C  C141  1  0.19669000  0.90749000  0.51411000  1.0
  C  C142  1  0.94888000  0.65547000  0.47459000  1.0
  C  C143  1  0.97164000  0.57596000  0.48938000  1.0
  C  C144  1  0.75077000  0.58955000  0.56180000  1.0
  C  C145  1  0.88750000  0.54625000  0.53090000  1.0
  C  C146  1  0.08211000  0.52860000  0.45905000  1.0
  C  C147  1  0.81623000  0.28159000  0.39381000  1.0
  C  C148  1  0.71014000  0.39351000  0.38390000  1.0
  C  C149  1  0.85847000  0.38708000  0.35605000  1.0
  C  C150  1  0.07469000  0.28248000  0.34050000  1.0
  C  C151  1  0.17042000  0.23444000  0.36867000  1.0
  C  C152  1  0.31699000  0.20098000  0.34717000  1.0
  C  C153  1  0.37044000  0.21507000  0.29740000  1.0
  C  C154  1  0.27379000  0.26429000  0.26973000  1.0
  C  C155  1  0.12656000  0.29754000  0.29116000  1.0
  C  C156  1  0.60942000  0.21318000  0.23685000  1.0
  C  C157  1  0.64838000  0.29088000  0.24203000  1.0
  C  C158  1  0.72718000  0.32347000  0.20174000  1.0
  C  C159  1  0.77175000  0.27865000  0.15626000  1.0
  C  C160  1  0.73721000  0.20064000  0.15132000  1.0
  C  C161  1  0.65567000  0.16860000  0.19132000  1.0
  C  C162  1  0.84679000  0.28314000  0.06435000  1.0
  C  C163  1  0.94606000  0.37857000  0.11807000  1.0
  C  C164  1  0.99801000  0.38705000  0.06867000  1.0
  C  C165  1  0.57429000  0.11020000  0.29204000  1.0
  C  C166  1  0.45986000  0.04971000  0.29392000  1.0
  C  C167  1  0.51114000  0.98317000  0.31351000  1.0
  C  C168  1  0.67829000  0.97605000  0.33096000  1.0
  C  C169  1  0.79516000  0.03484000  0.32738000  1.0
  C  C170  1  0.74312000  0.10151000  0.30793000  1.0
  C  C171  1  0.66211000  0.83687000  0.34099000  1.0
  C  C172  1  0.82762000  0.90719000  0.39627000  1.0
  C  C173  1  0.72939000  0.79227000  0.37607000  1.0
  C  C174  1  0.97293000  0.92626000  0.01374000  1.0
  C  C175  1  0.83634000  0.97507000  0.00698000  1.0
  C  C176  1  0.14100000  0.95158000  0.00709000  1.0
  C  C177  1  0.93199000  0.84815000  0.02682000  1.0
  C  C178  1  0.30332000  0.90749000  0.01411000  1.0
  C  C179  1  0.55111000  0.65547000  0.97458000  1.0
  C  C180  1  0.52835000  0.57596000  0.98937000  1.0
  C  C181  1  0.74923000  0.58955000  0.06180000  1.0
  C  C182  1  0.61250000  0.54625000  0.03090000  1.0
  C  C183  1  0.41788000  0.52860000  0.95904000  1.0
  C  C184  1  0.68376000  0.28159000  0.89381000  1.0
  C  C185  1  0.78985000  0.39351000  0.88390000  1.0
  C  C186  1  0.64153000  0.38708000  0.85605000  1.0
  C  C187  1  0.42530000  0.28247000  0.84050000  1.0
  C  C188  1  0.32957000  0.23443000  0.86867000  1.0
  C  C189  1  0.18300000  0.20098000  0.84716000  1.0
  C  C190  1  0.12955000  0.21507000  0.79740000  1.0
  C  C191  1  0.22621000  0.26429000  0.76973000  1.0
  C  C192  1  0.37343000  0.29754000  0.79116000  1.0
  C  C193  1  0.89058000  0.21317000  0.73685000  1.0
  C  C194  1  0.85162000  0.29088000  0.74203000  1.0
  C  C195  1  0.77282000  0.32346000  0.70174000  1.0
  C  C196  1  0.72825000  0.27865000  0.65625000  1.0
  C  C197  1  0.76279000  0.20064000  0.65132000  1.0
  C  C198  1  0.84434000  0.16859000  0.69132000  1.0
  C  C199  1  0.65321000  0.28314000  0.56435000  1.0
  C  C200  1  0.55394000  0.37857000  0.61808000  1.0
  C  C201  1  0.50199000  0.38705000  0.56868000  1.0
  C  C202  1  0.92571000  0.11020000  0.79204000  1.0
  C  C203  1  0.04014000  0.04971000  0.79392000  1.0
  C  C204  1  0.98887000  0.98316000  0.81351000  1.0
  C  C205  1  0.82172000  0.97604000  0.83096000  1.0
  C  C206  1  0.70484000  0.03484000  0.82738000  1.0
  C  C207  1  0.75688000  0.10151000  0.80793000  1.0
  C  C208  1  0.83789000  0.83687000  0.84099000  1.0
  C  C209  1  0.67239000  0.90719000  0.89628000  1.0
  C  C210  1  0.77062000  0.79227000  0.87607000  1.0
  C  C211  1  0.47293000  0.07374000  0.48627000  1.0
  C  C212  1  0.33633000  0.02493000  0.49302000  1.0
  C  C213  1  0.64099000  0.04842000  0.49291000  1.0
  C  C214  1  0.43199000  0.15185000  0.47318000  1.0
  C  C215  1  0.80331000  0.09251000  0.48589000  1.0
  C  C216  1  0.05112000  0.34453000  0.52542000  1.0
  C  C217  1  0.02836000  0.42404000  0.51063000  1.0
  C  C218  1  0.24924000  0.41045000  0.43820000  1.0
  C  C219  1  0.11250000  0.45375000  0.46910000  1.0
  C  C220  1  0.91788000  0.47140000  0.54095000  1.0
  C  C221  1  0.18376000  0.71841000  0.60619000  1.0
  C  C222  1  0.28986000  0.60649000  0.61610000  1.0
  C  C223  1  0.14153000  0.61292000  0.64395000  1.0
  C  C224  1  0.92530000  0.71752000  0.65950000  1.0
  C  C225  1  0.82957000  0.76556000  0.63133000  1.0
  C  C226  1  0.68300000  0.79901000  0.65283000  1.0
  C  C227  1  0.62955000  0.78493000  0.70260000  1.0
  C  C228  1  0.72621000  0.73571000  0.73027000  1.0
  C  C229  1  0.87342000  0.70246000  0.70884000  1.0
  C  C230  1  0.39059000  0.78683000  0.76315000  1.0
  C  C231  1  0.35162000  0.70912000  0.75797000  1.0
  C  C232  1  0.27282000  0.67654000  0.79826000  1.0
  C  C233  1  0.22825000  0.72136000  0.84375000  1.0
  C  C234  1  0.26279000  0.79936000  0.84868000  1.0
  C  C235  1  0.34434000  0.83141000  0.80868000  1.0
  C  C236  1  0.15321000  0.71686000  0.93565000  1.0
  C  C237  1  0.05394000  0.62143000  0.88192000  1.0
  C  C238  1  0.00199000  0.61295000  0.93133000  1.0
  C  C239  1  0.42571000  0.88980000  0.70796000  1.0
  C  C240  1  0.54014000  0.95029000  0.70608000  1.0
  C  C241  1  0.48887000  0.01684000  0.68649000  1.0
  C  C242  1  0.32171000  0.02395000  0.66904000  1.0
  C  C243  1  0.20484000  0.96516000  0.67262000  1.0
  C  C244  1  0.25688000  0.89849000  0.69207000  1.0
  C  C245  1  0.33789000  0.16313000  0.65901000  1.0
  C  C246  1  0.17238000  0.09281000  0.60373000  1.0
  C  C247  1  0.27061000  0.20773000  0.62393000  1.0
  N  N248  1  0.01868000  0.81977000  0.22412000  1.0
  N  N249  1  0.18606000  0.67264000  0.09288000  1.0
  N  N250  1  0.42382000  0.68428000  0.13750000  1.0
  N  N251  1  0.35059000  0.68797000  0.38503000  1.0
  N  N252  1  0.43428000  0.67235000  0.46423000  1.0
  N  N253  1  0.22525000  0.09046000  0.14594000  1.0
  N  N254  1  0.33134000  0.16317000  0.08980000  1.0
  N  N255  1  0.51868000  0.18023000  0.27588000  1.0
  N  N256  1  0.68606000  0.32735000  0.40712000  1.0
  N  N257  1  0.92382000  0.31572000  0.36250000  1.0
  N  N258  1  0.85058000  0.31203000  0.11497000  1.0
  N  N259  1  0.93427000  0.32765000  0.03577000  1.0
  N  N260  1  0.72525000  0.90954000  0.35406000  1.0
  N  N261  1  0.83133000  0.83683000  0.41020000  1.0
  N  N262  1  0.98132000  0.18023000  0.77588000  1.0
  N  N263  1  0.81393000  0.32736000  0.90712000  1.0
  N  N264  1  0.57617000  0.31572000  0.86250000  1.0
  N  N265  1  0.64942000  0.31203000  0.61497000  1.0
  N  N266  1  0.56573000  0.32765000  0.53577000  1.0
  N  N267  1  0.77476000  0.90954000  0.85406000  1.0
  N  N268  1  0.66868000  0.83683000  0.91020000  1.0
  N  N269  1  0.48132000  0.81977000  0.72412000  1.0
  N  N270  1  0.31393000  0.67264000  0.59288000  1.0
  N  N271  1  0.07617000  0.68428000  0.63750000  1.0
  N  N272  1  0.14942000  0.68797000  0.88503000  1.0
  N  N273  1  0.06573000  0.67235000  0.96423000  1.0
  N  N274  1  0.27475000  0.09046000  0.64594000  1.0
  N  N275  1  0.16867000  0.16317000  0.58980000  1.0
  O  O276  1  0.21883000  0.17731000  0.97794000  1.0
  O  O277  1  0.94524000  0.19047000  0.95674000  1.0
  O  O278  1  0.61298000  0.07954000  0.94514000  1.0
  O  O279  1  0.64815000  0.13599000  0.02633000  1.0
  O  O280  1  0.50647000  0.28879000  0.99380000  1.0
  O  O281  1  0.38714000  0.33502000  0.06881000  1.0
  O  O282  1  0.19845000  0.35257000  0.96091000  1.0
  O  O283  1  0.19463000  0.43181000  0.89721000  1.0
  O  O284  1  0.71883000  0.82269000  0.52206000  1.0
  O  O285  1  0.44524000  0.80953000  0.54326000  1.0
  O  O286  1  0.11297000  0.92046000  0.55486000  1.0
  O  O287  1  0.14816000  0.86401000  0.47367000  1.0
  O  O288  1  0.00647000  0.71121000  0.50620000  1.0
  O  O289  1  0.88714000  0.66498000  0.43119000  1.0
  O  O290  1  0.69846000  0.64743000  0.53909000  1.0
  O  O291  1  0.69464000  0.56819000  0.60279000  1.0
  O  O292  1  0.78118000  0.82269000  0.02206000  1.0
  O  O293  1  0.05476000  0.80953000  0.04326000  1.0
  O  O294  1  0.38703000  0.92045000  0.05486000  1.0
  O  O295  1  0.35185000  0.86401000  0.97367000  1.0
  O  O296  1  0.49354000  0.71121000  0.00620000  1.0
  O  O297  1  0.61285000  0.66498000  0.93119000  1.0
  O  O298  1  0.80155000  0.64743000  0.03908000  1.0
  O  O299  1  0.80536000  0.56819000  0.10279000  1.0
  O  O300  1  0.28117000  0.17731000  0.47794000  1.0
  O  O301  1  0.55476000  0.19047000  0.45674000  1.0
  O  O302  1  0.88703000  0.07955000  0.44514000  1.0
  O  O303  1  0.85184000  0.13599000  0.52633000  1.0
  O  O304  1  0.99354000  0.28879000  0.49380000  1.0
  O  O305  1  0.11286000  0.33502000  0.56881000  1.0
  O  O306  1  0.30155000  0.35257000  0.46092000  1.0
  O  O307  1  0.30538000  0.43182000  0.39721000  1.0
