# generated using pymatgen
data_ZnH13C26I(NO4)2
_symmetry_space_group_name_H-M   'P 1'
_cell_length_a   13.99720000
_cell_length_b   15.24830000
_cell_length_c   23.57130000
_cell_angle_alpha   90.63560000
_cell_angle_beta   90.59600000
_cell_angle_gamma   90.05860000
_symmetry_Int_Tables_number   1
_chemical_formula_structural   ZnH13C26I(NO4)2
_chemical_formula_sum   'Zn2 H26 C52 I2 N4 O16'
_cell_volume   5030.32019416
_cell_formula_units_Z   2
loop_
 _symmetry_equiv_pos_site_id
 _symmetry_equiv_pos_as_xyz
  1  'x, y, z'
loop_
 _atom_site_type_symbol
 _atom_site_label
 _atom_site_symmetry_multiplicity
 _atom_site_fract_x
 _atom_site_fract_y
 _atom_site_fract_z
 _atom_site_occupancy
  Zn  Zn0  1  0.59440000  0.50173000  0.49473000  1.0
  Zn  Zn1  1  0.39196000  0.50452000  0.49519000  1.0
  H  H2  1  0.61400000  0.67641000  0.93357000  1.0
  H  H3  1  0.41708000  0.28751000  0.05676000  1.0
  H  H4  1  0.23561000  0.62291000  0.45557000  1.0
  H  H5  1  0.74593000  0.36316000  0.49221000  1.0
  H  H6  1  0.24490000  0.37864000  0.53078000  1.0
  H  H7  1  0.74956000  0.63519000  0.49988000  1.0
  H  H8  1  0.61785000  0.68776000  0.04081000  1.0
  H  H9  1  0.41168000  0.27696000  0.94960000  1.0
  H  H10  1  0.65341000  0.45972000  0.22124000  1.0
  H  H11  1  0.40279000  0.57611000  0.78052000  1.0
  H  H12  1  0.63877000  0.47695000  0.32671000  1.0
  H  H13  1  0.39801000  0.57492000  0.67436000  1.0
  H  H14  1  0.36979000  0.56324000  0.20111000  1.0
  H  H15  1  0.59112000  0.35313000  0.77651000  1.0
  H  H16  1  0.36249000  0.95488000  0.49687000  1.0
  H  H17  1  0.39222000  0.06974000  0.57087000  1.0
  H  H18  1  0.64039000  0.06117000  0.46388000  1.0
  H  H19  1  0.66221000  0.94006000  0.54291000  1.0
  H  H20  1  0.05831000  0.62508000  0.45509000  1.0
  H  H21  1  0.92311000  0.35572000  0.48956000  1.0
  H  H22  1  0.06644000  0.37042000  0.53472000  1.0
  H  H23  1  0.92610000  0.63939000  0.50356000  1.0
  H  H24  1  0.34840000  0.72313000  0.49088000  1.0
  H  H25  1  0.33824000  0.20014000  0.59157000  1.0
  H  H26  1  0.62805000  0.29140000  0.44619000  1.0
  H  H27  1  0.64708000  0.70757000  0.54322000  1.0
  C  C28  1  0.49737000  0.67749000  0.51268000  1.0
  C  C29  1  0.49288000  0.33247000  0.48943000  1.0
  C  C30  1  0.58828000  0.48532000  0.24009000  1.0
  C  C31  1  0.44288000  0.52754000  0.75633000  1.0
  C  C32  1  0.57999000  0.49489000  0.29853000  1.0
  C  C33  1  0.44075000  0.52718000  0.69746000  1.0
  C  C34  1  0.49596000  0.52643000  0.32364000  1.0
  C  C35  1  0.49446000  0.46681000  0.66559000  1.0
  C  C36  1  0.42011000  0.55147000  0.28780000  1.0
  C  C37  1  0.54790000  0.40317000  0.69468000  1.0
  C  C38  1  0.42814000  0.54328000  0.22898000  1.0
  C  C39  1  0.55006000  0.40257000  0.75397000  1.0
  C  C40  1  0.51142000  0.50922000  0.20566000  1.0
  C  C41  1  0.49898000  0.46567000  0.78425000  1.0
  C  C42  1  0.42543000  0.91647000  0.50777000  1.0
  C  C43  1  0.44350000  0.10328000  0.54406000  1.0
  C  C44  1  0.58444000  0.09769000  0.48550000  1.0
  C  C45  1  0.59460000  0.90840000  0.53201000  1.0
  C  C46  1  0.41955000  0.82524000  0.50572000  1.0
  C  C47  1  0.43682000  0.19355000  0.53686000  1.0
  C  C48  1  0.57813000  0.18838000  0.47766000  1.0
  C  C49  1  0.58910000  0.81696000  0.53187000  1.0
  C  C50  1  0.50181000  0.77313000  0.51749000  1.0
  C  C51  1  0.50179000  0.23816000  0.50152000  1.0
  C  C52  1  0.51279000  0.95782000  0.51987000  1.0
  C  C53  1  0.51552000  0.05469000  0.51731000  1.0
  C  C54  1  0.49282000  0.52615000  0.38732000  1.0
  C  C55  1  0.49246000  0.47839000  0.60248000  1.0
  C  C56  1  0.09604000  0.56945000  0.47325000  1.0
  C  C57  1  0.88812000  0.41927000  0.49343000  1.0
  C  C58  1  0.10065000  0.42760000  0.51641000  1.0
  C  C59  1  0.88981000  0.57639000  0.49966000  1.0
  C  C60  1  0.19510000  0.56875000  0.47318000  1.0
  C  C61  1  0.78898000  0.42277000  0.49392000  1.0
  C  C62  1  0.19982000  0.43174000  0.51510000  1.0
  C  C63  1  0.79076000  0.57466000  0.49867000  1.0
  C  C64  1  0.04644000  0.49781000  0.49549000  1.0
  C  C65  1  0.94104000  0.49744000  0.49641000  1.0
  C  C66  1  0.46869000  0.39655000  0.87562000  1.0
  C  C67  1  0.55556000  0.57054000  0.11462000  1.0
  C  C68  1  0.54752000  0.54455000  0.86989000  1.0
  C  C69  1  0.48027000  0.42102000  0.12067000  1.0
  C  C70  1  0.54952000  0.54940000  0.93272000  1.0
  C  C71  1  0.48040000  0.41505000  0.05777000  1.0
  C  C72  1  0.51362000  0.47917000  0.96502000  1.0
  C  C73  1  0.51618000  0.48535000  0.02541000  1.0
  C  C74  1  0.47491000  0.40313000  0.93843000  1.0
  C  C75  1  0.55420000  0.56180000  0.05186000  1.0
  C  C76  1  0.58693000  0.62353000  0.95969000  1.0
  C  C77  1  0.44389000  0.34064000  0.03071000  1.0
  C  C78  1  0.58915000  0.62977000  0.01917000  1.0
  C  C79  1  0.44099000  0.33476000  0.97117000  1.0
  I  I80  1  0.29220000  0.60876000  0.31687000  1.0
  I  I81  1  0.62173000  0.30037000  0.65345000  1.0
  N  N82  1  0.50529000  0.46849000  0.84532000  1.0
  N  N83  1  0.51655000  0.49969000  0.14473000  1.0
  N  N84  1  0.24606000  0.50152000  0.49407000  1.0
  N  N85  1  0.74089000  0.49918000  0.49602000  1.0
  O  O86  1  0.57323000  0.63220000  0.52347000  1.0
  O  O87  1  0.41503000  0.37174000  0.49892000  1.0
  O  O88  1  0.56728000  0.37172000  0.46849000  1.0
  O  O89  1  0.41798000  0.64105000  0.49717000  1.0
  O  O90  1  0.57149000  0.54079000  0.41354000  1.0
  O  O91  1  0.41460000  0.50636000  0.58112000  1.0
  O  O92  1  0.56903000  0.46266000  0.57561000  1.0
  O  O93  1  0.41346000  0.50794000  0.40990000  1.0
  O  O94  1  0.43325000  0.33314000  0.85062000  1.0
  O  O95  1  0.58736000  0.63532000  0.13983000  1.0
  O  O96  1  0.57998000  0.60276000  0.84010000  1.0
  O  O97  1  0.44998000  0.36241000  0.15092000  1.0
  O  O98  1  0.33476000  0.78801000  0.49164000  1.0
  O  O99  1  0.36782000  0.24019000  0.56498000  1.0
  O  O100  1  0.64517000  0.22693000  0.44534000  1.0
  O  O101  1  0.66831000  0.77065000  0.54578000  1.0
