# generated using pymatgen
data_HoH10C9NO9
_symmetry_space_group_name_H-M   'P 1'
_cell_length_a   7.26514000
_cell_length_b   8.52057000
_cell_length_c   10.59290000
_cell_angle_alpha   106.31800000
_cell_angle_beta   101.47500000
_cell_angle_gamma   94.01420000
_symmetry_Int_Tables_number   1
_chemical_formula_structural   HoH10C9NO9
_chemical_formula_sum   'Ho2 H20 C18 N2 O18'
_cell_volume   611.18927687
_cell_formula_units_Z   2
loop_
 _symmetry_equiv_pos_site_id
 _symmetry_equiv_pos_as_xyz
  1  'x, y, z'
loop_
 _atom_site_type_symbol
 _atom_site_label
 _atom_site_symmetry_multiplicity
 _atom_site_fract_x
 _atom_site_fract_y
 _atom_site_fract_z
 _atom_site_occupancy
  Ho  Ho0  1  0.74452000  0.26000000  0.59375000  1.0
  Ho  Ho1  1  0.25547000  0.73999000  0.40625000  1.0
  H  H2  1  0.41623000  0.34720000  0.69517000  1.0
  H  H3  1  0.58378000  0.65280000  0.30483000  1.0
  H  H4  1  0.41906000  0.45322000  0.59741000  1.0
  H  H5  1  0.58093000  0.54678000  0.40259000  1.0
  H  H6  1  0.84629000  0.50036000  0.88308000  1.0
  H  H7  1  0.15372000  0.49964000  0.11692000  1.0
  H  H8  1  0.98752000  0.36345000  0.86989000  1.0
  H  H9  1  0.01247000  0.63655000  0.13011000  1.0
  H  H10  1  0.10445000  0.05616000  0.82323000  1.0
  H  H11  1  0.89556000  0.94384000  0.17678000  1.0
  H  H12  1  0.33346000  0.31680000  0.23234000  1.0
  H  H13  1  0.66654000  0.68321000  0.76766000  1.0
  H  H14  1  0.33138000  0.79023000  0.08425000  1.0
  H  H15  1  0.66861000  0.20977000  0.91575000  1.0
  H  H16  1  0.17710000  0.64588000  0.85191000  1.0
  H  H17  1  0.82292000  0.35412000  0.14809000  1.0
  H  H18  1  0.27510000  0.75632000  0.75527000  1.0
  H  H19  1  0.72491000  0.24369000  0.24473000  1.0
  H  H20  1  0.03121000  0.75031000  0.75529000  1.0
  H  H21  1  0.96880000  0.24969000  0.24471000  1.0
  C  C22  1  0.42614000  0.05329000  0.31493000  1.0
  C  C23  1  0.57385000  0.94671000  0.68508000  1.0
  C  C24  1  0.34070000  0.05464000  0.17329000  1.0
  C  C25  1  0.65930000  0.94537000  0.82671000  1.0
  C  C26  1  0.29945000  0.20139000  0.15042000  1.0
  C  C27  1  0.70054000  0.79862000  0.84959000  1.0
  C  C28  1  0.21090000  0.20413000  0.01872000  1.0
  C  C29  1  0.78909000  0.79587000  0.98128000  1.0
  C  C30  1  0.21737000  0.90764000  0.93764000  1.0
  C  C31  1  0.78263000  0.09237000  0.06237000  1.0
  C  C32  1  0.30081000  0.90597000  0.06595000  1.0
  C  C33  1  0.69918000  0.09403000  0.93406000  1.0
  C  C34  1  0.17243000  0.75631000  0.81859000  1.0
  C  C35  1  0.82757000  0.24370000  0.18142000  1.0
  C  C36  1  0.96126000  0.99992000  0.42677000  1.0
  C  C37  1  0.03874000  0.00008000  0.57322000  1.0
  C  C38  1  0.08915000  0.46386000  0.52599000  1.0
  C  C39  1  0.91085000  0.53612000  0.47399000  1.0
  N  N40  1  0.17397000  0.05402000  0.91827000  1.0
  N  N41  1  0.82603000  0.94598000  0.08173000  1.0
  O  O42  1  0.49062000  0.19047000  0.40335000  1.0
  O  O43  1  0.50938000  0.80953000  0.59665000  1.0
  O  O44  1  0.42823000  0.91304000  0.33567000  1.0
  O  O45  1  0.57177000  0.08696000  0.66433000  1.0
  O  O46  1  0.16354000  0.33369000  0.98985000  1.0
  O  O47  1  0.83646000  0.66631000  0.01015000  1.0
  O  O48  1  0.82755000  0.08294000  0.40716000  1.0
  O  O49  1  0.17244000  0.91706000  0.59283000  1.0
  O  O50  1  0.03773000  0.91645000  0.33648000  1.0
  O  O51  1  0.96226000  0.08355000  0.66351000  1.0
  O  O52  1  0.07081000  0.36192000  0.58963000  1.0
  O  O53  1  0.92919000  0.63807000  0.41036000  1.0
  O  O54  1  0.24264000  0.51616000  0.50007000  1.0
  O  O55  1  0.75736000  0.48384000  0.49992000  1.0
  O  O56  1  0.50405000  0.41356000  0.66571000  1.0
  O  O57  1  0.49595000  0.58644000  0.33430000  1.0
  O  O58  1  0.87820000  0.40108000  0.81777000  1.0
  O  O59  1  0.12180000  0.59893000  0.18223000  1.0
