# generated using pymatgen
data_Zn4H7C14BrO13
_symmetry_space_group_name_H-M   'P 1'
_cell_length_a   10.87760000
_cell_length_b   10.90980000
_cell_length_c   13.33020000
_cell_angle_alpha   94.64890000
_cell_angle_beta   100.09000000
_cell_angle_gamma   96.68800000
_symmetry_Int_Tables_number   1
_chemical_formula_structural   Zn4H7C14BrO13
_chemical_formula_sum   'Zn4 H7 C14 Br1 O13'
_cell_volume   1538.51421179
_cell_formula_units_Z   1
loop_
 _symmetry_equiv_pos_site_id
 _symmetry_equiv_pos_as_xyz
  1  'x, y, z'
loop_
 _atom_site_type_symbol
 _atom_site_label
 _atom_site_symmetry_multiplicity
 _atom_site_fract_x
 _atom_site_fract_y
 _atom_site_fract_z
 _atom_site_occupancy
  Zn  Zn0  1  0.39807000  0.59227000  0.42028000  1.0
  Zn  Zn1  1  0.59870000  0.40582000  0.40856000  1.0
  Zn  Zn2  1  0.41636000  0.38156000  0.56964000  1.0
  Zn  Zn3  1  0.63589000  0.61481000  0.60429000  1.0
  H  H4  1  0.59685000  0.49135000  0.08544000  1.0
  H  H5  1  0.03324000  0.64698000  0.53811000  1.0
  H  H6  1  0.48715000  0.98600000  0.37942000  1.0
  H  H7  1  0.99172000  0.36576000  0.46643000  1.0
  H  H8  1  0.65141000  0.53665000  0.92989000  1.0
  H  H9  1  0.31128000  0.45867000  0.08473000  1.0
  H  H10  1  0.53899000  0.00924000  0.61640000  1.0
  C  C11  1  0.50232000  0.16723000  0.46984000  1.0
  C  C12  1  0.84576000  0.53565000  0.51439000  1.0
  C  C13  1  0.52493000  0.82875000  0.52551000  1.0
  C  C14  1  0.54598000  0.50160000  0.77413000  1.0
  C  C15  1  0.44905000  0.48248000  0.22775000  1.0
  C  C16  1  0.41210000  0.46867000  0.11497000  1.0
  C  C17  1  0.49631000  0.47665000  0.05199000  1.0
  C  C18  1  0.18111000  0.47187000  0.49106000  1.0
  C  C19  1  0.55737000  0.50207000  0.88620000  1.0
  C  C20  1  0.46663000  0.47026000  0.94102000  1.0
  C  C21  1  0.52030000  0.96451000  0.53807000  1.0
  C  C22  1  0.98293000  0.55407000  0.51300000  1.0
  C  C23  1  0.49984000  0.03042000  0.45756000  1.0
  C  C24  1  0.04286000  0.45913000  0.48678000  1.0
  Br  Br25  1  0.29520000  0.41914000  0.87929000  1.0
  O  O26  1  0.51549000  0.49959000  0.50224000  1.0
  O  O27  1  0.78062000  0.43987000  0.46085000  1.0
  O  O28  1  0.23425000  0.37797000  0.51802000  1.0
  O  O29  1  0.46455000  0.21454000  0.54786000  1.0
  O  O30  1  0.80555000  0.61789000  0.56961000  1.0
  O  O31  1  0.58605000  0.78378000  0.60159000  1.0
  O  O32  1  0.45268000  0.43384000  0.71678000  1.0
  O  O33  1  0.55605000  0.45390000  0.26824000  1.0
  O  O34  1  0.36750000  0.52337000  0.27594000  1.0
  O  O35  1  0.63433000  0.56985000  0.74466000  1.0
  O  O36  1  0.54279000  0.22566000  0.40020000  1.0
  O  O37  1  0.23501000  0.57310000  0.46774000  1.0
  O  O38  1  0.46739000  0.76861000  0.44069000  1.0
