# generated using pymatgen
data_FeCuH12C14IN2
_symmetry_space_group_name_H-M   'P 1'
_cell_length_a   9.41176000
_cell_length_b   12.35180000
_cell_length_c   12.49930000
_cell_angle_alpha   68.13900000
_cell_angle_beta   89.99980000
_cell_angle_gamma   89.99960000
_symmetry_Int_Tables_number   1
_chemical_formula_structural   FeCuH12C14IN2
_chemical_formula_sum   'Fe4 Cu4 H48 C56 I4 N8'
_cell_volume   1348.58040316
_cell_formula_units_Z   4
loop_
 _symmetry_equiv_pos_site_id
 _symmetry_equiv_pos_as_xyz
  1  'x, y, z'
loop_
 _atom_site_type_symbol
 _atom_site_label
 _atom_site_symmetry_multiplicity
 _atom_site_fract_x
 _atom_site_fract_y
 _atom_site_fract_z
 _atom_site_occupancy
  Fe  Fe0  1  0.96894000  0.86405000  0.30200000  1.0
  Fe  Fe1  1  0.53106000  0.86405000  0.80200000  1.0
  Fe  Fe2  1  0.03106000  0.13595000  0.69801000  1.0
  Fe  Fe3  1  0.46894000  0.13595000  0.19800000  1.0
  Cu  Cu4  1  0.05411000  0.50635000  0.88846000  1.0
  Cu  Cu5  1  0.44589000  0.50635000  0.38846000  1.0
  Cu  Cu6  1  0.94589000  0.49365000  0.11154000  1.0
  Cu  Cu7  1  0.55411000  0.49365000  0.61154000  1.0
  H  H8  1  0.07793000  0.71840000  0.67427000  1.0
  H  H9  1  0.42207000  0.71839000  0.17427000  1.0
  H  H10  1  0.92208000  0.28160000  0.32574000  1.0
  H  H11  1  0.57793000  0.28161000  0.82573000  1.0
  H  H12  1  0.70515000  0.70688000  0.47592000  1.0
  H  H13  1  0.79485000  0.70688000  0.97592000  1.0
  H  H14  1  0.29485000  0.29312000  0.52409000  1.0
  H  H15  1  0.20515000  0.29312000  0.02408000  1.0
  H  H16  1  0.79321000  0.44211000  0.79054000  1.0
  H  H17  1  0.70679000  0.44211000  0.29053000  1.0
  H  H18  1  0.20679000  0.55789000  0.20946000  1.0
  H  H19  1  0.29321000  0.55789000  0.70947000  1.0
  H  H20  1  0.17605000  0.84949000  0.46767000  1.0
  H  H21  1  0.32395000  0.84949000  0.96767000  1.0
  H  H22  1  0.82396000  0.15051000  0.53233000  1.0
  H  H23  1  0.67605000  0.15050000  0.03233000  1.0
  H  H24  1  0.14359000  0.05466000  0.28755000  1.0
  H  H25  1  0.35641000  0.05466000  0.78756000  1.0
  H  H26  1  0.85642000  0.94533000  0.71244000  1.0
  H  H27  1  0.64359000  0.94533000  0.21245000  1.0
  H  H28  1  0.86318000  0.09224000  0.24344000  1.0
  H  H29  1  0.63681000  0.09224000  0.74344000  1.0
  H  H30  1  0.13682000  0.90776000  0.75656000  1.0
  H  H31  1  0.36318000  0.90777000  0.25656000  1.0
  H  H32  1  0.71952000  0.91011000  0.39875000  1.0
  H  H33  1  0.78048000  0.91011000  0.89874000  1.0
  H  H34  1  0.28048000  0.08989000  0.60126000  1.0
  H  H35  1  0.21952000  0.08990000  0.10126000  1.0
  H  H36  1  0.97351000  0.62021000  0.37653000  1.0
  H  H37  1  0.52649000  0.62021000  0.87653000  1.0
  H  H38  1  0.02649000  0.37979000  0.62347000  1.0
  H  H39  1  0.47351000  0.37979000  0.12346000  1.0
  H  H40  1  0.20498000  0.74059000  0.27047000  1.0
  H  H41  1  0.29502000  0.74058000  0.77047000  1.0
  H  H42  1  0.79502000  0.25942000  0.72953000  1.0
  H  H43  1  0.70498000  0.25941000  0.22952000  1.0
  H  H44  1  0.11652000  0.93177000  0.09038000  1.0
  H  H45  1  0.38348000  0.93177000  0.59038000  1.0
  H  H46  1  0.88347000  0.06823000  0.90962000  1.0
  H  H47  1  0.61652000  0.06823000  0.40962000  1.0
  H  H48  1  0.82829000  0.93065000  0.08934000  1.0
  H  H49  1  0.67171000  0.93065000  0.58933000  1.0
  H  H50  1  0.17170000  0.06935000  0.91067000  1.0
  H  H51  1  0.32830000  0.06935000  0.41066000  1.0
  H  H52  1  0.74015000  0.73756000  0.26650000  1.0
  H  H53  1  0.75985000  0.73757000  0.76649000  1.0
  H  H54  1  0.25985000  0.26243000  0.73351000  1.0
  H  H55  1  0.24015000  0.26243000  0.23350000  1.0
  C  C56  1  0.98198000  0.67758000  0.65773000  1.0
  C  C57  1  0.51802000  0.67758000  0.15773000  1.0
  C  C58  1  0.01803000  0.32242000  0.34227000  1.0
  C  C59  1  0.48198000  0.32242000  0.84227000  1.0
  C  C60  1  0.90084000  0.73085000  0.55812000  1.0
  C  C61  1  0.59916000  0.73085000  0.05812000  1.0
  C  C62  1  0.09916000  0.26915000  0.44188000  1.0
  C  C63  1  0.40084000  0.26915000  0.94188000  1.0
  C  C64  1  0.77717000  0.67154000  0.54916000  1.0
  C  C65  1  0.72283000  0.67154000  0.04916000  1.0
  C  C66  1  0.22283000  0.32846000  0.45084000  1.0
  C  C67  1  0.27717000  0.32846000  0.95084000  1.0
  C  C68  1  0.82328000  0.52453000  0.72301000  1.0
  C  C69  1  0.67672000  0.52453000  0.22301000  1.0
  C  C70  1  0.17672000  0.47547000  0.27699000  1.0
  C  C71  1  0.32328000  0.47547000  0.77699000  1.0
  C  C72  1  0.93669000  0.84291000  0.46868000  1.0
  C  C73  1  0.56331000  0.84291000  0.96868000  1.0
  C  C74  1  0.06332000  0.15709000  0.53132000  1.0
  C  C75  1  0.43669000  0.15709000  0.03132000  1.0
  C  C76  1  0.07581000  0.89117000  0.43210000  1.0
  C  C77  1  0.42419000  0.89117000  0.93211000  1.0
  C  C78  1  0.92420000  0.10883000  0.56789000  1.0
  C  C79  1  0.57581000  0.10882000  0.06789000  1.0
  C  C80  1  0.05824000  0.99902000  0.33626000  1.0
  C  C81  1  0.44175000  0.99902000  0.83627000  1.0
  C  C82  1  0.94176000  0.00098000  0.66373000  1.0
  C  C83  1  0.55825000  0.00098000  0.16373000  1.0
  C  C84  1  0.90944000  0.01871000  0.31296000  1.0
  C  C85  1  0.59055000  0.01871000  0.81296000  1.0
  C  C86  1  0.09056000  0.98129000  0.68704000  1.0
  C  C87  1  0.40945000  0.98129000  0.18704000  1.0
  C  C88  1  0.83395000  0.92249000  0.39391000  1.0
  C  C89  1  0.66605000  0.92249000  0.89391000  1.0
  C  C90  1  0.16606000  0.07751000  0.60609000  1.0
  C  C91  1  0.33395000  0.07751000  0.10609000  1.0
  C  C92  1  0.97316000  0.69977000  0.30000000  1.0
  C  C93  1  0.52684000  0.69977000  0.80000000  1.0
  C  C94  1  0.02684000  0.30023000  0.70000000  1.0
  C  C95  1  0.47316000  0.30023000  0.19999000  1.0
  C  C96  1  0.09592000  0.76360000  0.24293000  1.0
  C  C97  1  0.40408000  0.76360000  0.74293000  1.0
  C  C98  1  0.90408000  0.23640000  0.75707000  1.0
  C  C99  1  0.59592000  0.23640000  0.25707000  1.0
  C  C100  1  0.04874000  0.86512000  0.14925000  1.0
  C  C101  1  0.45125000  0.86512000  0.64924000  1.0
  C  C102  1  0.95125000  0.13488000  0.85076000  1.0
  C  C103  1  0.54875000  0.13488000  0.35075000  1.0
  C  C104  1  0.89662000  0.86440000  0.14836000  1.0
  C  C105  1  0.60337000  0.86440000  0.64836000  1.0
  C  C106  1  0.10337000  0.13560000  0.85164000  1.0
  C  C107  1  0.39662000  0.13560000  0.35164000  1.0
  C  C108  1  0.84971000  0.76211000  0.24207000  1.0
  C  C109  1  0.65030000  0.76211000  0.74207000  1.0
  C  C110  1  0.15029000  0.23788000  0.75793000  1.0
  C  C111  1  0.34971000  0.23789000  0.25793000  1.0
  I  I112  1  0.09774000  0.67222000  0.96716000  1.0
  I  I113  1  0.40226000  0.67222000  0.46716000  1.0
  I  I114  1  0.90225000  0.32778000  0.03284000  1.0
  I  I115  1  0.59775000  0.32778000  0.53284000  1.0
  N  N116  1  0.94242000  0.57539000  0.74043000  1.0
  N  N117  1  0.55758000  0.57539000  0.24042000  1.0
  N  N118  1  0.05759000  0.42461000  0.25958000  1.0
  N  N119  1  0.44242000  0.42461000  0.75958000  1.0
  N  N120  1  0.73879000  0.56901000  0.62997000  1.0
  N  N121  1  0.76121000  0.56901000  0.12997000  1.0
  N  N122  1  0.26121000  0.43100000  0.37003000  1.0
  N  N123  1  0.23879000  0.43099000  0.87003000  1.0
