# generated using pymatgen
data_Zn3H22(C9O10)2
_symmetry_space_group_name_H-M   'P 1'
_cell_length_a   6.28966000
_cell_length_b   14.23540000
_cell_length_c   15.60620000
_cell_angle_alpha   87.22290000
_cell_angle_beta   89.99990000
_cell_angle_gamma   89.99990000
_symmetry_Int_Tables_number   1
_chemical_formula_structural   Zn3H22(C9O10)2
_chemical_formula_sum   'Zn6 H44 C36 O40'
_cell_volume   1395.67297624
_cell_formula_units_Z   2
loop_
 _symmetry_equiv_pos_site_id
 _symmetry_equiv_pos_as_xyz
  1  'x, y, z'
loop_
 _atom_site_type_symbol
 _atom_site_label
 _atom_site_symmetry_multiplicity
 _atom_site_fract_x
 _atom_site_fract_y
 _atom_site_fract_z
 _atom_site_occupancy
  Zn  Zn0  1  0.71514000  0.54603000  0.62073000  1.0
  Zn  Zn1  1  0.21513000  0.95397000  0.87927000  1.0
  Zn  Zn2  1  0.28487000  0.45397000  0.37927000  1.0
  Zn  Zn3  1  0.78486000  0.04603000  0.12073000  1.0
  Zn  Zn4  1  0.49999000  0.00000000  0.50000000  1.0
  Zn  Zn5  1  0.00000000  0.50000000  0.00000000  1.0
  H  H6  1  0.71495000  0.23840000  0.63524000  1.0
  H  H7  1  0.21495000  0.26160000  0.86476000  1.0
  H  H8  1  0.28505000  0.76160000  0.36476000  1.0
  H  H9  1  0.78504000  0.73841000  0.13524000  1.0
  H  H10  1  0.73488000  0.03582000  0.84984000  1.0
  H  H11  1  0.23488000  0.46417000  0.65016000  1.0
  H  H12  1  0.26511000  0.96417000  0.15016000  1.0
  H  H13  1  0.76512000  0.53583000  0.34984000  1.0
  H  H14  1  0.75648000  0.32939000  0.89388000  1.0
  H  H15  1  0.25650000  0.17060000  0.60613000  1.0
  H  H16  1  0.24351000  0.67060000  0.10613000  1.0
  H  H17  1  0.74351000  0.82940000  0.39388000  1.0
  H  H18  1  0.04187000  0.58028000  0.72292000  1.0
  H  H19  1  0.54187000  0.91971000  0.77708000  1.0
  H  H20  1  0.95814000  0.41972000  0.27708000  1.0
  H  H21  1  0.45813000  0.08028000  0.22292000  1.0
  H  H22  1  0.06309000  0.64232000  0.63620000  1.0
  H  H23  1  0.56308000  0.85767000  0.86380000  1.0
  H  H24  1  0.93692000  0.35768000  0.36380000  1.0
  H  H25  1  0.43690000  0.14232000  0.13620000  1.0
  H  H26  1  0.49726000  0.67597000  0.68493000  1.0
  H  H27  1  0.99727000  0.82404000  0.81507000  1.0
  H  H28  1  0.50273000  0.32404000  0.31506000  1.0
  H  H29  1  0.00274000  0.17597000  0.18493000  1.0
  H  H30  1  0.39260000  0.58025000  0.72509000  1.0
  H  H31  1  0.89260000  0.91975000  0.77491000  1.0
  H  H32  1  0.60741000  0.41975000  0.27491000  1.0
  H  H33  1  0.10740000  0.08026000  0.22509000  1.0
  H  H34  1  0.18712000  0.02641000  0.61835000  1.0
  H  H35  1  0.68713000  0.47359000  0.88165000  1.0
  H  H36  1  0.81288000  0.97360000  0.38165000  1.0
  H  H37  1  0.31288000  0.52641000  0.11835000  1.0
  H  H38  1  0.08556000  0.05599000  0.52674000  1.0
  H  H39  1  0.58556000  0.44401000  0.97326000  1.0
  H  H40  1  0.91444000  0.94401000  0.47326000  1.0
  H  H41  1  0.41444000  0.55599000  0.02674000  1.0
  H  H42  1  0.61837000  0.89553000  0.62452000  1.0
  H  H43  1  0.11837000  0.60447000  0.87548000  1.0
  H  H44  1  0.38164000  0.10448000  0.37548000  1.0
  H  H45  1  0.88163000  0.39553000  0.12452000  1.0
  H  H46  1  0.60821000  0.82066000  0.55011000  1.0
  H  H47  1  0.10822000  0.67934000  0.94989000  1.0
  H  H48  1  0.39180000  0.17934000  0.44989000  1.0
  H  H49  1  0.89178000  0.32066000  0.05011000  1.0
  C  C50  1  0.72575000  0.39479000  0.72822000  1.0
  C  C51  1  0.22575000  0.10521000  0.77179000  1.0
  C  C52  1  0.27425000  0.60521000  0.27179000  1.0
  C  C53  1  0.77424000  0.89479000  0.22822000  1.0
  C  C54  1  0.73270000  0.29478000  0.76079000  1.0
  C  C55  1  0.23270000  0.20522000  0.73921000  1.0
  C  C56  1  0.26730000  0.70522000  0.23921000  1.0
  C  C57  1  0.76730000  0.79478000  0.26079000  1.0
  C  C58  1  0.72455000  0.22210000  0.70392000  1.0
  C  C59  1  0.22455000  0.27789000  0.79608000  1.0
  C  C60  1  0.27545000  0.77790000  0.29608000  1.0
  C  C61  1  0.77545000  0.72211000  0.20392000  1.0
  C  C62  1  0.72411000  0.12799000  0.73520000  1.0
  C  C63  1  0.22412000  0.37201000  0.76480000  1.0
  C  C64  1  0.27588000  0.87201000  0.26480000  1.0
  C  C65  1  0.77589000  0.62799000  0.23520000  1.0
  C  C66  1  0.69448000  0.05093000  0.67454000  1.0
  C  C67  1  0.19448000  0.44907000  0.82547000  1.0
  C  C68  1  0.30551000  0.94907000  0.32547000  1.0
  C  C69  1  0.80551000  0.55094000  0.17453000  1.0
  C  C70  1  0.73644000  0.10785000  0.82344000  1.0
  C  C71  1  0.23645000  0.39214000  0.67656000  1.0
  C  C72  1  0.26355000  0.89215000  0.17656000  1.0
  C  C73  1  0.76356000  0.60786000  0.32344000  1.0
  C  C74  1  0.74792000  0.18019000  0.88073000  1.0
  C  C75  1  0.24793000  0.31980000  0.61928000  1.0
  C  C76  1  0.25207000  0.81980000  0.11928000  1.0
  C  C77  1  0.75208000  0.68020000  0.38072000  1.0
  C  C78  1  0.76248000  0.15683000  0.97488000  1.0
  C  C79  1  0.26248000  0.34316000  0.52512000  1.0
  C  C80  1  0.23753000  0.84316000  0.02512000  1.0
  C  C81  1  0.73752000  0.65684000  0.47488000  1.0
  C  C82  1  0.74486000  0.27340000  0.84922000  1.0
  C  C83  1  0.24486000  0.22660000  0.65079000  1.0
  C  C84  1  0.25514000  0.72660000  0.15079000  1.0
  C  C85  1  0.75514000  0.77340000  0.34921000  1.0
  O  O86  1  0.71629000  0.46133000  0.77895000  1.0
  O  O87  1  0.21630000  0.03867000  0.72105000  1.0
  O  O88  1  0.28372000  0.53867000  0.22105000  1.0
  O  O89  1  0.78370000  0.96134000  0.27895000  1.0
  O  O90  1  0.72862000  0.41029000  0.64594000  1.0
  O  O91  1  0.22862000  0.08971000  0.85407000  1.0
  O  O92  1  0.27138000  0.58971000  0.35407000  1.0
  O  O93  1  0.77137000  0.91029000  0.14593000  1.0
  O  O94  1  0.64507000  0.07460000  0.59821000  1.0
  O  O95  1  0.14508000  0.42540000  0.90178000  1.0
  O  O96  1  0.35491000  0.92540000  0.40179000  1.0
  O  O97  1  0.85491000  0.57461000  0.09821000  1.0
  O  O98  1  0.71457000  0.96424000  0.70349000  1.0
  O  O99  1  0.21457000  0.53576000  0.79651000  1.0
  O  O100  1  0.28542000  0.03576000  0.29651000  1.0
  O  O101  1  0.78543000  0.46425000  0.20349000  1.0
  O  O102  1  0.76606000  0.06801000  0.99689000  1.0
  O  O103  1  0.26605000  0.43199000  0.50311000  1.0
  O  O104  1  0.23394000  0.93198000  0.00311000  1.0
  O  O105  1  0.73395000  0.56801000  0.49688000  1.0
  O  O106  1  0.76766000  0.22025000  0.02843000  1.0
  O  O107  1  0.26765000  0.27974000  0.47157000  1.0
  O  O108  1  0.23238000  0.77973000  0.97158000  1.0
  O  O109  1  0.73235000  0.72025000  0.52843000  1.0
  O  O110  1  0.95914000  0.61665000  0.67737000  1.0
  O  O111  1  0.45913000  0.88335000  0.82263000  1.0
  O  O112  1  0.04087000  0.38335000  0.32263000  1.0
  O  O113  1  0.54086000  0.11665000  0.17737000  1.0
  O  O114  1  0.45636000  0.61223000  0.67185000  1.0
  O  O115  1  0.95635000  0.88777000  0.82815000  1.0
  O  O116  1  0.54366000  0.38778000  0.32815000  1.0
  O  O117  1  0.04365000  0.11223000  0.17185000  1.0
  O  O118  1  0.18471000  0.01242000  0.55572000  1.0
  O  O119  1  0.68472000  0.48758000  0.94428000  1.0
  O  O120  1  0.81528000  0.98758000  0.44428000  1.0
  O  O121  1  0.31528000  0.51243000  0.05572000  1.0
  O  O122  1  0.53304000  0.87458000  0.57508000  1.0
  O  O123  1  0.03304000  0.62542000  0.92492000  1.0
  O  O124  1  0.46697000  0.12542000  0.42492000  1.0
  O  O125  1  0.96696000  0.37458000  0.07508000  1.0
