# generated using pymatgen
data_CuH14C13N3O2
_symmetry_space_group_name_H-M   'P 1'
_cell_length_a   8.38902000
_cell_length_b   9.27608000
_cell_length_c   16.62300000
_cell_angle_alpha   89.99990000
_cell_angle_beta   88.96610000
_cell_angle_gamma   89.99990000
_symmetry_Int_Tables_number   1
_chemical_formula_structural   CuH14C13N3O2
_chemical_formula_sum   'Cu4 H56 C52 N12 O8'
_cell_volume   1293.34506028
_cell_formula_units_Z   4
loop_
 _symmetry_equiv_pos_site_id
 _symmetry_equiv_pos_as_xyz
  1  'x, y, z'
loop_
 _atom_site_type_symbol
 _atom_site_label
 _atom_site_symmetry_multiplicity
 _atom_site_fract_x
 _atom_site_fract_y
 _atom_site_fract_z
 _atom_site_occupancy
  Cu  Cu0  1  0.91937000  0.76903000  0.71947000  1.0
  Cu  Cu1  1  0.08063000  0.26902000  0.78053000  1.0
  Cu  Cu2  1  0.08063000  0.23096000  0.28053000  1.0
  Cu  Cu3  1  0.91936000  0.73096000  0.21947000  1.0
  H  H4  1  0.73085000  0.61550000  0.85211000  1.0
  H  H5  1  0.26915000  0.11550000  0.64790000  1.0
  H  H6  1  0.26916000  0.38450000  0.14790000  1.0
  H  H7  1  0.73085000  0.88450000  0.35210000  1.0
  H  H8  1  0.23266000  0.73225000  0.83402000  1.0
  H  H9  1  0.76734000  0.23225000  0.66599000  1.0
  H  H10  1  0.76734000  0.26775000  0.16598000  1.0
  H  H11  1  0.23267000  0.76776000  0.33402000  1.0
  H  H12  1  0.30728000  0.87936000  0.71559000  1.0
  H  H13  1  0.69271000  0.37936000  0.78441000  1.0
  H  H14  1  0.69272000  0.12064000  0.28441000  1.0
  H  H15  1  0.30727000  0.62065000  0.21559000  1.0
  H  H16  1  0.59371000  0.88741000  0.66831000  1.0
  H  H17  1  0.40627000  0.38741000  0.83170000  1.0
  H  H18  1  0.40629000  0.11259000  0.33169000  1.0
  H  H19  1  0.59371000  0.61260000  0.16830000  1.0
  H  H20  1  0.24979000  0.66899000  0.97066000  1.0
  H  H21  1  0.75021000  0.16899000  0.52935000  1.0
  H  H22  1  0.75021000  0.33102000  0.02935000  1.0
  H  H23  1  0.24980000  0.83102000  0.47066000  1.0
  H  H24  1  0.30638000  0.49024000  0.00149000  1.0
  H  H25  1  0.69361000  0.99024000  0.49851000  1.0
  H  H26  1  0.69362000  0.50977000  0.99851000  1.0
  H  H27  1  0.30639000  0.00977000  0.50149000  1.0
  H  H28  1  0.22114000  0.51843000  0.90419000  1.0
  H  H29  1  0.77886000  0.01844000  0.59582000  1.0
  H  H30  1  0.77886000  0.48157000  0.09582000  1.0
  H  H31  1  0.22115000  0.98157000  0.40419000  1.0
  H  H32  1  0.74023000  0.53325000  0.63454000  1.0
  H  H33  1  0.25977000  0.03325000  0.86546000  1.0
  H  H34  1  0.25977000  0.46674000  0.36546000  1.0
  H  H35  1  0.74023000  0.96675000  0.13454000  1.0
  H  H36  1  0.83183000  0.57315000  0.37805000  1.0
  H  H37  1  0.16817000  0.07315000  0.12195000  1.0
  H  H38  1  0.16816000  0.42685000  0.62195000  1.0
  H  H39  1  0.83184000  0.92686000  0.87805000  1.0
  H  H40  1  0.99299000  0.78880000  0.40728000  1.0
  H  H41  1  0.00701000  0.28880000  0.09272000  1.0
  H  H42  1  0.00701000  0.21120000  0.59272000  1.0
  H  H43  1  0.99299000  0.71121000  0.90727000  1.0
  H  H44  1  0.02346000  0.86953000  0.55163000  1.0
  H  H45  1  0.97654000  0.36954000  0.94837000  1.0
  H  H46  1  0.97654000  0.13046000  0.44837000  1.0
  H  H47  1  0.02346000  0.63046000  0.05163000  1.0
  H  H48  1  0.57867000  0.45879000  0.38435000  1.0
  H  H49  1  0.42133000  0.95879000  0.11565000  1.0
  H  H50  1  0.42133000  0.54121000  0.61564000  1.0
  H  H51  1  0.57868000  0.04122000  0.88435000  1.0
  H  H52  1  0.55617000  0.28199000  0.42656000  1.0
  H  H53  1  0.44384000  0.78199000  0.07344000  1.0
  H  H54  1  0.44384000  0.71801000  0.57343000  1.0
  H  H55  1  0.55617000  0.21802000  0.92656000  1.0
  H  H56  1  0.74631000  0.33803000  0.38593000  1.0
  H  H57  1  0.25369000  0.83803000  0.11407000  1.0
  H  H58  1  0.25370000  0.66197000  0.61407000  1.0
  H  H59  1  0.74632000  0.16198000  0.88593000  1.0
  C  C60  1  0.98444000  0.95945000  0.72993000  1.0
  C  C61  1  0.01556000  0.45946000  0.77008000  1.0
  C  C62  1  0.01559000  0.04052000  0.27008000  1.0
  C  C63  1  0.98441000  0.54052000  0.22992000  1.0
  C  C64  1  0.63497000  0.67491000  0.82355000  1.0
  C  C65  1  0.36503000  0.17492000  0.67646000  1.0
  C  C66  1  0.36503000  0.32509000  0.17645000  1.0
  C  C67  1  0.63497000  0.82509000  0.32355000  1.0
  C  C68  1  0.47862000  0.66604000  0.85437000  1.0
  C  C69  1  0.52137000  0.16604000  0.64563000  1.0
  C  C70  1  0.52138000  0.33396000  0.14563000  1.0
  C  C71  1  0.47863000  0.83396000  0.35437000  1.0
  C  C72  1  0.35711000  0.73923000  0.81494000  1.0
  C  C73  1  0.64288000  0.23923000  0.68507000  1.0
  C  C74  1  0.64289000  0.26076000  0.18506000  1.0
  C  C75  1  0.35712000  0.76077000  0.31494000  1.0
  C  C76  1  0.39941000  0.82074000  0.74737000  1.0
  C  C77  1  0.60057000  0.32075000  0.75263000  1.0
  C  C78  1  0.60058000  0.17925000  0.25263000  1.0
  C  C79  1  0.39941000  0.67926000  0.24737000  1.0
  C  C80  1  0.55765000  0.82554000  0.72108000  1.0
  C  C81  1  0.44234000  0.32554000  0.77892000  1.0
  C  C82  1  0.44235000  0.17446000  0.27892000  1.0
  C  C83  1  0.55765000  0.67447000  0.22108000  1.0
  C  C84  1  0.29774000  0.56456000  0.95076000  1.0
  C  C85  1  0.70225000  0.06456000  0.54924000  1.0
  C  C86  1  0.70226000  0.43544000  0.04924000  1.0
  C  C87  1  0.29775000  0.93544000  0.45076000  1.0
  C  C88  1  0.79394000  0.58920000  0.58310000  1.0
  C  C89  1  0.20606000  0.08921000  0.91690000  1.0
  C  C90  1  0.20605000  0.41079000  0.41690000  1.0
  C  C91  1  0.79395000  0.91079000  0.08309000  1.0
  C  C92  1  0.76922000  0.53814000  0.50471000  1.0
  C  C93  1  0.23079000  0.03814000  0.99529000  1.0
  C  C94  1  0.23077000  0.46186000  0.49529000  1.0
  C  C95  1  0.76923000  0.96187000  0.00471000  1.0
  C  C96  1  0.84329000  0.60931000  0.44000000  1.0
  C  C97  1  0.15671000  0.10931000  0.06000000  1.0
  C  C98  1  0.15670000  0.39069000  0.56000000  1.0
  C  C99  1  0.84330000  0.89070000  0.94000000  1.0
  C  C100  1  0.93615000  0.73004000  0.45684000  1.0
  C  C101  1  0.06385000  0.23004000  0.04317000  1.0
  C  C102  1  0.06384000  0.26996000  0.54317000  1.0
  C  C103  1  0.93616000  0.76997000  0.95683000  1.0
  C  C104  1  0.95321000  0.77503000  0.53594000  1.0
  C  C105  1  0.04679000  0.27503000  0.96406000  1.0
  C  C106  1  0.04678000  0.22496000  0.46406000  1.0
  C  C107  1  0.95321000  0.72497000  0.03594000  1.0
  C  C108  1  0.63768000  0.37304000  0.41854000  1.0
  C  C109  1  0.36232000  0.87304000  0.08146000  1.0
  C  C110  1  0.36232000  0.62696000  0.58145000  1.0
  C  C111  1  0.63769000  0.12697000  0.91854000  1.0
  N  N112  1  0.01205000  0.08331000  0.73944000  1.0
  N  N113  1  0.98795000  0.58330000  0.76057000  1.0
  N  N114  1  0.98796000  0.91668000  0.26057000  1.0
  N  N115  1  0.01204000  0.41668000  0.23943000  1.0
  N  N116  1  0.67406000  0.75250000  0.75840000  1.0
  N  N117  1  0.32594000  0.25250000  0.74161000  1.0
  N  N118  1  0.32594000  0.24750000  0.24161000  1.0
  N  N119  1  0.67405000  0.74751000  0.25839000  1.0
  N  N120  1  0.88361000  0.70486000  0.59841000  1.0
  N  N121  1  0.11639000  0.20486000  0.90159000  1.0
  N  N122  1  0.11638000  0.29513000  0.40159000  1.0
  N  N123  1  0.88361000  0.79513000  0.09840000  1.0
  O  O124  1  0.45832000  0.58173000  0.92084000  1.0
  O  O125  1  0.54167000  0.08173000  0.57916000  1.0
  O  O126  1  0.54168000  0.41827000  0.07916000  1.0
  O  O127  1  0.45833000  0.91827000  0.42084000  1.0
  O  O128  1  0.67319000  0.42089000  0.49839000  1.0
  O  O129  1  0.32681000  0.92089000  0.00162000  1.0
  O  O130  1  0.32680000  0.57911000  0.50161000  1.0
  O  O131  1  0.67320000  0.07912000  0.99838000  1.0
