# generated using pymatgen
data_CdH7C5O7
_symmetry_space_group_name_H-M   'P 1'
_cell_length_a   6.15106000
_cell_length_b   9.63239000
_cell_length_c   15.21050000
_cell_angle_alpha   89.99980000
_cell_angle_beta   90.00000000
_cell_angle_gamma   102.31000000
_symmetry_Int_Tables_number   1
_chemical_formula_structural   CdH7C5O7
_chemical_formula_sum   'Cd4 H28 C20 O28'
_cell_volume   880.49278202
_cell_formula_units_Z   4
loop_
 _symmetry_equiv_pos_site_id
 _symmetry_equiv_pos_as_xyz
  1  'x, y, z'
loop_
 _atom_site_type_symbol
 _atom_site_label
 _atom_site_symmetry_multiplicity
 _atom_site_fract_x
 _atom_site_fract_y
 _atom_site_fract_z
 _atom_site_occupancy
  Cd  Cd0  1  0.82728000  0.53443000  0.34836000  1.0
  Cd  Cd1  1  0.17271000  0.96558000  0.84835000  1.0
  Cd  Cd2  1  0.17273000  0.46558000  0.65165000  1.0
  Cd  Cd3  1  0.82727000  0.03442000  0.15165000  1.0
  H  H4  1  0.02969000  0.72885000  0.23956000  1.0
  H  H5  1  0.97030000  0.77114000  0.73957000  1.0
  H  H6  1  0.97031000  0.27115000  0.76043000  1.0
  H  H7  1  0.02969000  0.22885000  0.26044000  1.0
  H  H8  1  0.78537000  0.69870000  0.20008000  1.0
  H  H9  1  0.21463000  0.80129000  0.70008000  1.0
  H  H10  1  0.21463000  0.30129000  0.79993000  1.0
  H  H11  1  0.78536000  0.19870000  0.29993000  1.0
  H  H12  1  0.47895000  0.32303000  0.36775000  1.0
  H  H13  1  0.52105000  0.17696000  0.86775000  1.0
  H  H14  1  0.52106000  0.67696000  0.63225000  1.0
  H  H15  1  0.47896000  0.82303000  0.13226000  1.0
  H  H16  1  0.46108000  0.34400000  0.26518000  1.0
  H  H17  1  0.53892000  0.15600000  0.76518000  1.0
  H  H18  1  0.53892000  0.65599000  0.73481000  1.0
  H  H19  1  0.46110000  0.84399000  0.23482000  1.0
  H  H20  1  0.09935000  0.37389000  0.43683000  1.0
  H  H21  1  0.90064000  0.12611000  0.93683000  1.0
  H  H22  1  0.90067000  0.62610000  0.56316000  1.0
  H  H23  1  0.09936000  0.87389000  0.06317000  1.0
  H  H24  1  0.87591000  0.34988000  0.49093000  1.0
  H  H25  1  0.12408000  0.15013000  0.99094000  1.0
  H  H26  1  0.12410000  0.65012000  0.50906000  1.0
  H  H27  1  0.87592000  0.84988000  0.00907000  1.0
  H  H28  1  0.21219000  0.07271000  0.40602000  1.0
  H  H29  1  0.78780000  0.42728000  0.90601000  1.0
  H  H30  1  0.78790000  0.92727000  0.59400000  1.0
  H  H31  1  0.21211000  0.57273000  0.09400000  1.0
  C  C32  1  0.24936000  0.80373000  0.37257000  1.0
  C  C33  1  0.75064000  0.69626000  0.87258000  1.0
  C  C34  1  0.75070000  0.19626000  0.62743000  1.0
  C  C35  1  0.24930000  0.30373000  0.12744000  1.0
  C  C36  1  0.38613000  0.90639000  0.43605000  1.0
  C  C37  1  0.61386000  0.59363000  0.93606000  1.0
  C  C38  1  0.61383000  0.09367000  0.56392000  1.0
  C  C39  1  0.38617000  0.40635000  0.06393000  1.0
  C  C40  1  0.34006000  0.04121000  0.44644000  1.0
  C  C41  1  0.65993000  0.45881000  0.94644000  1.0
  C  C42  1  0.65993000  0.95883000  0.55356000  1.0
  C  C43  1  0.34006000  0.54119000  0.05356000  1.0
  C  C44  1  0.45200000  0.13424000  0.51027000  1.0
  C  C45  1  0.54798000  0.36576000  0.01027000  1.0
  C  C46  1  0.54792000  0.86578000  0.48970000  1.0
  C  C47  1  0.45206000  0.63423000  0.98971000  1.0
  C  C48  1  0.38107000  0.27170000  0.52536000  1.0
  C  C49  1  0.61894000  0.22829000  0.02538000  1.0
  C  C50  1  0.61902000  0.72828000  0.47462000  1.0
  C  C51  1  0.38101000  0.77173000  0.97464000  1.0
  O  O52  1  0.15721000  0.68151000  0.40305000  1.0
  O  O53  1  0.84279000  0.81849000  0.90304000  1.0
  O  O54  1  0.84278000  0.31851000  0.59695000  1.0
  O  O55  1  0.15720000  0.18150000  0.09695000  1.0
  O  O56  1  0.22674000  0.84411000  0.29426000  1.0
  O  O57  1  0.77327000  0.65591000  0.79426000  1.0
  O  O58  1  0.77326000  0.15590000  0.70575000  1.0
  O  O59  1  0.22674000  0.34410000  0.20576000  1.0
  O  O60  1  0.34823000  0.30068000  0.60510000  1.0
  O  O61  1  0.65177000  0.19931000  0.10510000  1.0
  O  O62  1  0.65179000  0.69933000  0.39488000  1.0
  O  O63  1  0.34821000  0.80068000  0.89489000  1.0
  O  O64  1  0.35049000  0.34543000  0.45876000  1.0
  O  O65  1  0.64949000  0.15457000  0.95875000  1.0
  O  O66  1  0.64951000  0.65457000  0.54127000  1.0
  O  O67  1  0.35051000  0.84544000  0.04127000  1.0
  O  O68  1  0.90413000  0.65056000  0.21866000  1.0
  O  O69  1  0.09586000  0.84943000  0.71866000  1.0
  O  O70  1  0.09587000  0.34943000  0.78134000  1.0
  O  O71  1  0.90413000  0.15056000  0.28134000  1.0
  O  O72  1  0.57028000  0.33319000  0.31180000  1.0
  O  O73  1  0.42972000  0.16681000  0.81179000  1.0
  O  O74  1  0.42973000  0.66681000  0.68820000  1.0
  O  O75  1  0.57029000  0.83318000  0.18821000  1.0
  O  O76  1  0.93642000  0.36885000  0.42978000  1.0
  O  O77  1  0.06356000  0.13115000  0.92978000  1.0
  O  O78  1  0.06359000  0.63113000  0.57022000  1.0
  O  O79  1  0.93643000  0.86886000  0.07022000  1.0
