# generated using pymatgen
data_Zn4H22C38O13
_symmetry_space_group_name_H-M   'P 1'
_cell_length_a   15.10930000
_cell_length_b   20.11860000
_cell_length_c   22.54640000
_cell_angle_alpha   89.67960000
_cell_angle_beta   89.53420000
_cell_angle_gamma   90.52080000
_symmetry_Int_Tables_number   1
_chemical_formula_structural   Zn4H22C38O13
_chemical_formula_sum   'Zn8 H44 C76 O26'
_cell_volume   6852.98912234
_cell_formula_units_Z   2
loop_
 _symmetry_equiv_pos_site_id
 _symmetry_equiv_pos_as_xyz
  1  'x, y, z'
loop_
 _atom_site_type_symbol
 _atom_site_label
 _atom_site_symmetry_multiplicity
 _atom_site_fract_x
 _atom_site_fract_y
 _atom_site_fract_z
 _atom_site_occupancy
  Zn  Zn0  1  0.43585000  0.58242000  0.99597000  1.0
  Zn  Zn1  1  0.43674000  0.08178000  0.50444000  1.0
  Zn  Zn2  1  0.41760000  0.42311000  0.99975000  1.0
  Zn  Zn3  1  0.41939000  0.92194000  0.49986000  1.0
  Zn  Zn4  1  0.57423000  0.49804000  0.07134000  1.0
  Zn  Zn5  1  0.57884000  0.49267000  0.93101000  1.0
  Zn  Zn6  1  0.58276000  0.99619000  0.56668000  1.0
  Zn  Zn7  1  0.56996000  0.99390000  0.42518000  1.0
  H  H8  1  0.53918000  0.38197000  0.22290000  1.0
  H  H9  1  0.85587000  0.04524000  0.55929000  1.0
  H  H10  1  0.44430000  0.23940000  0.09653000  1.0
  H  H11  1  0.32840000  0.31315000  0.84848000  1.0
  H  H12  1  0.33788000  0.81450000  0.65230000  1.0
  H  H13  1  0.43760000  0.73694000  0.40311000  1.0
  H  H14  1  0.55364000  0.34917000  0.32949000  1.0
  H  H15  1  0.67660000  0.27051000  0.73109000  1.0
  H  H16  1  0.68520000  0.76757000  0.76666000  1.0
  H  H17  1  0.54915000  0.84861000  0.16908000  1.0
  H  H18  1  0.32157000  0.73387000  0.73616000  1.0
  H  H19  1  0.60447000  0.34124000  0.80727000  1.0
  H  H20  1  0.44210000  0.64811000  0.32643000  1.0
  H  H21  1  0.44737000  0.15010000  0.17360000  1.0
  H  H22  1  0.31370000  0.23222000  0.76561000  1.0
  H  H23  1  0.67122000  0.67936000  0.84435000  1.0
  H  H24  1  0.54367000  0.76140000  0.09099000  1.0
  H  H25  1  0.54605000  0.26154000  0.40791000  1.0
  H  H26  1  0.66503000  0.18163000  0.65467000  1.0
  H  H27  1  0.38934000  0.67068000  0.81934000  1.0
  H  H28  1  0.47523000  0.61338000  0.22238000  1.0
  H  H29  1  0.48060000  0.11444000  0.27711000  1.0
  H  H30  1  0.61485000  0.83882000  0.68962000  1.0
  H  H31  1  0.38317000  0.16983000  0.68189000  1.0
  H  H32  1  0.14827000  0.44524000  0.95571000  1.0
  H  H33  1  0.14919000  0.94380000  0.44085000  1.0
  H  H34  1  0.00009000  0.40928000  0.91847000  1.0
  H  H35  1  0.00111000  0.90892000  0.40258000  1.0
  H  H36  1  0.08305000  0.67767000  0.13560000  1.0
  H  H37  1  0.09983000  0.60847000  0.18341000  1.0
  H  H38  1  0.17999000  0.67341000  0.17895000  1.0
  H  H39  1  0.23647000  0.57838000  0.12236000  1.0
  H  H40  1  0.21637000  0.64450000  0.07440000  1.0
  H  H41  1  0.53042000  0.88099000  0.27504000  1.0
  H  H42  1  0.08399000  0.16984000  0.62772000  1.0
  H  H43  1  0.10167000  0.09920000  0.67371000  1.0
  H  H44  1  0.18161000  0.16434000  0.67017000  1.0
  H  H45  1  0.23735000  0.07108000  0.61098000  1.0
  H  H46  1  0.21703000  0.13884000  0.56508000  1.0
  H  H47  1  0.00237000  0.59251000  0.10237000  1.0
  H  H48  1  0.00285000  0.08556000  0.59168000  1.0
  H  H49  1  0.83553000  0.41457000  0.92607000  1.0
  H  H50  1  0.83641000  0.91642000  0.40819000  1.0
  H  H51  1  0.85524000  0.55023000  0.07223000  1.0
  C  C52  1  0.47641000  0.38109000  0.88084000  1.0
  C  C53  1  0.53665000  0.26809000  0.75308000  1.0
  C  C54  1  0.54533000  0.76691000  0.74570000  1.0
  C  C55  1  0.50983000  0.78152000  0.24037000  1.0
  C  C56  1  0.51826000  0.33128000  0.21289000  1.0
  C  C57  1  0.54152000  0.31659000  0.79806000  1.0
  C  C58  1  0.55133000  0.81511000  0.69993000  1.0
  C  C59  1  0.51031000  0.83003000  0.28546000  1.0
  C  C60  1  0.46538000  0.25003000  0.14161000  1.0
  C  C61  1  0.38503000  0.30063000  0.82063000  1.0
  C  C62  1  0.39432000  0.80124000  0.67955000  1.0
  C  C63  1  0.49520000  0.36866000  0.10899000  1.0
  C  C64  1  0.45838000  0.74803000  0.35772000  1.0
  C  C65  1  0.46668000  0.20099000  0.18439000  1.0
  C  C66  1  0.37742000  0.25570000  0.77513000  1.0
  C  C67  1  0.38578000  0.75649000  0.72561000  1.0
  C  C68  1  0.46060000  0.69924000  0.31517000  1.0
  C  C69  1  0.16667000  0.51898000  0.02257000  1.0
  C  C70  1  0.16714000  0.01556000  0.50932000  1.0
  C  C71  1  0.83654000  0.48239000  0.00032000  1.0
  C  C72  1  0.83747000  0.98131000  0.48454000  1.0
  C  C73  1  0.96824000  0.44052000  0.95167000  1.0
  C  C74  1  0.48558000  0.86729000  0.38887000  1.0
  C  C75  1  0.96908000  0.93962000  0.43610000  1.0
  C  C76  1  0.87752000  0.44288000  0.95597000  1.0
  C  C77  1  0.87825000  0.94314000  0.43934000  1.0
  C  C78  1  0.88763000  0.52003000  0.03853000  1.0
  C  C79  1  0.88845000  0.01649000  0.52465000  1.0
  C  C80  1  0.51061000  0.62954000  0.10664000  1.0
  C  C81  1  0.52053000  0.62002000  0.88456000  1.0
  C  C82  1  0.51638000  0.12085000  0.61616000  1.0
  C  C83  1  0.51390000  0.12939000  0.39262000  1.0
  C  C84  1  0.98108000  0.52077000  0.03331000  1.0
  C  C85  1  0.48628000  0.88024000  0.61703000  1.0
  C  C86  1  0.98185000  0.01680000  0.52015000  1.0
  C  C87  1  0.02213000  0.47925000  0.98980000  1.0
  C  C88  1  0.02284000  0.97657000  0.47568000  1.0
  C  C89  1  0.11549000  0.47838000  0.98693000  1.0
  C  C90  1  0.11618000  0.97580000  0.47289000  1.0
  C  C91  1  0.12661000  0.56299000  0.06465000  1.0
  C  C92  1  0.12718000  0.05779000  0.55298000  1.0
  C  C93  1  0.03531000  0.56143000  0.06960000  1.0
  C  C94  1  0.03592000  0.05582000  0.55798000  1.0
  C  C95  1  0.26490000  0.51432000  0.01455000  1.0
  C  C96  1  0.46038000  0.73794000  0.75973000  1.0
  C  C97  1  0.26526000  0.01209000  0.50070000  1.0
  C  C98  1  0.73805000  0.48489000  0.00338000  1.0
  C  C99  1  0.73917000  0.98477000  0.48879000  1.0
  C  C100  1  0.49319000  0.31567000  0.15563000  1.0
  C  C101  1  0.46765000  0.33222000  0.83172000  1.0
  C  C102  1  0.47769000  0.83162000  0.66698000  1.0
  C  C103  1  0.48473000  0.81408000  0.34300000  1.0
  C  C104  1  0.52877000  0.67082000  0.83643000  1.0
  C  C105  1  0.50987000  0.68224000  0.15294000  1.0
  C  C106  1  0.51408000  0.18267000  0.34629000  1.0
  C  C107  1  0.48629000  0.71423000  0.25574000  1.0
  C  C108  1  0.52270000  0.17166000  0.66382000  1.0
  C  C109  1  0.62079000  0.74553000  0.77760000  1.0
  C  C110  1  0.53142000  0.79735000  0.18041000  1.0
  C  C111  1  0.53613000  0.29801000  0.31832000  1.0
  C  C112  1  0.61281000  0.24758000  0.72090000  1.0
  C  C113  1  0.61331000  0.69726000  0.82086000  1.0
  C  C114  1  0.52922000  0.74928000  0.13726000  1.0
  C  C115  1  0.53280000  0.24963000  0.36172000  1.0
  C  C116  1  0.60663000  0.19905000  0.67838000  1.0
  C  C117  1  0.45384000  0.69143000  0.80684000  1.0
  C  C118  1  0.49219000  0.21554000  0.24349000  1.0
  C  C119  1  0.48969000  0.66517000  0.21111000  1.0
  C  C120  1  0.49493000  0.16611000  0.28826000  1.0
  C  C121  1  0.44712000  0.19139000  0.69372000  1.0
  C  C122  1  0.18243000  0.60785000  0.10326000  1.0
  C  C123  1  0.13324000  0.64360000  0.15293000  1.0
  C  C124  1  0.18317000  0.10118000  0.59288000  1.0
  C  C125  1  0.13446000  0.13520000  0.64376000  1.0
  C  C126  1  0.45237000  0.23802000  0.74031000  1.0
  C  C127  1  0.51601000  0.28266000  0.25841000  1.0
  O  O128  1  0.50036000  0.49856000  0.00023000  1.0
  O  O129  1  0.48264000  0.14433000  0.44369000  1.0
  O  O130  1  0.29571000  0.45585000  0.00873000  1.0
  O  O131  1  0.29728000  0.95423000  0.49304000  1.0
  O  O132  1  0.70152000  0.50482000  0.05150000  1.0
  O  O133  1  0.69735000  0.46690000  0.95655000  1.0
  O  O134  1  0.70643000  0.99458000  0.54031000  1.0
  O  O135  1  0.69593000  0.97803000  0.44055000  1.0
  O  O136  1  0.44686000  0.35958000  0.06335000  1.0
  O  O137  1  0.41899000  0.37738000  0.92266000  1.0
  O  O138  1  0.42524000  0.87866000  0.57820000  1.0
  O  O139  1  0.50162000  0.99805000  0.49926000  1.0
  O  O140  1  0.44382000  0.85600000  0.43761000  1.0
  O  O141  1  0.58517000  0.58001000  0.89077000  1.0
  O  O142  1  0.53818000  0.57244000  0.12261000  1.0
  O  O143  1  0.54467000  0.07321000  0.37701000  1.0
  O  O144  1  0.58063000  0.08037000  0.61151000  1.0
  O  O145  1  0.30929000  0.56867000  0.01306000  1.0
  O  O146  1  0.30847000  0.06691000  0.50043000  1.0
  O  O147  1  0.54119000  0.42218000  0.87706000  1.0
  O  O148  1  0.54528000  0.41877000  0.11890000  1.0
  O  O149  1  0.52810000  0.92046000  0.37554000  1.0
  O  O150  1  0.55386000  0.91902000  0.61709000  1.0
  O  O151  1  0.48327000  0.64568000  0.05502000  1.0
  O  O152  1  0.44942000  0.62039000  0.91569000  1.0
  O  O153  1  0.44740000  0.12190000  0.58380000  1.0
