# generated using pymatgen
data_TbAg3H18C32(NO)8
_symmetry_space_group_name_H-M   'P 1'
_cell_length_a   5.50946000
_cell_length_b   15.97570000
_cell_length_c   21.70330000
_cell_angle_alpha   71.88100000
_cell_angle_beta   89.99940000
_cell_angle_gamma   89.99980000
_symmetry_Int_Tables_number   1
_chemical_formula_structural   TbAg3H18C32(NO)8
_chemical_formula_sum   'Tb2 Ag6 H36 C64 N16 O16'
_cell_volume   1815.54457010
_cell_formula_units_Z   2
loop_
 _symmetry_equiv_pos_site_id
 _symmetry_equiv_pos_as_xyz
  1  'x, y, z'
loop_
 _atom_site_type_symbol
 _atom_site_label
 _atom_site_symmetry_multiplicity
 _atom_site_fract_x
 _atom_site_fract_y
 _atom_site_fract_z
 _atom_site_occupancy
  Tb  Tb0  1  0.49999000  0.50000000  0.50000000  1.0
  Tb  Tb1  1  0.00000000  0.00000000  0.00000000  1.0
  Ag  Ag2  1  0.40860000  0.08020000  0.63760000  1.0
  Ag  Ag3  1  0.90861000  0.41980000  0.86240000  1.0
  Ag  Ag4  1  0.59140000  0.91980000  0.36240000  1.0
  Ag  Ag5  1  0.09140000  0.58020000  0.13760000  1.0
  Ag  Ag6  1  0.50000000  0.00000000  0.50000000  1.0
  Ag  Ag7  1  0.00000000  0.50000000  0.00000000  1.0
  H  H8  1  0.67622000  0.25080000  0.60305000  1.0
  H  H9  1  0.17623000  0.24921000  0.89695000  1.0
  H  H10  1  0.32377000  0.74920000  0.39695000  1.0
  H  H11  1  0.82377000  0.75080000  0.10305000  1.0
  H  H12  1  0.36178000  0.32314000  0.66687000  1.0
  H  H13  1  0.86179000  0.17686000  0.83312000  1.0
  H  H14  1  0.63821000  0.67686000  0.33313000  1.0
  H  H15  1  0.13821000  0.82314000  0.16688000  1.0
  H  H16  1  0.38669000  0.18101000  0.75713000  1.0
  H  H17  1  0.88670000  0.31898000  0.74286000  1.0
  H  H18  1  0.61330000  0.81899000  0.24287000  1.0
  H  H19  1  0.11330000  0.68101000  0.25714000  1.0
  H  H20  1  0.12116000  0.01057000  0.80728000  1.0
  H  H21  1  0.62116000  0.48943000  0.69272000  1.0
  H  H22  1  0.87885000  0.98943000  0.19272000  1.0
  H  H23  1  0.37884000  0.51057000  0.30728000  1.0
  H  H24  1  0.70947000  0.95934000  0.77805000  1.0
  H  H25  1  0.20949000  0.54066000  0.72195000  1.0
  H  H26  1  0.29053000  0.04066000  0.22195000  1.0
  H  H27  1  0.79052000  0.45933000  0.27805000  1.0
  H  H28  1  0.85277000  0.33615000  0.35924000  1.0
  H  H29  1  0.35276000  0.16385000  0.14076000  1.0
  H  H30  1  0.14725000  0.66384000  0.64076000  1.0
  H  H31  1  0.64724000  0.83616000  0.85924000  1.0
  H  H32  1  0.37855000  0.26163000  0.51339000  1.0
  H  H33  1  0.87856000  0.23837000  0.98661000  1.0
  H  H34  1  0.62144000  0.73837000  0.48662000  1.0
  H  H35  1  0.12144000  0.76163000  0.01338000  1.0
  H  H36  1  0.62371000  0.19490000  0.40542000  1.0
  H  H37  1  0.12370000  0.30510000  0.09458000  1.0
  H  H38  1  0.37630000  0.80509000  0.59457000  1.0
  H  H39  1  0.87631000  0.69491000  0.90542000  1.0
  H  H40  1  0.93716000  0.97344000  0.60780000  1.0
  H  H41  1  0.43716000  0.52656000  0.89220000  1.0
  H  H42  1  0.06285000  0.02656000  0.39221000  1.0
  H  H43  1  0.56284000  0.47344000  0.10779000  1.0
  C  C44  1  0.82947000  0.23443000  0.63636000  1.0
  C  C45  1  0.32948000  0.26557000  0.86364000  1.0
  C  C46  1  0.17053000  0.76557000  0.36364000  1.0
  C  C47  1  0.67052000  0.73443000  0.13636000  1.0
  C  C48  1  0.00248000  0.38274000  0.58017000  1.0
  C  C49  1  0.50249000  0.11726000  0.91983000  1.0
  C  C50  1  0.99750000  0.61726000  0.41983000  1.0
  C  C51  1  0.49750000  0.88274000  0.08017000  1.0
  C  C52  1  0.21812000  0.27432000  0.67371000  1.0
  C  C53  1  0.71813000  0.22568000  0.82628000  1.0
  C  C54  1  0.78187000  0.72568000  0.32629000  1.0
  C  C55  1  0.28187000  0.77432000  0.17372000  1.0
  C  C56  1  0.04412000  0.13484000  0.72923000  1.0
  C  C57  1  0.54413000  0.36516000  0.77077000  1.0
  C  C58  1  0.95588000  0.86516000  0.27077000  1.0
  C  C59  1  0.45587000  0.63484000  0.22923000  1.0
  C  C60  1  0.84718000  0.15392000  0.68507000  1.0
  C  C61  1  0.34719000  0.34608000  0.81493000  1.0
  C  C62  1  0.15282000  0.84608000  0.31493000  1.0
  C  C63  1  0.65281000  0.65392000  0.18507000  1.0
  C  C64  1  0.23352000  0.19518000  0.72390000  1.0
  C  C65  1  0.73353000  0.30482000  0.77610000  1.0
  C  C66  1  0.76647000  0.80482000  0.27610000  1.0
  C  C67  1  0.26647000  0.69517000  0.22390000  1.0
  C  C68  1  0.01730000  0.29477000  0.63105000  1.0
  C  C69  1  0.51731000  0.20523000  0.86895000  1.0
  C  C70  1  0.98269000  0.70522000  0.36895000  1.0
  C  C71  1  0.48269000  0.79477000  0.13105000  1.0
  C  C72  1  0.79132000  0.02226000  0.75227000  1.0
  C  C73  1  0.29132000  0.47773000  0.74773000  1.0
  C  C74  1  0.20868000  0.97774000  0.24773000  1.0
  C  C75  1  0.70868000  0.52226000  0.25227000  1.0
  C  C76  1  0.25246000  0.39254000  0.40352000  1.0
  C  C77  1  0.75247000  0.10747000  0.09648000  1.0
  C  C78  1  0.74753000  0.60746000  0.59648000  1.0
  C  C79  1  0.24753000  0.89254000  0.90352000  1.0
  C  C80  1  0.91577000  0.28678000  0.40312000  1.0
  C  C81  1  0.41576000  0.21322000  0.09688000  1.0
  C  C82  1  0.08425000  0.71321000  0.59688000  1.0
  C  C83  1  0.58425000  0.78679000  0.90312000  1.0
  C  C84  1  0.09180000  0.16645000  0.51574000  1.0
  C  C85  1  0.59180000  0.33354000  0.98427000  1.0
  C  C86  1  0.90820000  0.83355000  0.48427000  1.0
  C  C87  1  0.40820000  0.66646000  0.01573000  1.0
  C  C88  1  0.87922000  0.14810000  0.48513000  1.0
  C  C89  1  0.37922000  0.35190000  0.01488000  1.0
  C  C90  1  0.12079000  0.85190000  0.51488000  1.0
  C  C91  1  0.62079000  0.64810000  0.98512000  1.0
  C  C92  1  0.21595000  0.24605000  0.49053000  1.0
  C  C93  1  0.71595000  0.25394000  0.00947000  1.0
  C  C94  1  0.78405000  0.75395000  0.50947000  1.0
  C  C95  1  0.28406000  0.74606000  0.99053000  1.0
  C  C96  1  0.78919000  0.20855000  0.42823000  1.0
  C  C97  1  0.28918000  0.29144000  0.07178000  1.0
  C  C98  1  0.21082000  0.79144000  0.57177000  1.0
  C  C99  1  0.71083000  0.70856000  0.92822000  1.0
  C  C100  1  0.95302000  0.03721000  0.57099000  1.0
  C  C101  1  0.45302000  0.46279000  0.92901000  1.0
  C  C102  1  0.04698000  0.96279000  0.42901000  1.0
  C  C103  1  0.54698000  0.53722000  0.07098000  1.0
  C  C104  1  0.12633000  0.30631000  0.43358000  1.0
  C  C105  1  0.62633000  0.19369000  0.06642000  1.0
  C  C106  1  0.87367000  0.69369000  0.56642000  1.0
  C  C107  1  0.37368000  0.80632000  0.93358000  1.0
  N  N108  1  0.00075000  0.05129000  0.77126000  1.0
  N  N109  1  0.50076000  0.44870000  0.72873000  1.0
  N  N110  1  0.99925000  0.94871000  0.22874000  1.0
  N  N111  1  0.49924000  0.55129000  0.27127000  1.0
  N  N112  1  0.69346000  0.08125000  0.70050000  1.0
  N  N113  1  0.19348000  0.41875000  0.79949000  1.0
  N  N114  1  0.30653000  0.91874000  0.29950000  1.0
  N  N115  1  0.80653000  0.58125000  0.20051000  1.0
  N  N116  1  0.13366000  0.09411000  0.57035000  1.0
  N  N117  1  0.63366000  0.40588000  0.92965000  1.0
  N  N118  1  0.86634000  0.90589000  0.42965000  1.0
  N  N119  1  0.36634000  0.59412000  0.07034000  1.0
  N  N120  1  0.79514000  0.06589000  0.52139000  1.0
  N  N121  1  0.29514000  0.43410000  0.97861000  1.0
  N  N122  1  0.20486000  0.93410000  0.47861000  1.0
  N  N123  1  0.70486000  0.56590000  0.02138000  1.0
  O  O124  1  0.19617000  0.42797000  0.56613000  1.0
  O  O125  1  0.69618000  0.07203000  0.93387000  1.0
  O  O126  1  0.80380000  0.57204000  0.43387000  1.0
  O  O127  1  0.30380000  0.92796000  0.06613000  1.0
  O  O128  1  0.19490000  0.43788000  0.34641000  1.0
  O  O129  1  0.69492000  0.06213000  0.15359000  1.0
  O  O130  1  0.80510000  0.56212000  0.65360000  1.0
  O  O131  1  0.30510000  0.93788000  0.84641000  1.0
  O  O132  1  0.41647000  0.41588000  0.43715000  1.0
  O  O133  1  0.91649000  0.08412000  0.06285000  1.0
  O  O134  1  0.58351000  0.58412000  0.56285000  1.0
  O  O135  1  0.08351000  0.91588000  0.93715000  1.0
  O  O136  1  0.79583000  0.40686000  0.55468000  1.0
  O  O137  1  0.29583000  0.09315000  0.94533000  1.0
  O  O138  1  0.20415000  0.59315000  0.44533000  1.0
  O  O139  1  0.70415000  0.90685000  0.05467000  1.0
