# generated using pymatgen
data_CoH26C32(NO)4
_symmetry_space_group_name_H-M   'P 1'
_cell_length_a   12.13880000
_cell_length_b   14.88980000
_cell_length_c   17.46800000
_cell_angle_alpha   83.51550000
_cell_angle_beta   69.69380000
_cell_angle_gamma   70.97520000
_symmetry_Int_Tables_number   1
_chemical_formula_structural   CoH26C32(NO)4
_chemical_formula_sum   'Co4 H104 C128 N16 O16'
_cell_volume   2799.28496408
_cell_formula_units_Z   4
loop_
 _symmetry_equiv_pos_site_id
 _symmetry_equiv_pos_as_xyz
  1  'x, y, z'
loop_
 _atom_site_type_symbol
 _atom_site_label
 _atom_site_symmetry_multiplicity
 _atom_site_fract_x
 _atom_site_fract_y
 _atom_site_fract_z
 _atom_site_occupancy
  Co  Co0  1  0.46060000  0.25003000  0.07892000  1.0
  Co  Co1  1  0.53940000  0.74997000  0.92108000  1.0
  Co  Co2  1  0.79489000  0.74998000  0.41028000  1.0
  Co  Co3  1  0.20511000  0.25002000  0.58972000  1.0
  H  H4  1  0.73588000  0.20845000  0.99749000  1.0
  H  H5  1  0.26648000  0.29137000  0.99751000  1.0
  H  H6  1  0.26412000  0.79155000  0.00251000  1.0
  H  H7  1  0.73353000  0.70863000  0.00249000  1.0
  H  H8  1  0.93122000  0.19914000  0.88070000  1.0
  H  H9  1  0.18771000  0.30045000  0.88081000  1.0
  H  H10  1  0.06878000  0.80086000  0.11930000  1.0
  H  H11  1  0.81229000  0.69955000  0.11919000  1.0
  H  H12  1  0.93503000  0.31378000  0.76782000  1.0
  H  H13  1  0.29686000  0.18581000  0.76787000  1.0
  H  H14  1  0.06497000  0.68622000  0.23218000  1.0
  H  H15  1  0.70313000  0.81419000  0.23213000  1.0
  H  H16  1  0.74332000  0.44565000  0.76692000  1.0
  H  H17  1  0.48964000  0.05414000  0.76693000  1.0
  H  H18  1  0.25668000  0.55435000  0.23308000  1.0
  H  H19  1  0.51036000  0.94586000  0.23307000  1.0
  H  H20  1  0.26574000  0.43946000  0.05733000  1.0
  H  H21  1  0.67694000  0.06050000  0.05744000  1.0
  H  H22  1  0.73426000  0.56054000  0.94267000  1.0
  H  H23  1  0.32306000  0.93949000  0.94256000  1.0
  H  H24  1  0.25969000  0.46208000  0.95640000  1.0
  H  H25  1  0.78388000  0.03789000  0.95651000  1.0
  H  H26  1  0.74031000  0.53792000  0.04360000  1.0
  H  H27  1  0.21612000  0.96211000  0.04349000  1.0
  H  H28  1  0.28137000  0.54768000  0.00841000  1.0
  H  H29  1  0.71018000  0.95232000  0.00843000  1.0
  H  H30  1  0.71863000  0.45232000  0.99159000  1.0
  H  H31  1  0.28982000  0.04768000  0.99157000  1.0
  H  H32  1  0.53844000  0.57454000  0.82751000  1.0
  H  H33  1  0.63385000  0.92542000  0.82748000  1.0
  H  H34  1  0.46156000  0.42545000  0.17249000  1.0
  H  H35  1  0.36615000  0.07458000  0.17251000  1.0
  H  H36  1  0.38361000  0.57811000  0.87496000  1.0
  H  H37  1  0.74123000  0.92174000  0.87503000  1.0
  H  H38  1  0.61638000  0.42189000  0.12504000  1.0
  H  H39  1  0.25877000  0.07826000  0.12497000  1.0
  H  H40  1  0.47330000  0.35391000  0.81341000  1.0
  H  H41  1  0.71303000  0.14601000  0.81360000  1.0
  H  H42  1  0.52671000  0.64609000  0.18659000  1.0
  H  H43  1  0.28697000  0.85399000  0.18640000  1.0
  H  H44  1  0.47312000  0.29318000  0.68789000  1.0
  H  H45  1  0.83870000  0.20676000  0.68818000  1.0
  H  H46  1  0.52688000  0.70682000  0.31212000  1.0
  H  H47  1  0.16130000  0.79324000  0.31182000  1.0
  H  H48  1  0.47490000  0.39697000  0.56634000  1.0
  H  H49  1  0.95833000  0.10302000  0.56657000  1.0
  H  H50  1  0.52510000  0.60303000  0.43366000  1.0
  H  H51  1  0.04167000  0.89698000  0.43343000  1.0
  H  H52  1  0.48169000  0.56167000  0.57028000  1.0
  H  H53  1  0.94764000  0.93833000  0.57037000  1.0
  H  H54  1  0.51831000  0.43833000  0.42972000  1.0
  H  H55  1  0.05236000  0.06167000  0.42963000  1.0
  H  H56  1  0.39635000  0.69928000  0.73258000  1.0
  H  H57  1  0.87118000  0.80069000  0.73268000  1.0
  H  H58  1  0.60365000  0.30072000  0.26742000  1.0
  H  H59  1  0.12882000  0.19931000  0.26732000  1.0
  H  H60  1  0.55152000  0.65218000  0.72779000  1.0
  H  H61  1  0.72087000  0.84753000  0.72773000  1.0
  H  H62  1  0.44848000  0.34782000  0.27222000  1.0
  H  H63  1  0.27913000  0.15247000  0.27227000  1.0
  H  H64  1  0.25764000  0.78316000  0.66314000  1.0
  H  H65  1  0.07974000  0.71683000  0.66301000  1.0
  H  H66  1  0.74236000  0.21684000  0.33686000  1.0
  H  H67  1  0.92026000  0.28318000  0.33699000  1.0
  H  H68  1  0.16978000  0.88376000  0.56175000  1.0
  H  H69  1  0.26877000  0.61610000  0.56162000  1.0
  H  H70  1  0.83022000  0.11624000  0.43825000  1.0
  H  H71  1  0.73123000  0.38390000  0.43838000  1.0
  H  H72  1  0.30332000  0.90799000  0.42331000  1.0
  H  H73  1  0.27346000  0.59184000  0.42319000  1.0
  H  H74  1  0.69668000  0.09201000  0.57669000  1.0
  H  H75  1  0.72654000  0.40816000  0.57681000  1.0
  H  H76  1  0.53430000  0.83927000  0.38244000  1.0
  H  H77  1  0.08332000  0.66072000  0.38232000  1.0
  H  H78  1  0.46570000  0.16073000  0.61756000  1.0
  H  H79  1  0.91668000  0.33928000  0.61768000  1.0
  H  H80  1  0.83359000  0.59731000  0.53064000  1.0
  H  H81  1  0.63589000  0.90256000  0.53075000  1.0
  H  H82  1  0.16641000  0.40269000  0.46936000  1.0
  H  H83  1  0.36412000  0.09744000  0.46925000  1.0
  H  H84  1  0.73636000  0.54354000  0.60898000  1.0
  H  H85  1  0.65499000  0.95626000  0.60909000  1.0
  H  H86  1  0.26364000  0.45646000  0.39102000  1.0
  H  H87  1  0.34501000  0.04374000  0.39091000  1.0
  H  H88  1  0.76691000  0.64269000  0.63299000  1.0
  H  H89  1  0.60040000  0.85715000  0.63307000  1.0
  H  H90  1  0.23309000  0.35731000  0.36701000  1.0
  H  H91  1  0.39960000  0.14285000  0.36693000  1.0
  H  H92  1  0.75187000  0.52792000  0.24393000  1.0
  H  H93  1  0.00431000  0.97195000  0.24397000  1.0
  H  H94  1  0.24813000  0.47207000  0.75607000  1.0
  H  H95  1  0.99569000  0.02805000  0.75603000  1.0
  H  H96  1  0.85143000  0.37892000  0.16004000  1.0
  H  H97  1  0.98859000  0.12094000  0.16017000  1.0
  H  H98  1  0.14857000  0.62108000  0.83996000  1.0
  H  H99  1  0.01141000  0.87906000  0.83983000  1.0
  H  H100  1  0.07670000  0.29446000  0.13148000  1.0
  H  H101  1  0.79178000  0.20561000  0.13180000  1.0
  H  H102  1  0.92330000  0.70554000  0.86852000  1.0
  H  H103  1  0.20822000  0.79439000  0.86820000  1.0
  H  H104  1  0.09163000  0.49279000  0.28572000  1.0
  H  H105  1  0.62282000  0.00706000  0.28560000  1.0
  H  H106  1  0.90836000  0.50721000  0.71428000  1.0
  H  H107  1  0.37718000  0.99294000  0.71440000  1.0
  C  C108  1  0.43996000  0.42532000  0.96594000  1.0
  C  C109  1  0.59409000  0.07467000  0.96596000  1.0
  C  C110  1  0.56004000  0.57468000  0.03406000  1.0
  C  C111  1  0.40591000  0.92533000  0.03404000  1.0
  C  C112  1  0.62916000  0.32942000  0.94456000  1.0
  C  C113  1  0.42613000  0.17043000  0.94462000  1.0
  C  C114  1  0.37084000  0.67058000  0.05544000  1.0
  C  C115  1  0.57387000  0.82957000  0.05538000  1.0
  C  C116  1  0.73736000  0.25831000  0.94680000  1.0
  C  C117  1  0.31568000  0.24146000  0.94685000  1.0
  C  C118  1  0.26263000  0.74169000  0.05320000  1.0
  C  C119  1  0.68432000  0.75854000  0.05315000  1.0
  C  C120  1  0.84578000  0.25485000  0.88224000  1.0
  C  C121  1  0.27169000  0.24479000  0.88232000  1.0
  C  C122  1  0.15422000  0.74515000  0.11776000  1.0
  C  C123  1  0.72832000  0.75521000  0.11768000  1.0
  C  C124  1  0.84843000  0.32092000  0.81759000  1.0
  C  C125  1  0.33371000  0.17877000  0.81766000  1.0
  C  C126  1  0.15157000  0.67908000  0.18241000  1.0
  C  C127  1  0.66629000  0.82124000  0.18234000  1.0
  C  C128  1  0.74210000  0.39313000  0.81567000  1.0
  C  C129  1  0.44202000  0.10663000  0.81572000  1.0
  C  C130  1  0.25790000  0.60687000  0.18434000  1.0
  C  C131  1  0.55798000  0.89337000  0.18428000  1.0
  C  C132  1  0.63355000  0.39566000  0.87998000  1.0
  C  C133  1  0.48628000  0.10416000  0.88005000  1.0
  C  C134  1  0.36645000  0.60434000  0.12002000  1.0
  C  C135  1  0.51372000  0.89584000  0.11995000  1.0
  C  C136  1  0.30444000  0.47118000  0.99878000  1.0
  C  C137  1  0.69677000  0.02882000  0.99886000  1.0
  C  C138  1  0.69556000  0.52882000  0.00122000  1.0
  C  C139  1  0.30324000  0.97118000  0.00114000  1.0
  C  C140  1  0.47569000  0.53125000  0.84142000  1.0
  C  C141  1  0.68274000  0.96865000  0.84147000  1.0
  C  C142  1  0.52431000  0.46875000  0.15858000  1.0
  C  C143  1  0.31726000  0.03135000  0.15853000  1.0
  C  C144  1  0.47717000  0.49315000  0.76394000  1.0
  C  C145  1  0.75869000  0.00675000  0.76408000  1.0
  C  C146  1  0.52283000  0.50685000  0.23606000  1.0
  C  C147  1  0.24131000  0.99325000  0.23592000  1.0
  C  C148  1  0.47548000  0.40014000  0.76021000  1.0
  C  C149  1  0.76405000  0.09977000  0.76040000  1.0
  C  C150  1  0.52452000  0.59986000  0.23979000  1.0
  C  C151  1  0.23595000  0.90024000  0.23960000  1.0
  C  C152  1  0.47596000  0.36516000  0.68936000  1.0
  C  C153  1  0.83439000  0.13477000  0.68960000  1.0
  C  C154  1  0.52403000  0.63484000  0.31064000  1.0
  C  C155  1  0.16561000  0.86523000  0.31040000  1.0
  C  C156  1  0.47679000  0.42382000  0.62123000  1.0
  C  C157  1  0.90162000  0.07616000  0.62143000  1.0
  C  C158  1  0.52321000  0.57618000  0.37877000  1.0
  C  C159  1  0.09838000  0.92384000  0.37857000  1.0
  C  C160  1  0.47934000  0.51632000  0.62400000  1.0
  C  C161  1  0.89629000  0.98366000  0.62412000  1.0
  C  C162  1  0.52066000  0.48368000  0.37600000  1.0
  C  C163  1  0.10371000  0.01634000  0.37587000  1.0
  C  C164  1  0.48061000  0.55179000  0.69453000  1.0
  C  C165  1  0.82467000  0.94814000  0.69463000  1.0
  C  C166  1  0.51939000  0.44821000  0.30547000  1.0
  C  C167  1  0.17534000  0.05186000  0.30537000  1.0
  C  C168  1  0.48657000  0.65154000  0.69705000  1.0
  C  C169  1  0.81647000  0.84831000  0.69707000  1.0
  C  C170  1  0.51344000  0.34846000  0.30295000  1.0
  C  C171  1  0.18353000  0.15170000  0.30292000  1.0
  C  C172  1  0.44543000  0.75350000  0.57746000  1.0
  C  C173  1  0.97743000  0.74648000  0.57740000  1.0
  C  C174  1  0.55458000  0.24650000  0.42254000  1.0
  C  C175  1  0.02257000  0.25352000  0.42259000  1.0
  C  C176  1  0.31747000  0.79455000  0.60239000  1.0
  C  C177  1  0.08055000  0.70542000  0.60226000  1.0
  C  C178  1  0.68252000  0.20545000  0.39761000  1.0
  C  C179  1  0.91945000  0.29458000  0.39774000  1.0
  C  C180  1  0.26933000  0.85104000  0.54524000  1.0
  C  C181  1  0.18574000  0.64887000  0.54511000  1.0
  C  C182  1  0.73067000  0.14896000  0.45476000  1.0
  C  C183  1  0.81426000  0.35113000  0.45489000  1.0
  C  C184  1  0.34600000  0.86563000  0.46651000  1.0
  C  C185  1  0.18767000  0.63425000  0.46640000  1.0
  C  C186  1  0.65400000  0.13437000  0.53349000  1.0
  C  C187  1  0.81233000  0.36575000  0.53360000  1.0
  C  C188  1  0.47392000  0.82646000  0.44240000  1.0
  C  C189  1  0.08383000  0.67351000  0.44229000  1.0
  C  C190  1  0.52608000  0.17354000  0.55760000  1.0
  C  C191  1  0.91617000  0.32649000  0.55771000  1.0
  C  C192  1  0.52360000  0.76950000  0.49911000  1.0
  C  C193  1  0.97750000  0.73050000  0.49903000  1.0
  C  C194  1  0.47640000  0.23050000  0.50089000  1.0
  C  C195  1  0.02249000  0.26950000  0.50097000  1.0
  C  C196  1  0.64278000  0.67480000  0.56402000  1.0
  C  C197  1  0.79345000  0.82504000  0.56404000  1.0
  C  C198  1  0.35722000  0.32520000  0.43597000  1.0
  C  C199  1  0.20655000  0.17496000  0.43596000  1.0
  C  C200  1  0.75109000  0.61160000  0.58503000  1.0
  C  C201  1  0.66413000  0.88822000  0.58511000  1.0
  C  C202  1  0.24891000  0.38840000  0.41496000  1.0
  C  C203  1  0.33587000  0.11178000  0.41489000  1.0
  C  C204  1  0.91597000  0.51914000  0.26956000  1.0
  C  C205  1  0.81457000  0.98079000  0.26960000  1.0
  C  C206  1  0.08402000  0.48086000  0.73044000  1.0
  C  C207  1  0.18543000  0.01921000  0.73040000  1.0
  C  C208  1  0.84824000  0.48724000  0.23394000  1.0
  C  C209  1  0.91790000  0.01266000  0.23402000  1.0
  C  C210  1  0.15176000  0.51275000  0.76606000  1.0
  C  C211  1  0.08210000  0.98734000  0.76598000  1.0
  C  C212  1  0.90472000  0.40476000  0.18655000  1.0
  C  C213  1  0.90877000  0.09515000  0.18669000  1.0
  C  C214  1  0.09528000  0.59524000  0.81345000  1.0
  C  C215  1  0.09123000  0.90485000  0.81332000  1.0
  C  C216  1  0.02997000  0.35648000  0.17134000  1.0
  C  C217  1  0.79868000  0.14353000  0.17155000  1.0
  C  C218  1  0.97003000  0.64352000  0.82866000  1.0
  C  C219  1  0.20132000  0.85647000  0.82845000  1.0
  C  C220  1  0.09844000  0.38868000  0.20637000  1.0
  C  C221  1  0.69522000  0.11130000  0.20645000  1.0
  C  C222  1  0.90155000  0.61132000  0.79363000  1.0
  C  C223  1  0.30478000  0.88870000  0.79355000  1.0
  C  C224  1  0.03980000  0.46836000  0.25722000  1.0
  C  C225  1  0.70309000  0.03156000  0.25722000  1.0
  C  C226  1  0.96020000  0.53164000  0.74278000  1.0
  C  C227  1  0.29691000  0.96844000  0.74278000  1.0
  C  C228  1  0.23490000  0.34429000  0.18510000  1.0
  C  C229  1  0.58003000  0.15580000  0.18516000  1.0
  C  C230  1  0.76509000  0.65571000  0.81490000  1.0
  C  C231  1  0.41997000  0.84420000  0.81484000  1.0
  C  C232  1  0.85904000  0.60937000  0.31744000  1.0
  C  C233  1  0.82363000  0.89056000  0.31748000  1.0
  C  C234  1  0.14096000  0.39063000  0.68256000  1.0
  C  C235  1  0.17636000  0.10944000  0.68252000  1.0
  N  N236  1  0.50686000  0.34966000  0.99723000  1.0
  N  N237  1  0.49586000  0.15030000  0.99727000  1.0
  N  N238  1  0.49313000  0.65034000  0.00277000  1.0
  N  N239  1  0.50414000  0.84970000  0.00273000  1.0
  N  N240  1  0.51347000  0.45581000  0.89606000  1.0
  N  N241  1  0.59036000  0.04409000  0.89612000  1.0
  N  N242  1  0.48652000  0.54419000  0.10394000  1.0
  N  N243  1  0.40965000  0.95591000  0.10388000  1.0
  N  N244  1  0.52370000  0.69371000  0.61690000  1.0
  N  N245  1  0.85969000  0.80613000  0.61690000  1.0
  N  N246  1  0.47630000  0.30629000  0.38310000  1.0
  N  N247  1  0.14031000  0.19387000  0.38310000  1.0
  N  N248  1  0.64566000  0.72048000  0.49331000  1.0
  N  N249  1  0.86122000  0.77945000  0.49327000  1.0
  N  N250  1  0.35435000  0.27952000  0.50669000  1.0
  N  N251  1  0.13878000  0.22054000  0.50672000  1.0
  O  O252  1  0.29631000  0.37422000  0.21504000  1.0
  O  O253  1  0.48872000  0.12585000  0.21497000  1.0
  O  O254  1  0.70368000  0.62578000  0.78496000  1.0
  O  O255  1  0.51128000  0.87415000  0.78504000  1.0
  O  O256  1  0.28473000  0.27672000  0.13056000  1.0
  O  O257  1  0.58475000  0.22341000  0.13070000  1.0
  O  O258  1  0.71527000  0.72328000  0.86944000  1.0
  O  O259  1  0.41526000  0.77659000  0.86930000  1.0
  O  O260  1  0.91490000  0.62424000  0.36358000  1.0
  O  O261  1  0.72167000  0.87569000  0.36354000  1.0
  O  O262  1  0.08510000  0.37576000  0.63642000  1.0
  O  O263  1  0.27833000  0.12430000  0.63646000  1.0
  O  O264  1  0.76184000  0.66990000  0.31145000  1.0
  O  O265  1  0.92681000  0.83008000  0.31159000  1.0
  O  O266  1  0.23815000  0.33010000  0.68855000  1.0
  O  O267  1  0.07319000  0.16992000  0.68841000  1.0
