# generated using pymatgen
data_HoH9C5(NO4)2
_symmetry_space_group_name_H-M   'P 1'
_cell_length_a   6.54178000
_cell_length_b   6.67944000
_cell_length_c   6.67924000
_cell_angle_alpha   64.37770000
_cell_angle_beta   73.17500000
_cell_angle_gamma   73.17580000
_symmetry_Int_Tables_number   1
_chemical_formula_structural   HoH9C5(NO4)2
_chemical_formula_sum   'Ho1 H9 C5 N2 O8'
_cell_volume   247.28357262
_cell_formula_units_Z   1
loop_
 _symmetry_equiv_pos_site_id
 _symmetry_equiv_pos_as_xyz
  1  'x, y, z'
loop_
 _atom_site_type_symbol
 _atom_site_label
 _atom_site_symmetry_multiplicity
 _atom_site_fract_x
 _atom_site_fract_y
 _atom_site_fract_z
 _atom_site_occupancy
  Ho  Ho0  1  0.99999000  0.90276000  0.09723000  1.0
  H  H1  1  0.59936000  0.10913000  0.45330000  1.0
  H  H2  1  0.40064000  0.54670000  0.89089000  1.0
  H  H3  1  0.46943000  0.40068000  0.35539000  1.0
  H  H4  1  0.53056000  0.64466000  0.59930000  1.0
  H  H5  1  0.17560000  0.35231000  0.62990000  1.0
  H  H6  1  0.82441000  0.37012000  0.64768000  1.0
  H  H7  1  0.87527000  0.37049000  0.25703000  1.0
  H  H8  1  0.12474000  0.74299000  0.62949000  1.0
  H  H9  1  0.50001000  0.98586000  0.01415000  1.0
  C  C10  1  0.29601000  0.19828000  0.62761000  1.0
  C  C11  1  0.70396000  0.37236000  0.80169000  1.0
  C  C12  1  0.03989000  0.37243000  0.14938000  1.0
  C  C13  1  0.96012000  0.85063000  0.62755000  1.0
  C  C14  1  0.50002000  0.83158000  0.16842000  1.0
  N  N15  1  0.46866000  0.23667000  0.46534000  1.0
  N  N16  1  0.53136000  0.53468000  0.76333000  1.0
  O  O17  1  0.26438000  0.00581000  0.77067000  1.0
  O  O18  1  0.73559000  0.22937000  0.99420000  1.0
  O  O19  1  0.66802000  0.75339000  0.25857000  1.0
  O  O20  1  0.33201000  0.74140000  0.24659000  1.0
  O  O21  1  0.12553000  0.54053000  0.10301000  1.0
  O  O22  1  0.87447000  0.89700000  0.45946000  1.0
  O  O23  1  0.12979000  0.21381000  0.08123000  1.0
  O  O24  1  0.87022000  0.91876000  0.78620000  1.0
