# generated using pymatgen
data_CaH6(CO2)3
_symmetry_space_group_name_H-M   'P 1'
_cell_length_a   6.71785000
_cell_length_b   9.76231000
_cell_length_c   11.91243112
_cell_angle_alpha   112.44432397
_cell_angle_beta   89.99997968
_cell_angle_gamma   89.99990000
_symmetry_Int_Tables_number   1
_chemical_formula_structural   CaH6(CO2)3
_chemical_formula_sum   'Ca4 H24 C12 O24'
_cell_volume   722.05987272
_cell_formula_units_Z   4
loop_
 _symmetry_equiv_pos_site_id
 _symmetry_equiv_pos_as_xyz
  1  'x, y, z'
loop_
 _atom_site_type_symbol
 _atom_site_label
 _atom_site_symmetry_multiplicity
 _atom_site_fract_x
 _atom_site_fract_y
 _atom_site_fract_z
 _atom_site_occupancy
  Ca  Ca0  1  0.13425000  0.24032000  0.82292000  1.0
  Ca  Ca1  1  0.63425000  0.25968000  0.67708000  1.0
  Ca  Ca2  1  0.86576000  0.75968000  0.17708000  1.0
  Ca  Ca3  1  0.36575000  0.74032000  0.32292000  1.0
  H  H4  1  0.24429000  0.78218000  0.92900000  1.0
  H  H5  1  0.74428000  0.71783000  0.57101000  1.0
  H  H6  1  0.75571000  0.21782000  0.07100000  1.0
  H  H7  1  0.25571000  0.28216000  0.42899000  1.0
  H  H8  1  0.51055000  0.78409000  0.93409000  1.0
  H  H9  1  0.01055000  0.71592000  0.56592000  1.0
  H  H10  1  0.48945000  0.21591000  0.06591000  1.0
  H  H11  1  0.98945000  0.28409000  0.43409000  1.0
  H  H12  1  0.24541000  0.41003000  0.10326000  1.0
  H  H13  1  0.74541000  0.08997000  0.39674000  1.0
  H  H14  1  0.75459000  0.58997000  0.89674000  1.0
  H  H15  1  0.25459000  0.91003000  0.60326000  1.0
  H  H16  1  0.00427000  0.41278000  0.08809000  1.0
  H  H17  1  0.50427000  0.08721000  0.41191000  1.0
  H  H18  1  0.99573000  0.58722000  0.91191000  1.0
  H  H19  1  0.49573000  0.91278000  0.58809000  1.0
  H  H20  1  0.98640000  0.03174000  0.93225000  1.0
  H  H21  1  0.48640000  0.46826000  0.56775000  1.0
  H  H22  1  0.01359000  0.96827000  0.06775000  1.0
  H  H23  1  0.51359000  0.53174000  0.43225000  1.0
  H  H24  1  0.11666000  0.17085000  0.00708000  1.0
  H  H25  1  0.61665000  0.32915000  0.49292000  1.0
  H  H26  1  0.88334000  0.82915000  0.99292000  1.0
  H  H27  1  0.38334000  0.67085000  0.50708000  1.0
  C  C28  1  0.37589000  0.56495000  0.87366000  1.0
  C  C29  1  0.87589000  0.93506000  0.62634000  1.0
  C  C30  1  0.62412000  0.43505000  0.12634000  1.0
  C  C31  1  0.12411000  0.06494000  0.37366000  1.0
  C  C32  1  0.37652000  0.73175000  0.95147000  1.0
  C  C33  1  0.87652000  0.76825000  0.54853000  1.0
  C  C34  1  0.62348000  0.26825000  0.04853000  1.0
  C  C35  1  0.12348000  0.23175000  0.45147000  1.0
  C  C36  1  0.36856000  0.75252000  0.08466000  1.0
  C  C37  1  0.86856000  0.74748000  0.41534000  1.0
  C  C38  1  0.63145000  0.24748000  0.91534000  1.0
  C  C39  1  0.13145000  0.25252000  0.58466000  1.0
  O  O40  1  0.21157000  0.49635000  0.86194000  1.0
  O  O41  1  0.71156000  0.00366000  0.63806000  1.0
  O  O42  1  0.78844000  0.50366000  0.13806000  1.0
  O  O43  1  0.28844000  0.99634000  0.36194000  1.0
  O  O44  1  0.54038000  0.50493000  0.82770000  1.0
  O  O45  1  0.04037000  0.99508000  0.67230000  1.0
  O  O46  1  0.45962000  0.49507000  0.17230000  1.0
  O  O47  1  0.95962000  0.00492000  0.32770000  1.0
  O  O48  1  0.20441000  0.73177000  0.12921000  1.0
  O  O49  1  0.70441000  0.76823000  0.37079000  1.0
  O  O50  1  0.79559000  0.26823000  0.87079000  1.0
  O  O51  1  0.29559000  0.23178000  0.62921000  1.0
  O  O52  1  0.52723000  0.78403000  0.14732000  1.0
  O  O53  1  0.02723000  0.71598000  0.35269000  1.0
  O  O54  1  0.47278000  0.21598000  0.85269000  1.0
  O  O55  1  0.97278000  0.28402000  0.64731000  1.0
  O  O56  1  0.12894000  0.35561000  0.05436000  1.0
  O  O57  1  0.62894000  0.14438000  0.44563000  1.0
  O  O58  1  0.87106000  0.64439000  0.94564000  1.0
  O  O59  1  0.37106000  0.85562000  0.55437000  1.0
  O  O60  1  0.12206000  0.06998000  0.94037000  1.0
  O  O61  1  0.62206000  0.43002000  0.55963000  1.0
  O  O62  1  0.87793000  0.93002000  0.05963000  1.0
  O  O63  1  0.37793000  0.56998000  0.44037000  1.0
