# generated using pymatgen
data_Zn4H54C79N28O23
_symmetry_space_group_name_H-M   'P 1'
_cell_length_a   18.88470000
_cell_length_b   19.51880000
_cell_length_c   21.36260000
_cell_angle_alpha   103.46900000
_cell_angle_beta   108.62100000
_cell_angle_gamma   112.41600000
_symmetry_Int_Tables_number   1
_chemical_formula_structural   Zn4H54C79N28O23
_chemical_formula_sum   'Zn4 H54 C79 N28 O23'
_cell_volume   6307.68008819
_cell_formula_units_Z   1
loop_
 _symmetry_equiv_pos_site_id
 _symmetry_equiv_pos_as_xyz
  1  'x, y, z'
loop_
 _atom_site_type_symbol
 _atom_site_label
 _atom_site_symmetry_multiplicity
 _atom_site_fract_x
 _atom_site_fract_y
 _atom_site_fract_z
 _atom_site_occupancy
  Zn  Zn0  1  0.90667000  0.90696000  0.52317000  1.0
  Zn  Zn1  1  0.11064000  0.10754000  0.49901000  1.0
  Zn  Zn2  1  0.12630000  0.99943000  0.61429000  1.0
  Zn  Zn3  1  0.87010000  0.92480000  0.36346000  1.0
  H  H4  1  0.85961000  0.96035000  0.66300000  1.0
  H  H5  1  0.07069000  0.23044000  0.59061000  1.0
  H  H6  1  0.91775000  0.06613000  0.60689000  1.0
  H  H7  1  0.69520000  0.74032000  0.44174000  1.0
  H  H8  1  0.29288000  0.13763000  0.50183000  1.0
  H  H9  1  0.12860000  0.83190000  0.63793000  1.0
  H  H10  1  0.13587000  0.11868000  0.35701000  1.0
  H  H11  1  0.86801000  0.73204000  0.47448000  1.0
  H  H12  1  0.75259000  0.74738000  0.26205000  1.0
  H  H13  1  0.23739000  0.94001000  0.57106000  1.0
  H  H14  1  0.71595000  0.11949000  0.45238000  1.0
  H  H15  1  0.79611000  0.05175000  0.63000000  1.0
  H  H16  1  0.68413000  0.06333000  0.65934000  1.0
  H  H17  1  0.36356000  0.93916000  0.55086000  1.0
  H  H18  1  0.44053000  0.18650000  0.57825000  1.0
  H  H19  1  0.58238000  0.20812000  0.58955000  1.0
  H  H20  1  0.08987000  0.51028000  0.59664000  1.0
  H  H21  1  0.10326000  0.38735000  0.56271000  1.0
  H  H22  1  0.83680000  0.23906000  0.50545000  1.0
  H  H23  1  0.82353000  0.36132000  0.54154000  1.0
  H  H24  1  0.06762000  0.72323000  0.67318000  1.0
  H  H25  1  0.22864000  0.30344000  0.80313000  1.0
  H  H26  1  0.54388000  0.46733000  0.13570000  1.0
  H  H27  1  0.65174000  0.55839000  0.26382000  1.0
  H  H28  1  0.43204000  0.62241000  0.13317000  1.0
  H  H29  1  0.54639000  0.45699000  0.93937000  1.0
  H  H30  1  0.54223000  0.71570000  0.26092000  1.0
  H  H31  1  0.93604000  0.01263000  0.03132000  1.0
  H  H32  1  0.83658000  0.08223000  0.86230000  1.0
  H  H33  1  0.85767000  0.04930000  0.75276000  1.0
  H  H34  1  0.05841000  0.19208000  0.28866000  1.0
  H  H35  1  0.10397000  0.17077000  0.99588000  1.0
  H  H36  1  0.12577000  0.13544000  0.88823000  1.0
  H  H37  1  0.48297000  0.03406000  0.41977000  1.0
  H  H38  1  0.55090000  0.05107000  0.37559000  1.0
  H  H39  1  0.49780000  0.10962000  0.38312000  1.0
  H  H40  1  0.39994000  0.84615000  0.51070000  1.0
  H  H41  1  0.43845000  0.88457000  0.60701000  1.0
  H  H42  1  0.49089000  0.84253000  0.56698000  1.0
  H  H43  1  0.36658000  0.22437000  0.86501000  1.0
  H  H44  1  0.44086000  0.23013000  0.82700000  1.0
  H  H45  1  0.39574000  0.14708000  0.85056000  1.0
  H  H46  1  0.73446000  0.51415000  0.42875000  1.0
  H  H47  1  0.76118000  0.48844000  0.35608000  1.0
  H  H48  1  0.73787000  0.56975000  0.37268000  1.0
  H  H49  1  0.69957000  0.90741000  0.30444000  1.0
  H  H50  1  0.76618000  0.99677000  0.29584000  1.0
  H  H51  1  0.65721000  0.96893000  0.27571000  1.0
  H  H52  1  0.03891000  0.92298000  0.12753000  1.0
  H  H53  1  0.97502000  0.91689000  0.04145000  1.0
  H  H54  1  0.93438000  0.83583000  0.06846000  1.0
  H  H55  1  0.16007000  0.31681000  0.30602000  1.0
  H  H56  1  0.05756000  0.30878000  0.29191000  1.0
  H  H57  1  0.12940000  0.38274000  0.27291000  1.0
  C  C58  1  0.92802000  0.98788000  0.67901000  1.0
  C  C59  1  0.03237000  0.20921000  0.53296000  1.0
  C  C60  1  0.27652000  0.17357000  0.72074000  1.0
  C  C61  1  0.79840000  0.02115000  0.43830000  1.0
  C  C62  1  0.23699000  0.24036000  0.66127000  1.0
  C  C63  1  0.88323000  0.04620000  0.54905000  1.0
  C  C64  1  0.94449000  0.18204000  0.42355000  1.0
  C  C65  1  0.06815000  0.05456000  0.73323000  1.0
  C  C66  1  0.99738000  0.04801000  0.74602000  1.0
  C  C67  1  0.97790000  0.23390000  0.49705000  1.0
  C  C68  1  0.29735000  0.25363000  0.72864000  1.0
  C  C69  1  0.81661000  0.05780000  0.51135000  1.0
  C  C70  1  0.72253000  0.75386000  0.40555000  1.0
  C  C71  1  0.26618000  0.08845000  0.51761000  1.0
  C  C72  1  0.06754000  0.82028000  0.59866000  1.0
  C  C73  1  0.93474000  0.97888000  0.27332000  1.0
  C  C74  1  0.07020000  0.07099000  0.33664000  1.0
  C  C75  1  0.93469000  0.76894000  0.51458000  1.0
  C  C76  1  0.75341000  0.75692000  0.31449000  1.0
  C  C77  1  0.23775000  0.98725000  0.55224000  1.0
  C  C78  1  0.68867000  0.71261000  0.33058000  1.0
  C  C79  1  0.30338000  0.04487000  0.54477000  1.0
  C  C80  1  0.98863000  0.74706000  0.55728000  1.0
  C  C81  1  0.00093000  0.03945000  0.26841000  1.0
  C  C82  1  0.64931000  0.11628000  0.51671000  1.0
  C  C83  1  0.71130000  0.10812000  0.49883000  1.0
  C  C84  1  0.76353000  0.08216000  0.53741000  1.0
  C  C85  1  0.75539000  0.07056000  0.59801000  1.0
  C  C86  1  0.69210000  0.07685000  0.61454000  1.0
  C  C87  1  0.63478000  0.09636000  0.57252000  1.0
  C  C88  1  0.49437000  0.01266000  0.57134000  1.0
  C  C89  1  0.41244000  0.99883000  0.56134000  1.0
  C  C90  1  0.39058000  0.05997000  0.56063000  1.0
  C  C91  1  0.45418000  0.13663000  0.57416000  1.0
  C  C92  1  0.53474000  0.14932000  0.58196000  1.0
  C  C93  1  0.55628000  0.08786000  0.57862000  1.0
  C  C94  1  0.03449000  0.45082000  0.57773000  1.0
  C  C95  1  0.04199000  0.38179000  0.55835000  1.0
  C  C96  1  0.96972000  0.30446000  0.52828000  1.0
  C  C97  1  0.89238000  0.29850000  0.52542000  1.0
  C  C98  1  0.88482000  0.36756000  0.54561000  1.0
  C  C99  1  0.95475000  0.44439000  0.56846000  1.0
  C  C100  1  0.89568000  0.52168000  0.51151000  1.0
  C  C101  1  0.90348000  0.59404000  0.50488000  1.0
  C  C102  1  0.97048000  0.66927000  0.56235000  1.0
  C  C103  1  0.01960000  0.66718000  0.62584000  1.0
  C  C104  1  0.00743000  0.59450000  0.63161000  1.0
  C  C105  1  0.94836000  0.51871000  0.57324000  1.0
  C  C106  1  0.60667000  0.64508000  0.26974000  1.0
  C  C107  1  0.54091000  0.65996000  0.23422000  1.0
  C  C108  1  0.47972000  0.60855000  0.16291000  1.0
  C  C109  1  0.48585000  0.54301000  0.12609000  1.0
  C  C110  1  0.54387000  0.52148000  0.16404000  1.0
  C  C111  1  0.60319000  0.57212000  0.23541000  1.0
  C  C112  1  0.33788000  0.39089000  0.90419000  1.0
  C  C113  1  0.29849000  0.33934000  0.83199000  1.0
  C  C114  1  0.42811000  0.43272000  0.94527000  1.0
  C  C115  1  0.34672000  0.32605000  0.79714000  1.0
  C  C116  1  0.43656000  0.37360000  0.83640000  1.0
  C  C117  1  0.47660000  0.42447000  0.90914000  1.0
  C  C118  1  0.99191000  0.08427000  0.81127000  1.0
  C  C119  1  0.06194000  0.12339000  0.88093000  1.0
  C  C120  1  0.05072000  0.14457000  0.94214000  1.0
  C  C121  1  0.96842000  0.12606000  0.93587000  1.0
  C  C122  1  0.89967000  0.09403000  0.86683000  1.0
  C  C123  1  0.91183000  0.07470000  0.80585000  1.0
  C  C124  1  0.96265000  0.05106000  0.08812000  1.0
  C  C125  1  0.96377000  0.01807000  0.13916000  1.0
  C  C126  1  0.99977000  0.13515000  0.10805000  1.0
  C  C127  1  0.99893000  0.06974000  0.21220000  1.0
  C  C128  1  0.03483000  0.15406000  0.23243000  1.0
  C  C129  1  0.03690000  0.18782000  0.18185000  1.0
  C  C130  1  0.52898000  0.08024000  0.41003000  1.0
  C  C131  1  0.45770000  0.87792000  0.56335000  1.0
  C  C132  1  0.38367000  0.18987000  0.82995000  1.0
  C  C133  1  0.76683000  0.53800000  0.39799000  1.0
  C  C134  1  0.71461000  0.96955000  0.31042000  1.0
  C  C135  1  0.97292000  0.90166000  0.08750000  1.0
  C  C136  1  0.10601000  0.32157000  0.27172000  1.0
  N  N137  1  0.95664000  0.96451000  0.63222000  1.0
  N  N138  1  0.03105000  0.14921000  0.48356000  1.0
  N  N139  1  0.20454000  0.12050000  0.65766000  1.0
  N  N140  1  0.84867000  0.98834000  0.43393000  1.0
  N  N141  1  0.18128000  0.16139000  0.61958000  1.0
  N  N142  1  0.90226000  0.00341000  0.50355000  1.0
  N  N143  1  0.97724000  0.13236000  0.41616000  1.0
  N  N144  1  0.04367000  0.00573000  0.66538000  1.0
  N  N145  1  0.80126000  0.81860000  0.43133000  1.0
  N  N146  1  0.18598000  0.05931000  0.51089000  1.0
  N  N147  1  0.05979000  0.88010000  0.58217000  1.0
  N  N148  1  0.96368000  0.97691000  0.33958000  1.0
  N  N149  1  0.04661000  0.03344000  0.37822000  1.0
  N  N150  1  0.97748000  0.84899000  0.53047000  1.0
  N  N151  1  0.82020000  0.82051000  0.37470000  1.0
  N  N152  1  0.16727000  0.99690000  0.53252000  1.0
  N  N153  1  0.43731000  0.50459000  0.05034000  1.0
  N  N154  1  0.47482000  0.47768000  0.02014000  1.0
  N  N155  1  0.94902000  0.12193000  0.99333000  1.0
  N  N156  1  0.01063000  0.16567000  0.05674000  1.0
  N  N157  1  0.84604000  0.93129000  0.22704000  1.0
  N  N158  1  0.83691000  0.44476000  0.44608000  1.0
  N  N159  1  0.05834000  0.59979000  0.70284000  1.0
  N  N160  1  0.27982000  0.39132000  0.93692000  1.0
  N  N161  1  0.49158000  0.36716000  0.80194000  1.0
  N  N162  1  0.24144000  0.29874000  0.63043000  1.0
  N  N163  1  0.88476000  0.17870000  0.35929000  1.0
  N  N164  1  0.15738000  0.09384000  0.78485000  1.0
  O  O165  1  0.81369000  0.93276000  0.16805000  1.0
  O  O166  1  0.79974000  0.88686000  0.25090000  1.0
  O  O167  1  0.60028000  0.14292000  0.47694000  1.0
  O  O168  1  0.51810000  0.95437000  0.57071000  1.0
  O  O169  1  0.86215000  0.43232000  0.40016000  1.0
  O  O170  1  0.76703000  0.39946000  0.44197000  1.0
  O  O171  1  0.31287000  0.14027000  0.75886000  1.0
  O  O172  1  0.85545000  0.59874000  0.44515000  1.0
  O  O173  1  0.02740000  0.54209000  0.71886000  1.0
  O  O174  1  0.12821000  0.66323000  0.74325000  1.0
  O  O175  1  0.27328000  0.35247000  0.97491000  1.0
  O  O176  1  0.23879000  0.42581000  0.91970000  1.0
  O  O177  1  0.56793000  0.39166000  0.84225000  1.0
  O  O178  1  0.45799000  0.33799000  0.73504000  1.0
  O  O179  1  0.73768000  0.01909000  0.38274000  1.0
  O  O180  1  0.93228000  0.93614000  0.12063000  1.0
  O  O181  1  0.06914000  0.26827000  0.19762000  1.0
  O  O182  1  0.27319000  0.37033000  0.67148000  1.0
  O  O183  1  0.21475000  0.27343000  0.56326000  1.0
  O  O184  1  0.86287000  0.23147000  0.36662000  1.0
  O  O185  1  0.85862000  0.12360000  0.30021000  1.0
  O  O186  1  0.19450000  0.16728000  0.82430000  1.0
  O  O187  1  0.19082000  0.05005000  0.78748000  1.0
