# generated using pymatgen
data_P2H24Au2C30Se
_symmetry_space_group_name_H-M   'P 1'
_cell_length_a   9.38424000
_cell_length_b   14.92520000
_cell_length_c   21.71270000
_cell_angle_alpha   89.99970000
_cell_angle_beta   80.08550000
_cell_angle_gamma   89.99980000
_symmetry_Int_Tables_number   1
_chemical_formula_structural   P2H24Au2C30Se
_chemical_formula_sum   'P8 H96 Au8 C120 Se4'
_cell_volume   2995.70008527
_cell_formula_units_Z   4
loop_
 _symmetry_equiv_pos_site_id
 _symmetry_equiv_pos_as_xyz
  1  'x, y, z'
loop_
 _atom_site_type_symbol
 _atom_site_label
 _atom_site_symmetry_multiplicity
 _atom_site_fract_x
 _atom_site_fract_y
 _atom_site_fract_z
 _atom_site_occupancy
  P  P0  1  0.51326000  0.70234000  0.05145000  1.0
  P  P1  1  0.01326000  0.79766000  0.55145000  1.0
  P  P2  1  0.48673000  0.29766000  0.94855000  1.0
  P  P3  1  0.98674000  0.20234000  0.44855000  1.0
  P  P4  1  0.04123000  0.61643000  0.87312000  1.0
  P  P5  1  0.54123000  0.88357000  0.37312000  1.0
  P  P6  1  0.95877000  0.38357000  0.12688000  1.0
  P  P7  1  0.45878000  0.11643000  0.62688000  1.0
  H  H8  1  0.39006000  0.86273000  0.10749000  1.0
  H  H9  1  0.89006000  0.63727000  0.60749000  1.0
  H  H10  1  0.60994000  0.13727000  0.89251000  1.0
  H  H11  1  0.10993000  0.36273000  0.39251000  1.0
  H  H12  1  0.14447000  0.93056000  0.12045000  1.0
  H  H13  1  0.64447000  0.56944000  0.62045000  1.0
  H  H14  1  0.85553000  0.06944000  0.87955000  1.0
  H  H15  1  0.35552000  0.43056000  0.37955000  1.0
  H  H16  1  0.94730000  0.85137000  0.07948000  1.0
  H  H17  1  0.44730000  0.64863000  0.57948000  1.0
  H  H18  1  0.05270000  0.14863000  0.92052000  1.0
  H  H19  1  0.55269000  0.35137000  0.42052000  1.0
  H  H20  1  0.99378000  0.70191000  0.02903000  1.0
  H  H21  1  0.49378000  0.79810000  0.52903000  1.0
  H  H22  1  0.00621000  0.29810000  0.97097000  1.0
  H  H23  1  0.50621000  0.20191000  0.47097000  1.0
  H  H24  1  0.23565000  0.63141000  0.01971000  1.0
  H  H25  1  0.73566000  0.86860000  0.51971000  1.0
  H  H26  1  0.76434000  0.36860000  0.98029000  1.0
  H  H27  1  0.26435000  0.13140000  0.48029000  1.0
  H  H28  1  0.77570000  0.74429000  0.09662000  1.0
  H  H29  1  0.27570000  0.75571000  0.59662000  1.0
  H  H30  1  0.22430000  0.25571000  0.90338000  1.0
  H  H31  1  0.72430000  0.24429000  0.40338000  1.0
  H  H32  1  0.85030000  0.73249000  0.20117000  1.0
  H  H33  1  0.35030000  0.76751000  0.70117000  1.0
  H  H34  1  0.14970000  0.26751000  0.79883000  1.0
  H  H35  1  0.64971000  0.23249000  0.29883000  1.0
  H  H36  1  0.67599000  0.67343000  0.29196000  1.0
  H  H37  1  0.17598000  0.82657000  0.79196000  1.0
  H  H38  1  0.32401000  0.32657000  0.70804000  1.0
  H  H39  1  0.82402000  0.17343000  0.20804000  1.0
  H  H40  1  0.42737000  0.63172000  0.27904000  1.0
  H  H41  1  0.92736000  0.86828000  0.77905000  1.0
  H  H42  1  0.57263000  0.36829000  0.72095000  1.0
  H  H43  1  0.07264000  0.13171000  0.22096000  1.0
  H  H44  1  0.35113000  0.64676000  0.17543000  1.0
  H  H45  1  0.85112000  0.85324000  0.67543000  1.0
  H  H46  1  0.64887000  0.35325000  0.82457000  1.0
  H  H47  1  0.14888000  0.14675000  0.32457000  1.0
  H  H48  1  0.26155000  0.51215000  0.78511000  1.0
  H  H49  1  0.76155000  0.98785000  0.28510000  1.0
  H  H50  1  0.73845000  0.48785000  0.21490000  1.0
  H  H51  1  0.23846000  0.01214000  0.71489000  1.0
  H  H52  1  0.52207000  0.53993000  0.74668000  1.0
  H  H53  1  0.02207000  0.96007000  0.24668000  1.0
  H  H54  1  0.47792000  0.46007000  0.25332000  1.0
  H  H55  1  0.97793000  0.03992000  0.75331000  1.0
  H  H56  1  0.64402000  0.67218000  0.78454000  1.0
  H  H57  1  0.14402000  0.82782000  0.28454000  1.0
  H  H58  1  0.35598000  0.32782000  0.21546000  1.0
  H  H59  1  0.85599000  0.17217000  0.71546000  1.0
  H  H60  1  0.50418000  0.77661000  0.86198000  1.0
  H  H61  1  0.00418000  0.72339000  0.36198000  1.0
  H  H62  1  0.49582000  0.22339000  0.13802000  1.0
  H  H63  1  0.99582000  0.27660000  0.63802000  1.0
  H  H64  1  0.24194000  0.75005000  0.89974000  1.0
  H  H65  1  0.74194000  0.74995000  0.39974000  1.0
  H  H66  1  0.75806000  0.24995000  0.10026000  1.0
  H  H67  1  0.25807000  0.25004000  0.60026000  1.0
  H  H68  1  0.00369000  0.41847000  0.86825000  1.0
  H  H69  1  0.50369000  0.08153000  0.36825000  1.0
  H  H70  1  0.99630000  0.58153000  0.13175000  1.0
  H  H71  1  0.49630000  0.91846000  0.63176000  1.0
  H  H72  1  0.91570000  0.32037000  0.79115000  1.0
  H  H73  1  0.41570000  0.17964000  0.29115000  1.0
  H  H74  1  0.08430000  0.67963000  0.20885000  1.0
  H  H75  1  0.58429000  0.82036000  0.70886000  1.0
  H  H76  1  0.83536000  0.38782000  0.69646000  1.0
  H  H77  1  0.33536000  0.11218000  0.19646000  1.0
  H  H78  1  0.16465000  0.61218000  0.30354000  1.0
  H  H79  1  0.66465000  0.88781000  0.80354000  1.0
  H  H80  1  0.84260000  0.55084000  0.68178000  1.0
  H  H81  1  0.34260000  0.94916000  0.18177000  1.0
  H  H82  1  0.15740000  0.44916000  0.31823000  1.0
  H  H83  1  0.65742000  0.05084000  0.81822000  1.0
  H  H84  1  0.93294000  0.65103000  0.75886000  1.0
  H  H85  1  0.43294000  0.84898000  0.25886000  1.0
  H  H86  1  0.06706000  0.34898000  0.24114000  1.0
  H  H87  1  0.56708000  0.15102000  0.74114000  1.0
  H  H88  1  0.23370000  0.48716000  0.92594000  1.0
  H  H89  1  0.73371000  0.01284000  0.42594000  1.0
  H  H90  1  0.76629000  0.51285000  0.07406000  1.0
  H  H91  1  0.26630000  0.98716000  0.57406000  1.0
  H  H92  1  0.80862000  0.60330000  0.97660000  1.0
  H  H93  1  0.30863000  0.89670000  0.47660000  1.0
  H  H94  1  0.19137000  0.39670000  0.02340000  1.0
  H  H95  1  0.69139000  0.10330000  0.52339000  1.0
  H  H96  1  0.44482000  0.52429000  0.11512000  1.0
  H  H97  1  0.94482000  0.97571000  0.61512000  1.0
  H  H98  1  0.55518000  0.47571000  0.88488000  1.0
  H  H99  1  0.05518000  0.02429000  0.38488000  1.0
  H  H100  1  0.56674000  0.62805000  0.92772000  1.0
  H  H101  1  0.06675000  0.87195000  0.42772000  1.0
  H  H102  1  0.43326000  0.37195000  0.07227000  1.0
  H  H103  1  0.93326000  0.12805000  0.57227000  1.0
  Au  Au104  1  0.65731000  0.79281000  0.98386000  1.0
  Au  Au105  1  0.15731000  0.70719000  0.48386000  1.0
  Au  Au106  1  0.34269000  0.20719000  0.01614000  1.0
  Au  Au107  1  0.84269000  0.29281000  0.51614000  1.0
  Au  Au108  1  0.92356000  0.74902000  0.89031000  1.0
  Au  Au109  1  0.42355000  0.75098000  0.39031000  1.0
  Au  Au110  1  0.07644000  0.25098000  0.10969000  1.0
  Au  Au111  1  0.57645000  0.24901000  0.60969000  1.0
  C  C112  1  0.32749000  0.74189000  0.06433000  1.0
  C  C113  1  0.82749000  0.75811000  0.56433000  1.0
  C  C114  1  0.67251000  0.25811000  0.93567000  1.0
  C  C115  1  0.17251000  0.24189000  0.43567000  1.0
  C  C116  1  0.30102000  0.82626000  0.09260000  1.0
  C  C117  1  0.80102000  0.67374000  0.59260000  1.0
  C  C118  1  0.69897000  0.17374000  0.90740000  1.0
  C  C119  1  0.19897000  0.32626000  0.40740000  1.0
  C  C120  1  0.16376000  0.86431000  0.09954000  1.0
  C  C121  1  0.66376000  0.63569000  0.59954000  1.0
  C  C122  1  0.83624000  0.13569000  0.90046000  1.0
  C  C123  1  0.33623000  0.36431000  0.40046000  1.0
  C  C124  1  0.05289000  0.81965000  0.07658000  1.0
  C  C125  1  0.55289000  0.68036000  0.57658000  1.0
  C  C126  1  0.94711000  0.18036000  0.92342000  1.0
  C  C127  1  0.44711000  0.31965000  0.42342000  1.0
  C  C128  1  0.07915000  0.73615000  0.04802000  1.0
  C  C129  1  0.57915000  0.76385000  0.54802000  1.0
  C  C130  1  0.92085000  0.26385000  0.95198000  1.0
  C  C131  1  0.42085000  0.23615000  0.45198000  1.0
  C  C132  1  0.21583000  0.69654000  0.04224000  1.0
  C  C133  1  0.71583000  0.80346000  0.54224000  1.0
  C  C134  1  0.78417000  0.30346000  0.95776000  1.0
  C  C135  1  0.28417000  0.19654000  0.45776000  1.0
  C  C136  1  0.56068000  0.69416000  0.12891000  1.0
  C  C137  1  0.06068000  0.80584000  0.62891000  1.0
  C  C138  1  0.43932000  0.30584000  0.87109000  1.0
  C  C139  1  0.93932000  0.19416000  0.37109000  1.0
  C  C140  1  0.70074000  0.71856000  0.13669000  1.0
  C  C141  1  0.20074000  0.78144000  0.63670000  1.0
  C  C142  1  0.29925000  0.28144000  0.86330000  1.0
  C  C143  1  0.79926000  0.21856000  0.36330000  1.0
  C  C144  1  0.74221000  0.71162000  0.19523000  1.0
  C  C145  1  0.24221000  0.78838000  0.69523000  1.0
  C  C146  1  0.25778000  0.28838000  0.80477000  1.0
  C  C147  1  0.75779000  0.21162000  0.30477000  1.0
  C  C148  1  0.64441000  0.67896000  0.24607000  1.0
  C  C149  1  0.14440000  0.82104000  0.74607000  1.0
  C  C150  1  0.35559000  0.32104000  0.75393000  1.0
  C  C151  1  0.85560000  0.17896000  0.25393000  1.0
  C  C152  1  0.50414000  0.65518000  0.23870000  1.0
  C  C153  1  0.00413000  0.84482000  0.73870000  1.0
  C  C154  1  0.49586000  0.34483000  0.76130000  1.0
  C  C155  1  0.99587000  0.15517000  0.26130000  1.0
  C  C156  1  0.46162000  0.66353000  0.18053000  1.0
  C  C157  1  0.96162000  0.83647000  0.68053000  1.0
  C  C158  1  0.53837000  0.33647000  0.81947000  1.0
  C  C159  1  0.03838000  0.16353000  0.31947000  1.0
  C  C160  1  0.23482000  0.62916000  0.84518000  1.0
  C  C161  1  0.73482000  0.87084000  0.34517000  1.0
  C  C162  1  0.76517000  0.37084000  0.15483000  1.0
  C  C163  1  0.26518000  0.12916000  0.65482000  1.0
  C  C164  1  0.31412000  0.57010000  0.80205000  1.0
  C  C165  1  0.81412000  0.92990000  0.30204000  1.0
  C  C166  1  0.68588000  0.42990000  0.19795000  1.0
  C  C167  1  0.18589000  0.07010000  0.69795000  1.0
  C  C168  1  0.46101000  0.58598000  0.78027000  1.0
  C  C169  1  0.96101000  0.91402000  0.28027000  1.0
  C  C170  1  0.53899000  0.41402000  0.21973000  1.0
  C  C171  1  0.03900000  0.08597000  0.71973000  1.0
  C  C172  1  0.52920000  0.66030000  0.80142000  1.0
  C  C173  1  0.02920000  0.83970000  0.30142000  1.0
  C  C174  1  0.47080000  0.33970000  0.19858000  1.0
  C  C175  1  0.97081000  0.16029000  0.69858000  1.0
  C  C176  1  0.45076000  0.71909000  0.84476000  1.0
  C  C177  1  0.95076000  0.78091000  0.34476000  1.0
  C  C178  1  0.54924000  0.28091000  0.15524000  1.0
  C  C179  1  0.04924000  0.21908000  0.65524000  1.0
  C  C180  1  0.30407000  0.70372000  0.86648000  1.0
  C  C181  1  0.80407000  0.79628000  0.36648000  1.0
  C  C182  1  0.69593000  0.29628000  0.13352000  1.0
  C  C183  1  0.19594000  0.20371000  0.63352000  1.0
  C  C184  1  0.97591000  0.54118000  0.81818000  1.0
  C  C185  1  0.47590000  0.95881000  0.31818000  1.0
  C  C186  1  0.02409000  0.45882000  0.18182000  1.0
  C  C187  1  0.52410000  0.04118000  0.68182000  1.0
  C  C188  1  0.96993000  0.44811000  0.82722000  1.0
  C  C189  1  0.46993000  0.05189000  0.32722000  1.0
  C  C190  1  0.03007000  0.55189000  0.17278000  1.0
  C  C191  1  0.53007000  0.94811000  0.67279000  1.0
  C  C192  1  0.91988000  0.39272000  0.78369000  1.0
  C  C193  1  0.41988000  0.10728000  0.28369000  1.0
  C  C194  1  0.08012000  0.60728000  0.21631000  1.0
  C  C195  1  0.58011000  0.89271000  0.71632000  1.0
  C  C196  1  0.87523000  0.42972000  0.73112000  1.0
  C  C197  1  0.37523000  0.07028000  0.23112000  1.0
  C  C198  1  0.12477000  0.57028000  0.26888000  1.0
  C  C199  1  0.62478000  0.92972000  0.76888000  1.0
  C  C200  1  0.87971000  0.52253000  0.72244000  1.0
  C  C201  1  0.37971000  0.97747000  0.22244000  1.0
  C  C202  1  0.12029000  0.47747000  0.27756000  1.0
  C  C203  1  0.62030000  0.02253000  0.77756000  1.0
  C  C204  1  0.92973000  0.57845000  0.76553000  1.0
  C  C205  1  0.42973000  0.92155000  0.26553000  1.0
  C  C206  1  0.07027000  0.42155000  0.23447000  1.0
  C  C207  1  0.57028000  0.07845000  0.73447000  1.0
  C  C208  1  0.02283000  0.55048000  0.94469000  1.0
  C  C209  1  0.52284000  0.94952000  0.44469000  1.0
  C  C210  1  0.97716000  0.44952000  0.05531000  1.0
  C  C211  1  0.47717000  0.05048000  0.55531000  1.0
  C  C212  1  0.13143000  0.49304000  0.95826000  1.0
  C  C213  1  0.63143000  0.00696000  0.45826000  1.0
  C  C214  1  0.86857000  0.50697000  0.04174000  1.0
  C  C215  1  0.36858000  0.99303000  0.54174000  1.0
  C  C216  1  0.89178000  0.55718000  0.98679000  1.0
  C  C217  1  0.39179000  0.94282000  0.48679000  1.0
  C  C218  1  0.10821000  0.44282000  0.01321000  1.0
  C  C219  1  0.60822000  0.05718000  0.51321000  1.0
  C  C220  1  0.50505000  0.58714000  0.02407000  1.0
  C  C221  1  0.00505000  0.91286000  0.52407000  1.0
  C  C222  1  0.49494000  0.41286000  0.97593000  1.0
  C  C223  1  0.99495000  0.08714000  0.47593000  1.0
  C  C224  1  0.46866000  0.51444000  0.06466000  1.0
  C  C225  1  0.96866000  0.98556000  0.56466000  1.0
  C  C226  1  0.53134000  0.48556000  0.93534000  1.0
  C  C227  1  0.03135000  0.01444000  0.43534000  1.0
  C  C228  1  0.53663000  0.57180000  0.95938000  1.0
  C  C229  1  0.03664000  0.92820000  0.45938000  1.0
  C  C230  1  0.46336000  0.42820000  0.04062000  1.0
  C  C231  1  0.96337000  0.07180000  0.54062000  1.0
  Se  Se232  1  0.80474000  0.89256000  0.91152000  1.0
  Se  Se233  1  0.30474000  0.60744000  0.41152000  1.0
  Se  Se234  1  0.19526000  0.10744000  0.08848000  1.0
  Se  Se235  1  0.69526000  0.39256000  0.58848000  1.0
