# generated using pymatgen
data_H15PbC20(NO3)2
_symmetry_space_group_name_H-M   'P 1'
_cell_length_a   9.85146000
_cell_length_b   9.95840000
_cell_length_c   11.34470000
_cell_angle_alpha   65.30010000
_cell_angle_beta   84.44600000
_cell_angle_gamma   67.78160000
_symmetry_Int_Tables_number   1
_chemical_formula_structural   H15PbC20(NO3)2
_chemical_formula_sum   'H30 Pb2 C40 N4 O12'
_cell_volume   933.58070204
_cell_formula_units_Z   2
loop_
 _symmetry_equiv_pos_site_id
 _symmetry_equiv_pos_as_xyz
  1  'x, y, z'
loop_
 _atom_site_type_symbol
 _atom_site_label
 _atom_site_symmetry_multiplicity
 _atom_site_fract_x
 _atom_site_fract_y
 _atom_site_fract_z
 _atom_site_occupancy
  H  H0  1  0.27291000  0.36059000  0.19408000  1.0
  H  H1  1  0.72710000  0.63941000  0.80593000  1.0
  H  H2  1  0.07695000  0.75553000  0.82679000  1.0
  H  H3  1  0.92306000  0.24446000  0.17322000  1.0
  H  H4  1  0.82946000  0.69301000  0.16850000  1.0
  H  H5  1  0.17054000  0.30698000  0.83150000  1.0
  H  H6  1  0.31261000  0.69132000  0.78910000  1.0
  H  H7  1  0.68739000  0.30868000  0.21090000  1.0
  H  H8  1  0.23891000  0.56914000  0.76194000  1.0
  H  H9  1  0.76109000  0.43086000  0.23806000  1.0
  H  H10  1  0.42877000  0.63662000  0.57812000  1.0
  H  H11  1  0.57123000  0.36338000  0.42188000  1.0
  H  H12  1  0.67796000  0.49402000  0.52010000  1.0
  H  H13  1  0.32204000  0.50599000  0.47990000  1.0
  H  H14  1  0.79931000  0.16561000  0.90224000  1.0
  H  H15  1  0.20068000  0.83439000  0.09776000  1.0
  H  H16  1  0.55766000  0.29680000  0.97635000  1.0
  H  H17  1  0.44234000  0.70320000  0.02365000  1.0
  H  H18  1  0.85081000  0.82334000  0.75818000  1.0
  H  H19  1  0.14919000  0.17667000  0.24182000  1.0
  H  H20  1  0.84023000  0.01546000  0.73535000  1.0
  H  H21  1  0.15977000  0.98454000  0.26466000  1.0
  H  H22  1  0.65749000  0.08554000  0.54368000  1.0
  H  H23  1  0.34252000  0.91447000  0.45632000  1.0
  H  H24  1  0.38641000  0.18957000  0.48723000  1.0
  H  H25  1  0.61360000  0.81043000  0.51277000  1.0
  H  H26  1  0.30020000  0.01508000  0.87514000  1.0
  H  H27  1  0.69980000  0.98492000  0.12485000  1.0
  H  H28  1  0.56666000  0.90162000  0.94804000  1.0
  H  H29  1  0.43333000  0.09838000  0.05196000  1.0
  Pb  Pb30  1  0.03646000  0.22780000  0.61677000  1.0
  Pb  Pb31  1  0.96355000  0.77220000  0.38323000  1.0
  C  C32  1  0.03844000  0.42938000  0.33737000  1.0
  C  C33  1  0.96155000  0.57062000  0.66264000  1.0
  C  C34  1  0.05138000  0.51986000  0.19603000  1.0
  C  C35  1  0.94861000  0.48014000  0.80398000  1.0
  C  C36  1  0.17934000  0.46598000  0.13733000  1.0
  C  C37  1  0.82066000  0.53401000  0.86268000  1.0
  C  C38  1  0.18718000  0.55009000  0.00430000  1.0
  C  C39  1  0.81281000  0.44990000  0.99570000  1.0
  C  C40  1  0.06926000  0.68830000  0.92966000  1.0
  C  C41  1  0.93074000  0.31169000  0.07034000  1.0
  C  C42  1  0.94096000  0.73825000  0.99057000  1.0
  C  C43  1  0.05903000  0.26175000  0.00944000  1.0
  C  C44  1  0.93152000  0.65624000  0.12340000  1.0
  C  C45  1  0.06849000  0.34375000  0.87661000  1.0
  C  C46  1  0.32686000  0.56604000  0.81760000  1.0
  C  C47  1  0.67314000  0.43395000  0.18240000  1.0
  C  C48  1  0.47403000  0.47787000  0.78263000  1.0
  C  C49  1  0.52597000  0.52212000  0.21737000  1.0
  C  C50  1  0.50897000  0.53296000  0.65267000  1.0
  C  C51  1  0.49103000  0.46704000  0.34733000  1.0
  C  C52  1  0.64651000  0.45327000  0.62027000  1.0
  C  C53  1  0.35349000  0.54673000  0.37973000  1.0
  C  C54  1  0.71426000  0.27066000  0.83260000  1.0
  C  C55  1  0.28573000  0.72934000  0.16739000  1.0
  C  C56  1  0.57956000  0.34289000  0.87419000  1.0
  C  C57  1  0.42043000  0.65711000  0.12581000  1.0
  C  C58  1  0.79528000  0.92207000  0.78800000  1.0
  C  C59  1  0.20472000  0.07793000  0.21200000  1.0
  C  C60  1  0.63358000  0.98684000  0.75148000  1.0
  C  C61  1  0.36642000  0.01317000  0.24852000  1.0
  C  C62  1  0.58175000  0.06773000  0.62020000  1.0
  C  C63  1  0.41825000  0.93228000  0.37981000  1.0
  C  C64  1  0.43154000  0.12570000  0.58827000  1.0
  C  C65  1  0.56846000  0.87431000  0.41173000  1.0
  C  C66  1  0.38291000  0.02820000  0.80401000  1.0
  C  C67  1  0.61709000  0.97180000  0.19599000  1.0
  C  C68  1  0.53110000  0.96581000  0.84503000  1.0
  C  C69  1  0.46890000  0.03420000  0.15497000  1.0
  C  C70  1  0.92646000  0.06762000  0.46079000  1.0
  C  C71  1  0.07355000  0.93238000  0.53920000  1.0
  N  N72  1  0.33298000  0.10754000  0.67839000  1.0
  N  N73  1  0.66702000  0.89247000  0.32161000  1.0
  N  N74  1  0.74846000  0.32374000  0.70842000  1.0
  N  N75  1  0.25153000  0.67626000  0.29157000  1.0
  O  O76  1  0.86860000  0.18596000  0.48967000  1.0
  O  O77  1  0.13141000  0.81402000  0.51033000  1.0
  O  O78  1  0.87303000  0.05020000  0.37289000  1.0
  O  O79  1  0.12699000  0.94980000  0.62709000  1.0
  O  O80  1  0.93067000  0.49407000  0.39282000  1.0
  O  O81  1  0.06932000  0.50593000  0.60718000  1.0
  O  O82  1  0.13592000  0.28985000  0.39740000  1.0
  O  O83  1  0.86407000  0.71015000  0.60260000  1.0
  O  O84  1  0.81746000  0.86785000  0.92577000  1.0
  O  O85  1  0.18255000  0.13214000  0.07424000  1.0
  O  O86  1  0.31575000  0.48863000  0.95429000  1.0
  O  O87  1  0.68425000  0.51136000  0.04571000  1.0
