# generated using pymatgen
data_NiH7C6O5
_symmetry_space_group_name_H-M   'P 1'
_cell_length_a   13.61060000
_cell_length_b   15.55250000
_cell_length_c   15.55230000
_cell_angle_alpha   111.85600000
_cell_angle_beta   106.95800000
_cell_angle_gamma   106.96500000
_symmetry_Int_Tables_number   1
_chemical_formula_structural   NiH7C6O5
_chemical_formula_sum   'Ni12 H84 C72 O60'
_cell_volume   2608.52202498
_cell_formula_units_Z   12
loop_
 _symmetry_equiv_pos_site_id
 _symmetry_equiv_pos_as_xyz
  1  'x, y, z'
loop_
 _atom_site_type_symbol
 _atom_site_label
 _atom_site_symmetry_multiplicity
 _atom_site_fract_x
 _atom_site_fract_y
 _atom_site_fract_z
 _atom_site_occupancy
  Ni  Ni0  1  0.69628000  0.26831000  0.58847000  1.0
  Ni  Ni1  1  0.10780000  0.41149000  0.67979000  1.0
  Ni  Ni2  1  0.42800000  0.32015000  0.73174000  1.0
  Ni  Ni3  1  0.30372000  0.73169000  0.41152000  1.0
  Ni  Ni4  1  0.89220000  0.58851000  0.32021000  1.0
  Ni  Ni5  1  0.57200000  0.67985000  0.26826000  1.0
  Ni  Ni6  1  0.92726000  0.31991000  0.73602000  1.0
  Ni  Ni7  1  0.19126000  0.26394000  0.58387000  1.0
  Ni  Ni8  1  0.60743000  0.41616000  0.68013000  1.0
  Ni  Ni9  1  0.07274000  0.68009000  0.26398000  1.0
  Ni  Ni10  1  0.80875000  0.73606000  0.41613000  1.0
  Ni  Ni11  1  0.39257000  0.58384000  0.31987000  1.0
  H  H12  1  0.95822000  0.56028000  0.54046000  1.0
  H  H13  1  0.41785000  0.45956000  0.01974000  1.0
  H  H14  1  0.39808000  0.98029000  0.43988000  1.0
  H  H15  1  0.04179000  0.43973000  0.45954000  1.0
  H  H16  1  0.58215000  0.54044000  0.98026000  1.0
  H  H17  1  0.60191000  0.01971000  0.56012000  1.0
  H  H18  1  0.54935000  0.44478000  0.46303000  1.0
  H  H19  1  0.08626000  0.53676000  0.98155000  1.0
  H  H20  1  0.10454000  0.01836000  0.55514000  1.0
  H  H21  1  0.45066000  0.55522000  0.53698000  1.0
  H  H22  1  0.91374000  0.46324000  0.01845000  1.0
  H  H23  1  0.89546000  0.98165000  0.44487000  1.0
  H  H24  1  0.73750000  0.15325000  0.45375000  1.0
  H  H25  1  0.28374000  0.54610000  0.69943000  1.0
  H  H26  1  0.58419000  0.30044000  0.84670000  1.0
  H  H27  1  0.26250000  0.84675000  0.54624000  1.0
  H  H28  1  0.71627000  0.45390000  0.30057000  1.0
  H  H29  1  0.41581000  0.69956000  0.15330000  1.0
  H  H30  1  0.52841000  0.27095000  0.43218000  1.0
  H  H31  1  0.09621000  0.56782000  0.83878000  1.0
  H  H32  1  0.25735000  0.16122000  0.72896000  1.0
  H  H33  1  0.47159000  0.72905000  0.56782000  1.0
  H  H34  1  0.90378000  0.43218000  0.16122000  1.0
  H  H35  1  0.74265000  0.83878000  0.27104000  1.0
  H  H36  1  0.53187000  0.06760000  0.35144000  1.0
  H  H37  1  0.18041000  0.64841000  0.71608000  1.0
  H  H38  1  0.46422000  0.28394000  0.93238000  1.0
  H  H39  1  0.46813000  0.93239000  0.64856000  1.0
  H  H40  1  0.81959000  0.35159000  0.28391000  1.0
  H  H41  1  0.53578000  0.71606000  0.06762000  1.0
  H  H42  1  0.61863000  0.08353000  0.28513000  1.0
  H  H43  1  0.33349000  0.71469000  0.79825000  1.0
  H  H44  1  0.53495000  0.20162000  0.91649000  1.0
  H  H45  1  0.38137000  0.91647000  0.71487000  1.0
  H  H46  1  0.66651000  0.28532000  0.20175000  1.0
  H  H47  1  0.46505000  0.79838000  0.08351000  1.0
  H  H48  1  0.48099000  0.13646000  0.22523000  1.0
  H  H49  1  0.25585000  0.77470000  0.91108000  1.0
  H  H50  1  0.34440000  0.08889000  0.86361000  1.0
  H  H51  1  0.51900000  0.86353000  0.77477000  1.0
  H  H52  1  0.74414000  0.22530000  0.08892000  1.0
  H  H53  1  0.65560000  0.91111000  0.13639000  1.0
  H  H54  1  0.60937000  0.25365000  0.31884000  1.0
  H  H55  1  0.29057000  0.68111000  0.93474000  1.0
  H  H56  1  0.35567000  0.06523000  0.74644000  1.0
  H  H57  1  0.39063000  0.74634000  0.68115000  1.0
  H  H58  1  0.70942000  0.31889000  0.06526000  1.0
  H  H59  1  0.64433000  0.93477000  0.25356000  1.0
  H  H60  1  0.93462000  0.23182000  0.85071000  1.0
  H  H61  1  0.08384000  0.14927000  0.38095000  1.0
  H  H62  1  0.70298000  0.61900000  0.76830000  1.0
  H  H63  1  0.06538000  0.76818000  0.14929000  1.0
  H  H64  1  0.91616000  0.85073000  0.61905000  1.0
  H  H65  1  0.29702000  0.38100000  0.23170000  1.0
  H  H66  1  0.97801000  0.05809000  0.88263000  1.0
  H  H67  1  0.09539000  0.11740000  0.17545000  1.0
  H  H68  1  0.91992000  0.82449000  0.94193000  1.0
  H  H69  1  0.02199000  0.94191000  0.11737000  1.0
  H  H70  1  0.90461000  0.88260000  0.82455000  1.0
  H  H71  1  0.08008000  0.17551000  0.05807000  1.0
  H  H72  1  0.10095000  0.21536000  0.77609000  1.0
  H  H73  1  0.32480000  0.22394000  0.43923000  1.0
  H  H74  1  0.88562000  0.56068000  0.78468000  1.0
  H  H75  1  0.89905000  0.78464000  0.22391000  1.0
  H  H76  1  0.67520000  0.77606000  0.56077000  1.0
  H  H77  1  0.11438000  0.43932000  0.21532000  1.0
  H  H78  1  0.97226000  0.10646000  0.73659000  1.0
  H  H79  1  0.23573000  0.26347000  0.36976000  1.0
  H  H80  1  0.86593000  0.63011000  0.89364000  1.0
  H  H81  1  0.02774000  0.89354000  0.26341000  1.0
  H  H82  1  0.76427000  0.73653000  0.63024000  1.0
  H  H83  1  0.13407000  0.36989000  0.10636000  1.0
  H  H84  1  0.14655000  0.13360000  0.87809000  1.0
  H  H85  1  0.26849000  0.12192000  0.25547000  1.0
  H  H86  1  0.01308000  0.74455000  0.86651000  1.0
  H  H87  1  0.85344000  0.86640000  0.12192000  1.0
  H  H88  1  0.73151000  0.87808000  0.74453000  1.0
  H  H89  1  0.98692000  0.25545000  0.13349000  1.0
  H  H90  1  0.16162000  0.25764000  0.96060000  1.0
  H  H91  1  0.20103000  0.03942000  0.29703000  1.0
  H  H92  1  0.90408000  0.70295000  0.74242000  1.0
  H  H93  1  0.83839000  0.74236000  0.03940000  1.0
  H  H94  1  0.79897000  0.96058000  0.70297000  1.0
  H  H95  1  0.09592000  0.29705000  0.25758000  1.0
  C  C96  1  0.89784000  0.43395000  0.61030000  1.0
  C  C97  1  0.28760000  0.38970000  0.82361000  1.0
  C  C98  1  0.46402000  0.17638000  0.56615000  1.0
  C  C99  1  0.10216000  0.56605000  0.38970000  1.0
  C  C100  1  0.71240000  0.61030000  0.17639000  1.0
  C  C101  1  0.53598000  0.82362000  0.43385000  1.0
  C  C102  1  0.70114000  0.43167000  0.53119000  1.0
  C  C103  1  0.16998000  0.46870000  0.90038000  1.0
  C  C104  1  0.26945000  0.09959000  0.56824000  1.0
  C  C105  1  0.29886000  0.56833000  0.46881000  1.0
  C  C106  1  0.83002000  0.53130000  0.09962000  1.0
  C  C107  1  0.73055000  0.90041000  0.43176000  1.0
  C  C108  1  0.81967000  0.46539000  0.55360000  1.0
  C  C109  1  0.26613000  0.44635000  0.91170000  1.0
  C  C110  1  0.35432000  0.08828000  0.53460000  1.0
  C  C111  1  0.18034000  0.53462000  0.44640000  1.0
  C  C112  1  0.73387000  0.55365000  0.08830000  1.0
  C  C113  1  0.64568000  0.91172000  0.46540000  1.0
  C  C114  1  0.86805000  0.53492000  0.52368000  1.0
  C  C115  1  0.34443000  0.47627000  0.01115000  1.0
  C  C116  1  0.33322000  0.98885000  0.46513000  1.0
  C  C117  1  0.13195000  0.46508000  0.47632000  1.0
  C  C118  1  0.65556000  0.52373000  0.98885000  1.0
  C  C119  1  0.66678000  0.01115000  0.53487000  1.0
  C  C120  1  0.80665000  0.57392000  0.47209000  1.0
  C  C121  1  0.33459000  0.52786000  0.10171000  1.0
  C  C122  1  0.23281000  0.89826000  0.42614000  1.0
  C  C123  1  0.19335000  0.42608000  0.52791000  1.0
  C  C124  1  0.66541000  0.47214000  0.89829000  1.0
  C  C125  1  0.76719000  0.10174000  0.57386000  1.0
  C  C126  1  0.68703000  0.53798000  0.44822000  1.0
  C  C127  1  0.23879000  0.55167000  0.08964000  1.0
  C  C128  1  0.14907000  0.91035000  0.46199000  1.0
  C  C129  1  0.31297000  0.46202000  0.55178000  1.0
  C  C130  1  0.76121000  0.44833000  0.91037000  1.0
  C  C131  1  0.85093000  0.08965000  0.53801000  1.0
  C  C132  1  0.63942000  0.46967000  0.47962000  1.0
  C  C133  1  0.15978000  0.52023000  0.98991000  1.0
  C  C134  1  0.16971000  0.01006000  0.53022000  1.0
  C  C135  1  0.36058000  0.53033000  0.52038000  1.0
  C  C136  1  0.84022000  0.47977000  0.01009000  1.0
  C  C137  1  0.83029000  0.98994000  0.46979000  1.0
  C  C138  1  0.60724000  0.56758000  0.39115000  1.0
  C  C139  1  0.21610000  0.60878000  0.17631000  1.0
  C  C140  1  0.03973000  0.82365000  0.43240000  1.0
  C  C141  1  0.39275000  0.43242000  0.60885000  1.0
  C  C142  1  0.78390000  0.39123000  0.82369000  1.0
  C  C143  1  0.96027000  0.17635000  0.56760000  1.0
  C  C144  1  0.59344000  0.12428000  0.34318000  1.0
  C  C145  1  0.25024000  0.65664000  0.78099000  1.0
  C  C146  1  0.46904000  0.21895000  0.87572000  1.0
  C  C147  1  0.40656000  0.87571000  0.65681000  1.0
  C  C148  1  0.74976000  0.34336000  0.21901000  1.0
  C  C149  1  0.53096000  0.78105000  0.12428000  1.0
  C  C150  1  0.54011000  0.18633000  0.30885000  1.0
  C  C151  1  0.23131000  0.69106000  0.87738000  1.0
  C  C152  1  0.35368000  0.12260000  0.81369000  1.0
  C  C153  1  0.45988000  0.81367000  0.69115000  1.0
  C  C154  1  0.76869000  0.30893000  0.12262000  1.0
  C  C155  1  0.64632000  0.87740000  0.18630000  1.0
  C  C156  1  0.03868000  0.18419000  0.80119000  1.0
  C  C157  1  0.23746000  0.19885000  0.38290000  1.0
  C  C158  1  0.85461000  0.61701000  0.81591000  1.0
  C  C159  1  0.96133000  0.81581000  0.19881000  1.0
  C  C160  1  0.76254000  0.80115000  0.61710000  1.0
  C  C161  1  0.14539000  0.38299000  0.18409000  1.0
  C  C162  1  0.09926000  0.17879000  0.89617000  1.0
  C  C163  1  0.20310000  0.10384000  0.28256000  1.0
  C  C164  1  0.92059000  0.71741000  0.82129000  1.0
  C  C165  1  0.90074000  0.82121000  0.10383000  1.0
  C  C166  1  0.79690000  0.89616000  0.71744000  1.0
  C  C167  1  0.07941000  0.28259000  0.17871000  1.0
  O  O168  1  0.85855000  0.37964000  0.64918000  1.0
  O  O169  1  0.20939000  0.35079000  0.73043000  1.0
  O  O170  1  0.47908000  0.26957000  0.62054000  1.0
  O  O171  1  0.14146000  0.62036000  0.35082000  1.0
  O  O172  1  0.79061000  0.64921000  0.26957000  1.0
  O  O173  1  0.52092000  0.73043000  0.37946000  1.0
  O  O174  1  0.64138000  0.36362000  0.55328000  1.0
  O  O175  1  0.08817000  0.44667000  0.81028000  1.0
  O  O176  1  0.27778000  0.18971000  0.63633000  1.0
  O  O177  1  0.35863000  0.63638000  0.44672000  1.0
  O  O178  1  0.91183000  0.55334000  0.18972000  1.0
  O  O179  1  0.72222000  0.81029000  0.36367000  1.0
  O  O180  1  0.00016000  0.46395000  0.62155000  1.0
  O  O181  1  0.37868000  0.37849000  0.84235000  1.0
  O  O182  1  0.53632000  0.15761000  0.53616000  1.0
  O  O183  1  0.99985000  0.53606000  0.37846000  1.0
  O  O184  1  0.62131000  0.62151000  0.15765000  1.0
  O  O185  1  0.46368000  0.84239000  0.46383000  1.0
  O  O186  1  0.86429000  0.64073000  0.44864000  1.0
  O  O187  1  0.41565000  0.55137000  0.19201000  1.0
  O  O188  1  0.22363000  0.80799000  0.35937000  1.0
  O  O189  1  0.13571000  0.35928000  0.55136000  1.0
  O  O190  1  0.58435000  0.44863000  0.80799000  1.0
  O  O191  1  0.77636000  0.19201000  0.64062000  1.0
  O  O192  1  0.50353000  0.53279000  0.37628000  1.0
  O  O193  1  0.12732000  0.62374000  0.15642000  1.0
  O  O194  1  0.97079000  0.84355000  0.46718000  1.0
  O  O195  1  0.49647000  0.46720000  0.62372000  1.0
  O  O196  1  0.87268000  0.37627000  0.84358000  1.0
  O  O197  1  0.02922000  0.15645000  0.53281000  1.0
  O  O198  1  0.64736000  0.62693000  0.35726000  1.0
  O  O199  1  0.29007000  0.64266000  0.26956000  1.0
  O  O200  1  0.02049000  0.73040000  0.37310000  1.0
  O  O201  1  0.35264000  0.37307000  0.64275000  1.0
  O  O202  1  0.70993000  0.35734000  0.73044000  1.0
  O  O203  1  0.97951000  0.26960000  0.62690000  1.0
  O  O204  1  0.69701000  0.19357000  0.44147000  1.0
  O  O205  1  0.25547000  0.55835000  0.75198000  1.0
  O  O206  1  0.50337000  0.24788000  0.80641000  1.0
  O  O207  1  0.30299000  0.80643000  0.55852000  1.0
  O  O208  1  0.74453000  0.44165000  0.24802000  1.0
  O  O209  1  0.49663000  0.75212000  0.19359000  1.0
  O  O210  1  0.47446000  0.21784000  0.35826000  1.0
  O  O211  1  0.11628000  0.64176000  0.85958000  1.0
  O  O212  1  0.25647000  0.14039000  0.78206000  1.0
  O  O213  1  0.52554000  0.78216000  0.64175000  1.0
  O  O214  1  0.88372000  0.35824000  0.14041000  1.0
  O  O215  1  0.74353000  0.85962000  0.21794000  1.0
  O  O216  1  0.98806000  0.25457000  0.82445000  1.0
  O  O217  1  0.16354000  0.17565000  0.43001000  1.0
  O  O218  1  0.73360000  0.56994000  0.74555000  1.0
  O  O219  1  0.01194000  0.74543000  0.17555000  1.0
  O  O220  1  0.83646000  0.82434000  0.56999000  1.0
  O  O221  1  0.26641000  0.43006000  0.25445000  1.0
  O  O222  1  0.01954000  0.13546000  0.93012000  1.0
  O  O223  1  0.08944000  0.06987000  0.20530000  1.0
  O  O224  1  0.88412000  0.79462000  0.86455000  1.0
  O  O225  1  0.98046000  0.86454000  0.06988000  1.0
  O  O226  1  0.91055000  0.93013000  0.79470000  1.0
  O  O227  1  0.11588000  0.20538000  0.13545000  1.0
