# generated using pymatgen
data_FeH8(C3N)4
_symmetry_space_group_name_H-M   'P 1'
_cell_length_a   5.59654000
_cell_length_b   13.10275253
_cell_length_c   13.10277769
_cell_angle_alpha   92.51863108
_cell_angle_beta   96.25503404
_cell_angle_gamma   96.25371199
_symmetry_Int_Tables_number   1
_chemical_formula_structural   FeH8(C3N)4
_chemical_formula_sum   'Fe2 H16 C24 N8'
_cell_volume   947.90840819
_cell_formula_units_Z   2
loop_
 _symmetry_equiv_pos_site_id
 _symmetry_equiv_pos_as_xyz
  1  'x, y, z'
loop_
 _atom_site_type_symbol
 _atom_site_label
 _atom_site_symmetry_multiplicity
 _atom_site_fract_x
 _atom_site_fract_y
 _atom_site_fract_z
 _atom_site_occupancy
  Fe  Fe0  1  0.75000000  0.47322000  0.52677000  1.0
  Fe  Fe1  1  0.25001000  0.52677000  0.47323000  1.0
  H  H2  1  0.45566000  0.40994000  0.29346000  1.0
  H  H3  1  0.04438000  0.70654000  0.59006000  1.0
  H  H4  1  0.54433000  0.58999000  0.70657000  1.0
  H  H5  1  0.95571000  0.29343000  0.41001000  1.0
  H  H6  1  0.11285000  0.58093000  0.21365000  1.0
  H  H7  1  0.38716000  0.78635000  0.41909000  1.0
  H  H8  1  0.88693000  0.41919000  0.78639000  1.0
  H  H9  1  0.61304000  0.21360000  0.58086000  1.0
  H  H10  1  0.10997000  0.39131000  0.94895000  1.0
  H  H11  1  0.39002000  0.05104000  0.60870000  1.0
  H  H12  1  0.88984000  0.60876000  0.05109000  1.0
  H  H13  1  0.61017000  0.94889000  0.39124000  1.0
  H  H14  1  0.31460000  0.38669000  0.12355000  1.0
  H  H15  1  0.18542000  0.87643000  0.61331000  1.0
  H  H16  1  0.68522000  0.61340000  0.87649000  1.0
  H  H17  1  0.81476000  0.12350000  0.38661000  1.0
  C  C18  1  0.63354000  0.45101000  0.28990000  1.0
  C  C19  1  0.86647000  0.71009000  0.54899000  1.0
  C  C20  1  0.36645000  0.54896000  0.71009000  1.0
  C  C21  1  0.13357000  0.28990000  0.45104000  1.0
  C  C22  1  0.96811000  0.53982000  0.24972000  1.0
  C  C23  1  0.53188000  0.75028000  0.46019000  1.0
  C  C24  1  0.03178000  0.46023000  0.75033000  1.0
  C  C25  1  0.46821000  0.24967000  0.53978000  1.0
  C  C26  1  0.73584000  0.49544000  0.20647000  1.0
  C  C27  1  0.76415000  0.79352000  0.50456000  1.0
  C  C28  1  0.26410000  0.50458000  0.79354000  1.0
  C  C29  1  0.23589000  0.20646000  0.49542000  1.0
  C  C30  1  0.61900000  0.49730000  0.10158000  1.0
  C  C31  1  0.88100000  0.89843000  0.50271000  1.0
  C  C32  1  0.38087000  0.50276000  0.89844000  1.0
  C  C33  1  0.11912000  0.10155000  0.49725000  1.0
  C  C34  1  0.28058000  0.43972000  0.97087000  1.0
  C  C35  1  0.21941000  0.02913000  0.56029000  1.0
  C  C36  1  0.71924000  0.56037000  0.02918000  1.0
  C  C37  1  0.78073000  0.97082000  0.43963000  1.0
  C  C38  1  0.39695000  0.43704000  0.06979000  1.0
  C  C39  1  0.10304000  0.93021000  0.56296000  1.0
  C  C40  1  0.60289000  0.56302000  0.93026000  1.0
  C  C41  1  0.89710000  0.06973000  0.43699000  1.0
  N  N42  1  0.79183000  0.46870000  0.37566000  1.0
  N  N43  1  0.70818000  0.62433000  0.53130000  1.0
  N  N44  1  0.20825000  0.53129000  0.62434000  1.0
  N  N45  1  0.29176000  0.37565000  0.46872000  1.0
  N  N46  1  0.99829000  0.52344000  0.35095000  1.0
  N  N47  1  0.50170000  0.64904000  0.47656000  1.0
  N  N48  1  0.00176000  0.47660000  0.64907000  1.0
  N  N49  1  0.49825000  0.35092000  0.52342000  1.0
