# generated using pymatgen
data_Cu3H21WC27S3BrN7O
_symmetry_space_group_name_H-M   'P 1'
_cell_length_a   9.25855000
_cell_length_b   19.36180000
_cell_length_c   23.85330000
_cell_angle_alpha   85.73540000
_cell_angle_beta   78.79460000
_cell_angle_gamma   76.15650000
_symmetry_Int_Tables_number   1
_chemical_formula_structural   Cu3H21WC27S3BrN7O
_chemical_formula_sum   'Cu12 H84 W4 C108 S12 Br4 N28 O4'
_cell_volume   4070.89998161
_cell_formula_units_Z   4
loop_
 _symmetry_equiv_pos_site_id
 _symmetry_equiv_pos_as_xyz
  1  'x, y, z'
loop_
 _atom_site_type_symbol
 _atom_site_label
 _atom_site_symmetry_multiplicity
 _atom_site_fract_x
 _atom_site_fract_y
 _atom_site_fract_z
 _atom_site_occupancy
  Cu  Cu0  1  0.14824000  0.23888000  0.45709000  1.0
  Cu  Cu1  1  0.34449000  0.26091000  0.04278000  1.0
  Cu  Cu2  1  0.85176000  0.76112000  0.54291000  1.0
  Cu  Cu3  1  0.65552000  0.73910000  0.95721000  1.0
  Cu  Cu4  1  0.13465000  0.09626000  0.37247000  1.0
  Cu  Cu5  1  0.10342000  0.40364000  0.12740000  1.0
  Cu  Cu6  1  0.86534000  0.90374000  0.62753000  1.0
  Cu  Cu7  1  0.89657000  0.59636000  0.87259000  1.0
  Cu  Cu8  1  0.04550000  0.26966000  0.31843000  1.0
  Cu  Cu9  1  0.13346000  0.23015000  0.18146000  1.0
  Cu  Cu10  1  0.95449000  0.73034000  0.68157000  1.0
  Cu  Cu11  1  0.86654000  0.76985000  0.81854000  1.0
  H  H12  1  0.00224000  0.02818000  0.80710000  1.0
  H  H13  1  0.33757000  0.47212000  0.69291000  1.0
  H  H14  1  0.99776000  0.97183000  0.19290000  1.0
  H  H15  1  0.66242000  0.52788000  0.30710000  1.0
  H  H16  1  0.06694000  0.13853000  0.76166000  1.0
  H  H17  1  0.46748000  0.36185000  0.73837000  1.0
  H  H18  1  0.93305000  0.86147000  0.23834000  1.0
  H  H19  1  0.53252000  0.63815000  0.26164000  1.0
  H  H20  1  0.49990000  0.01625000  0.67914000  1.0
  H  H21  1  0.69565000  0.48432000  0.82064000  1.0
  H  H22  1  0.50009000  0.98375000  0.32086000  1.0
  H  H23  1  0.30437000  0.51568000  0.17936000  1.0
  H  H24  1  0.43099000  0.90567000  0.72197000  1.0
  H  H25  1  0.55881000  0.59483000  0.77775000  1.0
  H  H26  1  0.56901000  0.09432000  0.27803000  1.0
  H  H27  1  0.44121000  0.40517000  0.22224000  1.0
  H  H28  1  0.93633000  0.92065000  0.78109000  1.0
  H  H29  1  0.13808000  0.57960000  0.71892000  1.0
  H  H30  1  0.06367000  0.07934000  0.21891000  1.0
  H  H31  1  0.86193000  0.42040000  0.28108000  1.0
  H  H32  1  0.21412000  0.73021000  0.83423000  1.0
  H  H33  1  0.27806000  0.77011000  0.66559000  1.0
  H  H34  1  0.78589000  0.26979000  0.16577000  1.0
  H  H35  1  0.72192000  0.22990000  0.33441000  1.0
  H  H36  1  0.90181000  0.15599000  0.49407000  1.0
  H  H37  1  0.05191000  0.34399000  0.00600000  1.0
  H  H38  1  0.09819000  0.84402000  0.50593000  1.0
  H  H39  1  0.94810000  0.65601000  0.99400000  1.0
  H  H40  1  0.81403000  0.09442000  0.34043000  1.0
  H  H41  1  0.74845000  0.40546000  0.15962000  1.0
  H  H42  1  0.18596000  0.90558000  0.65957000  1.0
  H  H43  1  0.25155000  0.59454000  0.84038000  1.0
  H  H44  1  0.55365000  0.10659000  0.42282000  1.0
  H  H45  1  0.58291000  0.39330000  0.07716000  1.0
  H  H46  1  0.44634000  0.89341000  0.57718000  1.0
  H  H47  1  0.41710000  0.60669000  0.92283000  1.0
  H  H48  1  0.48010000  0.06431000  0.51057000  1.0
  H  H49  1  0.55516000  0.43588000  0.98944000  1.0
  H  H50  1  0.51989000  0.93569000  0.48942000  1.0
  H  H51  1  0.44486000  0.56410000  0.01056000  1.0
  H  H52  1  0.69681000  0.21908000  0.55913000  1.0
  H  H53  1  0.97499000  0.28087000  0.94081000  1.0
  H  H54  1  0.30318000  0.78093000  0.44087000  1.0
  H  H55  1  0.02502000  0.71912000  0.05918000  1.0
  H  H56  1  0.53536000  0.22361000  0.65499000  1.0
  H  H57  1  0.91408000  0.27658000  0.84493000  1.0
  H  H58  1  0.46464000  0.77639000  0.34501000  1.0
  H  H59  1  0.08593000  0.72342000  0.15506000  1.0
  H  H60  1  0.31062000  0.07349000  0.60444000  1.0
  H  H61  1  0.48897000  0.42700000  0.89550000  1.0
  H  H62  1  0.68938000  0.92652000  0.39556000  1.0
  H  H63  1  0.51105000  0.57300000  0.10450000  1.0
  H  H64  1  0.10426000  0.48314000  0.94151000  1.0
  H  H65  1  0.02873000  0.01696000  0.55860000  1.0
  H  H66  1  0.89573000  0.51686000  0.05849000  1.0
  H  H67  1  0.97126000  0.98304000  0.44140000  1.0
  H  H68  1  0.97597000  0.46338000  0.78442000  1.0
  H  H69  1  0.72377000  0.03674000  0.71578000  1.0
  H  H70  1  0.02403000  0.53662000  0.21558000  1.0
  H  H71  1  0.27623000  0.96326000  0.28422000  1.0
  H  H72  1  0.26004000  0.35215000  0.89807000  1.0
  H  H73  1  0.01000000  0.14796000  0.60201000  1.0
  H  H74  1  0.73996000  0.64786000  0.10193000  1.0
  H  H75  1  0.99000000  0.85203000  0.39798000  1.0
  H  H76  1  0.12262000  0.38861000  0.71627000  1.0
  H  H77  1  0.72734000  0.11179000  0.78397000  1.0
  H  H78  1  0.87738000  0.61139000  0.28374000  1.0
  H  H79  1  0.27268000  0.88821000  0.21604000  1.0
  H  H80  1  0.26145000  0.25868000  0.86070000  1.0
  H  H81  1  0.88037000  0.24136000  0.63922000  1.0
  H  H82  1  0.73855000  0.74132000  0.13930000  1.0
  H  H83  1  0.11961000  0.75864000  0.36078000  1.0
  H  H84  1  0.34654000  0.15441000  0.80051000  1.0
  H  H85  1  0.80138000  0.34579000  0.69922000  1.0
  H  H86  1  0.65347000  0.84559000  0.19949000  1.0
  H  H87  1  0.19860000  0.65422000  0.30078000  1.0
  H  H88  1  0.20191000  0.28231000  0.65674000  1.0
  H  H89  1  0.64109000  0.21821000  0.84332000  1.0
  H  H90  1  0.79809000  0.71769000  0.34326000  1.0
  H  H91  1  0.35893000  0.78179000  0.15668000  1.0
  H  H92  1  0.38550000  0.83040000  0.80558000  1.0
  H  H93  1  0.52126000  0.67003000  0.69417000  1.0
  H  H94  1  0.61451000  0.16960000  0.19442000  1.0
  H  H95  1  0.47874000  0.32998000  0.30583000  1.0
  W  W96  1  0.29411000  0.19718000  0.35399000  1.0
  W  W97  1  0.34515000  0.30262000  0.14588000  1.0
  W  W98  1  0.70588000  0.80282000  0.64601000  1.0
  W  W99  1  0.65485000  0.69738000  0.85412000  1.0
  C  C100  1  0.28783000  0.08536000  0.71727000  1.0
  C  C101  1  0.59085000  0.41511000  0.78262000  1.0
  C  C102  1  0.71218000  0.91464000  0.28274000  1.0
  C  C103  1  0.40916000  0.58489000  0.21738000  1.0
  C  C104  1  0.11046000  0.02557000  0.77844000  1.0
  C  C105  1  0.41460000  0.47480000  0.72151000  1.0
  C  C106  1  0.88954000  0.97443000  0.22156000  1.0
  C  C107  1  0.58541000  0.52521000  0.27849000  1.0
  C  C108  1  0.14745000  0.08764000  0.75334000  1.0
  C  C109  1  0.48868000  0.41277000  0.74664000  1.0
  C  C110  1  0.85255000  0.91236000  0.24667000  1.0
  C  C111  1  0.51132000  0.58723000  0.25336000  1.0
  C  C112  1  0.39098000  0.01929000  0.70741000  1.0
  C  C113  1  0.61816000  0.48120000  0.79236000  1.0
  C  C114  1  0.60902000  0.98071000  0.29260000  1.0
  C  C115  1  0.38186000  0.51880000  0.20764000  1.0
  C  C116  1  0.21265000  0.96001000  0.76701000  1.0
  C  C117  1  0.43978000  0.54038000  0.73287000  1.0
  C  C118  1  0.78735000  0.03999000  0.23299000  1.0
  C  C119  1  0.56024000  0.45963000  0.26713000  1.0
  C  C120  1  0.35343000  0.95703000  0.73179000  1.0
  C  C121  1  0.54249000  0.54343000  0.76799000  1.0
  C  C122  1  0.64658000  0.04296000  0.26821000  1.0
  C  C123  1  0.45752000  0.45657000  0.23201000  1.0
  C  C124  1  0.03191000  0.88245000  0.79339000  1.0
  C  C125  1  0.20766000  0.61784000  0.70657000  1.0
  C  C126  1  0.96809000  0.11755000  0.20661000  1.0
  C  C127  1  0.79235000  0.38216000  0.29343000  1.0
  C  C128  1  0.18028000  0.78480000  0.81939000  1.0
  C  C129  1  0.28415000  0.71551000  0.68046000  1.0
  C  C130  1  0.81972000  0.21519000  0.18061000  1.0
  C  C131  1  0.71584000  0.28449000  0.31954000  1.0
  C  C132  1  0.84478000  0.14071000  0.46293000  1.0
  C  C133  1  0.94836000  0.35927000  0.03710000  1.0
  C  C134  1  0.15522000  0.85929000  0.53707000  1.0
  C  C135  1  0.05165000  0.64072000  0.96290000  1.0
  C  C136  1  0.79416000  0.10880000  0.38477000  1.0
  C  C137  1  0.78746000  0.39116000  0.11527000  1.0
  C  C138  1  0.20583000  0.89120000  0.61523000  1.0
  C  C139  1  0.21254000  0.60883000  0.88473000  1.0
  C  C140  1  0.66536000  0.11306000  0.42517000  1.0
  C  C141  1  0.70343000  0.38690000  0.07485000  1.0
  C  C142  1  0.33463000  0.88694000  0.57483000  1.0
  C  C143  1  0.29658000  0.61309000  0.92515000  1.0
  C  C144  1  0.60052000  0.14038000  0.52896000  1.0
  C  C145  1  0.77000000  0.35974000  0.97102000  1.0
  C  C146  1  0.39947000  0.85963000  0.47104000  1.0
  C  C147  1  0.23001000  0.64025000  0.02898000  1.0
  C  C148  1  0.49143000  0.09972000  0.54200000  1.0
  C  C149  1  0.63342000  0.40054000  0.95797000  1.0
  C  C150  1  0.50857000  0.90028000  0.45800000  1.0
  C  C151  1  0.36659000  0.59945000  0.04203000  1.0
  C  C152  1  0.61398000  0.18619000  0.56934000  1.0
  C  C153  1  0.86959000  0.31391000  0.93062000  1.0
  C  C154  1  0.38601000  0.81381000  0.43067000  1.0
  C  C155  1  0.13041000  0.68609000  0.06938000  1.0
  C  C156  1  0.52174000  0.18934000  0.62308000  1.0
  C  C157  1  0.83440000  0.31091000  0.87684000  1.0
  C  C158  1  0.47825000  0.81067000  0.37692000  1.0
  C  C159  1  0.16561000  0.68908000  0.12316000  1.0
  C  C160  1  0.39650000  0.10466000  0.59490000  1.0
  C  C161  1  0.59637000  0.39569000  0.90505000  1.0
  C  C162  1  0.60351000  0.89534000  0.40510000  1.0
  C  C163  1  0.40364000  0.60430000  0.09495000  1.0
  C  C164  1  0.41273000  0.14832000  0.63661000  1.0
  C  C165  1  0.69802000  0.35206000  0.86330000  1.0
  C  C166  1  0.58726000  0.85168000  0.36339000  1.0
  C  C167  1  0.30199000  0.64794000  0.13670000  1.0
  C  C168  1  0.27959000  0.21091000  0.72457000  1.0
  C  C169  1  0.71531000  0.28949000  0.77537000  1.0
  C  C170  1  0.72041000  0.78909000  0.27543000  1.0
  C  C171  1  0.28470000  0.71051000  0.22464000  1.0
  C  C172  1  0.10022000  0.45949000  0.90223000  1.0
  C  C173  1  0.96180000  0.04061000  0.59791000  1.0
  C  C174  1  0.89977000  0.54051000  0.09777000  1.0
  C  C175  1  0.03821000  0.95939000  0.40209000  1.0
  C  C176  1  0.03219000  0.45219000  0.82099000  1.0
  C  C177  1  0.80540000  0.04792000  0.67921000  1.0
  C  C178  1  0.96780000  0.54781000  0.17901000  1.0
  C  C179  1  0.19460000  0.95208000  0.32079000  1.0
  C  C180  1  0.17935000  0.39477000  0.88088000  1.0
  C  C181  1  0.95483000  0.10533000  0.61924000  1.0
  C  C182  1  0.82065000  0.60523000  0.11912000  1.0
  C  C183  1  0.04516000  0.89467000  0.38077000  1.0
  C  C184  1  0.18498000  0.33099000  0.79287000  1.0
  C  C185  1  0.80859000  0.16921000  0.70723000  1.0
  C  C186  1  0.81502000  0.66901000  0.20713000  1.0
  C  C187  1  0.19140000  0.83079000  0.29277000  1.0
  C  C188  1  0.17061000  0.33729000  0.73517000  1.0
  C  C189  1  0.74305000  0.16304000  0.76497000  1.0
  C  C190  1  0.82939000  0.66271000  0.26483000  1.0
  C  C191  1  0.25694000  0.83696000  0.23503000  1.0
  C  C192  1  0.24858000  0.26479000  0.81600000  1.0
  C  C193  1  0.82888000  0.23539000  0.68395000  1.0
  C  C194  1  0.75141000  0.73521000  0.18401000  1.0
  C  C195  1  0.17112000  0.76461000  0.31605000  1.0
  C  C196  1  0.29695000  0.20568000  0.78196000  1.0
  C  C197  1  0.78432000  0.29460000  0.71788000  1.0
  C  C198  1  0.70305000  0.79432000  0.21804000  1.0
  C  C199  1  0.21568000  0.70541000  0.28212000  1.0
  C  C200  1  0.21639000  0.27753000  0.70130000  1.0
  C  C201  1  0.69547000  0.22290000  0.79876000  1.0
  C  C202  1  0.78360000  0.72247000  0.29870000  1.0
  C  C203  1  0.30453000  0.77710000  0.20124000  1.0
  C  C204  1  0.26723000  0.83389000  0.80530000  1.0
  C  C205  1  0.40622000  0.66647000  0.69450000  1.0
  C  C206  1  0.73277000  0.16611000  0.19470000  1.0
  C  C207  1  0.59377000  0.33354000  0.30550000  1.0
  S  S208  1  0.26614000  0.12603000  0.43464000  1.0
  S  S209  1  0.32694000  0.37378000  0.06522000  1.0
  S  S210  1  0.73385000  0.87397000  0.56537000  1.0
  S  S211  1  0.67306000  0.62622000  0.93478000  1.0
  S  S212  1  0.17905000  0.16032000  0.28919000  1.0
  S  S213  1  0.12835000  0.33951000  0.21069000  1.0
  S  S214  1  0.82095000  0.83967000  0.71081000  1.0
  S  S215  1  0.87165000  0.66048000  0.78931000  1.0
  S  S216  1  0.16699000  0.31028000  0.37824000  1.0
  S  S217  1  0.35544000  0.18952000  0.12162000  1.0
  S  S218  1  0.83301000  0.68972000  0.62176000  1.0
  S  S219  1  0.64456000  0.81048000  0.87838000  1.0
  Br  Br220  1  0.02958000  0.27744000  0.54683000  1.0
  Br  Br221  1  0.35512000  0.22244000  0.95293000  1.0
  Br  Br222  1  0.97043000  0.72256000  0.45317000  1.0
  Br  Br223  1  0.64491000  0.77758000  0.04706000  1.0
  N  N224  1  0.90520000  0.12588000  0.40872000  1.0
  N  N225  1  0.93960000  0.37406000  0.09132000  1.0
  N  N226  1  0.09479000  0.87412000  0.59128000  1.0
  N  N227  1  0.06040000  0.62594000  0.90868000  1.0
  N  N228  1  0.69828000  0.13347000  0.47490000  1.0
  N  N229  1  0.80662000  0.36650000  0.02513000  1.0
  N  N230  1  0.30172000  0.86653000  0.52511000  1.0
  N  N231  1  0.19339000  0.63349000  0.97488000  1.0
  N  N232  1  0.32307000  0.14896000  0.69173000  1.0
  N  N233  1  0.66437000  0.35151000  0.80813000  1.0
  N  N234  1  0.67692000  0.85104000  0.30827000  1.0
  N  N235  1  0.33564000  0.64849000  0.19186000  1.0
  N  N236  1  0.00891000  0.49495000  0.86460000  1.0
  N  N237  1  0.86841000  0.00514000  0.63559000  1.0
  N  N238  1  0.99108000  0.50505000  0.13540000  1.0
  N  N239  1  0.13159000  0.99485000  0.36441000  1.0
  N  N240  1  0.13563000  0.39049000  0.82895000  1.0
  N  N241  1  0.85498000  0.10963000  0.67121000  1.0
  N  N242  1  0.86436000  0.60951000  0.17106000  1.0
  N  N243  1  0.14501000  0.89038000  0.32879000  1.0
  N  N244  1  0.03410000  0.81556000  0.81146000  1.0
  N  N245  1  0.16085000  0.68471000  0.68848000  1.0
  N  N246  1  0.96591000  0.18444000  0.18853000  1.0
  N  N247  1  0.83914000  0.31529000  0.31152000  1.0
  N  N248  1  0.17183000  0.89576000  0.78904000  1.0
  N  N249  1  0.35656000  0.60459000  0.71085000  1.0
  N  N250  1  0.82817000  0.10424000  0.21096000  1.0
  N  N251  1  0.64344000  0.39541000  0.28915000  1.0
  O  O252  1  0.48496000  0.19211000  0.32583000  1.0
  O  O253  1  0.50276000  0.30768000  0.17402000  1.0
  O  O254  1  0.51503000  0.80789000  0.67418000  1.0
  O  O255  1  0.49724000  0.69232000  0.82598000  1.0
