# generated using pymatgen
data_NaH4(CO)4
_symmetry_space_group_name_H-M   'P 1'
_cell_length_a   8.67623000
_cell_length_b   8.90313000
_cell_length_c   12.53060000
_cell_angle_alpha   90.00000000
_cell_angle_beta   90.00000000
_cell_angle_gamma   90.00000000
_symmetry_Int_Tables_number   1
_chemical_formula_structural   NaH4(CO)4
_chemical_formula_sum   'Na8 H32 C32 O32'
_cell_volume   967.93376047
_cell_formula_units_Z   8
loop_
 _symmetry_equiv_pos_site_id
 _symmetry_equiv_pos_as_xyz
  1  'x, y, z'
loop_
 _atom_site_type_symbol
 _atom_site_label
 _atom_site_symmetry_multiplicity
 _atom_site_fract_x
 _atom_site_fract_y
 _atom_site_fract_z
 _atom_site_occupancy
  Na  Na0  1  0.93216000  0.08089000  0.36909000  1.0
  Na  Na1  1  0.56784000  0.41911000  0.86909000  1.0
  Na  Na2  1  0.93216000  0.91911000  0.13091000  1.0
  Na  Na3  1  0.56784000  0.58089000  0.63091000  1.0
  Na  Na4  1  0.06784000  0.91911000  0.63091000  1.0
  Na  Na5  1  0.43216000  0.58089000  0.13091000  1.0
  Na  Na6  1  0.06784000  0.08089000  0.86909000  1.0
  Na  Na7  1  0.43216000  0.41911000  0.36909000  1.0
  H  H8  1  0.49577000  0.74663000  0.43434000  1.0
  H  H9  1  0.00423000  0.75337000  0.93434000  1.0
  H  H10  1  0.49576000  0.25337000  0.06566000  1.0
  H  H11  1  0.00423000  0.24663000  0.56566000  1.0
  H  H12  1  0.50423000  0.25337000  0.56566000  1.0
  H  H13  1  0.99577000  0.24663000  0.06566000  1.0
  H  H14  1  0.50423000  0.74663000  0.93434000  1.0
  H  H15  1  0.99577000  0.75337000  0.43434000  1.0
  H  H16  1  0.43094000  0.87915000  0.34176000  1.0
  H  H17  1  0.06906000  0.62085000  0.84176000  1.0
  H  H18  1  0.43094000  0.12085000  0.15824000  1.0
  H  H19  1  0.06906000  0.37916000  0.65824000  1.0
  H  H20  1  0.56906000  0.12085000  0.65824000  1.0
  H  H21  1  0.93094000  0.37915000  0.15824000  1.0
  H  H22  1  0.56906000  0.87915000  0.84176000  1.0
  H  H23  1  0.93094000  0.62085000  0.34176000  1.0
  H  H24  1  0.61174000  0.07322000  0.42132000  1.0
  H  H25  1  0.88826000  0.42678000  0.92132000  1.0
  H  H26  1  0.61174000  0.92679000  0.07868000  1.0
  H  H27  1  0.88826000  0.57322000  0.57868000  1.0
  H  H28  1  0.38826000  0.92679000  0.57868000  1.0
  H  H29  1  0.11174000  0.57322000  0.07868000  1.0
  H  H30  1  0.38826000  0.07322000  0.92132000  1.0
  H  H31  1  0.11174000  0.42678000  0.42132000  1.0
  H  H32  1  0.71773000  0.68296000  0.18998000  1.0
  H  H33  1  0.78227000  0.81704000  0.68998000  1.0
  H  H34  1  0.71773000  0.31704000  0.31002000  1.0
  H  H35  1  0.78227000  0.18296000  0.81002000  1.0
  H  H36  1  0.28227000  0.31704000  0.81002000  1.0
  H  H37  1  0.21773000  0.18296000  0.31002000  1.0
  H  H38  1  0.28227000  0.68296000  0.68998000  1.0
  H  H39  1  0.21773000  0.81704000  0.18998000  1.0
  C  C40  1  0.65792000  0.80664000  0.31388000  1.0
  C  C41  1  0.84207000  0.69336000  0.81388000  1.0
  C  C42  1  0.65793000  0.19336000  0.18612000  1.0
  C  C43  1  0.84207000  0.30664000  0.68612000  1.0
  C  C44  1  0.34207000  0.19336000  0.68612000  1.0
  C  C45  1  0.15793000  0.30664000  0.18612000  1.0
  C  C46  1  0.34208000  0.80664000  0.81388000  1.0
  C  C47  1  0.15793000  0.69336000  0.31388000  1.0
  C  C48  1  0.53120000  0.84806000  0.39083000  1.0
  C  C49  1  0.96880000  0.65194000  0.89084000  1.0
  C  C50  1  0.53120000  0.15194000  0.10917000  1.0
  C  C51  1  0.96880000  0.34806000  0.60917000  1.0
  C  C52  1  0.46880000  0.15195000  0.60917000  1.0
  C  C53  1  0.03120000  0.34806000  0.10917000  1.0
  C  C54  1  0.46880000  0.84806000  0.89084000  1.0
  C  C55  1  0.03120000  0.65194000  0.39083000  1.0
  C  C56  1  0.57190000  0.97597000  0.46765000  1.0
  C  C57  1  0.92810000  0.52403000  0.96765000  1.0
  C  C58  1  0.57190000  0.02403000  0.03235000  1.0
  C  C59  1  0.92810000  0.47597000  0.53235000  1.0
  C  C60  1  0.42810000  0.02403000  0.53235000  1.0
  C  C61  1  0.07190000  0.47597000  0.03235000  1.0
  C  C62  1  0.42810000  0.97597000  0.96765000  1.0
  C  C63  1  0.07190000  0.52403000  0.46765000  1.0
  C  C64  1  0.70252000  0.92946000  0.54325000  1.0
  C  C65  1  0.79748000  0.57054000  0.04325000  1.0
  C  C66  1  0.70252000  0.07054000  0.95675000  1.0
  C  C67  1  0.79748000  0.42946000  0.45675000  1.0
  C  C68  1  0.29748000  0.07054000  0.45675000  1.0
  C  C69  1  0.20252000  0.42946000  0.95675000  1.0
  C  C70  1  0.29748000  0.92946000  0.04325000  1.0
  C  C71  1  0.20252000  0.57054000  0.54325000  1.0
  O  O72  1  0.78270000  0.87414000  0.30951000  1.0
  O  O73  1  0.71730000  0.62586000  0.80951000  1.0
  O  O74  1  0.78270000  0.12586000  0.19049000  1.0
  O  O75  1  0.71730000  0.37414000  0.69049000  1.0
  O  O76  1  0.21730000  0.12586000  0.69049000  1.0
  O  O77  1  0.28270000  0.37414000  0.19049000  1.0
  O  O78  1  0.21730000  0.87414000  0.80951000  1.0
  O  O79  1  0.28270000  0.62586000  0.30951000  1.0
  O  O80  1  0.62485000  0.69412000  0.24881000  1.0
  O  O81  1  0.87515000  0.80588000  0.74881000  1.0
  O  O82  1  0.62485000  0.30588000  0.25119000  1.0
  O  O83  1  0.87515000  0.19412000  0.75119000  1.0
  O  O84  1  0.37515000  0.30589000  0.75119000  1.0
  O  O85  1  0.12485000  0.19412000  0.25119000  1.0
  O  O86  1  0.37515000  0.69412000  0.74881000  1.0
  O  O87  1  0.12485000  0.80588000  0.24881000  1.0
  O  O88  1  0.83316000  0.99016000  0.53634000  1.0
  O  O89  1  0.66684000  0.50984000  0.03634000  1.0
  O  O90  1  0.83316000  0.00984000  0.96366000  1.0
  O  O91  1  0.66684000  0.49016000  0.46366000  1.0
  O  O92  1  0.16684000  0.00984000  0.46366000  1.0
  O  O93  1  0.33316000  0.49016000  0.96366000  1.0
  O  O94  1  0.16684000  0.99016000  0.03634000  1.0
  O  O95  1  0.33316000  0.50984000  0.53634000  1.0
  O  O96  1  0.66841000  0.82766000  0.61278000  1.0
  O  O97  1  0.83159000  0.67235000  0.11278000  1.0
  O  O98  1  0.66841000  0.17235000  0.88722000  1.0
  O  O99  1  0.83159000  0.32765000  0.38722000  1.0
  O  O100  1  0.33159000  0.17235000  0.38722000  1.0
  O  O101  1  0.16841000  0.32765000  0.88722000  1.0
  O  O102  1  0.33159000  0.82766000  0.11278000  1.0
  O  O103  1  0.16841000  0.67235000  0.61278000  1.0
