# generated using pymatgen
data_ZnH3C16N(OF2)4
_symmetry_space_group_name_H-M   'P 1'
_cell_length_a   9.69273000
_cell_length_b   11.23640000
_cell_length_c   23.00460000
_cell_angle_alpha   89.84430000
_cell_angle_beta   90.02630000
_cell_angle_gamma   115.55500000
_symmetry_Int_Tables_number   1
_chemical_formula_structural   ZnH3C16N(OF2)4
_chemical_formula_sum   'Zn4 H12 C64 N4 O16 F32'
_cell_volume   2260.34852459
_cell_formula_units_Z   4
loop_
 _symmetry_equiv_pos_site_id
 _symmetry_equiv_pos_as_xyz
  1  'x, y, z'
loop_
 _atom_site_type_symbol
 _atom_site_label
 _atom_site_symmetry_multiplicity
 _atom_site_fract_x
 _atom_site_fract_y
 _atom_site_fract_z
 _atom_site_occupancy
  Zn  Zn0  1  0.15044000  0.49907000  0.49464000  1.0
  Zn  Zn1  1  0.65153000  0.50107000  0.00541000  1.0
  Zn  Zn2  1  0.84953000  0.50092000  0.50536000  1.0
  Zn  Zn3  1  0.34848000  0.49892000  0.99459000  1.0
  H  H4  1  0.40856000  0.24115000  0.42349000  1.0
  H  H5  1  0.16783000  0.75932000  0.07677000  1.0
  H  H6  1  0.59146000  0.75883000  0.57652000  1.0
  H  H7  1  0.83215000  0.24077000  0.92324000  1.0
  H  H8  1  0.57568000  0.38967000  0.41110000  1.0
  H  H9  1  0.18618000  0.61069000  0.08920000  1.0
  H  H10  1  0.42431000  0.61035000  0.58892000  1.0
  H  H11  1  0.81388000  0.38943000  0.91080000  1.0
  H  H12  1  0.41665000  0.34081000  0.36177000  1.0
  H  H13  1  0.07587000  0.65958000  0.13839000  1.0
  H  H14  1  0.58334000  0.65918000  0.63824000  1.0
  H  H15  1  0.92414000  0.34047000  0.86161000  1.0
  C  C16  1  0.93385000  0.32300000  0.57997000  1.0
  C  C17  1  0.61099000  0.67629000  0.91986000  1.0
  C  C18  1  0.06613000  0.67700000  0.42004000  1.0
  C  C19  1  0.38900000  0.32369000  0.08013000  1.0
  C  C20  1  0.89117000  0.22639000  0.63003000  1.0
  C  C21  1  0.66467000  0.77292000  0.86983000  1.0
  C  C22  1  0.10884000  0.77360000  0.36997000  1.0
  C  C23  1  0.33531000  0.22708000  0.13018000  1.0
  C  C24  1  0.88661000  0.10126000  0.62422000  1.0
  C  C25  1  0.78496000  0.89817000  0.87573000  1.0
  C  C26  1  0.11340000  0.89874000  0.37579000  1.0
  C  C27  1  0.21503000  0.10180000  0.12428000  1.0
  C  C28  1  0.84691000  0.01354000  0.67084000  1.0
  C  C29  1  0.83287000  0.98589000  0.82908000  1.0
  C  C30  1  0.15313000  0.98647000  0.32915000  1.0
  C  C31  1  0.16715000  0.01410000  0.17092000  1.0
  C  C32  1  0.80984000  0.04657000  0.72543000  1.0
  C  C33  1  0.76289000  0.95270000  0.77447000  1.0
  C  C34  1  0.19021000  0.95344000  0.27457000  1.0
  C  C35  1  0.23714000  0.04729000  0.22553000  1.0
  C  C36  1  0.81531000  0.17258000  0.73073000  1.0
  C  C37  1  0.64248000  0.82662000  0.76912000  1.0
  C  C38  1  0.18474000  0.82741000  0.26927000  1.0
  C  C39  1  0.35754000  0.17338000  0.23088000  1.0
  C  C40  1  0.85506000  0.26043000  0.68426000  1.0
  C  C41  1  0.59455000  0.73875000  0.81556000  1.0
  C  C42  1  0.14495000  0.73956000  0.31575000  1.0
  C  C43  1  0.40543000  0.26125000  0.18444000  1.0
  C  C44  1  0.12525000  0.67625000  0.58045000  1.0
  C  C45  1  0.44828000  0.32308000  0.91972000  1.0
  C  C46  1  0.87473000  0.32374000  0.41954000  1.0
  C  C47  1  0.55171000  0.67690000  0.08028000  1.0
  C  C48  1  0.17567000  0.77154000  0.63074000  1.0
  C  C49  1  0.40368000  0.22801000  0.86932000  1.0
  C  C50  1  0.82429000  0.22850000  0.36924000  1.0
  C  C51  1  0.59633000  0.77198000  0.13068000  1.0
  C  C52  1  0.32187000  0.87623000  0.63341000  1.0
  C  C53  1  0.44582000  0.12372000  0.86645000  1.0
  C  C54  1  0.67812000  0.12378000  0.36657000  1.0
  C  C55  1  0.55419000  0.87628000  0.13355000  1.0
  C  C56  1  0.36458000  0.96549000  0.67933000  1.0
  C  C57  1  0.39957000  0.03471000  0.82044000  1.0
  C  C58  1  0.63541000  0.03451000  0.32066000  1.0
  C  C59  1  0.60045000  0.96529000  0.17955000  1.0
  C  C60  1  0.26521000  0.95292000  0.72532000  1.0
  C  C61  1  0.31232000  0.04705000  0.77454000  1.0
  C  C62  1  0.73479000  0.04709000  0.27467000  1.0
  C  C63  1  0.68769000  0.95293000  0.22546000  1.0
  C  C64  1  0.11982000  0.84775000  0.72294000  1.0
  C  C65  1  0.27153000  0.15187000  0.77709000  1.0
  C  C66  1  0.88016000  0.15228000  0.27705000  1.0
  C  C67  1  0.72847000  0.84811000  0.22291000  1.0
  C  C68  1  0.07515000  0.75968000  0.67655000  1.0
  C  C69  1  0.31471000  0.23974000  0.82357000  1.0
  C  C70  1  0.92481000  0.24035000  0.32343000  1.0
  C  C71  1  0.68528000  0.76024000  0.17644000  1.0
  C  C72  1  0.45032000  0.34290000  0.40744000  1.0
  C  C73  1  0.10767000  0.65754000  0.09276000  1.0
  C  C74  1  0.54967000  0.65708000  0.59257000  1.0
  C  C75  1  0.89235000  0.34254000  0.90724000  1.0
  C  C76  1  0.38423000  0.41235000  0.44128000  1.0
  C  C77  1  0.97224000  0.58813000  0.05880000  1.0
  C  C78  1  0.61572000  0.58762000  0.55874000  1.0
  C  C79  1  0.02778000  0.41191000  0.94120000  1.0
  N  N80  1  0.33036000  0.46789000  0.46875000  1.0
  N  N81  1  0.86282000  0.53244000  0.03130000  1.0
  N  N82  1  0.66960000  0.53207000  0.53125000  1.0
  N  N83  1  0.13720000  0.46757000  0.96870000  1.0
  O  O84  1  0.06782000  0.36051000  0.56018000  1.0
  O  O85  1  0.70761000  0.63892000  0.93964000  1.0
  O  O86  1  0.93216000  0.63949000  0.43982000  1.0
  O  O87  1  0.29237000  0.36105000  0.06035000  1.0
  O  O88  1  0.83118000  0.35723000  0.56391000  1.0
  O  O89  1  0.47408000  0.64188000  0.93589000  1.0
  O  O90  1  0.16880000  0.64277000  0.43609000  1.0
  O  O91  1  0.52593000  0.35809000  0.06411000  1.0
  O  O92  1  0.22065000  0.63621000  0.56113000  1.0
  O  O93  1  0.58380000  0.36335000  0.93903000  1.0
  O  O94  1  0.77934000  0.36377000  0.43888000  1.0
  O  O95  1  0.41620000  0.63665000  0.06096000  1.0
  O  O96  1  0.99099000  0.64493000  0.56250000  1.0
  O  O97  1  0.34510000  0.35404000  0.93772000  1.0
  O  O98  1  0.00901000  0.35507000  0.43747000  1.0
  O  O99  1  0.65488000  0.64592000  0.06229000  1.0
  F  F100  1  0.91902000  0.06221000  0.57250000  1.0
  F  F101  1  0.85646000  0.93727000  0.92747000  1.0
  F  F102  1  0.08098000  0.93780000  0.42750000  1.0
  F  F103  1  0.14351000  0.06272000  0.07254000  1.0
  F  F104  1  0.84667000  0.89399000  0.66266000  1.0
  F  F105  1  0.95210000  0.10551000  0.83728000  1.0
  F  F106  1  0.15339000  0.10603000  0.33734000  1.0
  F  F107  1  0.04793000  0.89448000  0.16273000  1.0
  F  F108  1  0.77390000  0.20930000  0.78153000  1.0
  F  F109  1  0.56456000  0.78982000  0.71828000  1.0
  F  F110  1  0.22617000  0.79070000  0.21848000  1.0
  F  F111  1  0.43547000  0.21019000  0.28172000  1.0
  F  F112  1  0.85778000  0.38052000  0.69250000  1.0
  F  F113  1  0.47748000  0.61851000  0.80731000  1.0
  F  F114  1  0.14221000  0.61947000  0.30750000  1.0
  F  F115  1  0.52248000  0.38152000  0.19270000  1.0
  F  F116  1  0.42495000  0.89610000  0.59050000  1.0
  F  F117  1  0.52935000  0.10395000  0.90929000  1.0
  F  F118  1  0.57502000  0.10388000  0.40949000  1.0
  F  F119  1  0.47069000  0.89607000  0.09070000  1.0
  F  F120  1  0.50581000  0.06722000  0.67887000  1.0
  F  F121  1  0.43952000  0.93324000  0.82078000  1.0
  F  F122  1  0.49420000  0.93272000  0.32113000  1.0
  F  F123  1  0.56052000  0.06676000  0.17922000  1.0
  F  F124  1  0.01947000  0.83018000  0.76667000  1.0
  F  F125  1  0.18818000  0.16926000  0.73347000  1.0
  F  F126  1  0.98053000  0.16985000  0.23332000  1.0
  F  F127  1  0.81179000  0.83070000  0.26653000  1.0
  F  F128  1  0.93278000  0.66083000  0.67784000  1.0
  F  F129  1  0.27064000  0.33827000  0.82239000  1.0
  F  F130  1  0.06720000  0.33918000  0.32215000  1.0
  F  F131  1  0.72933000  0.66171000  0.17761000  1.0
