# generated using pymatgen
data_AlH3C7ClO5F
_symmetry_space_group_name_H-M   'P 1'
_cell_length_a   6.67637000
_cell_length_b   8.97098000
_cell_length_c   10.37479395
_cell_angle_alpha   109.63130790
_cell_angle_beta   94.98502111
_cell_angle_gamma   106.69380000
_symmetry_Int_Tables_number   1
_chemical_formula_structural   AlH3C7ClO5F
_chemical_formula_sum   'Al2 H6 C14 Cl2 O10 F2'
_cell_volume   548.89208411
_cell_formula_units_Z   2
loop_
 _symmetry_equiv_pos_site_id
 _symmetry_equiv_pos_as_xyz
  1  'x, y, z'
loop_
 _atom_site_type_symbol
 _atom_site_label
 _atom_site_symmetry_multiplicity
 _atom_site_fract_x
 _atom_site_fract_y
 _atom_site_fract_z
 _atom_site_occupancy
  Al  Al0  1  0.49681000  0.00590000  0.49036000  1.0
  Al  Al1  1  0.99767000  0.00823000  0.49193000  1.0
  H  H2  1  0.78327000  0.04112000  0.66786000  1.0
  H  H3  1  0.26815000  0.10222000  0.36950000  1.0
  H  H4  1  0.04639000  0.20457000  0.99219000  1.0
  H  H5  1  0.94931000  0.32483000  0.91136000  1.0
  H  H6  1  0.06739000  0.57124000  0.14292000  1.0
  H  H7  1  0.17389000  0.45261000  0.22005000  1.0
  C  C8  1  0.36042000  0.21496000  0.72696000  1.0
  C  C9  1  0.14902000  0.74515000  0.52334000  1.0
  C  C10  1  0.63891000  0.80560000  0.25559000  1.0
  C  C11  1  0.84282000  0.26959000  0.45386000  1.0
  C  C12  1  0.90434000  0.44335000  0.45087000  1.0
  C  C13  1  0.08613000  0.57160000  0.52710000  1.0
  C  C14  1  0.43196000  0.36737000  0.85817000  1.0
  C  C15  1  0.56753000  0.66206000  0.11812000  1.0
  C  C16  1  0.30046000  0.39875000  0.95417000  1.0
  C  C17  1  0.69934000  0.63455000  0.02000000  1.0
  C  C18  1  0.36567000  0.53887000  0.07908000  1.0
  C  C19  1  0.63451000  0.49263000  0.89513000  1.0
  C  C20  1  0.08210000  0.32784000  0.98354000  1.0
  C  C21  1  0.15833000  0.48464000  0.12719000  1.0
  Cl  Cl22  1  0.71929000  0.46629000  0.33960000  1.0
  Cl  Cl23  1  0.27072000  0.54972000  0.63896000  1.0
  O  O24  1  0.50142000  0.15745000  0.67563000  1.0
  O  O25  1  0.00459000  0.81034000  0.52220000  1.0
  O  O26  1  0.83687000  0.86528000  0.30956000  1.0
  O  O27  1  0.64701000  0.20076000  0.45107000  1.0
  O  O28  1  0.49352000  0.85417000  0.30922000  1.0
  O  O29  1  0.98989000  0.20663000  0.45650000  1.0
  O  O30  1  0.15980000  0.15297000  0.67791000  1.0
  O  O31  1  0.34422000  0.81141000  0.52383000  1.0
  O  O32  1  0.75332000  0.99697000  0.56653000  1.0
  O  O33  1  0.24590000  0.02828000  0.42085000  1.0
  F  F34  1  0.89532000  0.74803000  0.04079000  1.0
  F  F35  1  0.77449000  0.48397000  0.80803000  1.0
