# generated using pymatgen
data_Cd3H56C44(N3O2)6
_symmetry_space_group_name_H-M   'P 1'
_cell_length_a   9.65619000
_cell_length_b   15.15490000
_cell_length_c   18.84280000
_cell_angle_alpha   89.99960000
_cell_angle_beta   90.89120000
_cell_angle_gamma   89.99930000
_symmetry_Int_Tables_number   1
_chemical_formula_structural   Cd3H56C44(N3O2)6
_chemical_formula_sum   'Cd6 H112 C88 N36 O24'
_cell_volume   2757.09529810
_cell_formula_units_Z   2
loop_
 _symmetry_equiv_pos_site_id
 _symmetry_equiv_pos_as_xyz
  1  'x, y, z'
loop_
 _atom_site_type_symbol
 _atom_site_label
 _atom_site_symmetry_multiplicity
 _atom_site_fract_x
 _atom_site_fract_y
 _atom_site_fract_z
 _atom_site_occupancy
  Cd  Cd0  1  0.99999000  0.99999000  0.00000000  1.0
  Cd  Cd1  1  0.99999000  0.50000000  0.50000000  1.0
  Cd  Cd2  1  0.88410000  0.21908000  0.93751000  1.0
  Cd  Cd3  1  0.11591000  0.71909000  0.56248000  1.0
  Cd  Cd4  1  0.11589000  0.78091000  0.06248000  1.0
  Cd  Cd5  1  0.88407000  0.28092000  0.43752000  1.0
  H  H6  1  0.66440000  0.09976000  0.01158000  1.0
  H  H7  1  0.33562000  0.59975000  0.48844000  1.0
  H  H8  1  0.33559000  0.90025000  0.98844000  1.0
  H  H9  1  0.66435000  0.40024000  0.51158000  1.0
  H  H10  1  0.40679000  0.07708000  0.02738000  1.0
  H  H11  1  0.59323000  0.57708000  0.47263000  1.0
  H  H12  1  0.59321000  0.92292000  0.97263000  1.0
  H  H13  1  0.40674000  0.42290000  0.52739000  1.0
  H  H14  1  0.33710000  0.30027000  0.89042000  1.0
  H  H15  1  0.66292000  0.80028000  0.60959000  1.0
  H  H16  1  0.66290000  0.69973000  0.10958000  1.0
  H  H17  1  0.33708000  0.19972000  0.39041000  1.0
  H  H18  1  0.59607000  0.31534000  0.88073000  1.0
  H  H19  1  0.40395000  0.81534000  0.61928000  1.0
  H  H20  1  0.40393000  0.68466000  0.11928000  1.0
  H  H21  1  0.59606000  0.18466000  0.38073000  1.0
  H  H22  1  0.01107000  0.14027000  0.34201000  1.0
  H  H23  1  0.98892000  0.64026000  0.15799000  1.0
  H  H24  1  0.98892000  0.85973000  0.65799000  1.0
  H  H25  1  0.01108000  0.35974000  0.84201000  1.0
  H  H26  1  0.02303000  0.08581000  0.21601000  1.0
  H  H27  1  0.97697000  0.58581000  0.28400000  1.0
  H  H28  1  0.97697000  0.91419000  0.78400000  1.0
  H  H29  1  0.02304000  0.41419000  0.71600000  1.0
  H  H30  1  0.71649000  0.28426000  0.16103000  1.0
  H  H31  1  0.28350000  0.78427000  0.33896000  1.0
  H  H32  1  0.28350000  0.71574000  0.83897000  1.0
  H  H33  1  0.71651000  0.21573000  0.66103000  1.0
  H  H34  1  0.71277000  0.32604000  0.28853000  1.0
  H  H35  1  0.28720000  0.82604000  0.21146000  1.0
  H  H36  1  0.28722000  0.67396000  0.71146000  1.0
  H  H37  1  0.71279000  0.17396000  0.78854000  1.0
  H  H38  1  0.04342000  0.49542000  0.15630000  1.0
  H  H39  1  0.95657000  0.99543000  0.34370000  1.0
  H  H40  1  0.95659000  0.50457000  0.84371000  1.0
  H  H41  1  0.04343000  0.00458000  0.65630000  1.0
  H  H42  1  0.96146000  0.39167000  0.17274000  1.0
  H  H43  1  0.03853000  0.89168000  0.32725000  1.0
  H  H44  1  0.03854000  0.60832000  0.82726000  1.0
  H  H45  1  0.96147000  0.10832000  0.67274000  1.0
  H  H46  1  0.75029000  0.47298000  0.16211000  1.0
  H  H47  1  0.24969000  0.97298000  0.33788000  1.0
  H  H48  1  0.24971000  0.52702000  0.83789000  1.0
  H  H49  1  0.75031000  0.02702000  0.66212000  1.0
  H  H50  1  0.82958000  0.55913000  0.11161000  1.0
  H  H51  1  0.17041000  0.05914000  0.38838000  1.0
  H  H52  1  0.17042000  0.44086000  0.88839000  1.0
  H  H53  1  0.82959000  0.94087000  0.61161000  1.0
  H  H54  1  0.22351000  0.40126000  0.07944000  1.0
  H  H55  1  0.77648000  0.90126000  0.42057000  1.0
  H  H56  1  0.77649000  0.59874000  0.92057000  1.0
  H  H57  1  0.22352000  0.09873000  0.57942000  1.0
  H  H58  1  0.14936000  0.35055000  0.00170000  1.0
  H  H59  1  0.85065000  0.85056000  0.49831000  1.0
  H  H60  1  0.85063000  0.64944000  0.99831000  1.0
  H  H61  1  0.14936000  0.14944000  0.50169000  1.0
  H  H62  1  0.12649000  0.30086000  0.08621000  1.0
  H  H63  1  0.87351000  0.80086000  0.41380000  1.0
  H  H64  1  0.87351000  0.69913000  0.91380000  1.0
  H  H65  1  0.12650000  0.19914000  0.58620000  1.0
  H  H66  1  0.56970000  0.43584000  0.05277000  1.0
  H  H67  1  0.43030000  0.93584000  0.44721000  1.0
  H  H68  1  0.43031000  0.56417000  0.94723000  1.0
  H  H69  1  0.56970000  0.06416000  0.55278000  1.0
  H  H70  1  0.65214000  0.42458000  0.96832000  1.0
  H  H71  1  0.34788000  0.92458000  0.53166000  1.0
  H  H72  1  0.34787000  0.57543000  0.03167000  1.0
  H  H73  1  0.65213000  0.07543000  0.46834000  1.0
  H  H74  1  0.63915000  0.53069000  0.00874000  1.0
  H  H75  1  0.36085000  0.03069000  0.49125000  1.0
  H  H76  1  0.36085000  0.46931000  0.99126000  1.0
  H  H77  1  0.63916000  0.96931000  0.50875000  1.0
  H  H78  1  0.19970000  0.27767000  0.30549000  1.0
  H  H79  1  0.80031000  0.77767000  0.19451000  1.0
  H  H80  1  0.80034000  0.72232000  0.69451000  1.0
  H  H81  1  0.19971000  0.22234000  0.80549000  1.0
  H  H82  1  0.12950000  0.31525000  0.22281000  1.0
  H  H83  1  0.87049000  0.81525000  0.27720000  1.0
  H  H84  1  0.87052000  0.68474000  0.77720000  1.0
  H  H85  1  0.12952000  0.18476000  0.72281000  1.0
  H  H86  1  0.15038000  0.45702000  0.28196000  1.0
  H  H87  1  0.84962000  0.95702000  0.21804000  1.0
  H  H88  1  0.84964000  0.54298000  0.71805000  1.0
  H  H89  1  0.15039000  0.04299000  0.78196000  1.0
  H  H90  1  0.28998000  0.42049000  0.33674000  1.0
  H  H91  1  0.71003000  0.92049000  0.16325000  1.0
  H  H92  1  0.71006000  0.57951000  0.66325000  1.0
  H  H93  1  0.29000000  0.07952000  0.83675000  1.0
  H  H94  1  0.35615000  0.16041000  0.22523000  1.0
  H  H95  1  0.64384000  0.66042000  0.27475000  1.0
  H  H96  1  0.64386000  0.83959000  0.77477000  1.0
  H  H97  1  0.35618000  0.33959000  0.72524000  1.0
  H  H98  1  0.46415000  0.21489000  0.16241000  1.0
  H  H99  1  0.53582000  0.71489000  0.33756000  1.0
  H  H100  1  0.53585000  0.78511000  0.83758000  1.0
  H  H101  1  0.46419000  0.28512000  0.66243000  1.0
  H  H102  1  0.28166000  0.20545000  0.14646000  1.0
  H  H103  1  0.71831000  0.70544000  0.35354000  1.0
  H  H104  1  0.71834000  0.79456000  0.85354000  1.0
  H  H105  1  0.28170000  0.29456000  0.64647000  1.0
  H  H106  1  0.34046000  0.58473000  0.23213000  1.0
  H  H107  1  0.65951000  0.08474000  0.26786000  1.0
  H  H108  1  0.65953000  0.41527000  0.76787000  1.0
  H  H109  1  0.34047000  0.91527000  0.73213000  1.0
  H  H110  1  0.49495000  0.53467000  0.19888000  1.0
  H  H111  1  0.50502000  0.03467000  0.30110000  1.0
  H  H112  1  0.50505000  0.46534000  0.80111000  1.0
  H  H113  1  0.49497000  0.96533000  0.69889000  1.0
  H  H114  1  0.46422000  0.53597000  0.29193000  1.0
  H  H115  1  0.53577000  0.03595000  0.20805000  1.0
  H  H116  1  0.53578000  0.46405000  0.70806000  1.0
  H  H117  1  0.46423000  0.96404000  0.79194000  1.0
  C  C118  1  0.58793000  0.14291000  0.98608000  1.0
  C  C119  1  0.41210000  0.64290000  0.51393000  1.0
  C  C120  1  0.41208000  0.85710000  0.01393000  1.0
  C  C121  1  0.58788000  0.35708000  0.48609000  1.0
  C  C122  1  0.44655000  0.13025000  0.99452000  1.0
  C  C123  1  0.55348000  0.63025000  0.50549000  1.0
  C  C124  1  0.55345000  0.86976000  0.00548000  1.0
  C  C125  1  0.44651000  0.36974000  0.49453000  1.0
  C  C126  1  0.35365000  0.18681000  0.95950000  1.0
  C  C127  1  0.64636000  0.68682000  0.54051000  1.0
  C  C128  1  0.64633000  0.81319000  0.04050000  1.0
  C  C129  1  0.35362000  0.31316000  0.45950000  1.0
  C  C130  1  0.40693000  0.25512000  0.91819000  1.0
  C  C131  1  0.59309000  0.75512000  0.58182000  1.0
  C  C132  1  0.59306000  0.74488000  0.08181000  1.0
  C  C133  1  0.40691000  0.24487000  0.41819000  1.0
  C  C134  1  0.54980000  0.26346000  0.91282000  1.0
  C  C135  1  0.45022000  0.76347000  0.58719000  1.0
  C  C136  1  0.45020000  0.73654000  0.08718000  1.0
  C  C137  1  0.54978000  0.23653000  0.41282000  1.0
  C  C138  1  0.19932000  0.17207000  0.96531000  1.0
  C  C139  1  0.80069000  0.67208000  0.53469000  1.0
  C  C140  1  0.80067000  0.82792000  0.03469000  1.0
  C  C141  1  0.19929000  0.32791000  0.46531000  1.0
  C  C142  1  0.94688000  0.16873000  0.29982000  1.0
  C  C143  1  0.05312000  0.66872000  0.20018000  1.0
  C  C144  1  0.05312000  0.83127000  0.70019000  1.0
  C  C145  1  0.94688000  0.33128000  0.79982000  1.0
  C  C146  1  0.95249000  0.13890000  0.23024000  1.0
  C  C147  1  0.04750000  0.63890000  0.26976000  1.0
  C  C148  1  0.04750000  0.86110000  0.76976000  1.0
  C  C149  1  0.95250000  0.36110000  0.73024000  1.0
  C  C150  1  0.86963000  0.18050000  0.17870000  1.0
  C  C151  1  0.13038000  0.68049000  0.32131000  1.0
  C  C152  1  0.13037000  0.81950000  0.82131000  1.0
  C  C153  1  0.86962000  0.31950000  0.67869000  1.0
  C  C154  1  0.78262000  0.24947000  0.19920000  1.0
  C  C155  1  0.21737000  0.74947000  0.30080000  1.0
  C  C156  1  0.21737000  0.75053000  0.80080000  1.0
  C  C157  1  0.78263000  0.25053000  0.69920000  1.0
  C  C158  1  0.78056000  0.27335000  0.27045000  1.0
  C  C159  1  0.21942000  0.77334000  0.22954000  1.0
  C  C160  1  0.21943000  0.72665000  0.72954000  1.0
  C  C161  1  0.78058000  0.22666000  0.77046000  1.0
  C  C162  1  0.87634000  0.15276000  0.10214000  1.0
  C  C163  1  0.12366000  0.65275000  0.39786000  1.0
  C  C164  1  0.12366000  0.84724000  0.89786000  1.0
  C  C165  1  0.87634000  0.34724000  0.60214000  1.0
  C  C166  1  0.89688000  0.40738000  0.02146000  1.0
  C  C167  1  0.10312000  0.90738000  0.47854000  1.0
  C  C168  1  0.10312000  0.59262000  0.97854000  1.0
  C  C169  1  0.89688000  0.09262000  0.52146000  1.0
  C  C170  1  0.96834000  0.44740000  0.13523000  1.0
  C  C171  1  0.03164000  0.94740000  0.36477000  1.0
  C  C172  1  0.03166000  0.55260000  0.86477000  1.0
  C  C173  1  0.96836000  0.05261000  0.63523000  1.0
  C  C174  1  0.82446000  0.48689000  0.12001000  1.0
  C  C175  1  0.17554000  0.98689000  0.37998000  1.0
  C  C176  1  0.17555000  0.51311000  0.87999000  1.0
  C  C177  1  0.82446000  0.01311000  0.62002000  1.0
  C  C178  1  0.13428000  0.36446000  0.05807000  1.0
  C  C179  1  0.86572000  0.86446000  0.44194000  1.0
  C  C180  1  0.86572000  0.63554000  0.94194000  1.0
  C  C181  1  0.13429000  0.13554000  0.55806000  1.0
  C  C182  1  0.65378000  0.45964000  0.01916000  1.0
  C  C183  1  0.34623000  0.95964000  0.48083000  1.0
  C  C184  1  0.34623000  0.54036000  0.98084000  1.0
  C  C185  1  0.65377000  0.04036000  0.51917000  1.0
  C  C186  1  0.41326000  0.37446000  0.20204000  1.0
  C  C187  1  0.58673000  0.87446000  0.29795000  1.0
  C  C188  1  0.58675000  0.62555000  0.79796000  1.0
  C  C189  1  0.41328000  0.12555000  0.70205000  1.0
  C  C190  1  0.21883000  0.32082000  0.25996000  1.0
  C  C191  1  0.78117000  0.82082000  0.24004000  1.0
  C  C192  1  0.78119000  0.67917000  0.74004000  1.0
  C  C193  1  0.21885000  0.17919000  0.75997000  1.0
  C  C194  1  0.24463000  0.41662000  0.28263000  1.0
  C  C195  1  0.75537000  0.91662000  0.21737000  1.0
  C  C196  1  0.75539000  0.58338000  0.71737000  1.0
  C  C197  1  0.24464000  0.08338000  0.78264000  1.0
  C  C198  1  0.36268000  0.21560000  0.18769000  1.0
  C  C199  1  0.63730000  0.71560000  0.31229000  1.0
  C  C200  1  0.63734000  0.78440000  0.81230000  1.0
  C  C201  1  0.36272000  0.28441000  0.68771000  1.0
  C  C202  1  0.41424000  0.53015000  0.23902000  1.0
  C  C203  1  0.58574000  0.03015000  0.26096000  1.0
  C  C204  1  0.58576000  0.46986000  0.76097000  1.0
  C  C205  1  0.41426000  0.96986000  0.73904000  1.0
  N  N206  1  0.63861000  0.20841000  0.94581000  1.0
  N  N207  1  0.36141000  0.70841000  0.55419000  1.0
  N  N208  1  0.36139000  0.79159000  0.05419000  1.0
  N  N209  1  0.63858000  0.29159000  0.44582000  1.0
  N  N210  1  0.86198000  0.23424000  0.31989000  1.0
  N  N211  1  0.13800000  0.73424000  0.18011000  1.0
  N  N212  1  0.13800000  0.76576000  0.68011000  1.0
  N  N213  1  0.86200000  0.26577000  0.81989000  1.0
  N  N214  1  0.87707000  0.06822000  0.91136000  1.0
  N  N215  1  0.12293000  0.56824000  0.58864000  1.0
  N  N216  1  0.12291000  0.93177000  0.08864000  1.0
  N  N217  1  0.87705000  0.43177000  0.41136000  1.0
  N  N218  1  0.82599000  0.03230000  0.86034000  1.0
  N  N219  1  0.17400000  0.53231000  0.63965000  1.0
  N  N220  1  0.17399000  0.96770000  0.13965000  1.0
  N  N221  1  0.82598000  0.46770000  0.36034000  1.0
  N  N222  1  0.77612000  0.99829000  0.81053000  1.0
  N  N223  1  0.22387000  0.49828000  0.68946000  1.0
  N  N224  1  0.22387000  0.00171000  0.18945000  1.0
  N  N225  1  0.77611000  0.50171000  0.31054000  1.0
  N  N226  1  0.01007000  0.41608000  0.06565000  1.0
  N  N227  1  0.98993000  0.91608000  0.43435000  1.0
  N  N228  1  0.98993000  0.58392000  0.93435000  1.0
  N  N229  1  0.01007000  0.08392000  0.56565000  1.0
  N  N230  1  0.78495000  0.44325000  0.05392000  1.0
  N  N231  1  0.21505000  0.94325000  0.44607000  1.0
  N  N232  1  0.21506000  0.55675000  0.94608000  1.0
  N  N233  1  0.78494000  0.05675000  0.55393000  1.0
  N  N234  1  0.34697000  0.29884000  0.22413000  1.0
  N  N235  1  0.65303000  0.79884000  0.27586000  1.0
  N  N236  1  0.65305000  0.70116000  0.77587000  1.0
  N  N237  1  0.34699000  0.20117000  0.72414000  1.0
  N  N238  1  0.34444000  0.44635000  0.23033000  1.0
  N  N239  1  0.65555000  0.94635000  0.26966000  1.0
  N  N240  1  0.65557000  0.55365000  0.76966000  1.0
  N  N241  1  0.34445000  0.05366000  0.73034000  1.0
  O  O242  1  0.87505000  0.07064000  0.08948000  1.0
  O  O243  1  0.12495000  0.57063000  0.41052000  1.0
  O  O244  1  0.12494000  0.92936000  0.91052000  1.0
  O  O245  1  0.87505000  0.42937000  0.58948000  1.0
  O  O246  1  0.88169000  0.21615000  0.05829000  1.0
  O  O247  1  0.11833000  0.71614000  0.44171000  1.0
  O  O248  1  0.11832000  0.78385000  0.94171000  1.0
  O  O249  1  0.88168000  0.28385000  0.55829000  1.0
  O  O250  1  0.16176000  0.11361000  0.00880000  1.0
  O  O251  1  0.83826000  0.61363000  0.49120000  1.0
  O  O252  1  0.83823000  0.88639000  0.99120000  1.0
  O  O253  1  0.16172000  0.38636000  0.50880000  1.0
  O  O254  1  0.12216000  0.22009000  0.92575000  1.0
  O  O255  1  0.87786000  0.72009000  0.57426000  1.0
  O  O256  1  0.87783000  0.77991000  0.07425000  1.0
  O  O257  1  0.12213000  0.27990000  0.42574000  1.0
  O  O258  1  0.89594000  0.37365000  0.96040000  1.0
  O  O259  1  0.10408000  0.87365000  0.53959000  1.0
  O  O260  1  0.10406000  0.62635000  0.03960000  1.0
  O  O261  1  0.89592000  0.12635000  0.46040000  1.0
  O  O262  1  0.51626000  0.37778000  0.16342000  1.0
  O  O263  1  0.48372000  0.87778000  0.33657000  1.0
  O  O264  1  0.48375000  0.62223000  0.83658000  1.0
  O  O265  1  0.51628000  0.12222000  0.66342000  1.0
