# generated using pymatgen
data_AgH24C27(N3O)3
_symmetry_space_group_name_H-M   'P 1'
_cell_length_a   7.56885000
_cell_length_b   13.83694886
_cell_length_c   13.83700000
_cell_angle_alpha   119.72236477
_cell_angle_beta   90.00000000
_cell_angle_gamma   90.00000000
_symmetry_Int_Tables_number   1
_chemical_formula_structural   AgH24C27(N3O)3
_chemical_formula_sum   'Ag2 H48 C54 N18 O6'
_cell_volume   1258.49362321
_cell_formula_units_Z   2
loop_
 _symmetry_equiv_pos_site_id
 _symmetry_equiv_pos_as_xyz
  1  'x, y, z'
loop_
 _atom_site_type_symbol
 _atom_site_label
 _atom_site_symmetry_multiplicity
 _atom_site_fract_x
 _atom_site_fract_y
 _atom_site_fract_z
 _atom_site_occupancy
  Ag  Ag0  1  0.67779000  0.66773000  0.33402000  1.0
  Ag  Ag1  1  0.17782000  0.33228000  0.66599000  1.0
  H  H2  1  0.95871000  0.10961000  0.83731000  1.0
  H  H3  1  0.95823000  0.16218000  0.27125000  1.0
  H  H4  1  0.95954000  0.72913000  0.89142000  1.0
  H  H5  1  0.45872000  0.89039000  0.16269000  1.0
  H  H6  1  0.45823000  0.83782000  0.72875000  1.0
  H  H7  1  0.45955000  0.27087000  0.10858000  1.0
  H  H8  1  0.15237000  0.17680000  0.99396000  1.0
  H  H9  1  0.15187000  0.00607000  0.18313000  1.0
  H  H10  1  0.15255000  0.81819000  0.82460000  1.0
  H  H11  1  0.65237000  0.82320000  0.00604000  1.0
  H  H12  1  0.65187000  0.99392000  0.81686000  1.0
  H  H13  1  0.65256000  0.18180000  0.17539000  1.0
  H  H14  1  0.12587000  0.00686000  0.61272000  1.0
  H  H15  1  0.12619000  0.38648000  0.39267000  1.0
  H  H16  1  0.12618000  0.60580000  0.99358000  1.0
  H  H17  1  0.62587000  0.99314000  0.38728000  1.0
  H  H18  1  0.62619000  0.61353000  0.60733000  1.0
  H  H19  1  0.62618000  0.39420000  0.00642000  1.0
  H  H20  1  0.02342000  0.14064000  0.68089000  1.0
  H  H21  1  0.02438000  0.31764000  0.45835000  1.0
  H  H22  1  0.02415000  0.54173000  0.85969000  1.0
  H  H23  1  0.52342000  0.85936000  0.31911000  1.0
  H  H24  1  0.52438000  0.68236000  0.54165000  1.0
  H  H25  1  0.52415000  0.45827000  0.14032000  1.0
  H  H26  1  0.94999000  0.83785000  0.50754000  1.0
  H  H27  1  0.94983000  0.49286000  0.32982000  1.0
  H  H28  1  0.94979000  0.66998000  0.16271000  1.0
  H  H29  1  0.45001000  0.16215000  0.49247000  1.0
  H  H30  1  0.44984000  0.50714000  0.67018000  1.0
  H  H31  1  0.44979000  0.33002000  0.83730000  1.0
  H  H32  1  0.68869000  0.15264000  0.71315000  1.0
  H  H33  1  0.68936000  0.28566000  0.43902000  1.0
  H  H34  1  0.68945000  0.56042000  0.84708000  1.0
  H  H35  1  0.18869000  0.84737000  0.28685000  1.0
  H  H36  1  0.18937000  0.71434000  0.56098000  1.0
  H  H37  1  0.18945000  0.43958000  0.15292000  1.0
  H  H38  1  0.40116000  0.05383000  0.64003000  1.0
  H  H39  1  0.40154000  0.35970000  0.41430000  1.0
  H  H40  1  0.40157000  0.58597000  0.94581000  1.0
  H  H41  1  0.90116000  0.94618000  0.35997000  1.0
  H  H42  1  0.90154000  0.64030000  0.58570000  1.0
  H  H43  1  0.90156000  0.41402000  0.05418000  1.0
  H  H44  1  0.40518000  0.84846000  0.50049000  1.0
  H  H45  1  0.40499000  0.50023000  0.34861000  1.0
  H  H46  1  0.40494000  0.65204000  0.15157000  1.0
  H  H47  1  0.90520000  0.15156000  0.49953000  1.0
  H  H48  1  0.90500000  0.49977000  0.65139000  1.0
  H  H49  1  0.90495000  0.34796000  0.84843000  1.0
  C  C50  1  0.14954000  0.99671000  0.89783000  1.0
  C  C51  1  0.14959000  0.10270000  0.09900000  1.0
  C  C52  1  0.14965000  0.90151000  0.00467000  1.0
  C  C53  1  0.64954000  0.00329000  0.10217000  1.0
  C  C54  1  0.64960000  0.89729000  0.90099000  1.0
  C  C55  1  0.64965000  0.09848000  0.99532000  1.0
  C  C56  1  0.15006000  0.09905000  0.99605000  1.0
  C  C57  1  0.15002000  0.00420000  0.10342000  1.0
  C  C58  1  0.15021000  0.89768000  0.90205000  1.0
  C  C59  1  0.65006000  0.90094000  0.00394000  1.0
  C  C60  1  0.65002000  0.99580000  0.89659000  1.0
  C  C61  1  0.65021000  0.10232000  0.09795000  1.0
  C  C62  1  0.15091000  0.98806000  0.78601000  1.0
  C  C63  1  0.15113000  0.21421000  0.20168000  1.0
  C  C64  1  0.15097000  0.79837000  0.01347000  1.0
  C  C65  1  0.65091000  0.01194000  0.21398000  1.0
  C  C66  1  0.65113000  0.78579000  0.79831000  1.0
  C  C67  1  0.65097000  0.20163000  0.98653000  1.0
  C  C68  1  0.01794000  0.05577000  0.66831000  1.0
  C  C69  1  0.01823000  0.33087000  0.38637000  1.0
  C  C70  1  0.01845000  0.61309000  0.94466000  1.0
  C  C71  1  0.51793000  0.94422000  0.33168000  1.0
  C  C72  1  0.51823000  0.66913000  0.61363000  1.0
  C  C73  1  0.51846000  0.38691000  0.05534000  1.0
  C  C74  1  0.83153000  0.88910000  0.54102000  1.0
  C  C75  1  0.83142000  0.45924000  0.34776000  1.0
  C  C76  1  0.83141000  0.65204000  0.11125000  1.0
  C  C77  1  0.33154000  0.11090000  0.45898000  1.0
  C  C78  1  0.33143000  0.54076000  0.65224000  1.0
  C  C79  1  0.33142000  0.34796000  0.88876000  1.0
  C  C80  1  0.84234000  0.00226000  0.61962000  1.0
  C  C81  1  0.84252000  0.38000000  0.38213000  1.0
  C  C82  1  0.84260000  0.61739000  0.99789000  1.0
  C  C83  1  0.34235000  0.99774000  0.38038000  1.0
  C  C84  1  0.34252000  0.62000000  0.61787000  1.0
  C  C85  1  0.34260000  0.38261000  0.00211000  1.0
  C  C86  1  0.68541000  0.06365000  0.65407000  1.0
  C  C87  1  0.68579000  0.34528000  0.40929000  1.0
  C  C88  1  0.68586000  0.59036000  0.93624000  1.0
  C  C89  1  0.18540000  0.93636000  0.34594000  1.0
  C  C90  1  0.18579000  0.65472000  0.59071000  1.0
  C  C91  1  0.18585000  0.40964000  0.06376000  1.0
  C  C92  1  0.52553000  0.00880000  0.61315000  1.0
  C  C93  1  0.52577000  0.38670000  0.39591000  1.0
  C  C94  1  0.52581000  0.60420000  0.99103000  1.0
  C  C95  1  0.02553000  0.99121000  0.38686000  1.0
  C  C96  1  0.02577000  0.61330000  0.60409000  1.0
  C  C97  1  0.02581000  0.39579000  0.00896000  1.0
  C  C98  1  0.52665000  0.89530000  0.53613000  1.0
  C  C99  1  0.52660000  0.46434000  0.35955000  1.0
  C  C100  1  0.52657000  0.64079000  0.10477000  1.0
  C  C101  1  0.02666000  0.10471000  0.46388000  1.0
  C  C102  1  0.02661000  0.53566000  0.64045000  1.0
  C  C103  1  0.02657000  0.35921000  0.89523000  1.0
  N  N104  1  0.04654000  0.06129000  0.77521000  1.0
  N  N105  1  0.04624000  0.22444000  0.28521000  1.0
  N  N106  1  0.04721000  0.71481000  0.93973000  1.0
  N  N107  1  0.54654000  0.93871000  0.22479000  1.0
  N  N108  1  0.54624000  0.77556000  0.71479000  1.0
  N  N109  1  0.54721000  0.28519000  0.06027000  1.0
  N  N110  1  0.67732000  0.83670000  0.49843000  1.0
  N  N111  1  0.67711000  0.50222000  0.33835000  1.0
  N  N112  1  0.67708000  0.66186000  0.16365000  1.0
  N  N113  1  0.17734000  0.16330000  0.50157000  1.0
  N  N114  1  0.17712000  0.49778000  0.66165000  1.0
  N  N115  1  0.17709000  0.33814000  0.83635000  1.0
  N  N116  1  0.33484000  0.66721000  0.33371000  1.0
  N  N117  1  0.83486000  0.33279000  0.66629000  1.0
  N  N118  1  0.17778000  0.66716000  0.33366000  1.0
  N  N119  1  0.67776000  0.33284000  0.66634000  1.0
  N  N120  1  0.02089000  0.66710000  0.33360000  1.0
  N  N121  1  0.52090000  0.33290000  0.66640000  1.0
  O  O122  1  0.24328000  0.91572000  0.70907000  1.0
  O  O123  1  0.24407000  0.29127000  0.20638000  1.0
  O  O124  1  0.24290000  0.79324000  0.08602000  1.0
  O  O125  1  0.74328000  0.08428000  0.29093000  1.0
  O  O126  1  0.74407000  0.70872000  0.79361000  1.0
  O  O127  1  0.74289000  0.20676000  0.91398000  1.0
