# generated using pymatgen
data_MnH11C14NO6
_symmetry_space_group_name_H-M   'P 1'
_cell_length_a   13.33360000
_cell_length_b   15.85350000
_cell_length_c   16.70980000
_cell_angle_alpha   89.99980000
_cell_angle_beta   108.19200000
_cell_angle_gamma   89.99760000
_symmetry_Int_Tables_number   1
_chemical_formula_structural   MnH11C14NO6
_chemical_formula_sum   'Mn8 H88 C112 N8 O48'
_cell_volume   3355.63404196
_cell_formula_units_Z   8
loop_
 _symmetry_equiv_pos_site_id
 _symmetry_equiv_pos_as_xyz
  1  'x, y, z'
loop_
 _atom_site_type_symbol
 _atom_site_label
 _atom_site_symmetry_multiplicity
 _atom_site_fract_x
 _atom_site_fract_y
 _atom_site_fract_z
 _atom_site_occupancy
  Mn  Mn0  1  0.74927000  0.88917000  0.97696000  1.0
  Mn  Mn1  1  0.75071000  0.38918000  0.52303000  1.0
  Mn  Mn2  1  0.25074000  0.11083000  0.02304000  1.0
  Mn  Mn3  1  0.24927000  0.61082000  0.47696000  1.0
  Mn  Mn4  1  0.73357000  0.63724000  0.04068000  1.0
  Mn  Mn5  1  0.76640000  0.13723000  0.45930000  1.0
  Mn  Mn6  1  0.26641000  0.36277000  0.95931000  1.0
  Mn  Mn7  1  0.23363000  0.86276000  0.54072000  1.0
  H  H8  1  0.06372000  0.48747000  0.38352000  1.0
  H  H9  1  0.43630000  0.98748000  0.11649000  1.0
  H  H10  1  0.93626000  0.51251000  0.61650000  1.0
  H  H11  1  0.56372000  0.01251000  0.88350000  1.0
  H  H12  1  0.86618000  0.49216000  0.32999000  1.0
  H  H13  1  0.63384000  0.99217000  0.17001000  1.0
  H  H14  1  0.13380000  0.50782000  0.67002000  1.0
  H  H15  1  0.36618000  0.00783000  0.82998000  1.0
  H  H16  1  0.88199000  0.70924000  0.48985000  1.0
  H  H17  1  0.61801000  0.20924000  0.01013000  1.0
  H  H18  1  0.11800000  0.29077000  0.51014000  1.0
  H  H19  1  0.38200000  0.79077000  0.98986000  1.0
  H  H20  1  0.07650000  0.69849000  0.53221000  1.0
  H  H21  1  0.42351000  0.19848000  0.96777000  1.0
  H  H22  1  0.92349000  0.30153000  0.46777000  1.0
  H  H23  1  0.57650000  0.80152000  0.03223000  1.0
  H  H24  1  0.70677000  0.59046000  0.30832000  1.0
  H  H25  1  0.79325000  0.09045000  0.19167000  1.0
  H  H26  1  0.29321000  0.40954000  0.69168000  1.0
  H  H27  1  0.20677000  0.90954000  0.80831000  1.0
  H  H28  1  0.70454000  0.56537000  0.41167000  1.0
  H  H29  1  0.79547000  0.06536000  0.08832000  1.0
  H  H30  1  0.29544000  0.43463000  0.58834000  1.0
  H  H31  1  0.20453000  0.93464000  0.91165000  1.0
  H  H32  1  0.72769000  0.69073000  0.23255000  1.0
  H  H33  1  0.77230000  0.19073000  0.26743000  1.0
  H  H34  1  0.27228000  0.30927000  0.76745000  1.0
  H  H35  1  0.22773000  0.80927000  0.73256000  1.0
  H  H36  1  0.80246000  0.95489000  0.23990000  1.0
  H  H37  1  0.69754000  0.45490000  0.26009000  1.0
  H  H38  1  0.19754000  0.04509000  0.76009000  1.0
  H  H39  1  0.30245000  0.54509000  0.73991000  1.0
  H  H40  1  0.74639000  0.83777000  0.45489000  1.0
  H  H41  1  0.75359000  0.33777000  0.04509000  1.0
  H  H42  1  0.25360000  0.16224000  0.54510000  1.0
  H  H43  1  0.24638000  0.66224000  0.95489000  1.0
  H  H44  1  0.80227000  0.07128000  0.71695000  1.0
  H  H45  1  0.69772000  0.57129000  0.78303000  1.0
  H  H46  1  0.19777000  0.92872000  0.28308000  1.0
  H  H47  1  0.30225000  0.42871000  0.21695000  1.0
  H  H48  1  0.74736000  0.33640000  0.73415000  1.0
  H  H49  1  0.75262000  0.83641000  0.76585000  1.0
  H  H50  1  0.25264000  0.66359000  0.26586000  1.0
  H  H51  1  0.24736000  0.16359000  0.23416000  1.0
  H  H52  1  0.74727000  0.17061000  0.93975000  1.0
  H  H53  1  0.75273000  0.67062000  0.56024000  1.0
  H  H54  1  0.25278000  0.82939000  0.06028000  1.0
  H  H55  1  0.24728000  0.32938000  0.43976000  1.0
  H  H56  1  0.73496000  0.45027000  0.91876000  1.0
  H  H57  1  0.76507000  0.95028000  0.58124000  1.0
  H  H58  1  0.26502000  0.54973000  0.08124000  1.0
  H  H59  1  0.23497000  0.04972000  0.41877000  1.0
  H  H60  1  0.71913000  0.42922000  0.80996000  1.0
  H  H61  1  0.78088000  0.92923000  0.69004000  1.0
  H  H62  1  0.28085000  0.57077000  0.19005000  1.0
  H  H63  1  0.21913000  0.07077000  0.30997000  1.0
  H  H64  1  0.88141000  0.43738000  0.76859000  1.0
  H  H65  1  0.61862000  0.93746000  0.73139000  1.0
  H  H66  1  0.11858000  0.56264000  0.23142000  1.0
  H  H67  1  0.38140000  0.06260000  0.26859000  1.0
  H  H68  1  0.07739000  0.41974000  0.80765000  1.0
  H  H69  1  0.42265000  0.91980000  0.69236000  1.0
  H  H70  1  0.92260000  0.58027000  0.19235000  1.0
  H  H71  1  0.57737000  0.08025000  0.30764000  1.0
  H  H72  1  0.10310000  0.37182000  0.05662000  1.0
  H  H73  1  0.39692000  0.87178000  0.44340000  1.0
  H  H74  1  0.89689000  0.62818000  0.94338000  1.0
  H  H75  1  0.60311000  0.12817000  0.55661000  1.0
  H  H76  1  0.90786000  0.38343000  0.02761000  1.0
  H  H77  1  0.59215000  0.88340000  0.47239000  1.0
  H  H78  1  0.09213000  0.61657000  0.97239000  1.0
  H  H79  1  0.40787000  0.11655000  0.52762000  1.0
  H  H80  1  0.89009000  0.90288000  0.90845000  1.0
  H  H81  1  0.60989000  0.40290000  0.59153000  1.0
  H  H82  1  0.10993000  0.09711000  0.09156000  1.0
  H  H83  1  0.39009000  0.59710000  0.40845000  1.0
  H  H84  1  0.93380000  0.81527000  0.95389000  1.0
  H  H85  1  0.56617000  0.31530000  0.54609000  1.0
  H  H86  1  0.06619000  0.18470000  0.04610000  1.0
  H  H87  1  0.43381000  0.68471000  0.45390000  1.0
  H  H88  1  0.56373000  0.56244000  0.98418000  1.0
  H  H89  1  0.93626000  0.06243000  0.51581000  1.0
  H  H90  1  0.43625000  0.43756000  0.01583000  1.0
  H  H91  1  0.06376000  0.93757000  0.48420000  1.0
  H  H92  1  0.52373000  0.64347000  0.93146000  1.0
  H  H93  1  0.97623000  0.14345000  0.56852000  1.0
  H  H94  1  0.47625000  0.35654000  0.06855000  1.0
  H  H95  1  0.02378000  0.85653000  0.43149000  1.0
  C  C96  1  0.01952000  0.53599000  0.40447000  1.0
  C  C97  1  0.48049000  0.03600000  0.09554000  1.0
  C  C98  1  0.98046000  0.46399000  0.59555000  1.0
  C  C99  1  0.51952000  0.96400000  0.90445000  1.0
  C  C100  1  0.90980000  0.53871000  0.37556000  1.0
  C  C101  1  0.59021000  0.03871000  0.12444000  1.0
  C  C102  1  0.09018000  0.46128000  0.62445000  1.0
  C  C103  1  0.40981000  0.96128000  0.87555000  1.0
  C  C104  1  0.85704000  0.60170000  0.40524000  1.0
  C  C105  1  0.64297000  0.10171000  0.09475000  1.0
  C  C106  1  0.14295000  0.39829000  0.59475000  1.0
  C  C107  1  0.35704000  0.89830000  0.90524000  1.0
  C  C108  1  0.91826000  0.65898000  0.46411000  1.0
  C  C109  1  0.58174000  0.15898000  0.03588000  1.0
  C  C110  1  0.08172000  0.34102000  0.53588000  1.0
  C  C111  1  0.41827000  0.84102000  0.96412000  1.0
  C  C112  1  0.02738000  0.65282000  0.48856000  1.0
  C  C113  1  0.47263000  0.15282000  0.01143000  1.0
  C  C114  1  0.97261000  0.34718000  0.51144000  1.0
  C  C115  1  0.52738000  0.84718000  0.98856000  1.0
  C  C116  1  0.73843000  0.60821000  0.37521000  1.0
  C  C117  1  0.76158000  0.10821000  0.12477000  1.0
  C  C118  1  0.26156000  0.39179000  0.62479000  1.0
  C  C119  1  0.23843000  0.89179000  0.87521000  1.0
  C  C120  1  0.73158000  0.75695000  0.34792000  1.0
  C  C121  1  0.76841000  0.25695000  0.15206000  1.0
  C  C122  1  0.26840000  0.24304000  0.65208000  1.0
  C  C123  1  0.23159000  0.74305000  0.84793000  1.0
  C  C124  1  0.74080000  0.75018000  0.26699000  1.0
  C  C125  1  0.75919000  0.25018000  0.23299000  1.0
  C  C126  1  0.25918000  0.24982000  0.73301000  1.0
  C  C127  1  0.24082000  0.74982000  0.76700000  1.0
  C  C128  1  0.76634000  0.82225000  0.22859000  1.0
  C  C129  1  0.73366000  0.32226000  0.27140000  1.0
  C  C130  1  0.23365000  0.17774000  0.77141000  1.0
  C  C131  1  0.26635000  0.67774000  0.72859000  1.0
  C  C132  1  0.78238000  0.89975000  0.27035000  1.0
  C  C133  1  0.71761000  0.39975000  0.22964000  1.0
  C  C134  1  0.21761000  0.10025000  0.72965000  1.0
  C  C135  1  0.28238000  0.60024000  0.77036000  1.0
  C  C136  1  0.77312000  0.90592000  0.35109000  1.0
  C  C137  1  0.72687000  0.40593000  0.14889000  1.0
  C  C138  1  0.22687000  0.09407000  0.64891000  1.0
  C  C139  1  0.27312000  0.59407000  0.85110000  1.0
  C  C140  1  0.74925000  0.83430000  0.39048000  1.0
  C  C141  1  0.75074000  0.33430000  0.10950000  1.0
  C  C142  1  0.25074000  0.16570000  0.60951000  1.0
  C  C143  1  0.24925000  0.66570000  0.89049000  1.0
  C  C144  1  0.78581000  0.98955000  0.39398000  1.0
  C  C145  1  0.71417000  0.48956000  0.10601000  1.0
  C  C146  1  0.21419000  0.01045000  0.60602000  1.0
  C  C147  1  0.28581000  0.51044000  0.89399000  1.0
  C  C148  1  0.76947000  0.81887000  0.14019000  1.0
  C  C149  1  0.73053000  0.31887000  0.35979000  1.0
  C  C150  1  0.23052000  0.18113000  0.85981000  1.0
  C  C151  1  0.26948000  0.68112000  0.64020000  1.0
  C  C152  1  0.78823000  0.02447000  0.86813000  1.0
  C  C153  1  0.71177000  0.52448000  0.63184000  1.0
  C  C154  1  0.21180000  0.97553000  0.13189000  1.0
  C  C155  1  0.28822000  0.47552000  0.36814000  1.0
  C  C156  1  0.77337000  0.11154000  0.83124000  1.0
  C  C157  1  0.72663000  0.61154000  0.66874000  1.0
  C  C158  1  0.22668000  0.88847000  0.16879000  1.0
  C  C159  1  0.27335000  0.38845000  0.33125000  1.0
  C  C160  1  0.78419000  0.12416000  0.75148000  1.0
  C  C161  1  0.71580000  0.62417000  0.74850000  1.0
  C  C162  1  0.21586000  0.87584000  0.24855000  1.0
  C  C163  1  0.28417000  0.37583000  0.25148000  1.0
  C  C164  1  0.77457000  0.20525000  0.71748000  1.0
  C  C165  1  0.72542000  0.70526000  0.78251000  1.0
  C  C166  1  0.22546000  0.79475000  0.28255000  1.0
  C  C167  1  0.27456000  0.29474000  0.21748000  1.0
  C  C168  1  0.75489000  0.27418000  0.76284000  1.0
  C  C169  1  0.74510000  0.77419000  0.73715000  1.0
  C  C170  1  0.24513000  0.72582000  0.23718000  1.0
  C  C171  1  0.25489000  0.22581000  0.26285000  1.0
  C  C172  1  0.74479000  0.26143000  0.84273000  1.0
  C  C173  1  0.75521000  0.76143000  0.65726000  1.0
  C  C174  1  0.25524000  0.73858000  0.15729000  1.0
  C  C175  1  0.24479000  0.23857000  0.34274000  1.0
  C  C176  1  0.75308000  0.17998000  0.87678000  1.0
  C  C177  1  0.74692000  0.67999000  0.62321000  1.0
  C  C178  1  0.24696000  0.82002000  0.12325000  1.0
  C  C179  1  0.25308000  0.32001000  0.37679000  1.0
  C  C180  1  0.78742000  0.21976000  0.63282000  1.0
  C  C181  1  0.71257000  0.71976000  0.86716000  1.0
  C  C182  1  0.21259000  0.78025000  0.36720000  1.0
  C  C183  1  0.28742000  0.28023000  0.13283000  1.0
  C  C184  1  0.75967000  0.40970000  0.87515000  1.0
  C  C185  1  0.74035000  0.90971000  0.62484000  1.0
  C  C186  1  0.24032000  0.59030000  0.12486000  1.0
  C  C187  1  0.25968000  0.09029000  0.37517000  1.0
  C  C188  1  0.87792000  0.41061000  0.89498000  1.0
  C  C189  1  0.62210000  0.91064000  0.60501000  1.0
  C  C190  1  0.12206000  0.58941000  0.10502000  1.0
  C  C191  1  0.37793000  0.08938000  0.39499000  1.0
  C  C192  1  0.92742000  0.42287000  0.83339000  1.0
  C  C193  1  0.57261000  0.92292000  0.66666667  1.0
  C  C194  1  0.07257000  0.57715000  0.16661000  1.0
  C  C195  1  0.42741000  0.07712000  0.33339000  1.0
  C  C196  1  0.03638000  0.41308000  0.85455000  1.0
  C  C197  1  0.46365000  0.91314000  0.64546000  1.0
  C  C198  1  0.96361000  0.58693000  0.14546000  1.0
  C  C199  1  0.53637000  0.08691000  0.35454000  1.0
  C  C200  1  0.05036000  0.38488000  0.99343000  1.0
  C  C201  1  0.44966000  0.88487000  0.50659000  1.0
  C  C202  1  0.94963000  0.61513000  0.00658000  1.0
  C  C203  1  0.55037000  0.11511000  0.49342000  1.0
  C  C204  1  0.94220000  0.39244000  0.97697000  1.0
  C  C205  1  0.55782000  0.89245000  0.52303000  1.0
  C  C206  1  0.05779000  0.60757000  0.02303000  1.0
  C  C207  1  0.44220000  0.10754000  0.47697000  1.0
  N  N208  1  0.07817000  0.59268000  0.45931000  1.0
  N  N209  1  0.42183000  0.09268000  0.04068000  1.0
  N  N210  1  0.92181000  0.40731000  0.54069000  1.0
  N  N211  1  0.57818000  0.90731000  0.95931000  1.0
  N  N212  1  0.09737000  0.39343000  0.93308000  1.0
  N  N213  1  0.40265000  0.89345000  0.56694000  1.0
  N  N214  1  0.90262000  0.60658000  0.06693000  1.0
  N  N215  1  0.59737000  0.10656000  0.43306000  1.0
  O  O216  1  0.78997000  0.88671000  0.10728000  1.0
  O  O217  1  0.71002000  0.38671000  0.39271000  1.0
  O  O218  1  0.21003000  0.11328000  0.89272000  1.0
  O  O219  1  0.28997000  0.61328000  0.60729000  1.0
  O  O220  1  0.74626000  0.74986000  0.09943000  1.0
  O  O221  1  0.75374000  0.24986000  0.40055000  1.0
  O  O222  1  0.25373000  0.25013000  0.90057000  1.0
  O  O223  1  0.24627000  0.75013000  0.59944000  1.0
  O  O224  1  0.77098000  0.05673000  0.34928000  1.0
  O  O225  1  0.72902000  0.55674000  0.15071000  1.0
  O  O226  1  0.22904000  0.94327000  0.65072000  1.0
  O  O227  1  0.27097000  0.44326000  0.84929000  1.0
  O  O228  1  0.80759000  0.99268000  0.47415000  1.0
  O  O229  1  0.69238000  0.49269000  0.02584000  1.0
  O  O230  1  0.19240000  0.00732000  0.52585000  1.0
  O  O231  1  0.30758000  0.50731000  0.97416000  1.0
  O  O232  1  0.75659000  0.01109000  0.93248000  1.0
  O  O233  1  0.74339000  0.51111000  0.56748000  1.0
  O  O234  1  0.24343000  0.98891000  0.06753000  1.0
  O  O235  1  0.25660000  0.48889000  0.43250000  1.0
  O  O236  1  0.83015000  0.96884000  0.83423000  1.0
  O  O237  1  0.66985000  0.46885000  0.66574000  1.0
  O  O238  1  0.16986000  0.03116000  0.16578000  1.0
  O  O239  1  0.33014000  0.53115000  0.33424000  1.0
  O  O240  1  0.78349000  0.15494000  0.58639000  1.0
  O  O241  1  0.71649000  0.65493000  0.91359000  1.0
  O  O242  1  0.21653000  0.84507000  0.41363000  1.0
  O  O243  1  0.28348000  0.34506000  0.08640000  1.0
  O  O244  1  0.80173000  0.29495000  0.61223000  1.0
  O  O245  1  0.69825000  0.79494000  0.88776000  1.0
  O  O246  1  0.19824000  0.70506000  0.38778000  1.0
  O  O247  1  0.30176000  0.20505000  0.11225000  1.0
  O  O248  1  0.70391000  0.69086000  0.39033000  1.0
  O  O249  1  0.79609000  0.19086000  0.10965000  1.0
  O  O250  1  0.29607000  0.30913000  0.60967000  1.0
  O  O251  1  0.20392000  0.80914000  0.89033000  1.0
  O  O252  1  0.72703000  0.32583000  0.89188000  1.0
  O  O253  1  0.77298000  0.82583000  0.60811000  1.0
  O  O254  1  0.27298000  0.67417000  0.10814000  1.0
  O  O255  1  0.22704000  0.17417000  0.39190000  1.0
  O  O256  1  0.90924000  0.87082000  0.96386000  1.0
  O  O257  1  0.59074000  0.37085000  0.53612000  1.0
  O  O258  1  0.09078000  0.12916000  0.03614000  1.0
  O  O259  1  0.40923000  0.62916000  0.46386000  1.0
  O  O260  1  0.54885000  0.62273000  0.98921000  1.0
  O  O261  1  0.95112000  0.12271000  0.51077000  1.0
  O  O262  1  0.45113000  0.37728000  0.01080000  1.0
  O  O263  1  0.04889000  0.87728000  0.48924000  1.0
