# generated using pymatgen
data_CuH9C13BrN2
_symmetry_space_group_name_H-M   'P 1'
_cell_length_a   10.54680000
_cell_length_b   12.00850000
_cell_length_c   12.90202953
_cell_angle_alpha   109.16081944
_cell_angle_beta   104.62928913
_cell_angle_gamma   109.59200000
_symmetry_Int_Tables_number   1
_chemical_formula_structural   CuH9C13BrN2
_chemical_formula_sum   'Cu4 H36 C52 Br4 N8'
_cell_volume   1327.96672156
_cell_formula_units_Z   4
loop_
 _symmetry_equiv_pos_site_id
 _symmetry_equiv_pos_as_xyz
  1  'x, y, z'
loop_
 _atom_site_type_symbol
 _atom_site_label
 _atom_site_symmetry_multiplicity
 _atom_site_fract_x
 _atom_site_fract_y
 _atom_site_fract_z
 _atom_site_occupancy
  Cu  Cu0  1  0.54072000  0.75095000  0.32999000  1.0
  Cu  Cu1  1  0.28907000  0.57901000  0.33009000  1.0
  Cu  Cu2  1  0.45928000  0.24905000  0.67001000  1.0
  Cu  Cu3  1  0.71092000  0.42098000  0.66990000  1.0
  H  H4  1  0.60043000  0.63247000  0.48582000  1.0
  H  H5  1  0.38562000  0.85347000  0.48574000  1.0
  H  H6  1  0.39957000  0.36752000  0.51418000  1.0
  H  H7  1  0.61438000  0.14653000  0.51426000  1.0
  H  H8  1  0.74495000  0.70350000  0.70148000  1.0
  H  H9  1  0.45666000  0.99820000  0.70139000  1.0
  H  H10  1  0.25506000  0.29651000  0.29853000  1.0
  H  H11  1  0.54334000  0.00180000  0.29861000  1.0
  H  H12  1  0.88216000  0.10913000  0.75928000  1.0
  H  H13  1  0.37701000  0.65048000  0.75937000  1.0
  H  H14  1  0.11784000  0.89087000  0.24072000  1.0
  H  H15  1  0.62299000  0.34952000  0.24063000  1.0
  H  H16  1  0.72418000  0.02176000  0.54625000  1.0
  H  H17  1  0.32192000  0.52463000  0.54636000  1.0
  H  H18  1  0.27582000  0.97824000  0.45375000  1.0
  H  H19  1  0.67808000  0.47537000  0.45364000  1.0
  H  H20  1  0.73545000  0.84067000  0.89518000  1.0
  H  H21  1  0.65995000  0.05422000  0.89522000  1.0
  H  H22  1  0.26455000  0.15934000  0.10482000  1.0
  H  H23  1  0.34006000  0.94578000  0.10478000  1.0
  H  H24  1  0.31107000  0.29793000  0.02421000  1.0
  H  H25  1  0.21296000  0.72647000  0.02416000  1.0
  H  H26  1  0.68893000  0.70208000  0.97579000  1.0
  H  H27  1  0.78704000  0.27353000  0.97584000  1.0
  H  H28  1  0.46104000  0.36919000  0.91648000  1.0
  H  H29  1  0.95550000  0.54727000  0.91641000  1.0
  H  H30  1  0.53896000  0.63081000  0.08352000  1.0
  H  H31  1  0.04450000  0.45273000  0.08359000  1.0
  H  H32  1  0.20275000  0.01091000  0.60873000  1.0
  H  H33  1  0.90592000  0.59768000  0.60854000  1.0
  H  H34  1  0.79726000  0.98910000  0.39128000  1.0
  H  H35  1  0.09408000  0.40233000  0.39146000  1.0
  H  H36  1  0.04728000  0.92140000  0.70378000  1.0
  H  H37  1  0.15627000  0.78253000  0.70368000  1.0
  H  H38  1  0.95272000  0.07860000  0.29622000  1.0
  H  H39  1  0.84373000  0.21746000  0.29632000  1.0
  C  C40  1  0.66639000  0.73725000  0.55009000  1.0
  C  C41  1  0.38392000  0.81301000  0.55003000  1.0
  C  C42  1  0.33361000  0.26275000  0.44991000  1.0
  C  C43  1  0.61608000  0.18699000  0.44997000  1.0
  C  C44  1  0.74799000  0.77784000  0.66992000  1.0
  C  C45  1  0.42208000  0.89233000  0.66987000  1.0
  C  C46  1  0.25201000  0.22216000  0.33008000  1.0
  C  C47  1  0.57792000  0.10767000  0.33013000  1.0
  C  C48  1  0.83288000  0.91373000  0.74899000  1.0
  C  C49  1  0.41606000  0.83554000  0.74895000  1.0
  C  C50  1  0.16712000  0.08627000  0.25101000  1.0
  C  C51  1  0.58394000  0.16446000  0.25105000  1.0
  C  C52  1  0.82445000  0.00244000  0.70230000  1.0
  C  C53  1  0.37778000  0.70012000  0.70230000  1.0
  C  C54  1  0.17555000  0.99756000  0.29770000  1.0
  C  C55  1  0.62222000  0.29988000  0.29770000  1.0
  C  C56  1  0.73649000  0.95352000  0.58184000  1.0
  C  C57  1  0.34530000  0.62845000  0.58192000  1.0
  C  C58  1  0.26351000  0.04648000  0.41816000  1.0
  C  C59  1  0.65472000  0.37155000  0.41809000  1.0
  C  C60  1  0.92350000  0.95856000  0.87644000  1.0
  C  C61  1  0.45285000  0.91800000  0.87639000  1.0
  C  C62  1  0.07650000  0.04144000  0.12356000  1.0
  C  C63  1  0.54715000  0.08199000  0.12361000  1.0
  C  C64  1  0.85304000  0.90881000  0.94135000  1.0
  C  C65  1  0.58854000  0.03235000  0.94144000  1.0
  C  C66  1  0.14695000  0.09119000  0.05865000  1.0
  C  C67  1  0.41147000  0.96765000  0.05856000  1.0
  C  C68  1  0.07518000  0.05142000  0.93584000  1.0
  C  C69  1  0.36035000  0.88466000  0.93571000  1.0
  C  C70  1  0.92481000  0.94857000  0.06415000  1.0
  C  C71  1  0.63964000  0.11533000  0.06429000  1.0
  C  C72  1  0.16341000  0.10121000  0.87368000  1.0
  C  C73  1  0.21001000  0.77268000  0.87357000  1.0
  C  C74  1  0.83659000  0.89879000  0.12632000  1.0
  C  C75  1  0.78999000  0.22732000  0.12643000  1.0
  C  C76  1  0.28318000  0.22900000  0.93231000  1.0
  C  C77  1  0.14900000  0.70347000  0.93223000  1.0
  C  C78  1  0.71681000  0.77100000  0.06769000  1.0
  C  C79  1  0.85100000  0.29653000  0.06777000  1.0
  C  C80  1  0.36754000  0.27051000  0.87266000  1.0
  C  C81  1  0.00514000  0.60209000  0.87255000  1.0
  C  C82  1  0.63246000  0.72948000  0.12734000  1.0
  C  C83  1  0.99485000  0.39791000  0.12744000  1.0
  C  C84  1  0.22453000  0.07142000  0.70139000  1.0
  C  C85  1  0.97680000  0.62984000  0.70118000  1.0
  C  C86  1  0.77547000  0.92858000  0.29861000  1.0
  C  C87  1  0.02319000  0.37015000  0.29882000  1.0
  C  C88  1  0.13637000  0.02198000  0.75488000  1.0
  C  C89  1  0.11826000  0.73294000  0.75472000  1.0
  C  C90  1  0.86363000  0.97802000  0.24512000  1.0
  C  C91  1  0.88174000  0.26707000  0.24529000  1.0
  Br  Br92  1  0.30341000  0.75238000  0.24768000  1.0
  Br  Br93  1  0.44397000  0.49508000  0.24775000  1.0
  Br  Br94  1  0.69659000  0.24762000  0.75232000  1.0
  Br  Br95  1  0.55604000  0.50492000  0.75225000  1.0
  N  N96  1  0.65954000  0.82269000  0.50430000  1.0
  N  N97  1  0.34492000  0.68179000  0.50431000  1.0
  N  N98  1  0.34046000  0.17731000  0.49570000  1.0
  N  N99  1  0.65507000  0.31820000  0.49568000  1.0
  N  N100  1  0.33979000  0.19401000  0.75808000  1.0
  N  N101  1  0.91825000  0.56402000  0.75800000  1.0
  N  N102  1  0.66020000  0.80599000  0.24192000  1.0
  N  N103  1  0.08175000  0.43598000  0.24200000  1.0
