# generated using pymatgen
data_AlH9C21N(O2F)3
_symmetry_space_group_name_H-M   'P 1'
_cell_length_a   4.10636000
_cell_length_b   23.38760000
_cell_length_c   23.38770000
_cell_angle_alpha   59.99957568
_cell_angle_beta   89.99920000
_cell_angle_gamma   90.00029999
_symmetry_Int_Tables_number   1
_chemical_formula_structural   AlH9C21N(O2F)3
_chemical_formula_sum   'Al3 H27 C63 N3 O18 F9'
_cell_volume   1945.17629032
_cell_formula_units_Z   3
loop_
 _symmetry_equiv_pos_site_id
 _symmetry_equiv_pos_as_xyz
  1  'x, y, z'
loop_
 _atom_site_type_symbol
 _atom_site_label
 _atom_site_symmetry_multiplicity
 _atom_site_fract_x
 _atom_site_fract_y
 _atom_site_fract_z
 _atom_site_occupancy
  Al  Al0  1  0.00511000  0.49972000  0.49972000  1.0
  Al  Al1  1  0.00511000  0.83305000  0.83390000  1.0
  Al  Al2  1  0.00507000  0.16723000  0.16640000  1.0
  H  H3  1  0.79407000  0.07868000  0.05174000  1.0
  H  H4  1  0.79043000  0.07751000  0.94694000  1.0
  H  H5  1  0.21671000  0.25620000  0.85794000  1.0
  H  H6  1  0.21679000  0.05253000  0.92288000  1.0
  H  H7  1  0.79411000  0.03627000  0.74534000  1.0
  H  H8  1  0.79043000  0.14224000  0.74417000  1.0
  H  H9  1  0.21666000  0.19126000  0.71922000  1.0
  H  H10  1  0.79419000  0.38506000  0.70292000  1.0
  H  H11  1  0.79052000  0.28026000  0.80890000  1.0
  H  H12  1  0.21020000  0.63117000  0.94784000  1.0
  H  H13  1  0.20881000  0.52509000  0.05256000  1.0
  H  H14  1  0.78199000  0.61363000  0.14281000  1.0
  H  H15  1  0.78189000  0.47617000  0.07686000  1.0
  H  H16  1  0.21023000  0.28118000  0.25433000  1.0
  H  H17  1  0.20887000  0.38591000  0.25568000  1.0
  H  H18  1  0.78199000  0.41022000  0.28029000  1.0
  H  H19  1  0.21022000  0.58766000  0.29783000  1.0
  H  H20  1  0.20887000  0.58902000  0.19175000  1.0
  H  H21  1  0.21011000  0.92078000  0.63127000  1.0
  H  H22  1  0.20963000  0.92224000  0.52516000  1.0
  H  H23  1  0.78250000  0.74345000  0.61377000  1.0
  H  H24  1  0.78238000  0.94711000  0.47613000  1.0
  H  H25  1  0.21011000  0.96460000  0.28128000  1.0
  H  H26  1  0.20973000  0.85849000  0.38592000  1.0
  H  H27  1  0.78250000  0.80945000  0.41011000  1.0
  H  H28  1  0.21014000  0.61461000  0.58745000  1.0
  H  H29  1  0.20970000  0.71926000  0.58891000  1.0
  C  C30  1  0.50578000  0.58775000  0.49897000  1.0
  C  C31  1  0.50216000  0.41271000  0.58739000  1.0
  C  C32  1  0.50584000  0.49904000  0.41302000  1.0
  C  C33  1  0.50217000  0.92072000  0.83324000  1.0
  C  C34  1  0.50578000  0.83231000  0.74662000  1.0
  C  C35  1  0.50583000  0.74635000  0.92127000  1.0
  C  C36  1  0.50211000  0.16657000  0.07938000  1.0
  C  C37  1  0.50571000  0.07995000  0.25442000  1.0
  C  C38  1  0.50579000  0.25461000  0.16571000  1.0
  C  C39  1  0.66312000  0.11697000  0.00931000  1.0
  C  C40  1  0.66466000  0.11675000  0.94998000  1.0
  C  C41  1  0.50456000  0.16655000  0.89408000  1.0
  C  C42  1  0.34413000  0.21655000  0.89957000  1.0
  C  C43  1  0.34835000  0.21579000  0.95918000  1.0
  C  C44  1  0.50332000  0.16659000  0.01528000  1.0
  C  C45  1  0.34421000  0.05054000  0.88323000  1.0
  C  C46  1  0.34845000  0.99170000  0.88246000  1.0
  C  C47  1  0.50338000  0.98480000  0.83326000  1.0
  C  C48  1  0.66316000  0.04040000  0.78364000  1.0
  C  C49  1  0.66469000  0.09995000  0.78342000  1.0
  C  C50  1  0.50459000  0.10605000  0.83322000  1.0
  C  C51  1  0.34412000  0.23290000  0.71722000  1.0
  C  C52  1  0.34837000  0.29251000  0.65838000  1.0
  C  C53  1  0.50336000  0.34861000  0.65147000  1.0
  C  C54  1  0.66320000  0.34263000  0.70706000  1.0
  C  C55  1  0.66472000  0.28330000  0.76661000  1.0
  C  C56  1  0.50457000  0.22741000  0.77272000  1.0
  C  C57  1  0.33928000  0.62679000  0.99056000  1.0
  C  C58  1  0.33518000  0.56718000  0.04982000  1.0
  C  C59  1  0.49377000  0.56072000  0.10601000  1.0
  C  C60  1  0.65553000  0.61592000  0.10094000  1.0
  C  C61  1  0.65368000  0.67483000  0.04142000  1.0
  C  C62  1  0.50024000  0.68207000  0.98507000  1.0
  C  C63  1  0.65547000  0.43428000  0.11647000  1.0
  C  C64  1  0.65360000  0.37477000  0.11707000  1.0
  C  C65  1  0.50020000  0.31841000  0.16619000  1.0
  C  C66  1  0.33928000  0.32390000  0.21599000  1.0
  C  C67  1  0.33520000  0.38317000  0.21633000  1.0
  C  C68  1  0.49376000  0.43935000  0.16660000  1.0
  C  C69  1  0.65554000  0.44981000  0.28258000  1.0
  C  C70  1  0.65370000  0.45042000  0.34148000  1.0
  C  C71  1  0.50026000  0.49953000  0.34873000  1.0
  C  C72  1  0.33929000  0.54932000  0.29345000  1.0
  C  C73  1  0.33522000  0.54967000  0.23383000  1.0
  C  C74  1  0.49380000  0.49994000  0.22738000  1.0
  C  C75  1  0.33974000  0.88249000  0.62691000  1.0
  C  C76  1  0.33601000  0.88288000  0.56726000  1.0
  C  C77  1  0.49482000  0.83320000  0.56077000  1.0
  C  C78  1  0.65606000  0.78304000  0.61603000  1.0
  C  C79  1  0.65352000  0.78361000  0.67497000  1.0
  C  C80  1  0.50039000  0.83271000  0.68228000  1.0
  C  C81  1  0.65596000  0.94937000  0.43427000  1.0
  C  C82  1  0.65340000  0.00831000  0.37476000  1.0
  C  C83  1  0.50028000  0.01561000  0.31836000  1.0
  C  C84  1  0.33973000  0.96025000  0.32393000  1.0
  C  C85  1  0.33604000  0.90059000  0.38319000  1.0
  C  C86  1  0.49482000  0.89410000  0.43937000  1.0
  C  C87  1  0.65606000  0.76760000  0.44970000  1.0
  C  C88  1  0.65352000  0.70809000  0.45027000  1.0
  C  C89  1  0.50037000  0.65168000  0.49938000  1.0
  C  C90  1  0.33977000  0.65726000  0.54916000  1.0
  C  C91  1  0.33605000  0.71652000  0.54956000  1.0
  C  C92  1  0.49484000  0.77270000  0.49986000  1.0
  N  N93  1  0.50476000  0.16667000  0.83334000  1.0
  N  N94  1  0.49118000  0.50000000  0.16666667  1.0
  N  N95  1  0.49271000  0.83333000  0.50000333  1.0
  O  O96  1  0.27139000  0.47040000  0.45257000  1.0
  O  O97  1  0.27125000  0.57693000  0.47031000  1.0
  O  O98  1  0.26637000  0.45202000  0.57772000  1.0
  O  O99  1  0.74355000  0.52837000  0.42245000  1.0
  O  O100  1  0.73850000  0.42328000  0.54843000  1.0
  O  O101  1  0.74345000  0.54904000  0.52839000  1.0
  O  O102  1  0.74353000  0.75580000  0.88251000  1.0
  O  O103  1  0.73852000  0.88177000  0.86162000  1.0
  O  O104  1  0.74346000  0.86173000  0.75590000  1.0
  O  O105  1  0.27139000  0.78591000  0.91036000  1.0
  O  O106  1  0.27125000  0.80366000  0.78609000  1.0
  O  O107  1  0.26639000  0.91105000  0.80360000  1.0
  O  O108  1  0.74349000  0.21585000  0.19503000  1.0
  O  O109  1  0.73848000  0.19496000  0.08995000  1.0
  O  O110  1  0.74338000  0.08924000  0.21572000  1.0
  O  O111  1  0.27135000  0.24369000  0.13708000  1.0
  O  O112  1  0.27119000  0.11944000  0.24360000  1.0
  O  O113  1  0.26635000  0.13693000  0.11870000  1.0
  F  F114  1  0.19124000  0.26519000  0.96267000  1.0
  F  F115  1  0.19138000  0.93881000  0.93186000  1.0
  F  F116  1  0.19122000  0.29600000  0.60549000  1.0
  F  F117  1  0.81189000  0.72752000  0.03818000  1.0
  F  F118  1  0.81177000  0.37154000  0.06761000  1.0
  F  F119  1  0.81192000  0.40096000  0.39417000  1.0
  F  F120  1  0.81101000  0.73396000  0.72773000  1.0
  F  F121  1  0.81081000  0.06107000  0.37166000  1.0
  F  F122  1  0.81100000  0.70499000  0.40062000  1.0
