# generated using pymatgen
data_Gd2H16C12S3O14
_symmetry_space_group_name_H-M   'P 1'
_cell_length_a   7.95258000
_cell_length_b   10.54780000
_cell_length_c   14.21170000
_cell_angle_alpha   71.08650000
_cell_angle_beta   75.74490000
_cell_angle_gamma   77.09010000
_symmetry_Int_Tables_number   1
_chemical_formula_structural   Gd2H16C12S3O14
_chemical_formula_sum   'Gd4 H32 C24 S6 O28'
_cell_volume   1079.53227168
_cell_formula_units_Z   2
loop_
 _symmetry_equiv_pos_site_id
 _symmetry_equiv_pos_as_xyz
  1  'x, y, z'
loop_
 _atom_site_type_symbol
 _atom_site_label
 _atom_site_symmetry_multiplicity
 _atom_site_fract_x
 _atom_site_fract_y
 _atom_site_fract_z
 _atom_site_occupancy
  Gd  Gd0  1  0.59059000  0.59205000  0.85844000  1.0
  Gd  Gd1  1  0.40941000  0.40795000  0.14156000  1.0
  Gd  Gd2  1  0.00741000  0.80273000  0.59675000  1.0
  Gd  Gd3  1  0.99260000  0.19727000  0.40325000  1.0
  H  H4  1  0.27113000  0.41565000  0.82275000  1.0
  H  H5  1  0.72887000  0.58435000  0.17725000  1.0
  H  H6  1  0.05509000  0.45306000  0.89142000  1.0
  H  H7  1  0.94491000  0.54694000  0.10859000  1.0
  H  H8  1  0.43386000  0.95170000  0.61594000  1.0
  H  H9  1  0.56614000  0.04830000  0.38406000  1.0
  H  H10  1  0.24430000  0.98116000  0.70654000  1.0
  H  H11  1  0.75569000  0.01884000  0.29346000  1.0
  H  H12  1  0.59111000  0.12779000  0.77525000  1.0
  H  H13  1  0.40889000  0.87221000  0.22475000  1.0
  H  H14  1  0.41730000  0.02828000  0.82938000  1.0
  H  H15  1  0.58270000  0.97172000  0.17062000  1.0
  H  H16  1  0.18924000  0.89685000  0.38769000  1.0
  H  H17  1  0.81076000  0.10315000  0.61231000  1.0
  H  H18  1  0.28775000  0.75987000  0.44678000  1.0
  H  H19  1  0.71225000  0.24013000  0.55322000  1.0
  H  H20  1  0.93465000  0.32716000  0.74636000  1.0
  H  H21  1  0.06535000  0.67284000  0.25364000  1.0
  H  H22  1  0.91637000  0.36182000  0.61720000  1.0
  H  H23  1  0.08363000  0.63818000  0.38280000  1.0
  H  H24  1  0.91089000  0.09910000  0.99132000  1.0
  H  H25  1  0.08911000  0.90090000  0.00868000  1.0
  H  H26  1  0.99024000  0.15671000  0.07356000  1.0
  H  H27  1  0.00976000  0.84329000  0.92645000  1.0
  H  H28  1  0.65680000  0.56621000  0.56369000  1.0
  H  H29  1  0.34319000  0.43379000  0.43631000  1.0
  H  H30  1  0.48507000  0.47044000  0.58857000  1.0
  H  H31  1  0.51493000  0.52956000  0.41144000  1.0
  H  H32  1  0.18914000  0.73124000  0.77079000  1.0
  H  H33  1  0.81085000  0.26876000  0.22921000  1.0
  H  H34  1  0.98634000  0.72624000  0.82488000  1.0
  H  H35  1  0.01366000  0.27376000  0.17512000  1.0
  C  C36  1  0.25611000  0.38462000  0.98106000  1.0
  C  C37  1  0.74389000  0.61538000  0.01894000  1.0
  C  C38  1  0.17990000  0.38267000  0.89423000  1.0
  C  C39  1  0.82010000  0.61733000  0.10578000  1.0
  C  C40  1  0.22199000  0.08524000  0.55298000  1.0
  C  C41  1  0.77801000  0.91476000  0.44702000  1.0
  C  C42  1  0.32812000  0.03126000  0.63619000  1.0
  C  C43  1  0.67188000  0.96873000  0.36381000  1.0
  C  C44  1  0.51848000  0.05945000  0.76237000  1.0
  C  C45  1  0.48151000  0.94055000  0.23763000  1.0
  C  C46  1  0.64157000  0.93376000  0.74328000  1.0
  C  C47  1  0.35843000  0.06624000  0.25672000  1.0
  C  C48  1  0.79620000  0.30011000  0.99511000  1.0
  C  C49  1  0.20380000  0.69989000  0.00488000  1.0
  C  C50  1  0.92339000  0.53558000  0.66374000  1.0
  C  C51  1  0.07662000  0.46442000  0.33626000  1.0
  C  C52  1  0.41671000  0.63707000  0.65244000  1.0
  C  C53  1  0.58329000  0.36293000  0.34757000  1.0
  C  C54  1  0.87144000  0.39882000  0.68426000  1.0
  C  C55  1  0.12856000  0.60118000  0.31574000  1.0
  C  C56  1  0.95453000  0.18692000  0.99873000  1.0
  C  C57  1  0.04547000  0.81308000  0.00127000  1.0
  C  C58  1  0.55000000  0.52178000  0.62226000  1.0
  C  C59  1  0.45000000  0.47822000  0.37774000  1.0
  S  S60  1  0.63860000  0.40006000  0.72899000  1.0
  S  S61  1  0.36140000  0.59994000  0.27101000  1.0
  S  S62  1  0.41755000  0.16293000  0.65499000  1.0
  S  S63  1  0.58245000  0.83707000  0.34501000  1.0
  S  S64  1  0.14219000  0.21769000  0.89749000  1.0
  S  S65  1  0.85782000  0.78231000  0.10252000  1.0
  O  O66  1  0.22595000  0.20219000  0.49126000  1.0
  O  O67  1  0.77405000  0.79781000  0.50874000  1.0
  O  O68  1  0.68980000  0.29311000  0.07822000  1.0
  O  O69  1  0.31020000  0.70689000  0.92178000  1.0
  O  O70  1  0.31896000  0.70854000  0.59088000  1.0
  O  O71  1  0.68104000  0.29146000  0.40912000  1.0
  O  O72  1  0.17271000  0.35234000  0.07158000  1.0
  O  O73  1  0.82729000  0.64766000  0.92842000  1.0
  O  O74  1  0.40656000  0.42338000  0.96205000  1.0
  O  O75  1  0.59344000  0.57662000  0.03795000  1.0
  O  O76  1  0.12587000  0.00632000  0.54648000  1.0
  O  O77  1  0.87413000  0.99368000  0.45352000  1.0
  O  O78  1  0.83195000  0.61934000  0.71355000  1.0
  O  O79  1  0.16806000  0.38066000  0.28645000  1.0
  O  O80  1  0.78255000  0.39047000  0.91148000  1.0
  O  O81  1  0.21745000  0.60953000  0.08852000  1.0
  O  O82  1  0.05638000  0.56785000  0.59693000  1.0
  O  O83  1  0.94362000  0.43214000  0.40307000  1.0
  O  O84  1  0.17094000  0.80240000  0.43089000  1.0
  O  O85  1  0.82906000  0.19760000  0.56911000  1.0
  O  O86  1  0.60252000  0.82096000  0.79908000  1.0
  O  O87  1  0.39748000  0.17905000  0.20092000  1.0
  O  O88  1  0.40667000  0.65519000  0.73851000  1.0
  O  O89  1  0.59333000  0.34481000  0.26149000  1.0
  O  O90  1  0.77612000  0.94850000  0.67136000  1.0
  O  O91  1  0.22388000  0.05150000  0.32863000  1.0
  O  O92  1  0.06535000  0.76718000  0.76194000  1.0
  O  O93  1  0.93465000  0.23283000  0.23806000  1.0
