# generated using pymatgen
data_Cu2P2H22C27N2
_symmetry_space_group_name_H-M   'P 1'
_cell_length_a   8.17446000
_cell_length_b   9.10043000
_cell_length_c   9.35013000
_cell_angle_alpha   74.89300000
_cell_angle_beta   64.10100000
_cell_angle_gamma   89.99080000
_symmetry_Int_Tables_number   1
_chemical_formula_structural   Cu2P2H22C27N2
_chemical_formula_sum   'Cu2 P2 H22 C27 N2'
_cell_volume   598.88651453
_cell_formula_units_Z   1
loop_
 _symmetry_equiv_pos_site_id
 _symmetry_equiv_pos_as_xyz
  1  'x, y, z'
loop_
 _atom_site_type_symbol
 _atom_site_label
 _atom_site_symmetry_multiplicity
 _atom_site_fract_x
 _atom_site_fract_y
 _atom_site_fract_z
 _atom_site_occupancy
  Cu  Cu0  1  0.20770000  0.96704000  0.35660000  1.0
  Cu  Cu1  1  0.56428000  0.03306000  0.64350000  1.0
  P  P2  1  0.37222000  0.13248000  0.83709000  1.0
  P  P3  1  0.20920000  0.86739000  0.16312000  1.0
  H  H4  1  0.11726000  0.93557000  0.93820000  1.0
  H  H5  1  0.05541000  0.06437000  0.06174000  1.0
  H  H6  1  0.54037000  0.82440000  0.19510000  1.0
  H  H7  1  0.73545000  0.17559000  0.80460000  1.0
  H  H8  1  0.82894000  0.72589000  0.03639000  1.0
  H  H9  1  0.86594000  0.27418000  0.96293000  1.0
  H  H10  1  0.86745000  0.64290000  0.79128000  1.0
  H  H11  1  0.65988000  0.35722000  0.20817000  1.0
  H  H12  1  0.61855000  0.65652000  0.70596000  1.0
  H  H13  1  0.32559000  0.34358000  0.29392000  1.0
  H  H14  1  0.32680000  0.74638000  0.86898000  1.0
  H  H15  1  0.19637000  0.25361000  0.13126000  1.0
  H  H16  1  0.17880000  0.53533000  0.17294000  1.0
  H  H17  1  0.35162000  0.46440000  0.82731000  1.0
  H  H18  1  0.90845000  0.33402000  0.31048000  1.0
  H  H19  1  0.21885000  0.66587000  0.68976000  1.0
  H  H20  1  0.59502000  0.39971000  0.46121000  1.0
  H  H21  1  0.05613000  0.60047000  0.53885000  1.0
  H  H22  1  0.55247000  0.66903000  0.47033000  1.0
  H  H23  1  0.02236000  0.33115000  0.52985000  1.0
  H  H24  1  0.81962000  0.86744000  0.34201000  1.0
  H  H25  1  0.16102000  0.13251000  0.65828000  1.0
  C  C26  1  0.35465000  0.95203000  0.46620000  1.0
  C  C27  1  0.82075000  0.04813000  0.53376000  1.0
  C  C28  1  0.16543000  0.99993000  0.00007000  1.0
  C  C29  1  0.41451000  0.79077000  0.04402000  1.0
  C  C30  1  0.45874000  0.20916000  0.95602000  1.0
  C  C31  1  0.55732000  0.78532000  0.08918000  1.0
  C  C32  1  0.64676000  0.21467000  0.91059000  1.0
  C  C33  1  0.71984000  0.73189000  0.99850000  1.0
  C  C34  1  0.71893000  0.26811000  0.00108000  1.0
  C  C35  1  0.74117000  0.68511000  0.86152000  1.0
  C  C36  1  0.60361000  0.31494000  0.13813000  1.0
  C  C37  1  0.60041000  0.69157000  0.81428000  1.0
  C  C38  1  0.41558000  0.30849000  0.18558000  1.0
  C  C39  1  0.43718000  0.74385000  0.90507000  1.0
  C  C40  1  0.34284000  0.25615000  0.09500000  1.0
  C  C41  1  0.01827000  0.71507000  0.24714000  1.0
  C  C42  1  0.26510000  0.28475000  0.75312000  1.0
  C  C43  1  0.04154000  0.56464000  0.23791000  1.0
  C  C44  1  0.27927000  0.43519000  0.76231000  1.0
  C  C45  1  0.88950000  0.45175000  0.31456000  1.0
  C  C46  1  0.20388000  0.54818000  0.68564000  1.0
  C  C47  1  0.71355000  0.48824000  0.39963000  1.0
  C  C48  1  0.11298000  0.51184000  0.60047000  1.0
  C  C49  1  0.68931000  0.63873000  0.40630000  1.0
  C  C50  1  0.09527000  0.36135000  0.59387000  1.0
  C  C51  1  0.84048000  0.75154000  0.33167000  1.0
  C  C52  1  0.17174000  0.24842000  0.66857000  1.0
  N  N53  1  0.43562000  0.95371000  0.54360000  1.0
  N  N54  1  0.97908000  0.04636000  0.45633000  1.0
