# generated using pymatgen
data_Mn2H26C51(O2F3)6
_symmetry_space_group_name_H-M   'P 1'
_cell_length_a   7.34261000
_cell_length_b   16.54590000
_cell_length_c   22.02550000
_cell_angle_alpha   95.00690000
_cell_angle_beta   90.02250000
_cell_angle_gamma   102.79700000
_symmetry_Int_Tables_number   1
_chemical_formula_structural   Mn2H26C51(O2F3)6
_chemical_formula_sum   'Mn4 H52 C102 O24 F36'
_cell_volume   2598.92080493
_cell_formula_units_Z   2
loop_
 _symmetry_equiv_pos_site_id
 _symmetry_equiv_pos_as_xyz
  1  'x, y, z'
loop_
 _atom_site_type_symbol
 _atom_site_label
 _atom_site_symmetry_multiplicity
 _atom_site_fract_x
 _atom_site_fract_y
 _atom_site_fract_z
 _atom_site_occupancy
  Mn  Mn0  1  0.45620000  0.44486000  0.75203000  1.0
  Mn  Mn1  1  0.01103000  0.55479000  0.74820000  1.0
  Mn  Mn2  1  0.54371000  0.55512000  0.24797000  1.0
  Mn  Mn3  1  0.98890000  0.44519000  0.25181000  1.0
  H  H4  1  0.30802000  0.29528000  0.68204000  1.0
  H  H5  1  0.01200000  0.70438000  0.81795000  1.0
  H  H6  1  0.69196000  0.70470000  0.31796000  1.0
  H  H7  1  0.98801000  0.29563000  0.18204000  1.0
  H  H8  1  0.10984000  0.29208000  0.38327000  1.0
  H  H9  1  0.81762000  0.70778000  0.11676000  1.0
  H  H10  1  0.89015000  0.70791000  0.61673000  1.0
  H  H11  1  0.18238000  0.29224000  0.88325000  1.0
  H  H12  1  0.21902000  0.19303000  0.44359000  1.0
  H  H13  1  0.02537000  0.80709000  0.05634000  1.0
  H  H14  1  0.78097000  0.80695000  0.55641000  1.0
  H  H15  1  0.97465000  0.19292000  0.94366000  1.0
  H  H16  1  0.78471000  0.33734000  0.43384000  1.0
  H  H17  1  0.44709000  0.66268000  0.06584000  1.0
  H  H18  1  0.21529000  0.66266000  0.56616000  1.0
  H  H19  1  0.55290000  0.33732000  0.93417000  1.0
  H  H20  1  0.67206000  0.43359000  0.37120000  1.0
  H  H21  1  0.23865000  0.56634000  0.12861000  1.0
  H  H22  1  0.32793000  0.56640000  0.62879000  1.0
  H  H23  1  0.76135000  0.43368000  0.87140000  1.0
  H  H24  1  0.77094000  0.42264000  0.62725000  1.0
  H  H25  1  0.34791000  0.57733000  0.87288000  1.0
  H  H26  1  0.22907000  0.57736000  0.37274000  1.0
  H  H27  1  0.65209000  0.42268000  0.12712000  1.0
  H  H28  1  0.13941000  0.25335000  0.60296000  1.0
  H  H29  1  0.88550000  0.74676000  0.89694000  1.0
  H  H30  1  0.86059000  0.74666000  0.39704000  1.0
  H  H31  1  0.11451000  0.25324000  0.10305000  1.0
  H  H32  1  0.44078000  0.11158000  0.66346000  1.0
  H  H33  1  0.32840000  0.88859000  0.83620000  1.0
  H  H34  1  0.55923000  0.88842000  0.33653000  1.0
  H  H35  1  0.67160000  0.11141000  0.16380000  1.0
  H  H36  1  0.59597000  0.99791000  0.68056000  1.0
  H  H37  1  0.59770000  0.00197000  0.81922000  1.0
  H  H38  1  0.40405000  0.00208000  0.31943000  1.0
  H  H39  1  0.40232000  0.99803000  0.18078000  1.0
  H  H40  1  0.02248000  0.17163000  0.79009000  1.0
  H  H41  1  0.85011000  0.82785000  0.71003000  1.0
  H  H42  1  0.97751000  0.82837000  0.20991000  1.0
  H  H43  1  0.14988000  0.17215000  0.28996000  1.0
  H  H44  1  0.86052000  0.28340000  0.77428000  1.0
  H  H45  1  0.57622000  0.71629000  0.72581000  1.0
  H  H46  1  0.13948000  0.71660000  0.22572000  1.0
  H  H47  1  0.42378000  0.28371000  0.27419000  1.0
  H  H48  1  0.92799000  0.16759000  0.52545000  1.0
  H  H49  1  0.76012000  0.83249000  0.97448000  1.0
  H  H50  1  0.07202000  0.83241000  0.47455000  1.0
  H  H51  1  0.23991000  0.16751000  0.02551000  1.0
  H  H52  1  0.55614000  0.33657000  0.54859000  1.0
  H  H53  1  0.21949000  0.66345000  0.95151000  1.0
  H  H54  1  0.44386000  0.66343000  0.45140000  1.0
  H  H55  1  0.78053000  0.33657000  0.04850000  1.0
  C  C56  1  0.59239000  0.19747000  0.47932000  1.0
  C  C57  1  0.39451000  0.80257000  0.02066000  1.0
  C  C58  1  0.40762000  0.80252000  0.52068000  1.0
  C  C59  1  0.60552000  0.19744000  0.97934000  1.0
  C  C60  1  0.51081000  0.25752000  0.44335000  1.0
  C  C61  1  0.25292000  0.74258000  0.05661000  1.0
  C  C62  1  0.48919000  0.74248000  0.55666000  1.0
  C  C63  1  0.74711000  0.25743000  0.94340000  1.0
  C  C64  1  0.81681000  0.07527000  0.73835000  1.0
  C  C65  1  0.74105000  0.92440000  0.76160000  1.0
  C  C66  1  0.18318000  0.92473000  0.26165000  1.0
  C  C67  1  0.25896000  0.07560000  0.23840000  1.0
  C  C68  1  0.63618000  0.32640000  0.42276000  1.0
  C  C69  1  0.30963000  0.67366000  0.07714000  1.0
  C  C70  1  0.36383000  0.67359000  0.57725000  1.0
  C  C71  1  0.69036000  0.32635000  0.92288000  1.0
  C  C72  1  0.97214000  0.34508000  0.61985000  1.0
  C  C73  1  0.62657000  0.65492000  0.88013000  1.0
  C  C74  1  0.02786000  0.65493000  0.38013000  1.0
  C  C75  1  0.37341000  0.34508000  0.11986000  1.0
  C  C76  1  0.44052000  0.13451000  0.51105000  1.0
  C  C77  1  0.30561000  0.86555000  0.98885000  1.0
  C  C78  1  0.55948000  0.86549000  0.48894000  1.0
  C  C79  1  0.69441000  0.13446000  0.01115000  1.0
  C  C80  1  0.32042000  0.24575000  0.42909000  1.0
  C  C81  1  0.07433000  0.75441000  0.07089000  1.0
  C  C82  1  0.67958000  0.75424000  0.57091000  1.0
  C  C83  1  0.92569000  0.24560000  0.92912000  1.0
  C  C84  1  0.56739000  0.12417000  0.69135000  1.0
  C  C85  1  0.44225000  0.87579000  0.80834000  1.0
  C  C86  1  0.43261000  0.87583000  0.30864000  1.0
  C  C87  1  0.55775000  0.12421000  0.19166000  1.0
  C  C88  1  0.63794000  0.20441000  0.71929000  1.0
  C  C89  1  0.43241000  0.79543000  0.78052000  1.0
  C  C90  1  0.36206000  0.79559000  0.28070000  1.0
  C  C91  1  0.56759000  0.20457000  0.21947000  1.0
  C  C92  1  0.80447000  0.22069000  0.75354000  1.0
  C  C93  1  0.58281000  0.77903000  0.74645000  1.0
  C  C94  1  0.19553000  0.77930000  0.24646000  1.0
  C  C95  1  0.41719000  0.22098000  0.25354000  1.0
  C  C96  1  0.10558000  0.40075000  0.66470000  1.0
  C  C97  1  0.70424000  0.59909000  0.83538000  1.0
  C  C98  1  0.89439000  0.59924000  0.33529000  1.0
  C  C99  1  0.29570000  0.40091000  0.16460000  1.0
  C  C100  1  0.31486000  0.42442000  0.33311000  1.0
  C  C101  1  0.89040000  0.57569000  0.16673000  1.0
  C  C102  1  0.68511000  0.57557000  0.66690000  1.0
  C  C103  1  0.10961000  0.42432000  0.83329000  1.0
  C  C104  1  0.53250000  0.27019000  0.71531000  1.0
  C  C105  1  0.26139000  0.72957000  0.78459000  1.0
  C  C106  1  0.46750000  0.72980000  0.28469000  1.0
  C  C107  1  0.73862000  0.27043000  0.21541000  1.0
  C  C108  1  0.89899000  0.99979000  0.75001000  1.0
  C  C109  1  0.10101000  0.00021000  0.24998000  1.0
  C  C110  1  0.65591000  0.06038000  0.70101000  1.0
  C  C111  1  0.59484000  0.93945000  0.79878000  1.0
  C  C112  1  0.34410000  0.93961000  0.29899000  1.0
  C  C113  1  0.40516000  0.06055000  0.20122000  1.0
  C  C114  1  0.57343000  0.38146000  0.38814000  1.0
  C  C115  1  0.19213000  0.61856000  0.11179000  1.0
  C  C116  1  0.42656000  0.61853000  0.61186000  1.0
  C  C117  1  0.80787000  0.38145000  0.88823000  1.0
  C  C118  1  0.89430000  0.15685000  0.76270000  1.0
  C  C119  1  0.73667000  0.84276000  0.73733000  1.0
  C  C120  1  0.10570000  0.84315000  0.23730000  1.0
  C  C121  1  0.26333000  0.15724000  0.26267000  1.0
  C  C122  1  0.38285000  0.36903000  0.37369000  1.0
  C  C123  1  0.01409000  0.63113000  0.12631000  1.0
  C  C124  1  0.61714000  0.63096000  0.62632000  1.0
  C  C125  1  0.98591000  0.36889000  0.87372000  1.0
  C  C126  1  0.68415000  0.31801000  0.56040000  1.0
  C  C127  1  0.36596000  0.68200000  0.93968000  1.0
  C  C128  1  0.31585000  0.68198000  0.43960000  1.0
  C  C129  1  0.63405000  0.31802000  0.06032000  1.0
  C  C130  1  0.25738000  0.30143000  0.39493000  1.0
  C  C131  1  0.95599000  0.69868000  0.10507000  1.0
  C  C132  1  0.74261000  0.69855000  0.60508000  1.0
  C  C133  1  0.04402000  0.30133000  0.89494000  1.0
  C  C134  1  0.89149000  0.22349000  0.54679000  1.0
  C  C135  1  0.66763000  0.77659000  0.95316000  1.0
  C  C136  1  0.10851000  0.77650000  0.45321000  1.0
  C  C137  1  0.33240000  0.22342000  0.04683000  1.0
  C  C138  1  0.68987000  0.14648000  0.43148000  1.0
  C  C139  1  0.54302000  0.85345000  0.06850000  1.0
  C  C140  1  0.31013000  0.85352000  0.56851000  1.0
  C  C141  1  0.45702000  0.14656000  0.93149000  1.0
  C  C142  1  0.72804000  0.24684000  0.52979000  1.0
  C  C143  1  0.48095000  0.75318000  0.97023000  1.0
  C  C144  1  0.27196000  0.75316000  0.47021000  1.0
  C  C145  1  0.51908000  0.24683000  0.02977000  1.0
  C  C146  1  0.01198000  0.27217000  0.59136000  1.0
  C  C147  1  0.73932000  0.72789000  0.90857000  1.0
  C  C148  1  0.98803000  0.72783000  0.40864000  1.0
  C  C149  1  0.26068000  0.27211000  0.09142000  1.0
  C  C150  1  0.80512000  0.36694000  0.60451000  1.0
  C  C151  1  0.43783000  0.63306000  0.89554000  1.0
  C  C152  1  0.19487000  0.63307000  0.39548000  1.0
  C  C153  1  0.56216000  0.36695000  0.10445000  1.0
  C  C154  1  0.01389000  0.98257000  0.69265000  1.0
  C  C155  1  0.03087000  0.01699000  0.80739000  1.0
  C  C156  1  0.98611000  0.01743000  0.30734000  1.0
  C  C157  1  0.96911000  0.98301000  0.19261000  1.0
  O  O158  1  0.58875000  0.34195000  0.74156000  1.0
  O  O159  1  0.24607000  0.65773000  0.75849000  1.0
  O  O160  1  0.41126000  0.65804000  0.25844000  1.0
  O  O161  1  0.75391000  0.34226000  0.24152000  1.0
  O  O162  1  0.24324000  0.37432000  0.68556000  1.0
  O  O163  1  0.86812000  0.62545000  0.81441000  1.0
  O  O164  1  0.75671000  0.62566000  0.31443000  1.0
  O  O165  1  0.13184000  0.37455000  0.18559000  1.0
  O  O166  1  0.08178000  0.47322000  0.67982000  1.0
  O  O167  1  0.60821000  0.52655000  0.82039000  1.0
  O  O168  1  0.91823000  0.52678000  0.32018000  1.0
  O  O169  1  0.39174000  0.47346000  0.17957000  1.0
  O  O170  1  0.14334000  0.40505000  0.31687000  1.0
  O  O171  1  0.73862000  0.59534000  0.18312000  1.0
  O  O172  1  0.85664000  0.59494000  0.68314000  1.0
  O  O173  1  0.26137000  0.40465000  0.81689000  1.0
  O  O174  1  0.43371000  0.48723000  0.31718000  1.0
  O  O175  1  0.94591000  0.51258000  0.18243000  1.0
  O  O176  1  0.56630000  0.51275000  0.68284000  1.0
  O  O177  1  0.05411000  0.48743000  0.81759000  1.0
  O  O178  1  0.37470000  0.24642000  0.68355000  1.0
  O  O179  1  0.12738000  0.75330000  0.81636000  1.0
  O  O180  1  0.62529000  0.75357000  0.31645000  1.0
  O  O181  1  0.87264000  0.24671000  0.18364000  1.0
  F  F182  1  0.84964000  0.19483000  0.41137000  1.0
  F  F183  1  0.65424000  0.80492000  0.08856000  1.0
  F  F184  1  0.15034000  0.80518000  0.58862000  1.0
  F  F185  1  0.34580000  0.19508000  0.91144000  1.0
  F  F186  1  0.57732000  0.11767000  0.38161000  1.0
  F  F187  1  0.45966000  0.88240000  0.11839000  1.0
  F  F188  1  0.42266000  0.88233000  0.61839000  1.0
  F  F189  1  0.54041000  0.11762000  0.88161000  1.0
  F  F190  1  0.73810000  0.07924000  0.45306000  1.0
  F  F191  1  0.65858000  0.92057000  0.04688000  1.0
  F  F192  1  0.26193000  0.92076000  0.54693000  1.0
  F  F193  1  0.34149000  0.07943000  0.95312000  1.0
  F  F194  1  0.51867000  0.09001000  0.54847000  1.0
  F  F195  1  0.42831000  0.91003000  0.95149000  1.0
  F  F196  1  0.48132000  0.90998000  0.45153000  1.0
  F  F197  1  0.57170000  0.08999000  0.04851000  1.0
  F  F198  1  0.33052000  0.17520000  0.54636000  1.0
  F  F199  1  0.15495000  0.82494000  0.95348000  1.0
  F  F200  1  0.66949000  0.82480000  0.45364000  1.0
  F  F201  1  0.84508000  0.17505000  0.04652000  1.0
  F  F202  1  0.32518000  0.07860000  0.47113000  1.0
  F  F203  1  0.24623000  0.92147000  0.02878000  1.0
  F  F204  1  0.67481000  0.92140000  0.52887000  1.0
  F  F205  1  0.75374000  0.07852000  0.97122000  1.0
  F  F206  1  0.12778000  0.92953000  0.70141000  1.0
  F  F207  1  0.19770000  0.07002000  0.79863000  1.0
  F  F208  1  0.87225000  0.07048000  0.29859000  1.0
  F  F209  1  0.80228000  0.92999000  0.20138000  1.0
  F  F210  1  0.89913000  0.94882000  0.64409000  1.0
  F  F211  1  0.94988000  0.05080000  0.85592000  1.0
  F  F212  1  0.10086000  0.05118000  0.35592000  1.0
  F  F213  1  0.05009000  0.94920000  0.14408000  1.0
  F  F214  1  0.12435000  0.05402000  0.67562000  1.0
  F  F215  1  0.07003000  0.94558000  0.82449000  1.0
  F  F216  1  0.87563000  0.94599000  0.32438000  1.0
  F  F217  1  0.92996000  0.05442000  0.17551000  1.0
