# generated using pymatgen
data_CdH18C22(NO2)2
_symmetry_space_group_name_H-M   'P 1'
_cell_length_a   9.53831000
_cell_length_b   10.40430000
_cell_length_c   10.67840000
_cell_angle_alpha   83.35570000
_cell_angle_beta   90.13030000
_cell_angle_gamma   62.71620000
_symmetry_Int_Tables_number   1
_chemical_formula_structural   CdH18C22(NO2)2
_chemical_formula_sum   'Cd2 H36 C44 N4 O8'
_cell_volume   933.65758616
_cell_formula_units_Z   2
loop_
 _symmetry_equiv_pos_site_id
 _symmetry_equiv_pos_as_xyz
  1  'x, y, z'
loop_
 _atom_site_type_symbol
 _atom_site_label
 _atom_site_symmetry_multiplicity
 _atom_site_fract_x
 _atom_site_fract_y
 _atom_site_fract_z
 _atom_site_occupancy
  Cd  Cd0  1  0.89823000  0.43205000  0.36542000  1.0
  Cd  Cd1  1  0.10177000  0.56795000  0.63458000  1.0
  H  H2  1  0.37349000  0.49954000  0.24528000  1.0
  H  H3  1  0.62651000  0.50046000  0.75471000  1.0
  H  H4  1  0.46076000  0.49056000  0.09879000  1.0
  H  H5  1  0.53924000  0.50944000  0.90121000  1.0
  H  H6  1  0.59621000  0.27126000  0.00903000  1.0
  H  H7  1  0.40379000  0.72875000  0.99097000  1.0
  H  H8  1  0.66309000  0.01168000  0.00559000  1.0
  H  H9  1  0.33691000  0.98832000  0.99441000  1.0
  H  H10  1  0.62403000  0.86957000  0.19545000  1.0
  H  H11  1  0.37597000  0.13043000  0.80455000  1.0
  H  H12  1  0.51049000  0.99338000  0.38310000  1.0
  H  H13  1  0.48951000  0.00662000  0.61690000  1.0
  H  H14  1  0.43023000  0.36552000  0.43184000  1.0
  H  H15  1  0.56977000  0.63448000  0.56816000  1.0
  H  H16  1  0.46538000  0.19405000  0.50416000  1.0
  H  H17  1  0.53462000  0.80595000  0.49584000  1.0
  H  H18  1  0.65146000  0.37205000  0.52317000  1.0
  H  H19  1  0.34854000  0.62795000  0.47683000  1.0
  H  H20  1  0.62614000  0.19417000  0.68394000  1.0
  H  H21  1  0.37386000  0.80582000  0.31606000  1.0
  H  H22  1  0.13619000  0.93726000  0.69906000  1.0
  H  H23  1  0.86381000  0.06274000  0.30094000  1.0
  H  H24  1  0.13910000  0.12818000  0.53632000  1.0
  H  H25  1  0.86090000  0.87182000  0.46368000  1.0
  H  H26  1  0.09868000  0.59854000  0.29377000  1.0
  H  H27  1  0.90132000  0.40146000  0.70623000  1.0
  H  H28  1  0.14503000  0.75070000  0.11696000  1.0
  H  H29  1  0.85497000  0.24931000  0.88304000  1.0
  H  H30  1  0.77460000  0.73412000  0.89606000  1.0
  H  H31  1  0.22540000  0.26588000  0.10394000  1.0
  H  H32  1  0.74674000  0.57996000  0.08179000  1.0
  H  H33  1  0.25327000  0.42004000  0.91821000  1.0
  H  H34  1  0.09035000  0.86334000  0.89706000  1.0
  H  H35  1  0.90965000  0.13667000  0.10293000  1.0
  H  H36  1  0.75062000  0.94498000  0.80154000  1.0
  H  H37  1  0.24938000  0.05502000  0.19846000  1.0
  C  C38  1  0.61951000  0.44860000  0.25746000  1.0
  C  C39  1  0.38049000  0.55140000  0.74254000  1.0
  C  C40  1  0.48014000  0.43689000  0.19688000  1.0
  C  C41  1  0.51985000  0.56311000  0.80312000  1.0
  C  C42  1  0.51430000  0.28033000  0.19710000  1.0
  C  C43  1  0.48570000  0.71967000  0.80290000  1.0
  C  C44  1  0.57726000  0.20961000  0.09137000  1.0
  C  C45  1  0.42274000  0.79039000  0.90863000  1.0
  C  C46  1  0.61573000  0.06353000  0.08927000  1.0
  C  C47  1  0.38427000  0.93647000  0.91073000  1.0
  C  C48  1  0.59327000  0.98429000  0.19515000  1.0
  C  C49  1  0.40673000  0.01571000  0.80485000  1.0
  C  C50  1  0.53077000  0.05369000  0.30055000  1.0
  C  C51  1  0.46923000  0.94631000  0.69946000  1.0
  C  C52  1  0.49023000  0.20092000  0.30355000  1.0
  C  C53  1  0.50976000  0.79908000  0.69644000  1.0
  C  C54  1  0.41335000  0.27081000  0.41720000  1.0
  C  C55  1  0.58665000  0.72919000  0.58280000  1.0
  C  C56  1  0.23583000  0.31806000  0.41427000  1.0
  C  C57  1  0.76417000  0.68194000  0.58573000  1.0
  C  C58  1  0.75593000  0.27356000  0.56333000  1.0
  C  C59  1  0.24407000  0.72644000  0.43667000  1.0
  C  C60  1  0.74288000  0.17257000  0.65308000  1.0
  C  C61  1  0.25712000  0.82743000  0.34692000  1.0
  C  C62  1  0.87982000  0.04853000  0.70627000  1.0
  C  C63  1  0.12018000  0.95147000  0.29373000  1.0
  C  C64  1  0.02585000  0.03249000  0.66338000  1.0
  C  C65  1  0.97415000  0.96751000  0.33662000  1.0
  C  C66  1  0.02824000  0.13775000  0.57207000  1.0
  C  C67  1  0.97175000  0.86225000  0.42793000  1.0
  C  C68  1  0.02971000  0.63089000  0.20389000  1.0
  C  C69  1  0.97029000  0.36911000  0.79611000  1.0
  C  C70  1  0.05478000  0.71567000  0.10524000  1.0
  C  C71  1  0.94522000  0.28433000  0.89476000  1.0
  C  C72  1  0.95964000  0.76052000  0.99231000  1.0
  C  C73  1  0.04036000  0.23948000  0.00770000  1.0
  C  C74  1  0.84674000  0.70954000  0.98335000  1.0
  C  C75  1  0.15326000  0.29046000  0.01665000  1.0
  C  C76  1  0.83117000  0.62314000  0.08603000  1.0
  C  C77  1  0.16883000  0.37686000  0.91397000  1.0
  C  C78  1  0.97855000  0.85847000  0.89296000  1.0
  C  C79  1  0.02145000  0.14153000  0.10704000  1.0
  C  C80  1  0.86482000  0.94565000  0.80280000  1.0
  C  C81  1  0.13519000  0.05434000  0.19721000  1.0
  N  N82  1  0.91918000  0.58553000  0.19577000  1.0
  N  N83  1  0.08082000  0.41447000  0.80423000  1.0
  N  N84  1  0.89602000  0.25676000  0.52228000  1.0
  N  N85  1  0.10398000  0.74324000  0.47772000  1.0
  O  O86  1  0.59314000  0.53855000  0.33602000  1.0
  O  O87  1  0.40686000  0.46145000  0.66398000  1.0
  O  O88  1  0.75722000  0.36506000  0.22456000  1.0
  O  O89  1  0.24278000  0.63494000  0.77544000  1.0
  O  O90  1  0.17372000  0.28181000  0.32872000  1.0
  O  O91  1  0.82628000  0.71819000  0.67128000  1.0
  O  O92  1  0.15500000  0.39167000  0.49911000  1.0
  O  O93  1  0.84500000  0.60833000  0.50089000  1.0
