# generated using pymatgen
data_ZnH8C12(IN2)2
_symmetry_space_group_name_H-M   'P 1'
_cell_length_a   14.85430000
_cell_length_b   19.20760000
_cell_length_c   31.22700000
_cell_angle_alpha   101.72800000
_cell_angle_beta   89.99050000
_cell_angle_gamma   112.75300000
_symmetry_Int_Tables_number   1
_chemical_formula_structural   ZnH8C12(IN2)2
_chemical_formula_sum   'Zn12 H96 C144 I24 N48'
_cell_volume   8014.26550047
_cell_formula_units_Z   12
loop_
 _symmetry_equiv_pos_site_id
 _symmetry_equiv_pos_as_xyz
  1  'x, y, z'
loop_
 _atom_site_type_symbol
 _atom_site_label
 _atom_site_symmetry_multiplicity
 _atom_site_fract_x
 _atom_site_fract_y
 _atom_site_fract_z
 _atom_site_occupancy
  Zn  Zn0  1  0.71966000  0.24671000  0.55872000  1.0
  Zn  Zn1  1  0.18468000  0.65761000  0.73240000  1.0
  Zn  Zn2  1  0.04162000  0.83029000  0.91024000  1.0
  Zn  Zn3  1  0.52699000  0.24673000  0.05884000  1.0
  Zn  Zn4  1  0.47312000  0.65756000  0.23240000  1.0
  Zn  Zn5  1  0.78863000  0.83021000  0.41017000  1.0
  Zn  Zn6  1  0.47301000  0.75327000  0.94116000  1.0
  Zn  Zn7  1  0.52688000  0.34244000  0.76760000  1.0
  Zn  Zn8  1  0.21137000  0.16980000  0.58983000  1.0
  Zn  Zn9  1  0.28034000  0.75329000  0.44128000  1.0
  Zn  Zn10  1  0.81532000  0.34240000  0.26760000  1.0
  Zn  Zn11  1  0.95838000  0.16971000  0.08976000  1.0
  H  H12  1  0.62912000  0.14480000  0.61911000  1.0
  H  H13  1  0.47229000  0.03191000  0.62329000  1.0
  H  H14  1  0.37650000  0.03948000  0.49475000  1.0
  H  H15  1  0.53710000  0.15297000  0.49583000  1.0
  H  H16  1  0.57009000  0.31458000  0.56973000  1.0
  H  H17  1  0.53654000  0.41704000  0.62178000  1.0
  H  H18  1  0.80505000  0.46617000  0.69816000  1.0
  H  H19  1  0.82507000  0.35770000  0.64408000  1.0
  H  H20  1  0.39555000  0.50275000  0.66917000  1.0
  H  H21  1  0.24314000  0.53099000  0.67709000  1.0
  H  H22  1  0.38646000  0.72939000  0.77313000  1.0
  H  H23  1  0.54432000  0.70930000  0.76936000  1.0
  H  H24  1  0.07417000  0.64220000  0.64759000  1.0
  H  H25  1  0.08550000  0.72224000  0.59134000  1.0
  H  H26  1  0.35079000  0.89450000  0.66453000  1.0
  H  H27  1  0.32576000  0.81016000  0.71938000  1.0
  H  H28  1  0.71921000  0.73535000  0.81632000  1.0
  H  H29  1  0.84834000  0.81398000  0.87740000  1.0
  H  H30  1  0.00926000  0.67973000  0.84101000  1.0
  H  H31  1  0.88852000  0.59779000  0.77605000  1.0
  H  H32  1  0.83656000  0.75501000  0.47608000  1.0
  H  H33  1  0.98234000  0.77116000  0.52468000  1.0
  H  H34  1  0.14304000  0.98446000  0.48481000  1.0
  H  H35  1  0.99079000  0.95939000  0.43720000  1.0
  H  H36  1  0.51572000  0.14491000  0.11928000  1.0
  H  H37  1  0.55955000  0.03197000  0.12343000  1.0
  H  H38  1  0.66271000  0.03941000  0.99483000  1.0
  H  H39  1  0.61568000  0.15292000  0.99593000  1.0
  H  H40  1  0.74464000  0.31456000  0.06976000  1.0
  H  H41  1  0.88064000  0.41699000  0.12185000  1.0
  H  H42  1  0.66121000  0.46627000  0.19814000  1.0
  H  H43  1  0.53275000  0.35777000  0.14407000  1.0
  H  H44  1  0.10743000  0.50280000  0.16913000  1.0
  H  H45  1  0.28802000  0.53098000  0.17710000  1.0
  H  H46  1  0.34306000  0.72936000  0.27315000  1.0
  H  H47  1  0.16514000  0.70931000  0.26937000  1.0
  H  H48  1  0.56813000  0.64211000  0.14754000  1.0
  H  H49  1  0.63672000  0.72212000  0.09123000  1.0
  H  H50  1  0.54357000  0.89431000  0.16446000  1.0
  H  H51  1  0.48440000  0.81002000  0.21935000  1.0
  H  H52  1  0.01613000  0.73504000  0.31643000  1.0
  H  H53  1  0.96555000  0.81375000  0.37747000  1.0
  H  H54  1  0.67038000  0.67961000  0.34099000  1.0
  H  H55  1  0.70925000  0.59765000  0.27605000  1.0
  H  H56  1  0.91827000  0.75498000  0.97614000  1.0
  H  H57  1  0.78843000  0.77112000  0.02465000  1.0
  H  H58  1  0.84120000  0.98436000  0.98468000  1.0
  H  H59  1  0.96861000  0.95933000  0.93720000  1.0
  H  H60  1  0.48428000  0.85509000  0.88072000  1.0
  H  H61  1  0.44045000  0.96803000  0.87657000  1.0
  H  H62  1  0.33729000  0.96059000  0.00517000  1.0
  H  H63  1  0.38432000  0.84708000  0.00407000  1.0
  H  H64  1  0.25536000  0.68544000  0.93024000  1.0
  H  H65  1  0.11936000  0.58301000  0.87815000  1.0
  H  H66  1  0.33878000  0.53373000  0.80185000  1.0
  H  H67  1  0.46725000  0.64223000  0.85593000  1.0
  H  H68  1  0.89257000  0.49720000  0.83087000  1.0
  H  H69  1  0.71198000  0.46902000  0.82290000  1.0
  H  H70  1  0.65694000  0.27064000  0.72685000  1.0
  H  H71  1  0.83486000  0.29069000  0.73063000  1.0
  H  H72  1  0.43187000  0.35789000  0.85246000  1.0
  H  H73  1  0.36328000  0.27788000  0.90877000  1.0
  H  H74  1  0.45643000  0.10569000  0.83554000  1.0
  H  H75  1  0.51560000  0.18997000  0.78065000  1.0
  H  H76  1  0.98387000  0.26496000  0.68357000  1.0
  H  H77  1  0.03446000  0.18625000  0.62253000  1.0
  H  H78  1  0.32963000  0.32039000  0.65902000  1.0
  H  H79  1  0.29075000  0.40235000  0.72396000  1.0
  H  H80  1  0.08173000  0.24502000  0.02386000  1.0
  H  H81  1  0.21157000  0.22888000  0.97535000  1.0
  H  H82  1  0.15880000  0.01564000  0.01532000  1.0
  H  H83  1  0.03139000  0.04068000  0.06280000  1.0
  H  H84  1  0.37088000  0.85520000  0.38089000  1.0
  H  H85  1  0.52771000  0.96809000  0.37671000  1.0
  H  H86  1  0.62350000  0.96052000  0.50525000  1.0
  H  H87  1  0.46291000  0.84703000  0.50417000  1.0
  H  H88  1  0.42990000  0.68542000  0.43027000  1.0
  H  H89  1  0.46345000  0.58296000  0.37822000  1.0
  H  H90  1  0.19495000  0.53383000  0.30184000  1.0
  H  H91  1  0.17493000  0.64229000  0.35592000  1.0
  H  H92  1  0.60445000  0.49725000  0.33084000  1.0
  H  H93  1  0.75686000  0.46901000  0.32291000  1.0
  H  H94  1  0.61354000  0.27061000  0.22687000  1.0
  H  H95  1  0.45568000  0.29070000  0.23064000  1.0
  H  H96  1  0.92583000  0.35780000  0.35241000  1.0
  H  H97  1  0.91450000  0.27776000  0.40866000  1.0
  H  H98  1  0.64921000  0.10550000  0.33547000  1.0
  H  H99  1  0.67424000  0.18984000  0.28062000  1.0
  H  H100  1  0.28079000  0.26465000  0.18368000  1.0
  H  H101  1  0.15165000  0.18601000  0.12260000  1.0
  H  H102  1  0.99074000  0.32027000  0.15899000  1.0
  H  H103  1  0.11148000  0.40221000  0.22395000  1.0
  H  H104  1  0.16344000  0.24500000  0.52392000  1.0
  H  H105  1  0.01766000  0.22884000  0.47532000  1.0
  H  H106  1  0.85696000  0.01554000  0.51519000  1.0
  H  H107  1  0.00921000  0.04062000  0.56280000  1.0
  C  C108  1  0.57072000  0.11961000  0.59249000  1.0
  C  C109  1  0.48487000  0.05698000  0.59447000  1.0
  C  C110  1  0.41350000  0.02668000  0.55884000  1.0
  C  C111  1  0.43131000  0.06111000  0.52262000  1.0
  C  C112  1  0.51937000  0.12369000  0.52313000  1.0
  C  C113  1  0.62019000  0.34914000  0.59872000  1.0
  C  C114  1  0.60201000  0.40662000  0.62759000  1.0
  C  C115  1  0.66917000  0.45015000  0.66401000  1.0
  C  C116  1  0.75096000  0.43284000  0.67039000  1.0
  C  C117  1  0.76281000  0.37357000  0.64048000  1.0
  C  C118  1  0.65636000  0.51379000  0.69543000  1.0
  C  C119  1  0.57215000  0.58852000  0.71893000  1.0
  C  C120  1  0.71828000  0.61413000  0.75453000  1.0
  C  C121  1  0.48186000  0.60436000  0.71874000  1.0
  C  C122  1  0.39636000  0.55394000  0.69216000  1.0
  C  C123  1  0.31223000  0.56946000  0.69631000  1.0
  C  C124  1  0.39285000  0.68088000  0.74997000  1.0
  C  C125  1  0.47946000  0.66941000  0.74792000  1.0
  C  C126  1  0.13363000  0.69883000  0.65004000  1.0
  C  C127  1  0.14013000  0.74303000  0.61920000  1.0
  C  C128  1  0.28852000  0.83917000  0.66006000  1.0
  C  C129  1  0.27562000  0.79230000  0.68997000  1.0
  C  C130  1  0.79414000  0.66057000  0.79124000  1.0
  C  C131  1  0.78311000  0.72206000  0.82026000  1.0
  C  C132  1  0.85444000  0.76527000  0.85457000  1.0
  C  C133  1  0.94379000  0.68975000  0.83415000  1.0
  C  C134  1  0.87650000  0.64435000  0.79837000  1.0
  C  C135  1  0.90640000  0.80455000  0.47889000  1.0
  C  C136  1  0.98639000  0.81395000  0.50585000  1.0
  C  C137  1  0.07354000  0.87903000  0.50796000  1.0
  C  C138  1  0.07627000  0.93308000  0.48341000  1.0
  C  C139  1  0.99301000  0.91958000  0.45730000  1.0
  C  C140  1  0.16079000  0.89090000  0.53590000  1.0
  C  C141  1  0.22829000  0.86331000  0.59177000  1.0
  C  C142  1  0.32011000  0.96097000  0.56031000  1.0
  C  C143  1  0.21909000  0.81462000  0.62404000  1.0
  C  C144  1  0.54882000  0.11965000  0.09263000  1.0
  C  C145  1  0.57195000  0.05698000  0.09459000  1.0
  C  C146  1  0.61291000  0.02661000  0.05892000  1.0
  C  C147  1  0.62954000  0.06106000  0.02270000  1.0
  C  C148  1  0.60414000  0.12367000  0.02323000  1.0
  C  C149  1  0.72910000  0.34914000  0.09875000  1.0
  C  C150  1  0.80473000  0.40659000  0.12763000  1.0
  C  C151  1  0.78108000  0.45013000  0.16404000  1.0
  C  C152  1  0.68199000  0.43292000  0.17039000  1.0
  C  C153  1  0.61088000  0.37364000  0.14048000  1.0
  C  C154  1  0.85754000  0.51371000  0.19548000  1.0
  C  C155  1  0.01647000  0.58844000  0.21897000  1.0
  C  C156  1  0.89591000  0.61398000  0.25459000  1.0
  C  C157  1  0.12263000  0.60434000  0.21876000  1.0
  C  C158  1  0.15777000  0.55396000  0.19216000  1.0
  C  C159  1  0.25740000  0.56946000  0.19633000  1.0
  C  C160  1  0.28817000  0.68086000  0.25000000  1.0
  C  C161  1  0.19007000  0.66938000  0.24793000  1.0
  C  C162  1  0.56522000  0.69871000  0.14996000  1.0
  C  C163  1  0.60284000  0.74288000  0.11910000  1.0
  C  C164  1  0.55048000  0.83897000  0.15998000  1.0
  C  C165  1  0.51662000  0.79214000  0.18990000  1.0
  C  C166  1  0.86643000  0.66037000  0.29131000  1.0
  C  C167  1  0.93894000  0.72181000  0.32035000  1.0
  C  C168  1  0.91077000  0.76504000  0.35463000  1.0
  C  C169  1  0.74589000  0.68959000  0.33416000  1.0
  C  C170  1  0.76783000  0.64417000  0.29839000  1.0
  C  C171  1  0.89796000  0.80451000  0.97892000  1.0
  C  C172  1  0.82728000  0.81390000  0.00581000  1.0
  C  C173  1  0.80517000  0.87896000  0.00786000  1.0
  C  C174  1  0.85659000  0.93300000  0.98333000  1.0
  C  C175  1  0.92649000  0.91952000  0.95728000  1.0
  C  C176  1  0.72974000  0.89081000  0.03579000  1.0
  C  C177  1  0.63476000  0.86314000  0.09169000  1.0
  C  C178  1  0.64053000  0.96087000  0.06031000  1.0
  C  C179  1  0.59536000  0.81443000  0.12395000  1.0
  C  C180  1  0.45118000  0.88035000  0.90737000  1.0
  C  C181  1  0.42805000  0.94302000  0.90541000  1.0
  C  C182  1  0.38709000  0.97339000  0.94108000  1.0
  C  C183  1  0.37046000  0.93894000  0.97730000  1.0
  C  C184  1  0.39586000  0.87633000  0.97677000  1.0
  C  C185  1  0.27090000  0.65087000  0.90125000  1.0
  C  C186  1  0.19527000  0.59341000  0.87237000  1.0
  C  C187  1  0.21892000  0.54987000  0.83596000  1.0
  C  C188  1  0.31801000  0.56708000  0.82961000  1.0
  C  C189  1  0.38911000  0.62637000  0.85952000  1.0
  C  C190  1  0.14246000  0.48629000  0.80452000  1.0
  C  C191  1  0.98352000  0.41156000  0.78103000  1.0
  C  C192  1  0.10409000  0.38602000  0.74541000  1.0
  C  C193  1  0.87737000  0.39567000  0.78124000  1.0
  C  C194  1  0.84223000  0.44604000  0.80784000  1.0
  C  C195  1  0.74260000  0.43054000  0.80367000  1.0
  C  C196  1  0.71183000  0.31914000  0.75000000  1.0
  C  C197  1  0.80993000  0.33062000  0.75207000  1.0
  C  C198  1  0.43478000  0.30129000  0.85004000  1.0
  C  C199  1  0.39716000  0.25712000  0.88090000  1.0
  C  C200  1  0.44952000  0.16103000  0.84002000  1.0
  C  C201  1  0.48339000  0.20786000  0.81010000  1.0
  C  C202  1  0.13357000  0.33963000  0.70869000  1.0
  C  C203  1  0.06106000  0.27819000  0.67965000  1.0
  C  C204  1  0.08923000  0.23496000  0.64537000  1.0
  C  C205  1  0.25411000  0.31042000  0.66584000  1.0
  C  C206  1  0.23217000  0.35583000  0.70161000  1.0
  C  C207  1  0.10204000  0.19549000  0.02108000  1.0
  C  C208  1  0.17272000  0.18610000  0.99419000  1.0
  C  C209  1  0.19483000  0.12104000  0.99214000  1.0
  C  C210  1  0.14341000  0.06700000  0.01667000  1.0
  C  C211  1  0.07351000  0.08048000  0.04272000  1.0
  C  C212  1  0.27026000  0.10919000  0.96421000  1.0
  C  C213  1  0.36525000  0.13686000  0.90831000  1.0
  C  C214  1  0.35947000  0.03913000  0.93969000  1.0
  C  C215  1  0.40464000  0.18557000  0.87606000  1.0
  C  C216  1  0.42928000  0.88039000  0.40751000  1.0
  C  C217  1  0.51513000  0.94302000  0.40553000  1.0
  C  C218  1  0.58650000  0.97332000  0.44116000  1.0
  C  C219  1  0.56869000  0.93889000  0.47738000  1.0
  C  C220  1  0.48063000  0.87630000  0.47687000  1.0
  C  C221  1  0.37981000  0.65085000  0.40128000  1.0
  C  C222  1  0.39799000  0.59337000  0.37241000  1.0
  C  C223  1  0.33082000  0.54985000  0.33598000  1.0
  C  C224  1  0.24904000  0.56716000  0.32961000  1.0
  C  C225  1  0.23719000  0.62643000  0.35952000  1.0
  C  C226  1  0.34364000  0.48621000  0.30456000  1.0
  C  C227  1  0.42785000  0.41148000  0.28107000  1.0
  C  C228  1  0.28172000  0.38587000  0.24547000  1.0
  C  C229  1  0.51814000  0.39564000  0.28126000  1.0
  C  C230  1  0.60364000  0.44606000  0.30785000  1.0
  C  C231  1  0.68777000  0.43054000  0.30369000  1.0
  C  C232  1  0.60716000  0.31912000  0.25003000  1.0
  C  C233  1  0.52054000  0.33059000  0.25208000  1.0
  C  C234  1  0.86637000  0.30117000  0.34996000  1.0
  C  C235  1  0.85987000  0.25697000  0.38080000  1.0
  C  C236  1  0.71148000  0.16083000  0.33995000  1.0
  C  C237  1  0.72438000  0.20769000  0.31003000  1.0
  C  C238  1  0.20586000  0.33942000  0.20876000  1.0
  C  C239  1  0.21689000  0.27793000  0.17974000  1.0
  C  C240  1  0.14556000  0.23473000  0.14543000  1.0
  C  C241  1  0.05621000  0.31025000  0.16585000  1.0
  C  C242  1  0.12351000  0.35565000  0.20163000  1.0
  C  C243  1  0.09360000  0.19545000  0.52111000  1.0
  C  C244  1  0.01362000  0.18605000  0.49415000  1.0
  C  C245  1  0.92646000  0.12097000  0.49204000  1.0
  C  C246  1  0.92373000  0.06692000  0.51659000  1.0
  C  C247  1  0.00700000  0.08043000  0.54271000  1.0
  C  C248  1  0.83921000  0.10911000  0.46410000  1.0
  C  C249  1  0.77171000  0.13669000  0.40823000  1.0
  C  C250  1  0.67989000  0.03903000  0.43969000  1.0
  C  C251  1  0.78091000  0.18538000  0.37596000  1.0
  I  I252  1  0.72781000  0.28692000  0.48561000  1.0
  I  I253  1  0.84698000  0.21368000  0.59638000  1.0
  I  I254  1  0.21535000  0.75087000  0.80707000  1.0
  I  I255  1  0.03204000  0.53348000  0.70433000  1.0
  I  I256  1  0.11840000  0.94443000  0.87377000  1.0
  I  I257  1  0.11934000  0.76044000  0.94939000  1.0
  I  I258  1  0.55870000  0.28697000  0.98573000  1.0
  I  I259  1  0.36667000  0.21383000  0.09658000  1.0
  I  I260  1  0.53590000  0.75088000  0.30703000  1.0
  I  I261  1  0.50198000  0.53356000  0.20449000  1.0
  I  I262  1  0.82608000  0.94422000  0.37361000  1.0
  I  I263  1  0.64104000  0.76040000  0.44934000  1.0
  I  I264  1  0.44131000  0.71303000  0.01427000  1.0
  I  I265  1  0.63333000  0.78617000  0.90342000  1.0
  I  I266  1  0.46410000  0.24912000  0.69297000  1.0
  I  I267  1  0.49802000  0.46644000  0.79551000  1.0
  I  I268  1  0.17392000  0.05578000  0.62639000  1.0
  I  I269  1  0.35896000  0.23960000  0.55066000  1.0
  I  I270  1  0.27219000  0.71307000  0.51439000  1.0
  I  I271  1  0.15302000  0.78632000  0.40362000  1.0
  I  I272  1  0.78466000  0.24913000  0.19294000  1.0
  I  I273  1  0.96796000  0.46652000  0.29567000  1.0
  I  I274  1  0.88160000  0.05557000  0.12623000  1.0
  I  I275  1  0.88066000  0.23956000  0.05061000  1.0
  N  N276  1  0.58789000  0.15227000  0.55736000  1.0
  N  N277  1  0.69867000  0.33263000  0.60509000  1.0
  N  N278  1  0.72718000  0.55295000  0.72845000  1.0
  N  N279  1  0.64344000  0.63558000  0.75024000  1.0
  N  N280  1  0.57606000  0.52831000  0.68955000  1.0
  N  N281  1  0.93318000  0.74949000  0.86164000  1.0
  N  N282  1  0.31031000  0.63173000  0.72479000  1.0
  N  N283  1  0.19988000  0.72314000  0.68498000  1.0
  N  N284  1  0.90975000  0.85615000  0.45478000  1.0
  N  N285  1  0.14818000  0.84661000  0.56533000  1.0
  N  N286  1  0.31492000  0.92176000  0.59189000  1.0
  N  N287  1  0.24640000  0.94615000  0.53052000  1.0
  N  N288  1  0.56426000  0.15229000  0.05750000  1.0
  N  N289  1  0.63409000  0.33265000  0.10511000  1.0
  N  N290  1  0.82585000  0.55281000  0.22853000  1.0
  N  N291  1  0.99222000  0.63549000  0.25029000  1.0
  N  N292  1  0.95236000  0.52824000  0.18959000  1.0
  N  N293  1  0.81623000  0.74929000  0.36166000  1.0
  N  N294  1  0.32158000  0.63170000  0.22483000  1.0
  N  N295  1  0.52328000  0.72300000  0.18491000  1.0
  N  N296  1  0.94632000  0.85611000  0.95482000  1.0
  N  N297  1  0.69811000  0.84648000  0.06520000  1.0
  N  N298  1  0.60659000  0.92161000  0.09189000  1.0
  N  N299  1  0.69936000  0.94606000  0.03046000  1.0
  N  N300  1  0.43574000  0.84772000  0.94250000  1.0
  N  N301  1  0.36591000  0.66735000  0.89489000  1.0
  N  N302  1  0.17415000  0.44720000  0.77147000  1.0
  N  N303  1  0.00778000  0.36451000  0.74971000  1.0
  N  N304  1  0.04763000  0.47176000  0.81041000  1.0
  N  N305  1  0.18378000  0.25071000  0.63834000  1.0
  N  N306  1  0.67842000  0.36830000  0.77517000  1.0
  N  N307  1  0.47673000  0.27700000  0.81509000  1.0
  N  N308  1  0.05368000  0.14389000  0.04518000  1.0
  N  N309  1  0.30189000  0.15352000  0.93481000  1.0
  N  N310  1  0.39342000  0.07839000  0.90811000  1.0
  N  N311  1  0.30064000  0.05394000  0.96954000  1.0
  N  N312  1  0.41211000  0.84772000  0.44263000  1.0
  N  N313  1  0.30132000  0.66736000  0.39491000  1.0
  N  N314  1  0.27282000  0.44705000  0.27154000  1.0
  N  N315  1  0.35656000  0.36442000  0.24976000  1.0
  N  N316  1  0.42394000  0.47169000  0.31045000  1.0
  N  N317  1  0.06682000  0.25051000  0.13836000  1.0
  N  N318  1  0.68969000  0.36827000  0.27521000  1.0
  N  N319  1  0.80012000  0.27686000  0.31502000  1.0
  N  N320  1  0.09025000  0.14386000  0.54522000  1.0
  N  N321  1  0.85182000  0.15339000  0.43468000  1.0
  N  N322  1  0.68508000  0.07824000  0.40811000  1.0
  N  N323  1  0.75360000  0.05386000  0.46948000  1.0
