# generated using pymatgen
data_Cu3H34C36(NO7)2
_symmetry_space_group_name_H-M   'P 1'
_cell_length_a   9.57589000
_cell_length_b   10.19940000
_cell_length_c   10.54940000
_cell_angle_alpha   110.27500000
_cell_angle_beta   97.23230000
_cell_angle_gamma   110.19300000
_symmetry_Int_Tables_number   1
_chemical_formula_structural   Cu3H34C36(NO7)2
_chemical_formula_sum   'Cu3 H34 C36 N2 O14'
_cell_volume   871.11255809
_cell_formula_units_Z   1
loop_
 _symmetry_equiv_pos_site_id
 _symmetry_equiv_pos_as_xyz
  1  'x, y, z'
loop_
 _atom_site_type_symbol
 _atom_site_label
 _atom_site_symmetry_multiplicity
 _atom_site_fract_x
 _atom_site_fract_y
 _atom_site_fract_z
 _atom_site_occupancy
  Cu  Cu0  1  0.00001000  0.00000000  0.00000000  1.0
  Cu  Cu1  1  0.00478000  0.63287000  0.57836000  1.0
  Cu  Cu2  1  0.99523000  0.36713000  0.42165000  1.0
  H  H3  1  0.21132000  0.88855000  0.92471000  1.0
  H  H4  1  0.78867000  0.11144000  0.07529000  1.0
  H  H5  1  0.65592000  0.28167000  0.12434000  1.0
  H  H6  1  0.34407000  0.71832000  0.87567000  1.0
  H  H7  1  0.09707000  0.33996000  0.11574000  1.0
  H  H8  1  0.90292000  0.66004000  0.88427000  1.0
  H  H9  1  0.21098000  0.62624000  0.20761000  1.0
  H  H10  1  0.78902000  0.37376000  0.79237000  1.0
  H  H11  1  0.33399000  0.90993000  0.29849000  1.0
  H  H12  1  0.66601000  0.09008000  0.70150000  1.0
  H  H13  1  0.62116000  0.04718000  0.33894000  1.0
  H  H14  1  0.37885000  0.95282000  0.66107000  1.0
  H  H15  1  0.77751000  0.89716000  0.28820000  1.0
  H  H16  1  0.22249000  0.10283000  0.71180000  1.0
  H  H17  1  0.65352000  0.61234000  0.20200000  1.0
  H  H18  1  0.34647000  0.38765000  0.79799000  1.0
  H  H19  1  0.92576000  0.49642000  0.06145000  1.0
  H  H20  1  0.07421000  0.50358000  0.93855000  1.0
  H  H21  1  0.81499000  0.59327000  0.13702000  1.0
  H  H22  1  0.18502000  0.40676000  0.86300000  1.0
  H  H23  1  0.01358000  0.70136000  0.16942000  1.0
  H  H24  1  0.98643000  0.29864000  0.83057000  1.0
  H  H25  1  0.88744000  0.84896000  0.50077000  1.0
  H  H26  1  0.11259000  0.15107000  0.49922000  1.0
  H  H27  1  0.91121000  0.04469000  0.58746000  1.0
  H  H28  1  0.08880000  0.95533000  0.41256000  1.0
  H  H29  1  0.74073000  0.89194000  0.57081000  1.0
  H  H30  1  0.25929000  0.10805000  0.42919000  1.0
  H  H31  1  0.51901000  0.80586000  0.65635000  1.0
  H  H32  1  0.48100000  0.19415000  0.34364000  1.0
  H  H33  1  0.49660000  0.69334000  0.47584000  1.0
  H  H34  1  0.50339000  0.30666000  0.52415000  1.0
  H  H35  1  0.51851000  0.61811000  0.60090000  1.0
  H  H36  1  0.48149000  0.38189000  0.39909000  1.0
  C  C37  1  0.33726000  0.93788000  0.96055000  1.0
  C  C38  1  0.66273000  0.06211000  0.03946000  1.0
  C  C39  1  0.42400000  0.09809000  0.03015000  1.0
  C  C40  1  0.57599000  0.90190000  0.96985000  1.0
  C  C41  1  0.58727000  0.15827000  0.06885000  1.0
  C  C42  1  0.41272000  0.84172000  0.93116000  1.0
  C  C43  1  0.35040000  0.20306000  0.06281000  1.0
  C  C44  1  0.64960000  0.79693000  0.93720000  1.0
  C  C45  1  0.20250000  0.32531000  0.10493000  1.0
  C  C46  1  0.79750000  0.67469000  0.89507000  1.0
  C  C47  1  0.35088000  0.43428000  0.14182000  1.0
  C  C48  1  0.64912000  0.56572000  0.85817000  1.0
  C  C49  1  0.42371000  0.60012000  0.19624000  1.0
  C  C50  1  0.57628000  0.39987000  0.80375000  1.0
  C  C51  1  0.33485000  0.68589000  0.22506000  1.0
  C  C52  1  0.66515000  0.31411000  0.77492000  1.0
  C  C53  1  0.40503000  0.84558000  0.27722000  1.0
  C  C54  1  0.59497000  0.15442000  0.72277000  1.0
  C  C55  1  0.56461000  0.92235000  0.30011000  1.0
  C  C56  1  0.43539000  0.07765000  0.69989000  1.0
  C  C57  1  0.65338000  0.83759000  0.27121000  1.0
  C  C58  1  0.34662000  0.16240000  0.72879000  1.0
  C  C59  1  0.58423000  0.67819000  0.22110000  1.0
  C  C60  1  0.41576000  0.32180000  0.77889000  1.0
  C  C61  1  0.92814000  0.58891000  0.15459000  1.0
  C  C62  1  0.07186000  0.41110000  0.84542000  1.0
  C  C63  1  0.95859000  0.55876000  0.28367000  1.0
  C  C64  1  0.04141000  0.44125000  0.71633000  1.0
  C  C65  1  0.86607000  0.92979000  0.58706000  1.0
  C  C66  1  0.13394000  0.07022000  0.41294000  1.0
  C  C67  1  0.93735000  0.93707000  0.72629000  1.0
  C  C68  1  0.06267000  0.06291000  0.27370000  1.0
  C  C69  1  0.46843000  0.68928000  0.57252000  1.0
  C  C70  1  0.53158000  0.31072000  0.42747000  1.0
  C  C71  1  0.29412000  0.61738000  0.54293000  1.0
  C  C72  1  0.70588000  0.38262000  0.45707000  1.0
  N  N73  1  0.20407000  0.18138000  0.05492000  1.0
  N  N74  1  0.79592000  0.81862000  0.94510000  1.0
  O  O75  1  0.44418000  0.35606000  0.11495000  1.0
  O  O76  1  0.55581000  0.64394000  0.88504000  1.0
  O  O77  1  0.97475000  0.66352000  0.40114000  1.0
  O  O78  1  0.02525000  0.33648000  0.59887000  1.0
  O  O79  1  0.96430000  0.43005000  0.26377000  1.0
  O  O80  1  0.03570000  0.56996000  0.73623000  1.0
  O  O81  1  0.00603000  0.85363000  0.73570000  1.0
  O  O82  1  0.99395000  0.14633000  0.26428000  1.0
  O  O83  1  0.92271000  0.03394000  0.83605000  1.0
  O  O84  1  0.07732000  0.96604000  0.16395000  1.0
  O  O85  1  0.23098000  0.70623000  0.59868000  1.0
  O  O86  1  0.76902000  0.29377000  0.40132000  1.0
  O  O87  1  0.22450000  0.47379000  0.46388000  1.0
  O  O88  1  0.77550000  0.52621000  0.53613000  1.0
