# generated using pymatgen
data_LiH2C2O3
_symmetry_space_group_name_H-M   'P 1'
_cell_length_a   5.00524000
_cell_length_b   6.56301000
_cell_length_c   8.85998000
_cell_angle_alpha   84.13770000
_cell_angle_beta   89.99990000
_cell_angle_gamma   89.99660000
_symmetry_Int_Tables_number   1
_chemical_formula_structural   LiH2C2O3
_chemical_formula_sum   'Li4 H8 C8 O12'
_cell_volume   289.52328439
_cell_formula_units_Z   4
loop_
 _symmetry_equiv_pos_site_id
 _symmetry_equiv_pos_as_xyz
  1  'x, y, z'
loop_
 _atom_site_type_symbol
 _atom_site_label
 _atom_site_symmetry_multiplicity
 _atom_site_fract_x
 _atom_site_fract_y
 _atom_site_fract_z
 _atom_site_occupancy
  Li  Li0  1  0.16142000  0.86986000  0.26263000  1.0
  Li  Li1  1  0.66138000  0.13009000  0.23737000  1.0
  Li  Li2  1  0.83868000  0.13010000  0.73736000  1.0
  Li  Li3  1  0.33851000  0.86987000  0.76263000  1.0
  H  H4  1  0.34206000  0.69308000  0.04408000  1.0
  H  H5  1  0.84227000  0.30689000  0.45590000  1.0
  H  H6  1  0.65773000  0.30687000  0.95590000  1.0
  H  H7  1  0.15788000  0.69308000  0.54409000  1.0
  H  H8  1  0.81444000  0.54634000  0.13055000  1.0
  H  H9  1  0.31437000  0.45365000  0.36951000  1.0
  H  H10  1  0.18562000  0.45367000  0.86952000  1.0
  H  H11  1  0.68562000  0.54636000  0.63057000  1.0
  C  C12  1  0.83092000  0.75594000  0.92676000  1.0
  C  C13  1  0.33080000  0.24410000  0.57319000  1.0
  C  C14  1  0.16914000  0.24409000  0.07319000  1.0
  C  C15  1  0.66912000  0.75595000  0.42677000  1.0
  C  C16  1  0.96146000  0.59440000  0.04159000  1.0
  C  C17  1  0.46152000  0.40559000  0.45837000  1.0
  C  C18  1  0.03849000  0.40557000  0.95838000  1.0
  C  C19  1  0.53856000  0.59438000  0.54162000  1.0
  O  O20  1  0.18678000  0.66998000  0.11597000  1.0
  O  O21  1  0.68689000  0.33006000  0.38405000  1.0
  O  O22  1  0.81313000  0.33004000  0.88405000  1.0
  O  O23  1  0.31321000  0.66997000  0.61597000  1.0
  O  O24  1  0.98077000  0.87223000  0.84020000  1.0
  O  O25  1  0.48083000  0.12790000  0.65971000  1.0
  O  O26  1  0.01919000  0.12789000  0.15975000  1.0
  O  O27  1  0.51923000  0.87220000  0.34023000  1.0
  O  O28  1  0.57746000  0.76306000  0.92154000  1.0
  O  O29  1  0.07726000  0.23686000  0.57853000  1.0
  O  O30  1  0.42269000  0.23687000  0.07850000  1.0
  O  O31  1  0.92260000  0.76308000  0.42152000  1.0
