# generated using pymatgen
data_ZnH5C14I4NO4
_symmetry_space_group_name_H-M   'P 1'
_cell_length_a   9.58903000
_cell_length_b   11.00960000
_cell_length_c   13.44270000
_cell_angle_alpha   90.89480000
_cell_angle_beta   97.30050000
_cell_angle_gamma   104.86830000
_symmetry_Int_Tables_number   1
_chemical_formula_structural   ZnH5C14I4NO4
_chemical_formula_sum   'Zn2 H10 C28 I8 N2 O8'
_cell_volume   1358.80643810
_cell_formula_units_Z   2
loop_
 _symmetry_equiv_pos_site_id
 _symmetry_equiv_pos_as_xyz
  1  'x, y, z'
loop_
 _atom_site_type_symbol
 _atom_site_label
 _atom_site_symmetry_multiplicity
 _atom_site_fract_x
 _atom_site_fract_y
 _atom_site_fract_z
 _atom_site_occupancy
  Zn  Zn0  1  0.84707000  0.45607000  0.53605000  1.0
  Zn  Zn1  1  0.13319000  0.51076000  0.47798000  1.0
  H  H2  1  0.16754000  0.15185000  0.49238000  1.0
  H  H3  1  0.60788000  0.22996000  0.87703000  1.0
  H  H4  1  0.65472000  0.53707000  0.39744000  1.0
  H  H5  1  0.00535000  0.32301000  0.14993000  1.0
  H  H6  1  0.29506000  0.44846000  0.78162000  1.0
  H  H7  1  0.54276000  0.57138000  0.20001000  1.0
  H  H8  1  0.88747000  0.87016000  0.46432000  1.0
  H  H9  1  0.37854000  0.48828000  0.34156000  1.0
  H  H10  1  0.39988000  0.54752000  0.55720000  1.0
  H  H11  1  0.67387000  0.47271000  0.24788000  1.0
  C  C12  1  0.99062000  0.71605000  0.48189000  1.0
  C  C13  1  0.68120000  0.34215000  0.01606000  1.0
  C  C14  1  0.63270000  0.40921000  0.09069000  1.0
  C  C15  1  0.09426000  0.54318000  0.69552000  1.0
  C  C16  1  0.81852000  0.31395000  0.03874000  1.0
  C  C17  1  0.89937000  0.34256000  0.13300000  1.0
  C  C18  1  0.71246000  0.42995000  0.18721000  1.0
  C  C19  1  0.08827000  0.07782000  0.52427000  1.0
  C  C20  1  0.98432000  0.11832000  0.56368000  1.0
  C  C21  1  0.10538000  0.95080000  0.51706000  1.0
  C  C22  1  0.99376000  0.85129000  0.48397000  1.0
  C  C23  1  0.31011000  0.49393000  0.94043000  1.0
  C  C24  1  0.57607000  0.49437000  0.44803000  1.0
  C  C25  1  0.42584000  0.50411000  0.42089000  1.0
  C  C26  1  0.97288000  0.25073000  0.54741000  1.0
  C  C27  1  0.92027000  0.42430000  0.31435000  1.0
  C  C28  1  0.15271000  0.56028000  0.80563000  1.0
  C  C29  1  0.84263000  0.39687000  0.20909000  1.0
  C  C30  1  0.14727000  0.62469000  0.97857000  1.0
  C  C31  1  0.09880000  0.62644000  0.87620000  1.0
  C  C32  1  0.25421000  0.49564000  0.83864000  1.0
  C  C33  1  0.26539000  0.57044000  0.01290000  1.0
  C  C34  1  0.41871000  0.42543000  0.96859000  1.0
  C  C35  1  0.50494000  0.45528000  0.06377000  1.0
  C  C36  1  0.47020000  0.54083000  0.13033000  1.0
  C  C37  1  0.35568000  0.59430000  0.10904000  1.0
  C  C38  1  0.45392000  0.33185000  0.90729000  1.0
  C  C39  1  0.58255000  0.29794000  0.92697000  1.0
  I  I40  1  0.36169000  0.73431000  0.22162000  1.0
  I  I41  1  0.90583000  0.23179000  0.92663000  1.0
  I  I42  1  0.82734000  0.00844000  0.64491000  1.0
  I  I43  1  0.32094000  0.93953000  0.56389000  1.0
  I  I44  1  0.49743000  0.34266000  0.62844000  1.0
  I  I45  1  0.02062000  0.68269000  0.07799000  1.0
  I  I46  1  0.96191000  0.73888000  0.81895000  1.0
  I  I47  1  0.30335000  0.21038000  0.79408000  1.0
  N  N48  1  0.62739000  0.44076000  0.52283000  1.0
  N  N49  1  0.34911000  0.53197000  0.48428000  1.0
  O  O50  1  0.87642000  0.64591000  0.51026000  1.0
  O  O51  1  0.09661000  0.68138000  0.45364000  1.0
  O  O52  1  0.95701000  0.49895000  0.67552000  1.0
  O  O53  1  0.18556000  0.56644000  0.63363000  1.0
  O  O54  1  0.85091000  0.27308000  0.55373000  1.0
  O  O55  1  0.08743000  0.32787000  0.52617000  1.0
  O  O56  1  0.83910000  0.43136000  0.38109000  1.0
  O  O57  1  0.05766000  0.44091000  0.33046000  1.0
