# generated using pymatgen
data_ZnH18C10(NO4)2
_symmetry_space_group_name_H-M   'P 1'
_cell_length_a   7.99631000
_cell_length_b   8.51069000
_cell_length_c   11.83310000
_cell_angle_alpha   90.00010000
_cell_angle_beta   90.00010000
_cell_angle_gamma   66.36700000
_symmetry_Int_Tables_number   1
_chemical_formula_structural   ZnH18C10(NO4)2
_chemical_formula_sum   'Zn2 H36 C20 N4 O16'
_cell_volume   737.75299063
_cell_formula_units_Z   2
loop_
 _symmetry_equiv_pos_site_id
 _symmetry_equiv_pos_as_xyz
  1  'x, y, z'
loop_
 _atom_site_type_symbol
 _atom_site_label
 _atom_site_symmetry_multiplicity
 _atom_site_fract_x
 _atom_site_fract_y
 _atom_site_fract_z
 _atom_site_occupancy
  Zn  Zn0  1  0.00000000  0.00000000  0.00000000  1.0
  Zn  Zn1  1  0.50000000  0.00000000  0.50000000  1.0
  H  H2  1  0.99796000  0.83403000  0.75569000  1.0
  H  H3  1  0.49796000  0.83403000  0.74430000  1.0
  H  H4  1  0.00204000  0.16597000  0.24430000  1.0
  H  H5  1  0.50204000  0.16597000  0.25570000  1.0
  H  H6  1  0.22253000  0.32323000  0.81683000  1.0
  H  H7  1  0.72253000  0.32323000  0.68317000  1.0
  H  H8  1  0.77747000  0.67677000  0.18317000  1.0
  H  H9  1  0.27747000  0.67677000  0.31683000  1.0
  H  H10  1  0.98545000  0.38304000  0.84071000  1.0
  H  H11  1  0.48545000  0.38303000  0.65929000  1.0
  H  H12  1  0.01455000  0.61697000  0.15929000  1.0
  H  H13  1  0.51455000  0.61697000  0.34071000  1.0
  H  H14  1  0.11152000  0.46168000  0.93259000  1.0
  H  H15  1  0.61152000  0.46168000  0.56741000  1.0
  H  H16  1  0.88847000  0.53832000  0.06741000  1.0
  H  H17  1  0.38848000  0.53832000  0.43259000  1.0
  H  H18  1  0.93032000  0.52097000  0.63297000  1.0
  H  H19  1  0.43032000  0.52097000  0.86703000  1.0
  H  H20  1  0.06968000  0.47903000  0.36703000  1.0
  H  H21  1  0.56968000  0.47903000  0.13297000  1.0
  H  H22  1  0.17138000  0.45355000  0.62086000  1.0
  H  H23  1  0.67138000  0.45355000  0.87914000  1.0
  H  H24  1  0.82862000  0.54645000  0.37914000  1.0
  H  H25  1  0.32862000  0.54645000  0.12086000  1.0
  H  H26  1  0.02260000  0.67696000  0.60949000  1.0
  H  H27  1  0.52260000  0.67695000  0.89051000  1.0
  H  H28  1  0.97740000  0.32305000  0.39051000  1.0
  H  H29  1  0.47740000  0.32304000  0.10949000  1.0
  H  H30  1  0.05383000  0.88423000  0.20978000  1.0
  H  H31  1  0.55383000  0.88423000  0.29022000  1.0
  H  H32  1  0.94617000  0.11577000  0.79022000  1.0
  H  H33  1  0.44617000  0.11577000  0.70978000  1.0
  H  H34  1  0.24495000  0.87860000  0.16050000  1.0
  H  H35  1  0.74495000  0.87860000  0.33950000  1.0
  H  H36  1  0.75505000  0.12140000  0.83950000  1.0
  H  H37  1  0.25505000  0.12140000  0.66050000  1.0
  C  C38  1  0.38114000  0.99649000  0.96475000  1.0
  C  C39  1  0.88114000  0.99649000  0.53526000  1.0
  C  C40  1  0.61886000  0.00351000  0.03525000  1.0
  C  C41  1  0.11886000  0.00351000  0.46475000  1.0
  C  C42  1  0.46852000  0.96040000  0.07740000  1.0
  C  C43  1  0.96852000  0.96040000  0.42260000  1.0
  C  C44  1  0.53148000  0.03959000  0.92260000  1.0
  C  C45  1  0.03148000  0.03959000  0.57740000  1.0
  C  C46  1  0.02690000  0.73103000  0.81865000  1.0
  C  C47  1  0.52690000  0.73102000  0.68135000  1.0
  C  C48  1  0.97310000  0.26897000  0.18135000  1.0
  C  C49  1  0.47310000  0.26897000  0.31865000  1.0
  C  C50  1  0.09650000  0.42764000  0.84528000  1.0
  C  C51  1  0.59650000  0.42764000  0.65472000  1.0
  C  C52  1  0.90350000  0.57236000  0.15472000  1.0
  C  C53  1  0.40350000  0.57236000  0.34528000  1.0
  C  C54  1  0.04555000  0.55597000  0.65230000  1.0
  C  C55  1  0.54555000  0.55597000  0.84770000  1.0
  C  C56  1  0.95445000  0.44403000  0.34769000  1.0
  C  C57  1  0.45445000  0.44403000  0.15231000  1.0
  N  N58  1  0.05773000  0.57752000  0.77377000  1.0
  N  N59  1  0.55773000  0.57752000  0.72623000  1.0
  N  N60  1  0.94227000  0.42248000  0.22623000  1.0
  N  N61  1  0.44227000  0.42248000  0.27377000  1.0
  O  O62  1  0.24116000  0.99144000  0.91916000  1.0
  O  O63  1  0.74116000  0.99145000  0.58085000  1.0
  O  O64  1  0.75884000  0.00856000  0.08084000  1.0
  O  O65  1  0.25884000  0.00855000  0.41916000  1.0
  O  O66  1  0.43074000  0.91181000  0.17139000  1.0
  O  O67  1  0.93074000  0.91181000  0.32861000  1.0
  O  O68  1  0.56926000  0.08819000  0.82861000  1.0
  O  O69  1  0.06926000  0.08819000  0.67139000  1.0
  O  O70  1  0.03015000  0.75815000  0.92272000  1.0
  O  O71  1  0.53015000  0.75815000  0.57728000  1.0
  O  O72  1  0.96985000  0.24186000  0.07727000  1.0
  O  O73  1  0.46985000  0.24186000  0.42273000  1.0
  O  O74  1  0.13248000  0.85871000  0.14078000  1.0
  O  O75  1  0.63248000  0.85871000  0.35922000  1.0
  O  O76  1  0.86752000  0.14129000  0.85922000  1.0
  O  O77  1  0.36752000  0.14129000  0.64078000  1.0
