# generated using pymatgen
data_K3BiH48C30S6(N7O2)2
_symmetry_space_group_name_H-M   'P 1'
_cell_length_a   10.90100000
_cell_length_b   11.03150000
_cell_length_c   12.13980000
_cell_angle_alpha   73.24660000
_cell_angle_beta   63.81960000
_cell_angle_gamma   65.24210000
_symmetry_Int_Tables_number   1
_chemical_formula_structural   K3BiH48C30S6(N7O2)2
_chemical_formula_sum   'K3 Bi1 H48 C30 S6 N14 O4'
_cell_volume   1180.04751356
_cell_formula_units_Z   1
loop_
 _symmetry_equiv_pos_site_id
 _symmetry_equiv_pos_as_xyz
  1  'x, y, z'
loop_
 _atom_site_type_symbol
 _atom_site_label
 _atom_site_symmetry_multiplicity
 _atom_site_fract_x
 _atom_site_fract_y
 _atom_site_fract_z
 _atom_site_occupancy
  K  K0  1  0.00000000  0.50000000  0.50000000  1.0
  K  K1  1  0.92510000  0.19580000  0.53723000  1.0
  K  K2  1  0.07489000  0.80421000  0.46278000  1.0
  Bi  Bi3  1  0.00001000  0.00000000  0.99999000  1.0
  H  H4  1  0.44091000  0.04682000  0.30631000  1.0
  H  H5  1  0.55909000  0.95318000  0.69369000  1.0
  H  H6  1  0.27981000  0.01152000  0.34693000  1.0
  H  H7  1  0.72019000  0.98848000  0.65307000  1.0
  H  H8  1  0.27085000  0.14883000  0.40460000  1.0
  H  H9  1  0.72914000  0.85118000  0.59540000  1.0
  H  H10  1  0.50996000  0.12980000  0.07804000  1.0
  H  H11  1  0.49003000  0.87020000  0.92196000  1.0
  H  H12  1  0.40445000  0.02881000  0.10782000  1.0
  H  H13  1  0.59556000  0.97119000  0.89218000  1.0
  H  H14  1  0.43816000  0.19782000  0.90402000  1.0
  H  H15  1  0.56183000  0.80218000  0.09598000  1.0
  H  H16  1  0.26004000  0.19187000  0.99505000  1.0
  H  H17  1  0.73996000  0.80812000  0.00496000  1.0
  H  H18  1  0.24559000  0.42919000  0.93738000  1.0
  H  H19  1  0.75440000  0.57080000  0.06262000  1.0
  H  H20  1  0.38049000  0.39780000  0.99598000  1.0
  H  H21  1  0.61951000  0.60220000  0.00401000  1.0
  H  H22  1  0.99752000  0.52460000  0.08115000  1.0
  H  H23  1  0.00248000  0.47541000  0.91885000  1.0
  H  H24  1  0.09444000  0.60181000  0.10958000  1.0
  H  H25  1  0.90556000  0.39819000  0.89041000  1.0
  H  H26  1  0.98174000  0.51846000  0.23547000  1.0
  H  H27  1  0.01827000  0.48155000  0.76453000  1.0
  H  H28  1  0.51822000  0.49199000  0.82814000  1.0
  H  H29  1  0.48178000  0.50802000  0.17186000  1.0
  H  H30  1  0.59815000  0.60934000  0.81556000  1.0
  H  H31  1  0.40185000  0.39067000  0.18443000  1.0
  H  H32  1  0.70691000  0.46077000  0.74020000  1.0
  H  H33  1  0.29309000  0.53923000  0.25979000  1.0
  H  H34  1  0.43834000  0.78801000  0.73892000  1.0
  H  H35  1  0.56165000  0.21199000  0.26108000  1.0
  H  H36  1  0.34137000  0.70883000  0.71663000  1.0
  H  H37  1  0.65862000  0.29117000  0.28336000  1.0
  H  H38  1  0.34460000  0.90910000  0.56436000  1.0
  H  H39  1  0.65540000  0.09090000  0.43562000  1.0
  H  H40  1  0.53694000  0.86316000  0.51593000  1.0
  H  H41  1  0.46306000  0.13684000  0.48407000  1.0
  H  H42  1  0.37340000  0.71462000  0.48368000  1.0
  H  H43  1  0.62660000  0.28538000  0.51631000  1.0
  H  H44  1  0.48935000  0.79843000  0.36514000  1.0
  H  H45  1  0.51065000  0.20156000  0.63485000  1.0
  H  H46  1  0.71603000  0.63416000  0.25920000  1.0
  H  H47  1  0.28398000  0.36583000  0.74080000  1.0
  H  H48  1  0.59388000  0.54299000  0.31258000  1.0
  H  H49  1  0.40613000  0.45700000  0.68741000  1.0
  H  H50  1  0.75891000  0.46902000  0.34278000  1.0
  H  H51  1  0.24110000  0.53098000  0.65721000  1.0
  C  C52  1  0.13837000  0.18343000  0.70986000  1.0
  C  C53  1  0.86163000  0.81657000  0.29015000  1.0
  C  C54  1  0.73655000  0.17792000  0.85566000  1.0
  C  C55  1  0.26345000  0.82208000  0.14434000  1.0
  C  C56  1  0.94507000  0.11954000  0.26545000  1.0
  C  C57  1  0.05492000  0.88046000  0.73457000  1.0
  C  C58  1  0.18571000  0.30073000  0.23240000  1.0
  C  C59  1  0.81429000  0.69927000  0.76760000  1.0
  C  C60  1  0.32358000  0.09277000  0.32523000  1.0
  C  C61  1  0.67642000  0.90723000  0.67478000  1.0
  C  C62  1  0.39976000  0.13285000  0.09770000  1.0
  C  C63  1  0.60023000  0.86715000  0.90231000  1.0
  C  C64  1  0.34791000  0.21775000  0.99316000  1.0
  C  C65  1  0.65208000  0.78225000  0.00684000  1.0
  C  C66  1  0.29129000  0.36583000  0.00783000  1.0
  C  C67  1  0.70870000  0.63417000  0.99217000  1.0
  C  C68  1  0.05603000  0.51571000  0.13902000  1.0
  C  C69  1  0.94397000  0.48429000  0.86098000  1.0
  C  C70  1  0.64381000  0.55638000  0.54721000  1.0
  C  C71  1  0.35619000  0.44362000  0.45279000  1.0
  C  C72  1  0.60028000  0.53960000  0.76548000  1.0
  C  C73  1  0.39972000  0.46040000  0.23451000  1.0
  C  C74  1  0.44145000  0.73515000  0.67305000  1.0
  C  C75  1  0.55855000  0.26485000  0.32694000  1.0
  C  C76  1  0.44695000  0.82403000  0.55078000  1.0
  C  C77  1  0.55305000  0.17596000  0.44921000  1.0
  C  C78  1  0.47024000  0.74151000  0.45823000  1.0
  C  C79  1  0.52977000  0.25848000  0.54177000  1.0
  C  C80  1  0.67076000  0.56293000  0.33495000  1.0
  C  C81  1  0.32925000  0.43706000  0.66504000  1.0
  S  S82  1  0.22723000  0.08199000  0.80011000  1.0
  S  S83  1  0.77277000  0.91800000  0.19989000  1.0
  S  S84  1  0.75675000  0.21854000  0.96596000  1.0
  S  S85  1  0.24325000  0.78145000  0.03404000  1.0
  S  S86  1  0.97206000  0.19869000  0.12381000  1.0
  S  S87  1  0.02792000  0.80131000  0.87622000  1.0
  N  N88  1  0.07596000  0.25630000  0.64433000  1.0
  N  N89  1  0.92404000  0.74371000  0.35568000  1.0
  N  N90  1  0.71735000  0.15313000  0.77738000  1.0
  N  N91  1  0.28264000  0.84687000  0.22263000  1.0
  N  N92  1  0.92501000  0.06648000  0.36838000  1.0
  N  N93  1  0.07497000  0.93353000  0.63164000  1.0
  N  N94  1  0.30225000  0.18378000  0.21670000  1.0
  N  N95  1  0.69775000  0.81622000  0.78330000  1.0
  N  N96  1  0.17626000  0.38971000  0.12878000  1.0
  N  N97  1  0.82374000  0.61029000  0.87122000  1.0
  N  N98  1  0.56970000  0.61353000  0.65517000  1.0
  N  N99  1  0.43030000  0.38646000  0.34483000  1.0
  N  N100  1  0.59702000  0.61936000  0.45081000  1.0
  N  N101  1  0.40299000  0.38063000  0.54919000  1.0
  O  O102  1  0.09265000  0.32651000  0.33881000  1.0
  O  O103  1  0.90735000  0.67350000  0.66119000  1.0
  O  O104  1  0.75300000  0.44999000  0.53692000  1.0
  O  O105  1  0.24700000  0.55001000  0.46308000  1.0
