# generated using pymatgen
data_VH13C12SNO5
_symmetry_space_group_name_H-M   'P 1'
_cell_length_a   6.75649000
_cell_length_b   13.19090000
_cell_length_c   16.44910000
_cell_angle_alpha   90.00010000
_cell_angle_beta   90.00020000
_cell_angle_gamma   89.99970000
_symmetry_Int_Tables_number   1
_chemical_formula_structural   VH13C12SNO5
_chemical_formula_sum   'V4 H52 C48 S4 N4 O20'
_cell_volume   1466.01261403
_cell_formula_units_Z   4
loop_
 _symmetry_equiv_pos_site_id
 _symmetry_equiv_pos_as_xyz
  1  'x, y, z'
loop_
 _atom_site_type_symbol
 _atom_site_label
 _atom_site_symmetry_multiplicity
 _atom_site_fract_x
 _atom_site_fract_y
 _atom_site_fract_z
 _atom_site_occupancy
  V  V0  1  0.91965000  0.73097000  0.99966000  1.0
  V  V1  1  0.58037000  0.26903000  0.49966000  1.0
  V  V2  1  0.08037000  0.23098000  0.50033000  1.0
  V  V3  1  0.41966000  0.76902000  0.00034000  1.0
  H  H4  1  0.93850000  0.47455000  0.15153000  1.0
  H  H5  1  0.56150000  0.52545000  0.65152000  1.0
  H  H6  1  0.06150000  0.97454000  0.34847000  1.0
  H  H7  1  0.43850000  0.02546000  0.84846000  1.0
  H  H8  1  0.54110000  0.57477000  0.18339000  1.0
  H  H9  1  0.95891000  0.42522000  0.68340000  1.0
  H  H10  1  0.45890000  0.07477000  0.31660000  1.0
  H  H11  1  0.04111000  0.92523000  0.81661000  1.0
  H  H12  1  0.57757000  0.46266000  0.30370000  1.0
  H  H13  1  0.92245000  0.53732000  0.80371000  1.0
  H  H14  1  0.42243000  0.96265000  0.19630000  1.0
  H  H15  1  0.07759000  0.03734000  0.69630000  1.0
  H  H16  1  0.97447000  0.36089000  0.27289000  1.0
  H  H17  1  0.52554000  0.63911000  0.77289000  1.0
  H  H18  1  0.02555000  0.86089000  0.22709000  1.0
  H  H19  1  0.47447000  0.13911000  0.72709000  1.0
  H  H20  1  0.98473000  0.43185000  0.92922000  1.0
  H  H21  1  0.51526000  0.56815000  0.42923000  1.0
  H  H22  1  0.01525000  0.93186000  0.57078000  1.0
  H  H23  1  0.48474000  0.06815000  0.07079000  1.0
  H  H24  1  0.03433000  0.31233000  0.97698000  1.0
  H  H25  1  0.46566000  0.68767000  0.47698000  1.0
  H  H26  1  0.96565000  0.81234000  0.52303000  1.0
  H  H27  1  0.53433000  0.18767000  0.02305000  1.0
  H  H28  1  0.78870000  0.22650000  0.89168000  1.0
  H  H29  1  0.71129000  0.77350000  0.39168000  1.0
  H  H30  1  0.21131000  0.72651000  0.60832000  1.0
  H  H31  1  0.28868000  0.27349000  0.10834000  1.0
  H  H32  1  0.96594000  0.29010000  0.82971000  1.0
  H  H33  1  0.53405000  0.70989000  0.32971000  1.0
  H  H34  1  0.03407000  0.79011000  0.67030000  1.0
  H  H35  1  0.46592000  0.20990000  0.17032000  1.0
  H  H36  1  0.39743000  0.41100000  0.84122000  1.0
  H  H37  1  0.10256000  0.58900000  0.34123000  1.0
  H  H38  1  0.60256000  0.91101000  0.65877000  1.0
  H  H39  1  0.89742000  0.08900000  0.15879000  1.0
  H  H40  1  0.44659000  0.29941000  0.89918000  1.0
  H  H41  1  0.05340000  0.70059000  0.39918000  1.0
  H  H42  1  0.55341000  0.79942000  0.60082000  1.0
  H  H43  1  0.94658000  0.20058000  0.10084000  1.0
  H  H44  1  0.41172000  0.44667000  0.99044000  1.0
  H  H45  1  0.08827000  0.55334000  0.49045000  1.0
  H  H46  1  0.58825000  0.94668000  0.50955000  1.0
  H  H47  1  0.91172000  0.05333000  0.00957000  1.0
  H  H48  1  0.59990000  0.51425000  0.93752000  1.0
  H  H49  1  0.90010000  0.48575000  0.43752000  1.0
  H  H50  1  0.40008000  0.01425000  0.56248000  1.0
  H  H51  1  0.09990000  0.98575000  0.06250000  1.0
  H  H52  1  0.65498000  0.32797000  0.77684000  1.0
  H  H53  1  0.84501000  0.67203000  0.27684000  1.0
  H  H54  1  0.34503000  0.82798000  0.72317000  1.0
  H  H55  1  0.15496000  0.17203000  0.22318000  1.0
  C  C56  1  0.21387000  0.60747000  0.09548000  1.0
  C  C57  1  0.28614000  0.39253000  0.59548000  1.0
  C  C58  1  0.78616000  0.10748000  0.40451000  1.0
  C  C59  1  0.71384000  0.89253000  0.90451000  1.0
  C  C60  1  0.23697000  0.53227000  0.16160000  1.0
  C  C61  1  0.26304000  0.46773000  0.66160000  1.0
  C  C62  1  0.76303000  0.03227000  0.33839000  1.0
  C  C63  1  0.73697000  0.96773000  0.83839000  1.0
  C  C64  1  0.07713000  0.47102000  0.18544000  1.0
  C  C65  1  0.42287000  0.52898000  0.68544000  1.0
  C  C66  1  0.92289000  0.97102000  0.31455000  1.0
  C  C67  1  0.57712000  0.02898000  0.81455000  1.0
  C  C68  1  0.41866000  0.52698000  0.20295000  1.0
  C  C69  1  0.08134000  0.47301000  0.70296000  1.0
  C  C70  1  0.58135000  0.02698000  0.29704000  1.0
  C  C71  1  0.91864000  0.97302000  0.79704000  1.0
  C  C72  1  0.43916000  0.46352000  0.26967000  1.0
  C  C73  1  0.06086000  0.53646000  0.76968000  1.0
  C  C74  1  0.56084000  0.96352000  0.23032000  1.0
  C  C75  1  0.93917000  0.03647000  0.73032000  1.0
  C  C76  1  0.09790000  0.40730000  0.25213000  1.0
  C  C77  1  0.40211000  0.59269000  0.75213000  1.0
  C  C78  1  0.90210000  0.90731000  0.24786000  1.0
  C  C79  1  0.59791000  0.09269000  0.74786000  1.0
  C  C80  1  0.27746000  0.40479000  0.29533000  1.0
  C  C81  1  0.22255000  0.59520000  0.79534000  1.0
  C  C82  1  0.72256000  0.90479000  0.20466000  1.0
  C  C83  1  0.77745000  0.09521000  0.70466000  1.0
  C  C84  1  0.29244000  0.34498000  0.37119000  1.0
  C  C85  1  0.20760000  0.65502000  0.87119000  1.0
  C  C86  1  0.70758000  0.84497000  0.12880000  1.0
  C  C87  1  0.79244000  0.15502000  0.62880000  1.0
  C  C88  1  0.92026000  0.35846000  0.94690000  1.0
  C  C89  1  0.57974000  0.64154000  0.44690000  1.0
  C  C90  1  0.07972000  0.85846000  0.55311000  1.0
  C  C91  1  0.42025000  0.14154000  0.05312000  1.0
  C  C92  1  0.84270000  0.30235000  0.87243000  1.0
  C  C93  1  0.65729000  0.69765000  0.37243000  1.0
  C  C94  1  0.15729000  0.80237000  0.62757000  1.0
  C  C95  1  0.34269000  0.19764000  0.12759000  1.0
  C  C96  1  0.50907000  0.37330000  0.87940000  1.0
  C  C97  1  0.99093000  0.62670000  0.37940000  1.0
  C  C98  1  0.49093000  0.87331000  0.62060000  1.0
  C  C99  1  0.00905000  0.12670000  0.12062000  1.0
  C  C100  1  0.54764000  0.43819000  0.95446000  1.0
  C  C101  1  0.95235000  0.56182000  0.45446000  1.0
  C  C102  1  0.45233000  0.93818000  0.54554000  1.0
  C  C103  1  0.04764000  0.06182000  0.04555000  1.0
  S  S104  1  0.72767000  0.37987000  0.02194000  1.0
  S  S105  1  0.77232000  0.62014000  0.52195000  1.0
  S  S106  1  0.27230000  0.87987000  0.47806000  1.0
  S  S107  1  0.22767000  0.12013000  0.97807000  1.0
  N  N108  1  0.68953000  0.36153000  0.83088000  1.0
  N  N109  1  0.81046000  0.63847000  0.33088000  1.0
  N  N110  1  0.31048000  0.86154000  0.66912000  1.0
  N  N111  1  0.18951000  0.13846000  0.16913000  1.0
  O  O112  1  0.69016000  0.69154000  0.99063000  1.0
  O  O113  1  0.80984000  0.30845000  0.49063000  1.0
  O  O114  1  0.30984000  0.19156000  0.50936000  1.0
  O  O115  1  0.19016000  0.80845000  0.00936000  1.0
  O  O116  1  0.13158000  0.30758000  0.39936000  1.0
  O  O117  1  0.36845000  0.69242000  0.89936000  1.0
  O  O118  1  0.86845000  0.80757000  0.10063000  1.0
  O  O119  1  0.63156000  0.19242000  0.60064000  1.0
  O  O120  1  0.37229000  0.64987000  0.07004000  1.0
  O  O121  1  0.12771000  0.35013000  0.57004000  1.0
  O  O122  1  0.62772000  0.14989000  0.42994000  1.0
  O  O123  1  0.87229000  0.85011000  0.92994000  1.0
  O  O124  1  0.46260000  0.33657000  0.40439000  1.0
  O  O125  1  0.03744000  0.66343000  0.90439000  1.0
  O  O126  1  0.53743000  0.83655000  0.09561000  1.0
  O  O127  1  0.96259000  0.16344000  0.59561000  1.0
  O  O128  1  0.03923000  0.62679000  0.06978000  1.0
  O  O129  1  0.46077000  0.37321000  0.56977000  1.0
  O  O130  1  0.96077000  0.12680000  0.43021000  1.0
  O  O131  1  0.53923000  0.87320000  0.93022000  1.0
