# generated using pymatgen
data_CuH10C18S2(NO)4
_symmetry_space_group_name_H-M   'P 1'
_cell_length_a   14.75190000
_cell_length_b   15.11650000
_cell_length_c   15.11660000
_cell_angle_alpha   72.79990000
_cell_angle_beta   87.98220000
_cell_angle_gamma   87.98140000
_symmetry_Int_Tables_number   1
_chemical_formula_structural   CuH10C18S2(NO)4
_chemical_formula_sum   'Cu6 H60 C108 S12 N24 O24'
_cell_volume   3217.11760340
_cell_formula_units_Z   6
loop_
 _symmetry_equiv_pos_site_id
 _symmetry_equiv_pos_as_xyz
  1  'x, y, z'
loop_
 _atom_site_type_symbol
 _atom_site_label
 _atom_site_symmetry_multiplicity
 _atom_site_fract_x
 _atom_site_fract_y
 _atom_site_fract_z
 _atom_site_occupancy
  Cu  Cu0  1  0.97321000  0.75424000  0.65267000  1.0
  Cu  Cu1  1  0.52680000  0.34732000  0.24577000  1.0
  Cu  Cu2  1  0.02680000  0.24576000  0.34733000  1.0
  Cu  Cu3  1  0.47321000  0.65268000  0.75424000  1.0
  Cu  Cu4  1  0.24999000  0.85995000  0.14005000  1.0
  Cu  Cu5  1  0.75000000  0.14005000  0.85995000  1.0
  H  H6  1  0.79817000  0.48822000  0.56742000  1.0
  H  H7  1  0.96462000  0.66938000  0.26616000  1.0
  H  H8  1  0.07628000  0.76024000  0.14995000  1.0
  H  H9  1  0.22052000  0.82312000  0.35312000  1.0
  H  H10  1  0.12055000  0.72896000  0.47889000  1.0
  H  H11  1  0.94345000  0.97916000  0.33503000  1.0
  H  H12  1  0.77510000  0.81232000  0.70043000  1.0
  H  H13  1  0.63965000  0.73563000  0.78855000  1.0
  H  H14  1  0.53333000  0.69404000  0.55442000  1.0
  H  H15  1  0.66774000  0.76311000  0.45694000  1.0
  H  H16  1  0.37917000  0.18165000  0.01230000  1.0
  H  H17  1  0.41363000  0.99744000  0.76437000  1.0
  H  H18  1  0.44411000  0.86884000  0.69407000  1.0
  H  H19  1  0.42150000  0.66981000  0.95034000  1.0
  H  H20  1  0.39285000  0.78942000  0.03112000  1.0
  H  H21  1  0.70183000  0.43258000  0.51178000  1.0
  H  H22  1  0.53538000  0.73385000  0.33061000  1.0
  H  H23  1  0.42371000  0.85006000  0.23975000  1.0
  H  H24  1  0.27946000  0.64688000  0.17688000  1.0
  H  H25  1  0.37944000  0.52112000  0.27103000  1.0
  H  H26  1  0.55655000  0.66496000  0.02083000  1.0
  H  H27  1  0.72491000  0.29956000  0.18768000  1.0
  H  H28  1  0.86036000  0.21144000  0.26437000  1.0
  H  H29  1  0.96667000  0.44558000  0.30596000  1.0
  H  H30  1  0.83225000  0.54305000  0.23689000  1.0
  H  H31  1  0.12082000  0.98769000  0.81835000  1.0
  H  H32  1  0.08638000  0.23563000  0.00257000  1.0
  H  H33  1  0.05589000  0.30594000  0.13116000  1.0
  H  H34  1  0.07849000  0.04966000  0.33018000  1.0
  H  H35  1  0.10715000  0.96889000  0.21058000  1.0
  H  H36  1  0.20183000  0.51178000  0.43259000  1.0
  H  H37  1  0.03537000  0.33061000  0.73384000  1.0
  H  H38  1  0.92371000  0.23975000  0.85006000  1.0
  H  H39  1  0.77947000  0.17687000  0.64688000  1.0
  H  H40  1  0.87944000  0.27103000  0.52111000  1.0
  H  H41  1  0.05655000  0.02084000  0.66496000  1.0
  H  H42  1  0.22491000  0.18768000  0.29957000  1.0
  H  H43  1  0.36036000  0.26437000  0.21145000  1.0
  H  H44  1  0.46667000  0.30596000  0.44558000  1.0
  H  H45  1  0.33225000  0.23689000  0.54306000  1.0
  H  H46  1  0.62082000  0.81834000  0.98769000  1.0
  H  H47  1  0.58637000  0.00256000  0.23563000  1.0
  H  H48  1  0.55589000  0.13115000  0.30593000  1.0
  H  H49  1  0.57849000  0.33018000  0.04966000  1.0
  H  H50  1  0.60715000  0.21057000  0.96888000  1.0
  H  H51  1  0.29816000  0.56742000  0.48823000  1.0
  H  H52  1  0.46462000  0.26615000  0.66939000  1.0
  H  H53  1  0.57628000  0.14994000  0.76025000  1.0
  H  H54  1  0.72053000  0.35312000  0.82312000  1.0
  H  H55  1  0.62056000  0.47889000  0.72897000  1.0
  H  H56  1  0.44345000  0.33504000  0.97917000  1.0
  H  H57  1  0.27509000  0.70043000  0.81232000  1.0
  H  H58  1  0.13965000  0.78856000  0.73563000  1.0
  H  H59  1  0.03333000  0.55442000  0.69404000  1.0
  H  H60  1  0.16775000  0.45694000  0.76311000  1.0
  H  H61  1  0.87918000  0.01231000  0.18165000  1.0
  H  H62  1  0.91362000  0.76437000  0.99743000  1.0
  H  H63  1  0.94411000  0.69407000  0.86884000  1.0
  H  H64  1  0.92151000  0.95034000  0.66981000  1.0
  H  H65  1  0.89285000  0.03112000  0.78942000  1.0
  C  C66  1  0.85689000  0.59224000  0.68202000  1.0
  C  C67  1  0.88918000  0.59241000  0.58611000  1.0
  C  C68  1  0.85024000  0.53836000  0.53937000  1.0
  C  C69  1  0.96826000  0.63992000  0.45320000  1.0
  C  C70  1  0.03265000  0.69173000  0.38301000  1.0
  C  C71  1  0.02126000  0.70103000  0.28879000  1.0
  C  C72  1  0.08198000  0.75274000  0.22351000  1.0
  C  C73  1  0.16370000  0.78694000  0.33676000  1.0
  C  C74  1  0.10682000  0.73493000  0.40698000  1.0
  C  C75  1  0.04746000  0.89663000  0.50566000  1.0
  C  C76  1  0.95209000  0.88856000  0.47860000  1.0
  C  C77  1  0.91225000  0.93156000  0.39573000  1.0
  C  C78  1  0.81082000  0.83837000  0.51611000  1.0
  C  C79  1  0.73279000  0.79372000  0.57097000  1.0
  C  C80  1  0.72439000  0.78545000  0.66557000  1.0
  C  C81  1  0.64818000  0.74386000  0.71486000  1.0
  C  C82  1  0.58867000  0.72078000  0.58375000  1.0
  C  C83  1  0.66308000  0.76016000  0.52988000  1.0
  C  C84  1  0.31683000  0.02424000  0.16617000  1.0
  C  C85  1  0.34932000  0.03336000  0.06862000  1.0
  C  C86  1  0.37622000  0.11326000  0.00336000  1.0
  C  C87  1  0.38457000  0.97394000  0.95227000  1.0
  C  C88  1  0.40195000  0.90380000  0.90466000  1.0
  C  C89  1  0.41631000  0.92580000  0.80843000  1.0
  C  C90  1  0.43338000  0.85456000  0.76876000  1.0
  C  C91  1  0.42160000  0.74337000  0.91107000  1.0
  C  C92  1  0.40506000  0.80999000  0.95656000  1.0
  C  C93  1  0.64311000  0.31798000  0.40776000  1.0
  C  C94  1  0.61082000  0.41390000  0.40758000  1.0
  C  C95  1  0.64975000  0.46064000  0.46164000  1.0
  C  C96  1  0.53173000  0.54680000  0.36007000  1.0
  C  C97  1  0.46734000  0.61699000  0.30826000  1.0
  C  C98  1  0.47873000  0.71121000  0.29896000  1.0
  C  C99  1  0.41801000  0.77650000  0.24725000  1.0
  C  C100  1  0.33628000  0.66325000  0.21306000  1.0
  C  C101  1  0.39316000  0.59302000  0.26506000  1.0
  C  C102  1  0.45254000  0.49434000  0.10338000  1.0
  C  C103  1  0.54791000  0.52140000  0.11143000  1.0
  C  C104  1  0.58775000  0.60426000  0.06843000  1.0
  C  C105  1  0.68918000  0.48388000  0.16162000  1.0
  C  C106  1  0.76721000  0.42902000  0.20627000  1.0
  C  C107  1  0.77562000  0.33442000  0.21455000  1.0
  C  C108  1  0.85183000  0.28514000  0.25614000  1.0
  C  C109  1  0.91133000  0.41625000  0.27922000  1.0
  C  C110  1  0.83692000  0.47012000  0.23983000  1.0
  C  C111  1  0.18318000  0.83383000  0.97576000  1.0
  C  C112  1  0.15070000  0.93139000  0.96664000  1.0
  C  C113  1  0.12379000  0.99664000  0.88674000  1.0
  C  C114  1  0.11545000  0.04774000  0.02606000  1.0
  C  C115  1  0.09806000  0.09534000  0.09619000  1.0
  C  C116  1  0.08370000  0.19158000  0.07420000  1.0
  C  C117  1  0.06661000  0.23125000  0.14544000  1.0
  C  C118  1  0.07839000  0.08893000  0.25663000  1.0
  C  C119  1  0.09495000  0.04345000  0.19000000  1.0
  C  C120  1  0.14310000  0.40776000  0.31798000  1.0
  C  C121  1  0.11082000  0.40758000  0.41389000  1.0
  C  C122  1  0.14976000  0.46163000  0.46064000  1.0
  C  C123  1  0.03173000  0.36007000  0.54680000  1.0
  C  C124  1  0.96734000  0.30827000  0.61699000  1.0
  C  C125  1  0.97874000  0.29895000  0.71121000  1.0
  C  C126  1  0.91801000  0.24725000  0.77650000  1.0
  C  C127  1  0.83629000  0.21306000  0.66325000  1.0
  C  C128  1  0.89317000  0.26507000  0.59302000  1.0
  C  C129  1  0.95254000  0.10337000  0.49434000  1.0
  C  C130  1  0.04791000  0.11144000  0.52140000  1.0
  C  C131  1  0.08775000  0.06844000  0.60427000  1.0
  C  C132  1  0.18918000  0.16163000  0.48388000  1.0
  C  C133  1  0.26721000  0.20628000  0.42903000  1.0
  C  C134  1  0.27562000  0.21456000  0.33443000  1.0
  C  C135  1  0.35182000  0.25615000  0.28514000  1.0
  C  C136  1  0.41134000  0.27921000  0.41626000  1.0
  C  C137  1  0.33692000  0.23984000  0.47013000  1.0
  C  C138  1  0.68317000  0.97576000  0.83383000  1.0
  C  C139  1  0.65069000  0.96664000  0.93138000  1.0
  C  C140  1  0.62379000  0.88673000  0.99663000  1.0
  C  C141  1  0.61544000  0.02606000  0.04773000  1.0
  C  C142  1  0.59806000  0.09619000  0.09534000  1.0
  C  C143  1  0.58369000  0.07419000  0.19157000  1.0
  C  C144  1  0.56661000  0.14544000  0.23124000  1.0
  C  C145  1  0.57840000  0.25663000  0.08893000  1.0
  C  C146  1  0.59495000  0.19000000  0.04345000  1.0
  C  C147  1  0.35690000  0.68203000  0.59225000  1.0
  C  C148  1  0.38918000  0.58611000  0.59242000  1.0
  C  C149  1  0.35024000  0.53936000  0.53837000  1.0
  C  C150  1  0.46826000  0.45320000  0.63993000  1.0
  C  C151  1  0.53265000  0.38301000  0.69174000  1.0
  C  C152  1  0.52126000  0.28879000  0.70104000  1.0
  C  C153  1  0.58199000  0.22351000  0.75275000  1.0
  C  C154  1  0.66371000  0.33675000  0.78694000  1.0
  C  C155  1  0.60683000  0.40698000  0.73494000  1.0
  C  C156  1  0.54746000  0.50566000  0.89663000  1.0
  C  C157  1  0.45209000  0.47860000  0.88856000  1.0
  C  C158  1  0.41225000  0.39573000  0.93157000  1.0
  C  C159  1  0.31082000  0.51612000  0.83837000  1.0
  C  C160  1  0.23280000  0.57098000  0.79373000  1.0
  C  C161  1  0.22438000  0.66558000  0.78544000  1.0
  C  C162  1  0.14818000  0.71487000  0.74385000  1.0
  C  C163  1  0.08867000  0.58375000  0.72079000  1.0
  C  C164  1  0.16308000  0.52988000  0.76017000  1.0
  C  C165  1  0.81682000  0.16617000  0.02424000  1.0
  C  C166  1  0.84930000  0.06862000  0.03335000  1.0
  C  C167  1  0.87621000  0.00337000  0.11326000  1.0
  C  C168  1  0.88456000  0.95227000  0.97394000  1.0
  C  C169  1  0.90194000  0.90466000  0.90380000  1.0
  C  C170  1  0.91630000  0.80843000  0.92580000  1.0
  C  C171  1  0.93339000  0.76876000  0.85455000  1.0
  C  C172  1  0.92160000  0.91108000  0.74337000  1.0
  C  C173  1  0.90505000  0.95655000  0.80999000  1.0
  S  S174  1  0.89622000  0.55970000  0.43063000  1.0
  S  S175  1  0.79997000  0.90699000  0.40220000  1.0
  S  S176  1  0.40835000  0.09082000  0.90236000  1.0
  S  S177  1  0.60376000  0.56938000  0.44029000  1.0
  S  S178  1  0.70004000  0.59778000  0.09298000  1.0
  S  S179  1  0.09165000  0.09764000  0.90919000  1.0
  S  S180  1  0.10377000  0.44029000  0.56938000  1.0
  S  S181  1  0.20003000  0.09300000  0.59779000  1.0
  S  S182  1  0.59165000  0.90918000  0.09763000  1.0
  S  S183  1  0.39622000  0.43063000  0.55971000  1.0
  S  S184  1  0.29997000  0.40221000  0.90701000  1.0
  S  S185  1  0.90835000  0.90236000  0.09081000  1.0
  N  N186  1  0.95648000  0.64808000  0.53716000  1.0
  N  N187  1  0.15137000  0.79619000  0.24650000  1.0
  N  N188  1  0.89444000  0.83577000  0.54537000  1.0
  N  N189  1  0.58138000  0.71243000  0.67472000  1.0
  N  N190  1  0.35370000  0.95611000  0.03865000  1.0
  N  N191  1  0.43644000  0.76487000  0.81890000  1.0
  N  N192  1  0.54352000  0.46285000  0.35192000  1.0
  N  N193  1  0.34861000  0.75351000  0.20381000  1.0
  N  N194  1  0.60556000  0.45463000  0.16423000  1.0
  N  N195  1  0.91863000  0.32528000  0.28757000  1.0
  N  N196  1  0.14633000  0.96136000  0.04389000  1.0
  N  N197  1  0.06355000  0.18110000  0.23513000  1.0
  N  N198  1  0.04352000  0.35191000  0.46285000  1.0
  N  N199  1  0.84862000  0.20381000  0.75350000  1.0
  N  N200  1  0.10556000  0.16423000  0.45462000  1.0
  N  N201  1  0.41863000  0.28757000  0.32529000  1.0
  N  N202  1  0.64631000  0.04389000  0.96135000  1.0
  N  N203  1  0.56355000  0.23513000  0.18110000  1.0
  N  N204  1  0.45648000  0.53716000  0.64808000  1.0
  N  N205  1  0.65138000  0.24650000  0.79619000  1.0
  N  N206  1  0.39444000  0.54537000  0.83577000  1.0
  N  N207  1  0.08138000  0.67473000  0.71242000  1.0
  N  N208  1  0.85368000  0.03865000  0.95610000  1.0
  N  N209  1  0.93645000  0.81890000  0.76487000  1.0
  O  O210  1  0.88933000  0.65428000  0.71489000  1.0
  O  O211  1  0.80054000  0.53378000  0.72289000  1.0
  O  O212  1  0.06469000  0.84809000  0.58986000  1.0
  O  O213  1  0.10160000  0.94787000  0.45082000  1.0
  O  O214  1  0.28319000  0.94413000  0.21038000  1.0
  O  O215  1  0.32390000  0.09000000  0.19858000  1.0
  O  O216  1  0.61067000  0.28510000  0.34573000  1.0
  O  O217  1  0.69947000  0.27712000  0.46622000  1.0
  O  O218  1  0.43531000  0.41014000  0.15192000  1.0
  O  O219  1  0.39839000  0.54917000  0.05213000  1.0
  O  O220  1  0.21681000  0.78961000  0.05588000  1.0
  O  O221  1  0.17611000  0.80143000  0.91001000  1.0
  O  O222  1  0.11067000  0.34573000  0.28511000  1.0
  O  O223  1  0.19946000  0.46623000  0.27711000  1.0
  O  O224  1  0.93531000  0.15192000  0.41014000  1.0
  O  O225  1  0.89840000  0.05213000  0.54917000  1.0
  O  O226  1  0.71681000  0.05587000  0.78961000  1.0
  O  O227  1  0.67610000  0.91000000  0.80142000  1.0
  O  O228  1  0.38933000  0.71491000  0.65427000  1.0
  O  O229  1  0.30054000  0.72289000  0.53378000  1.0
  O  O230  1  0.56469000  0.58987000  0.84809000  1.0
  O  O231  1  0.60161000  0.45082000  0.94787000  1.0
  O  O232  1  0.78318000  0.21039000  0.94412000  1.0
  O  O233  1  0.82389000  0.19858000  0.08999000  1.0
