# generated using pymatgen
data_CuH20C20S2(NO4)2
_symmetry_space_group_name_H-M   'P 1'
_cell_length_a   7.39004000
_cell_length_b   8.11646000
_cell_length_c   9.99262000
_cell_angle_alpha   108.97800000
_cell_angle_beta   94.60800000
_cell_angle_gamma   102.77500000
_symmetry_Int_Tables_number   1
_chemical_formula_structural   CuH20C20S2(NO4)2
_chemical_formula_sum   'Cu1 H20 C20 S2 N2 O8'
_cell_volume   545.17288374
_cell_formula_units_Z   1
loop_
 _symmetry_equiv_pos_site_id
 _symmetry_equiv_pos_as_xyz
  1  'x, y, z'
loop_
 _atom_site_type_symbol
 _atom_site_label
 _atom_site_symmetry_multiplicity
 _atom_site_fract_x
 _atom_site_fract_y
 _atom_site_fract_z
 _atom_site_occupancy
  Cu  Cu0  1  0.50000000  0.50000000  0.50000000  1.0
  H  H1  1  0.40592000  0.18818000  0.58714000  1.0
  H  H2  1  0.59408000  0.81181000  0.41285000  1.0
  H  H3  1  0.23391000  0.85998000  0.47137000  1.0
  H  H4  1  0.76608000  0.14001000  0.52862000  1.0
  H  H5  1  0.08407000  0.74334000  0.21067000  1.0
  H  H6  1  0.91591000  0.25666000  0.78932000  1.0
  H  H7  1  0.11004000  0.96216000  0.08070000  1.0
  H  H8  1  0.88996000  0.03784000  0.91930000  1.0
  H  H9  1  0.28715000  0.28487000  0.21147000  1.0
  H  H10  1  0.71285000  0.71513000  0.78852000  1.0
  H  H11  1  0.12460000  0.82159000  0.69742000  1.0
  H  H12  1  0.87541000  0.17841000  0.30258000  1.0
  H  H13  1  0.23137000  0.15777000  0.77404000  1.0
  H  H14  1  0.76863000  0.84223000  0.22597000  1.0
  H  H15  1  0.48830000  0.33098000  0.97447000  1.0
  H  H16  1  0.51169000  0.66902000  0.02554000  1.0
  H  H17  1  0.80842000  0.44078000  0.45536000  1.0
  H  H18  1  0.19158000  0.55922000  0.54465000  1.0
  H  H19  1  0.83082000  0.47167000  0.61894000  1.0
  H  H20  1  0.16918000  0.52834000  0.38107000  1.0
  C  C21  1  0.33727000  0.13109000  0.47549000  1.0
  C  C22  1  0.66272000  0.86891000  0.52450000  1.0
  C  C23  1  0.24068000  0.94992000  0.41038000  1.0
  C  C24  1  0.75932000  0.05008000  0.58962000  1.0
  C  C25  1  0.15869000  0.88514000  0.26606000  1.0
  C  C26  1  0.84130000  0.11486000  0.73393000  1.0
  C  C27  1  0.17255000  0.00630000  0.19306000  1.0
  C  C28  1  0.82744000  0.99370000  0.80694000  1.0
  C  C29  1  0.26951000  0.18612000  0.26490000  1.0
  C  C30  1  0.73049000  0.81388000  0.73509000  1.0
  C  C31  1  0.32156000  0.80698000  0.85897000  1.0
  C  C32  1  0.67845000  0.19304000  0.14103000  1.0
  C  C33  1  0.23833000  0.89763000  0.78721000  1.0
  C  C34  1  0.76167000  0.10238000  0.21279000  1.0
  C  C35  1  0.29902000  0.08719000  0.83022000  1.0
  C  C36  1  0.70098000  0.91283000  0.16979000  1.0
  C  C37  1  0.44254000  0.18498000  0.94386000  1.0
  C  C38  1  0.55746000  0.81502000  0.05615000  1.0
  C  C39  1  0.53065000  0.09689000  0.02112000  1.0
  C  C40  1  0.46936000  0.90311000  0.97889000  1.0
  S  S41  1  0.24487000  0.56506000  0.79501000  1.0
  S  S42  1  0.75514000  0.43494000  0.20499000  1.0
  N  N43  1  0.35182000  0.24629000  0.40330000  1.0
  N  N44  1  0.64818000  0.75371000  0.59669000  1.0
  O  O45  1  0.40635000  0.50157000  0.74081000  1.0
  O  O46  1  0.59366000  0.49843000  0.25919000  1.0
  O  O47  1  0.08849000  0.51866000  0.67308000  1.0
  O  O48  1  0.91151000  0.48133000  0.32692000  1.0
  O  O49  1  0.18287000  0.50886000  0.91129000  1.0
  O  O50  1  0.81713000  0.49114000  0.08871000  1.0
  O  O51  1  0.73532000  0.41482000  0.53094000  1.0
  O  O52  1  0.26468000  0.58518000  0.46907000  1.0
