# generated using pymatgen
data_MgAgH18C18(NO2)3
_symmetry_space_group_name_H-M   'P 1'
_cell_length_a   7.43380000
_cell_length_b   15.05850000
_cell_length_c   20.92710000
_cell_angle_alpha   89.99910000
_cell_angle_beta   89.99970000
_cell_angle_gamma   84.05000000
_symmetry_Int_Tables_number   1
_chemical_formula_structural   MgAgH18C18(NO2)3
_chemical_formula_sum   'Mg4 Ag4 H72 C72 N12 O24'
_cell_volume   2329.99855146
_cell_formula_units_Z   4
loop_
 _symmetry_equiv_pos_site_id
 _symmetry_equiv_pos_as_xyz
  1  'x, y, z'
loop_
 _atom_site_type_symbol
 _atom_site_label
 _atom_site_symmetry_multiplicity
 _atom_site_fract_x
 _atom_site_fract_y
 _atom_site_fract_z
 _atom_site_occupancy
  Mg  Mg0  1  0.52966000  0.49698000  0.69497000  1.0
  Mg  Mg1  1  0.47033000  0.00302000  0.19497000  1.0
  Mg  Mg2  1  0.47033000  0.50302000  0.30503000  1.0
  Mg  Mg3  1  0.52968000  0.99697000  0.80503000  1.0
  Ag  Ag4  1  0.00047000  0.88282000  0.51814000  1.0
  Ag  Ag5  1  0.99953000  0.61717000  0.01815000  1.0
  Ag  Ag6  1  0.99955000  0.11718000  0.48185000  1.0
  Ag  Ag7  1  0.00045000  0.38283000  0.98185000  1.0
  H  H8  1  0.72951000  0.53612000  0.89718000  1.0
  H  H9  1  0.27046000  0.96388000  0.39718000  1.0
  H  H10  1  0.27045000  0.46388000  0.10282000  1.0
  H  H11  1  0.72955000  0.03614000  0.60282000  1.0
  H  H12  1  0.57667000  0.46579000  0.93142000  1.0
  H  H13  1  0.42330000  0.03421000  0.43142000  1.0
  H  H14  1  0.42330000  0.53421000  0.06858000  1.0
  H  H15  1  0.57671000  0.96580000  0.56858000  1.0
  H  H16  1  0.52159000  0.58266000  0.93195000  1.0
  H  H17  1  0.47838000  0.91734000  0.43195000  1.0
  H  H18  1  0.47838000  0.41734000  0.06805000  1.0
  H  H19  1  0.52161000  0.08267000  0.56805000  1.0
  H  H20  1  0.95922000  0.44971000  0.74397000  1.0
  H  H21  1  0.04075000  0.05030000  0.24397000  1.0
  H  H22  1  0.04074000  0.55029000  0.25603000  1.0
  H  H23  1  0.95926000  0.94971000  0.75603000  1.0
  H  H24  1  0.93012000  0.52861000  0.80714000  1.0
  H  H25  1  0.06987000  0.97140000  0.30714000  1.0
  H  H26  1  0.06985000  0.47140000  0.19286000  1.0
  H  H27  1  0.93015000  0.02861000  0.69286000  1.0
  H  H28  1  0.99934000  0.41623000  0.82556000  1.0
  H  H29  1  0.00063000  0.08378000  0.32556000  1.0
  H  H30  1  0.00063000  0.58377000  0.17444000  1.0
  H  H31  1  0.99938000  0.91623000  0.67444000  1.0
  H  H32  1  0.85781000  0.23543000  0.73291000  1.0
  H  H33  1  0.14221000  0.26458000  0.23292000  1.0
  H  H34  1  0.14221000  0.76457000  0.26709000  1.0
  H  H35  1  0.85780000  0.73542000  0.76708000  1.0
  H  H36  1  0.88393000  0.19384000  0.65249000  1.0
  H  H37  1  0.11611000  0.30618000  0.15250000  1.0
  H  H38  1  0.11609000  0.80617000  0.34750000  1.0
  H  H39  1  0.88391000  0.69382000  0.84750000  1.0
  H  H40  1  0.69477000  0.17121000  0.69899000  1.0
  H  H41  1  0.30527000  0.32879000  0.19899000  1.0
  H  H42  1  0.30525000  0.82879000  0.30101000  1.0
  H  H43  1  0.69474000  0.67120000  0.80101000  1.0
  H  H44  1  0.33915000  0.43402000  0.49611000  1.0
  H  H45  1  0.66085000  0.06599000  0.99611000  1.0
  H  H46  1  0.66087000  0.56598000  0.50389000  1.0
  H  H47  1  0.33916000  0.93401000  0.00389000  1.0
  H  H48  1  0.42197000  0.31787000  0.49174000  1.0
  H  H49  1  0.57804000  0.18214000  0.99174000  1.0
  H  H50  1  0.57805000  0.68213000  0.50826000  1.0
  H  H51  1  0.42198000  0.81786000  0.00827000  1.0
  H  H52  1  0.56552000  0.40094000  0.47284000  1.0
  H  H53  1  0.43450000  0.09907000  0.97285000  1.0
  H  H54  1  0.43451000  0.59906000  0.52716000  1.0
  H  H55  1  0.56553000  0.90093000  0.02716000  1.0
  H  H56  1  0.11497000  0.61789000  0.64204000  1.0
  H  H57  1  0.88501000  0.88211000  0.14204000  1.0
  H  H58  1  0.88502000  0.38211000  0.35796000  1.0
  H  H59  1  0.11499000  0.11789000  0.85796000  1.0
  H  H60  1  0.02697000  0.61996000  0.56347000  1.0
  H  H61  1  0.97302000  0.88004000  0.06347000  1.0
  H  H62  1  0.97303000  0.38003000  0.43653000  1.0
  H  H63  1  0.02697000  0.11996000  0.93653000  1.0
  H  H64  1  0.07713000  0.51562000  0.60530000  1.0
  H  H65  1  0.92286000  0.98437000  0.10529000  1.0
  H  H66  1  0.92287000  0.48437000  0.39471000  1.0
  H  H67  1  0.07714000  0.01563000  0.89471000  1.0
  H  H68  1  0.29911000  0.78224000  0.66102000  1.0
  H  H69  1  0.70089000  0.71777000  0.16102000  1.0
  H  H70  1  0.70090000  0.21777000  0.33898000  1.0
  H  H71  1  0.29911000  0.28223000  0.83898000  1.0
  H  H72  1  0.45853000  0.81257000  0.60288000  1.0
  H  H73  1  0.54147000  0.68743000  0.10287000  1.0
  H  H74  1  0.54149000  0.18742000  0.39712000  1.0
  H  H75  1  0.45853000  0.31257000  0.89712000  1.0
  H  H76  1  0.50096000  0.82829000  0.68555000  1.0
  H  H77  1  0.49905000  0.67170000  0.18554000  1.0
  H  H78  1  0.49906000  0.17171000  0.31445000  1.0
  H  H79  1  0.50096000  0.32830000  0.81446000  1.0
  C  C80  1  0.58669000  0.52702000  0.90355000  1.0
  C  C81  1  0.41328000  0.97298000  0.40355000  1.0
  C  C82  1  0.41328000  0.47298000  0.09645000  1.0
  C  C83  1  0.58672000  0.02703000  0.59645000  1.0
  C  C84  1  0.49622000  0.51993000  0.83963000  1.0
  C  C85  1  0.50376000  0.98007000  0.33963000  1.0
  C  C86  1  0.50375000  0.48007000  0.16037000  1.0
  C  C87  1  0.49625000  0.01994000  0.66037000  1.0
  C  C88  1  0.30526000  0.51038000  0.83861000  1.0
  C  C89  1  0.69471000  0.98962000  0.33861000  1.0
  C  C90  1  0.69470000  0.48962000  0.16139000  1.0
  C  C91  1  0.30530000  0.01038000  0.66139000  1.0
  C  C92  1  0.20683000  0.48666000  0.78241000  1.0
  C  C93  1  0.79316000  0.01334000  0.28241000  1.0
  C  C94  1  0.79315000  0.51335000  0.21759000  1.0
  C  C95  1  0.20686000  0.98666000  0.71759000  1.0
  C  C96  1  0.01338000  0.46882000  0.78995000  1.0
  C  C97  1  0.98659000  0.03118000  0.28995000  1.0
  C  C98  1  0.98659000  0.53118000  0.21005000  1.0
  C  C99  1  0.01342000  0.96882000  0.71005000  1.0
  C  C100  1  0.21179000  0.51963000  0.89626000  1.0
  C  C101  1  0.78818000  0.98037000  0.39626000  1.0
  C  C102  1  0.78817000  0.48037000  0.10374000  1.0
  C  C103  1  0.21183000  0.01963000  0.60374000  1.0
  C  C104  1  0.78711000  0.22205000  0.68856000  1.0
  C  C105  1  0.21291000  0.27796000  0.18856000  1.0
  C  C106  1  0.21290000  0.77795000  0.31144000  1.0
  C  C107  1  0.78710000  0.72204000  0.81144000  1.0
  C  C108  1  0.67976000  0.30684000  0.66620000  1.0
  C  C109  1  0.32024000  0.19316000  0.16620000  1.0
  C  C110  1  0.32024000  0.69316000  0.33380000  1.0
  C  C111  1  0.67977000  0.80684000  0.83380000  1.0
  C  C112  1  0.63119000  0.31623000  0.59955000  1.0
  C  C113  1  0.36880000  0.18377000  0.09955000  1.0
  C  C114  1  0.36880000  0.68377000  0.40045000  1.0
  C  C115  1  0.63121000  0.81623000  0.90045000  1.0
  C  C116  1  0.51259000  0.38959000  0.57361000  1.0
  C  C117  1  0.48741000  0.11042000  0.07361000  1.0
  C  C118  1  0.48741000  0.61042000  0.42639000  1.0
  C  C119  1  0.51261000  0.88958000  0.92639000  1.0
  C  C120  1  0.45558000  0.38477000  0.50473000  1.0
  C  C121  1  0.54442000  0.11524000  0.00473000  1.0
  C  C122  1  0.54444000  0.61523000  0.49527000  1.0
  C  C123  1  0.45560000  0.88476000  0.99527000  1.0
  C  C124  1  0.69823000  0.24910000  0.55694000  1.0
  C  C125  1  0.30176000  0.25091000  0.05694000  1.0
  C  C126  1  0.30177000  0.75090000  0.44306000  1.0
  C  C127  1  0.69824000  0.74908000  0.94306000  1.0
  C  C128  1  0.02386000  0.58584000  0.60986000  1.0
  C  C129  1  0.97613000  0.91416000  0.10986000  1.0
  C  C130  1  0.97614000  0.41416000  0.39015000  1.0
  C  C131  1  0.02387000  0.08584000  0.89014000  1.0
  C  C132  1  0.83511000  0.59251000  0.63687000  1.0
  C  C133  1  0.16488000  0.90749000  0.13687000  1.0
  C  C134  1  0.16489000  0.40749000  0.36314000  1.0
  C  C135  1  0.83512000  0.09252000  0.86313000  1.0
  C  C136  1  0.72721000  0.67816000  0.63653000  1.0
  C  C137  1  0.27278000  0.82184000  0.13653000  1.0
  C  C138  1  0.27279000  0.32184000  0.36347000  1.0
  C  C139  1  0.72721000  0.17816000  0.86347000  1.0
  C  C140  1  0.53997000  0.69185000  0.65601000  1.0
  C  C141  1  0.46002000  0.80814000  0.15601000  1.0
  C  C142  1  0.46004000  0.30815000  0.34399000  1.0
  C  C143  1  0.53998000  0.19185000  0.84399000  1.0
  C  C144  1  0.44300000  0.78435000  0.65076000  1.0
  C  C145  1  0.55700000  0.71565000  0.15076000  1.0
  C  C146  1  0.55701000  0.21565000  0.34924000  1.0
  C  C147  1  0.44300000  0.28435000  0.84924000  1.0
  C  C148  1  0.80702000  0.75145000  0.61254000  1.0
  C  C149  1  0.19298000  0.74855000  0.11254000  1.0
  C  C150  1  0.19298000  0.24855000  0.38746000  1.0
  C  C151  1  0.80703000  0.25145000  0.88745000  1.0
  N  N152  1  0.13278000  0.52779000  0.94509000  1.0
  N  N153  1  0.86720000  0.97221000  0.44509000  1.0
  N  N154  1  0.86718000  0.47220000  0.05491000  1.0
  N  N155  1  0.13281000  0.02779000  0.55491000  1.0
  N  N156  1  0.75409000  0.19352000  0.52053000  1.0
  N  N157  1  0.24592000  0.30648000  0.02053000  1.0
  N  N158  1  0.24593000  0.80648000  0.47947000  1.0
  N  N159  1  0.75407000  0.69351000  0.97947000  1.0
  N  N160  1  0.87566000  0.81255000  0.59250000  1.0
  N  N161  1  0.12433000  0.68744000  0.09250000  1.0
  N  N162  1  0.12434000  0.18744000  0.40749000  1.0
  N  N163  1  0.87566000  0.31255000  0.90750000  1.0
  O  O164  1  0.59021000  0.52061000  0.78962000  1.0
  O  O165  1  0.40977000  0.97939000  0.28962000  1.0
  O  O166  1  0.40975000  0.47939000  0.21038000  1.0
  O  O167  1  0.59025000  0.02062000  0.71038000  1.0
  O  O168  1  0.27850000  0.47852000  0.72811000  1.0
  O  O169  1  0.72147000  0.02147000  0.22811000  1.0
  O  O170  1  0.72147000  0.52148000  0.27189000  1.0
  O  O171  1  0.27853000  0.97853000  0.77189000  1.0
  O  O172  1  0.63186000  0.36554000  0.70738000  1.0
  O  O173  1  0.36813000  0.13446000  0.20738000  1.0
  O  O174  1  0.36812000  0.63446000  0.29262000  1.0
  O  O175  1  0.63189000  0.86554000  0.79262000  1.0
  O  O176  1  0.45403000  0.45714000  0.60566000  1.0
  O  O177  1  0.54596000  0.04287000  0.10567000  1.0
  O  O178  1  0.54596000  0.54286000  0.39433000  1.0
  O  O179  1  0.45405000  0.95713000  0.89433000  1.0
  O  O180  1  0.77672000  0.52309000  0.65867000  1.0
  O  O181  1  0.22327000  0.97691000  0.15867000  1.0
  O  O182  1  0.22327000  0.47691000  0.34133000  1.0
  O  O183  1  0.77674000  0.02309000  0.84133000  1.0
  O  O184  1  0.45435000  0.63013000  0.67718000  1.0
  O  O185  1  0.54563000  0.86987000  0.17718000  1.0
  O  O186  1  0.54564000  0.36987000  0.32282000  1.0
  O  O187  1  0.45437000  0.13013000  0.82282000  1.0
