# generated using pymatgen
data_CdH11C15N3O7
_symmetry_space_group_name_H-M   'P 1'
_cell_length_a   8.07309000
_cell_length_b   10.15450000
_cell_length_c   11.60510000
_cell_angle_alpha   68.85400000
_cell_angle_beta   77.79450000
_cell_angle_gamma   66.78430000
_symmetry_Int_Tables_number   1
_chemical_formula_structural   CdH11C15N3O7
_chemical_formula_sum   'Cd2 H22 C30 N6 O14'
_cell_volume   812.79382529
_cell_formula_units_Z   2
loop_
 _symmetry_equiv_pos_site_id
 _symmetry_equiv_pos_as_xyz
  1  'x, y, z'
loop_
 _atom_site_type_symbol
 _atom_site_label
 _atom_site_symmetry_multiplicity
 _atom_site_fract_x
 _atom_site_fract_y
 _atom_site_fract_z
 _atom_site_occupancy
  Cd  Cd0  1  0.66868000  0.56765000  0.57110000  1.0
  Cd  Cd1  1  0.33132000  0.43235000  0.42890000  1.0
  H  H2  1  0.26485000  0.32275000  0.94862000  1.0
  H  H3  1  0.73516000  0.67725000  0.05138000  1.0
  H  H4  1  0.66113000  0.05633000  0.53715000  1.0
  H  H5  1  0.33887000  0.94368000  0.46285000  1.0
  H  H6  1  0.00498000  0.29155000  0.28759000  1.0
  H  H7  1  0.99502000  0.70845000  0.71241000  1.0
  H  H8  1  0.00463000  0.88675000  0.24644000  1.0
  H  H9  1  0.99537000  0.11324000  0.75356000  1.0
  H  H10  1  0.45329000  0.31584000  0.74103000  1.0
  H  H11  1  0.54671000  0.68416000  0.25897000  1.0
  H  H12  1  0.13486000  0.53023000  0.09476000  1.0
  H  H13  1  0.86514000  0.46977000  0.90524000  1.0
  H  H14  1  0.16771000  0.76466000  0.09228000  1.0
  H  H15  1  0.83229000  0.23534000  0.90772000  1.0
  H  H16  1  0.35500000  0.88765000  0.92707000  1.0
  H  H17  1  0.64499000  0.11235000  0.07293000  1.0
  H  H18  1  0.51934000  0.78127000  0.75369000  1.0
  H  H19  1  0.48066000  0.21873000  0.24631000  1.0
  H  H20  1  0.01676000  0.38517000  0.66917000  1.0
  H  H21  1  0.98324000  0.61483000  0.33084000  1.0
  H  H22  1  0.99768000  0.55153000  0.62640000  1.0
  H  H23  1  0.00232000  0.44847000  0.37360000  1.0
  C  C24  1  0.82776000  0.95631000  0.39804000  1.0
  C  C25  1  0.17224000  0.04369000  0.60196000  1.0
  C  C26  1  0.76255000  0.06543000  0.45928000  1.0
  C  C27  1  0.23745000  0.93457000  0.54072000  1.0
  C  C28  1  0.82459000  0.18640000  0.42095000  1.0
  C  C29  1  0.17541000  0.81360000  0.57905000  1.0
  C  C30  1  0.95405000  0.19881000  0.32033000  1.0
  C  C31  1  0.04595000  0.80119000  0.67967000  1.0
  C  C32  1  0.01625000  0.08983000  0.25991000  1.0
  C  C33  1  0.98375000  0.91017000  0.74009000  1.0
  C  C34  1  0.95526000  0.96882000  0.29661000  1.0
  C  C35  1  0.04474000  0.03118000  0.70339000  1.0
  C  C36  1  0.76200000  0.82580000  0.44227000  1.0
  C  C37  1  0.23800000  0.17420000  0.55773000  1.0
  C  C38  1  0.74577000  0.30419000  0.48567000  1.0
  C  C39  1  0.25423000  0.69581000  0.51432000  1.0
  C  C40  1  0.42313000  0.40074000  0.78587000  1.0
  C  C41  1  0.57687000  0.59926000  0.21413000  1.0
  C  C42  1  0.30489000  0.52861000  0.92140000  1.0
  C  C43  1  0.69511000  0.47139000  0.07860000  1.0
  C  C44  1  0.21418000  0.58569000  0.01922000  1.0
  C  C45  1  0.78582000  0.41432000  0.98079000  1.0
  C  C46  1  0.23485000  0.71620000  0.01765000  1.0
  C  C47  1  0.76515000  0.28380000  0.98235000  1.0
  C  C48  1  0.34295000  0.78620000  0.92322000  1.0
  C  C49  1  0.65705000  0.21380000  0.07678000  1.0
  C  C50  1  0.43492000  0.72811000  0.82654000  1.0
  C  C51  1  0.56508000  0.27189000  0.17346000  1.0
  C  C52  1  0.41406000  0.59780000  0.82620000  1.0
  C  C53  1  0.58594000  0.40221000  0.17380000  1.0
  N  N54  1  0.14661000  0.10575000  0.15170000  1.0
  N  N55  1  0.85339000  0.89425000  0.84831000  1.0
  N  N56  1  0.48515000  0.51477000  0.74296000  1.0
  N  N57  1  0.51485000  0.48523000  0.25704000  1.0
  N  N58  1  0.31427000  0.40506000  0.89165000  1.0
  N  N59  1  0.68573000  0.59494000  0.10835000  1.0
  O  O60  1  0.79313000  0.74470000  0.37300000  1.0
  O  O61  1  0.20687000  0.25530000  0.62700000  1.0
  O  O62  1  0.67868000  0.80104000  0.55006000  1.0
  O  O63  1  0.32132000  0.19896000  0.44994000  1.0
  O  O64  1  0.59468000  0.31653000  0.54834000  1.0
  O  O65  1  0.40531000  0.68347000  0.45166000  1.0
  O  O66  1  0.83522000  0.38892000  0.47413000  1.0
  O  O67  1  0.16478000  0.61108000  0.52587000  1.0
  O  O68  1  0.18189000  0.22433000  0.11216000  1.0
  O  O69  1  0.81811000  0.77567000  0.88784000  1.0
  O  O70  1  0.21442000  0.00270000  0.10423000  1.0
  O  O71  1  0.78559000  0.99730000  0.89577000  1.0
  O  O72  1  0.92926000  0.48416000  0.67641000  1.0
  O  O73  1  0.07074000  0.51584000  0.32359000  1.0
