# generated using pymatgen
data_CdBH12C8N3O4
_symmetry_space_group_name_H-M   'P 1'
_cell_length_a   11.46120000
_cell_length_b   11.46120000
_cell_length_c   22.82100000
_cell_angle_alpha   89.99990000
_cell_angle_beta   89.99990000
_cell_angle_gamma   60.00000000
_symmetry_Int_Tables_number   1
_chemical_formula_structural   CdBH12C8N3O4
_chemical_formula_sum   'Cd6 B6 H72 C48 N18 O24'
_cell_volume   2596.12431587
_cell_formula_units_Z   6
loop_
 _symmetry_equiv_pos_site_id
 _symmetry_equiv_pos_as_xyz
  1  'x, y, z'
loop_
 _atom_site_type_symbol
 _atom_site_label
 _atom_site_symmetry_multiplicity
 _atom_site_fract_x
 _atom_site_fract_y
 _atom_site_fract_z
 _atom_site_occupancy
  Cd  Cd0  1  0.76281000  0.76280000  0.91667000  1.0
  Cd  Cd1  1  0.52561000  0.23720000  0.75001000  1.0
  Cd  Cd2  1  0.47438000  0.76280000  0.25000000  1.0
  Cd  Cd3  1  0.76281000  0.47438000  0.58334000  1.0
  Cd  Cd4  1  0.23719000  0.52561000  0.08334000  1.0
  Cd  Cd5  1  0.23719000  0.23719000  0.41667000  1.0
  B  B6  1  0.00000000  0.64866000  0.00000000  1.0
  B  B7  1  0.64866000  0.99999000  0.83333000  1.0
  B  B8  1  0.35134000  0.64866000  0.16667000  1.0
  B  B9  1  0.64866000  0.35134000  0.66666667  1.0
  B  B10  1  0.00000000  0.35134000  0.50000000  1.0
  B  B11  1  0.35134000  0.00000000  0.33333333  1.0
  H  H12  1  0.04127000  0.82101000  0.88820000  1.0
  H  H13  1  0.86228000  0.95873000  0.72154000  1.0
  H  H14  1  0.13772000  0.82101000  0.27846000  1.0
  H  H15  1  0.82101000  0.13771000  0.55488000  1.0
  H  H16  1  0.95873000  0.86228000  0.11180000  1.0
  H  H17  1  0.95872000  0.17900000  0.38821000  1.0
  H  H18  1  0.82102000  0.04126000  0.94513000  1.0
  H  H19  1  0.13772000  0.04127000  0.22154000  1.0
  H  H20  1  0.86228000  0.17899000  0.77846000  1.0
  H  H21  1  0.17898000  0.86229000  0.05487000  1.0
  H  H22  1  0.04127000  0.13771000  0.61180000  1.0
  H  H23  1  0.17899000  0.95872000  0.44513000  1.0
  H  H24  1  0.17228000  0.66341000  0.91595000  1.0
  H  H25  1  0.83570000  0.82771000  0.74928000  1.0
  H  H26  1  0.16431000  0.66340000  0.25072000  1.0
  H  H27  1  0.66341000  0.16430000  0.58262000  1.0
  H  H28  1  0.82772000  0.83569000  0.08405000  1.0
  H  H29  1  0.82771000  0.33659000  0.41595000  1.0
  H  H30  1  0.66342000  0.17227000  0.91738000  1.0
  H  H31  1  0.16431000  0.17228000  0.24928000  1.0
  H  H32  1  0.83569000  0.33659000  0.75072000  1.0
  H  H33  1  0.33658000  0.83570000  0.08262000  1.0
  H  H34  1  0.17228000  0.16431000  0.58405000  1.0
  H  H35  1  0.33659000  0.82772000  0.41738000  1.0
  H  H36  1  0.10298000  0.80989000  0.96131000  1.0
  H  H37  1  0.91287000  0.89702000  0.79465000  1.0
  H  H38  1  0.08713000  0.80989000  0.20535000  1.0
  H  H39  1  0.80989000  0.08713000  0.62798000  1.0
  H  H40  1  0.89702000  0.91287000  0.03869000  1.0
  H  H41  1  0.89702000  0.19011000  0.46131000  1.0
  H  H42  1  0.80989000  0.10298000  0.87202000  1.0
  H  H43  1  0.08713000  0.10298000  0.29465000  1.0
  H  H44  1  0.91287000  0.19011000  0.70536000  1.0
  H  H45  1  0.19011000  0.91287000  0.12798000  1.0
  H  H46  1  0.10298000  0.08713000  0.53869000  1.0
  H  H47  1  0.19011000  0.89702000  0.37202000  1.0
  H  H48  1  0.75725000  0.57195000  0.03432000  1.0
  H  H49  1  0.32920000  0.24275000  0.86765000  1.0
  H  H50  1  0.67080000  0.57196000  0.13235000  1.0
  H  H51  1  0.57196000  0.67080000  0.70098000  1.0
  H  H52  1  0.24275000  0.32920000  0.96568000  1.0
  H  H53  1  0.24276000  0.42804000  0.53432000  1.0
  H  H54  1  0.57195000  0.75724000  0.79902000  1.0
  H  H55  1  0.67080000  0.75724000  0.36765000  1.0
  H  H56  1  0.32919000  0.42805000  0.63236000  1.0
  H  H57  1  0.42804000  0.32920000  0.20098000  1.0
  H  H58  1  0.75724000  0.67080000  0.46569000  1.0
  H  H59  1  0.42804000  0.24277000  0.29902000  1.0
  H  H60  1  0.83628000  0.62402000  0.08782000  1.0
  H  H61  1  0.46030000  0.16372000  0.92115000  1.0
  H  H62  1  0.53970000  0.62402000  0.07885000  1.0
  H  H63  1  0.62402000  0.53970000  0.75448000  1.0
  H  H64  1  0.16372000  0.46030000  0.91219000  1.0
  H  H65  1  0.16372000  0.37598000  0.58781000  1.0
  H  H66  1  0.62402000  0.83627000  0.74552000  1.0
  H  H67  1  0.53970000  0.83628000  0.42115000  1.0
  H  H68  1  0.46029000  0.37598000  0.57886000  1.0
  H  H69  1  0.37598000  0.46030000  0.25448000  1.0
  H  H70  1  0.83628000  0.53970000  0.41219000  1.0
  H  H71  1  0.37598000  0.16372000  0.24552000  1.0
  H  H72  1  0.93342000  0.46811000  0.05001000  1.0
  H  H73  1  0.40153000  0.06658000  0.88334000  1.0
  H  H74  1  0.59847000  0.46811000  0.11666000  1.0
  H  H75  1  0.46811000  0.59847000  0.71667000  1.0
  H  H76  1  0.06658000  0.40153000  0.95000000  1.0
  H  H77  1  0.06658000  0.53189000  0.55000000  1.0
  H  H78  1  0.46811000  0.93341000  0.78333000  1.0
  H  H79  1  0.59848000  0.93341000  0.38333000  1.0
  H  H80  1  0.40152000  0.53189000  0.61667000  1.0
  H  H81  1  0.53189000  0.40153000  0.21667000  1.0
  H  H82  1  0.93341000  0.59848000  0.45000000  1.0
  H  H83  1  0.53189000  0.06659000  0.28333000  1.0
  C  C84  1  0.51389000  0.51387000  0.91668000  1.0
  C  C85  1  0.02777000  0.48612000  0.75001000  1.0
  C  C86  1  0.97222000  0.51389000  0.25000000  1.0
  C  C87  1  0.51389000  0.97223000  0.58334000  1.0
  C  C88  1  0.48611000  0.02775000  0.08333000  1.0
  C  C89  1  0.48612000  0.48611000  0.41667000  1.0
  C  C90  1  0.58444000  0.58443000  0.91668000  1.0
  C  C91  1  0.16888000  0.41556000  0.75001000  1.0
  C  C92  1  0.83111000  0.58444000  0.25000000  1.0
  C  C93  1  0.58444000  0.83112000  0.58334000  1.0
  C  C94  1  0.41556000  0.16887000  0.08333000  1.0
  C  C95  1  0.41556000  0.41556000  0.41667000  1.0
  C  C96  1  0.45178000  0.50562000  0.96817000  1.0
  C  C97  1  0.95741000  0.54822000  0.80150000  1.0
  C  C98  1  0.04258000  0.50564000  0.19850000  1.0
  C  C99  1  0.50563000  0.04259000  0.63484000  1.0
  C  C100  1  0.54822000  0.95740000  0.03183000  1.0
  C  C101  1  0.54822000  0.49437000  0.46817000  1.0
  C  C102  1  0.50564000  0.45176000  0.86518000  1.0
  C  C103  1  0.04258000  0.45178000  0.30150000  1.0
  C  C104  1  0.95741000  0.49436000  0.69851000  1.0
  C  C105  1  0.49436000  0.95740000  0.13483000  1.0
  C  C106  1  0.45177000  0.04259000  0.53184000  1.0
  C  C107  1  0.49436000  0.54823000  0.36517000  1.0
  C  C108  1  0.07871000  0.75686000  0.92730000  1.0
  C  C109  1  0.83557000  0.92129000  0.76064000  1.0
  C  C110  1  0.16443000  0.75686000  0.23937000  1.0
  C  C111  1  0.75687000  0.16442000  0.59397000  1.0
  C  C112  1  0.92129000  0.83558000  0.07270000  1.0
  C  C113  1  0.92129000  0.24314000  0.42730000  1.0
  C  C114  1  0.75687000  0.07870000  0.90603000  1.0
  C  C115  1  0.16443000  0.07870000  0.26063000  1.0
  C  C116  1  0.83557000  0.24313000  0.73937000  1.0
  C  C117  1  0.24313000  0.83557000  0.09397000  1.0
  C  C118  1  0.07870000  0.16443000  0.57270000  1.0
  C  C119  1  0.24313000  0.92130000  0.40603000  1.0
  C  C120  1  0.85002000  0.57262000  0.04537000  1.0
  C  C121  1  0.42264000  0.14998000  0.87870000  1.0
  C  C122  1  0.57736000  0.57262000  0.12130000  1.0
  C  C123  1  0.57262000  0.57736000  0.71204000  1.0
  C  C124  1  0.14998000  0.42264000  0.95463000  1.0
  C  C125  1  0.14997000  0.42739000  0.54537000  1.0
  C  C126  1  0.57262000  0.85001000  0.78796000  1.0
  C  C127  1  0.57736000  0.85002000  0.37870000  1.0
  C  C128  1  0.42263000  0.42739000  0.62130000  1.0
  C  C129  1  0.42738000  0.42264000  0.21204000  1.0
  C  C130  1  0.85001000  0.57737000  0.45463000  1.0
  C  C131  1  0.42738000  0.14998000  0.28796000  1.0
  N  N132  1  0.64337000  0.64336000  0.91667000  1.0
  N  N133  1  0.28674000  0.35663000  0.75001000  1.0
  N  N134  1  0.71325000  0.64336000  0.25000000  1.0
  N  N135  1  0.64337000  0.71326000  0.58334000  1.0
  N  N136  1  0.35662000  0.28673000  0.08333000  1.0
  N  N137  1  0.35663000  0.35663000  0.41667000  1.0
  N  N138  1  0.40095000  0.49819000  0.01143000  1.0
  N  N139  1  0.89914000  0.59906000  0.84476000  1.0
  N  N140  1  0.10084000  0.49821000  0.15524000  1.0
  N  N141  1  0.49820000  0.10086000  0.67810000  1.0
  N  N142  1  0.59905000  0.89915000  0.98857000  1.0
  N  N143  1  0.59905000  0.50180000  0.51143000  1.0
  N  N144  1  0.49822000  0.40093000  0.82192000  1.0
  N  N145  1  0.10084000  0.40093000  0.34475000  1.0
  N  N146  1  0.89916000  0.50177000  0.65525000  1.0
  N  N147  1  0.50179000  0.89914000  0.17809000  1.0
  N  N148  1  0.40092000  0.10085000  0.48858000  1.0
  N  N149  1  0.50177000  0.59907000  0.32192000  1.0
  O  O150  1  0.97723000  0.72982000  0.94679000  1.0
  O  O151  1  0.70705000  0.02275000  0.78012000  1.0
  O  O152  1  0.29295000  0.72981000  0.21988000  1.0
  O  O153  1  0.72981000  0.29295000  0.61346000  1.0
  O  O154  1  0.02277000  0.70704000  0.05321000  1.0
  O  O155  1  0.02276000  0.27019000  0.44679000  1.0
  O  O156  1  0.72982000  0.97722000  0.88654000  1.0
  O  O157  1  0.29295000  0.97724000  0.28012000  1.0
  O  O158  1  0.70705000  0.27018000  0.71988000  1.0
  O  O159  1  0.27018000  0.70705000  0.11346000  1.0
  O  O160  1  0.97723000  0.29295000  0.55321000  1.0
  O  O161  1  0.27019000  0.02276000  0.38654000  1.0
  O  O162  1  0.87592000  0.64060000  0.99986000  1.0
  O  O163  1  0.51652000  0.12408000  0.83320000  1.0
  O  O164  1  0.48348000  0.64059000  0.16680000  1.0
  O  O165  1  0.64060000  0.48347000  0.66653000  1.0
  O  O166  1  0.12408000  0.51652000  0.00014000  1.0
  O  O167  1  0.12407000  0.35941000  0.49986000  1.0
  O  O168  1  0.64060000  0.87592000  0.83347000  1.0
  O  O169  1  0.48348000  0.87592000  0.33319000  1.0
  O  O170  1  0.51652000  0.35940000  0.66681000  1.0
  O  O171  1  0.35940000  0.51652000  0.16653000  1.0
  O  O172  1  0.87592000  0.48348000  0.50014000  1.0
  O  O173  1  0.35940000  0.12408000  0.33347000  1.0
