# generated using pymatgen
data_NiH12C15NO4
_symmetry_space_group_name_H-M   'P 1'
_cell_length_a   9.53919000
_cell_length_b   18.33950000
_cell_length_c   18.52370000
_cell_angle_alpha   90.00000000
_cell_angle_beta   89.99980000
_cell_angle_gamma   97.44050000
_symmetry_Int_Tables_number   1
_chemical_formula_structural   NiH12C15NO4
_chemical_formula_sum   'Ni4 H48 C60 N4 O16'
_cell_volume   3213.32336902
_cell_formula_units_Z   4
loop_
 _symmetry_equiv_pos_site_id
 _symmetry_equiv_pos_as_xyz
  1  'x, y, z'
loop_
 _atom_site_type_symbol
 _atom_site_label
 _atom_site_symmetry_multiplicity
 _atom_site_fract_x
 _atom_site_fract_y
 _atom_site_fract_z
 _atom_site_occupancy
  Ni  Ni0  1  0.60428000  0.25009000  0.25000000  1.0
  Ni  Ni1  1  0.39576000  0.74994000  0.75000000  1.0
  Ni  Ni2  1  0.34947000  0.24777000  0.25000000  1.0
  Ni  Ni3  1  0.65058000  0.75225000  0.75000000  1.0
  H  H4  1  0.67826000  0.10670000  0.07514000  1.0
  H  H5  1  0.32173000  0.89331000  0.57514000  1.0
  H  H6  1  0.32173000  0.89332000  0.92485000  1.0
  H  H7  1  0.67826000  0.10670000  0.42486000  1.0
  H  H8  1  0.74213000  0.44703000  0.13403000  1.0
  H  H9  1  0.25786000  0.55297000  0.63409000  1.0
  H  H10  1  0.25785000  0.55298000  0.86592000  1.0
  H  H11  1  0.74213000  0.44704000  0.36596000  1.0
  H  H12  1  0.79123000  0.03488000  0.98254000  1.0
  H  H13  1  0.20877000  0.96509000  0.48249000  1.0
  H  H14  1  0.20877000  0.96509000  0.01751000  1.0
  H  H15  1  0.79123000  0.03488000  0.51745000  1.0
  H  H16  1  0.14139000  0.35520000  0.29777000  1.0
  H  H17  1  0.85861000  0.64480000  0.79778000  1.0
  H  H18  1  0.85861000  0.64480000  0.70222000  1.0
  H  H19  1  0.14140000  0.35519000  0.20222000  1.0
  H  H20  1  0.89220000  0.35549000  0.20212000  1.0
  H  H21  1  0.10781000  0.64451000  0.70212000  1.0
  H  H22  1  0.10781000  0.64451000  0.79787000  1.0
  H  H23  1  0.89220000  0.35550000  0.29787000  1.0
  H  H24  1  0.32069000  0.38117000  0.05590000  1.0
  H  H25  1  0.67931000  0.61880000  0.55594000  1.0
  H  H26  1  0.67931000  0.61880000  0.94405000  1.0
  H  H27  1  0.32070000  0.38117000  0.44410000  1.0
  H  H28  1  0.23040000  0.06392000  0.11086000  1.0
  H  H29  1  0.76961000  0.93606000  0.61082000  1.0
  H  H30  1  0.76961000  0.93607000  0.88918000  1.0
  H  H31  1  0.23039000  0.06392000  0.38914000  1.0
  H  H32  1  0.77365000  0.55066000  0.04595000  1.0
  H  H33  1  0.22633000  0.44932000  0.54603000  1.0
  H  H34  1  0.22633000  0.44932000  0.95397000  1.0
  H  H35  1  0.77365000  0.55067000  0.45405000  1.0
  H  H36  1  0.11203000  0.24122000  0.13756000  1.0
  H  H37  1  0.88797000  0.75876000  0.63756000  1.0
  H  H38  1  0.88797000  0.75875000  0.86244000  1.0
  H  H39  1  0.11203000  0.24123000  0.36244000  1.0
  H  H40  1  0.08938000  0.15694000  0.18504000  1.0
  H  H41  1  0.91060000  0.84305000  0.68502000  1.0
  H  H42  1  0.91060000  0.84304000  0.81498000  1.0
  H  H43  1  0.08938000  0.15695000  0.31497000  1.0
  H  H44  1  0.84168000  0.15762000  0.18534000  1.0
  H  H45  1  0.15830000  0.84238000  0.68534000  1.0
  H  H46  1  0.15830000  0.84238000  0.81467000  1.0
  H  H47  1  0.84168000  0.15763000  0.31467000  1.0
  H  H48  1  0.86273000  0.24197000  0.13766000  1.0
  H  H49  1  0.13728000  0.75803000  0.63766000  1.0
  H  H50  1  0.13727000  0.75803000  0.86234000  1.0
  H  H51  1  0.86273000  0.24198000  0.36234000  1.0
  C  C52  1  0.46262000  0.14970000  0.15404000  1.0
  C  C53  1  0.53740000  0.85031000  0.65404000  1.0
  C  C54  1  0.53740000  0.85032000  0.84596000  1.0
  C  C55  1  0.46262000  0.14970000  0.34597000  1.0
  C  C56  1  0.45614000  0.09078000  0.09813000  1.0
  C  C57  1  0.54384000  0.90923000  0.59812000  1.0
  C  C58  1  0.54385000  0.90923000  0.90187000  1.0
  C  C59  1  0.45614000  0.09078000  0.40187000  1.0
  C  C60  1  0.57615000  0.07551000  0.06215000  1.0
  C  C61  1  0.42384000  0.92449000  0.56216000  1.0
  C  C62  1  0.42384000  0.92450000  0.93784000  1.0
  C  C63  1  0.57615000  0.07551000  0.43784000  1.0
  C  C64  1  0.65829000  0.45592000  0.09637000  1.0
  C  C65  1  0.34169000  0.54407000  0.59642000  1.0
  C  C66  1  0.34170000  0.54408000  0.90358000  1.0
  C  C67  1  0.65830000  0.45593000  0.40363000  1.0
  C  C68  1  0.68863000  0.00377000  0.97009000  1.0
  C  C69  1  0.31137000  0.99622000  0.47007000  1.0
  C  C70  1  0.31137000  0.99622000  0.02993000  1.0
  C  C71  1  0.68863000  0.00377000  0.52990000  1.0
  C  C72  1  0.56757000  0.02036000  0.00834000  1.0
  C  C73  1  0.43241000  0.97965000  0.50832000  1.0
  C  C74  1  0.43241000  0.97965000  0.99167000  1.0
  C  C75  1  0.56757000  0.02035000  0.49166000  1.0
  C  C76  1  0.50721000  0.34792000  0.15384000  1.0
  C  C77  1  0.49280000  0.65209000  0.65385000  1.0
  C  C78  1  0.49280000  0.65209000  0.84615000  1.0
  C  C79  1  0.50722000  0.34792000  0.34617000  1.0
  C  C80  1  0.52875000  0.40819000  0.09936000  1.0
  C  C81  1  0.47123000  0.59181000  0.59940000  1.0
  C  C82  1  0.47123000  0.59182000  0.90060000  1.0
  C  C83  1  0.52876000  0.40819000  0.40064000  1.0
  C  C84  1  0.41954000  0.41824000  0.05269000  1.0
  C  C85  1  0.58045000  0.58174000  0.55273000  1.0
  C  C86  1  0.58045000  0.58174000  0.94727000  1.0
  C  C87  1  0.41954000  0.41824000  0.44732000  1.0
  C  C88  1  0.32261000  0.05055000  0.08151000  1.0
  C  C89  1  0.67738000  0.94945000  0.58149000  1.0
  C  C90  1  0.67738000  0.94945000  0.91851000  1.0
  C  C91  1  0.32261000  0.05055000  0.41849000  1.0
  C  C92  1  0.67519000  0.51302000  0.04763000  1.0
  C  C93  1  0.32478000  0.48697000  0.54770000  1.0
  C  C94  1  0.32478000  0.48697000  0.95230000  1.0
  C  C95  1  0.67519000  0.51302000  0.45236000  1.0
  C  C96  1  0.43472000  0.47561000  0.00122000  1.0
  C  C97  1  0.56525000  0.52437000  0.50128000  1.0
  C  C98  1  0.56526000  0.52437000  0.99872000  1.0
  C  C99  1  0.43472000  0.47561000  0.49878000  1.0
  C  C100  1  0.06115000  0.21303000  0.18487000  1.0
  C  C101  1  0.93885000  0.78696000  0.68487000  1.0
  C  C102  1  0.93885000  0.78695000  0.81513000  1.0
  C  C103  1  0.06115000  0.21304000  0.31513000  1.0
  C  C104  1  0.89857000  0.21361000  0.18517000  1.0
  C  C105  1  0.10143000  0.78639000  0.68517000  1.0
  C  C106  1  0.10143000  0.78639000  0.81483000  1.0
  C  C107  1  0.89857000  0.21361000  0.31483000  1.0
  C  C108  1  0.09114000  0.32774000  0.25000000  1.0
  C  C109  1  0.90886000  0.67226000  0.75000000  1.0
  C  C110  1  0.92792000  0.32774000  0.25000000  1.0
  C  C111  1  0.07208000  0.67226000  0.75000000  1.0
  N  N112  1  0.85472000  0.25168000  0.25000000  1.0
  N  N113  1  0.14528000  0.74832000  0.75000000  1.0
  N  N114  1  0.12521000  0.25090000  0.25000000  1.0
  N  N115  1  0.87479000  0.74909000  0.75000000  1.0
  O  O116  1  0.38155000  0.32470000  0.17243000  1.0
  O  O117  1  0.61848000  0.67530000  0.67244000  1.0
  O  O118  1  0.61848000  0.67531000  0.82756000  1.0
  O  O119  1  0.38155000  0.32471000  0.32757000  1.0
  O  O120  1  0.58597000  0.17611000  0.17734000  1.0
  O  O121  1  0.41405000  0.82391000  0.67735000  1.0
  O  O122  1  0.41405000  0.82392000  0.82264000  1.0
  O  O123  1  0.58598000  0.17611000  0.32265000  1.0
  O  O124  1  0.34642000  0.16932000  0.17446000  1.0
  O  O125  1  0.65360000  0.83070000  0.67445000  1.0
  O  O126  1  0.65360000  0.83070000  0.82555000  1.0
  O  O127  1  0.34643000  0.16933000  0.32555000  1.0
  O  O128  1  0.61992000  0.32461000  0.17817000  1.0
  O  O129  1  0.38011000  0.67542000  0.67819000  1.0
  O  O130  1  0.38011000  0.67542000  0.82181000  1.0
  O  O131  1  0.61993000  0.32461000  0.32183000  1.0
