# generated using pymatgen
data_Zn2H18C31N3O8
_symmetry_space_group_name_H-M   'P 1'
_cell_length_a   8.20746000
_cell_length_b   15.05500000
_cell_length_c   21.82020000
_cell_angle_alpha   90.00000000
_cell_angle_beta   93.98240000
_cell_angle_gamma   89.99980000
_symmetry_Int_Tables_number   1
_chemical_formula_structural   Zn2H18C31N3O8
_chemical_formula_sum   'Zn8 H72 C124 N12 O32'
_cell_volume   2689.66603964
_cell_formula_units_Z   4
loop_
 _symmetry_equiv_pos_site_id
 _symmetry_equiv_pos_as_xyz
  1  'x, y, z'
loop_
 _atom_site_type_symbol
 _atom_site_label
 _atom_site_symmetry_multiplicity
 _atom_site_fract_x
 _atom_site_fract_y
 _atom_site_fract_z
 _atom_site_occupancy
  Zn  Zn0  1  0.32873000  0.91552000  0.13531000  1.0
  Zn  Zn1  1  0.17127000  0.41552000  0.36469000  1.0
  Zn  Zn2  1  0.67128000  0.08448000  0.86469000  1.0
  Zn  Zn3  1  0.82873000  0.58448000  0.63531000  1.0
  Zn  Zn4  1  0.53055000  0.76418000  0.24472000  1.0
  Zn  Zn5  1  0.96945000  0.26418000  0.25528000  1.0
  Zn  Zn6  1  0.46946000  0.23582000  0.75528000  1.0
  Zn  Zn7  1  0.03055000  0.73582000  0.74472000  1.0
  H  H8  1  0.34365000  0.12084000  0.24795000  1.0
  H  H9  1  0.15634000  0.62084000  0.25205000  1.0
  H  H10  1  0.65635000  0.87916000  0.75205000  1.0
  H  H11  1  0.84366000  0.37916000  0.74795000  1.0
  H  H12  1  0.76657000  0.12037000  0.42087000  1.0
  H  H13  1  0.73342000  0.62037000  0.07913000  1.0
  H  H14  1  0.23343000  0.87963000  0.57913000  1.0
  H  H15  1  0.26658000  0.37963000  0.92087000  1.0
  H  H16  1  0.72568000  0.98612000  0.35567000  1.0
  H  H17  1  0.77432000  0.48612000  0.14433000  1.0
  H  H18  1  0.27432000  0.01388000  0.64432000  1.0
  H  H19  1  0.22568000  0.51388000  0.85568000  1.0
  H  H20  1  0.89214000  0.41872000  0.46889000  1.0
  H  H21  1  0.60786000  0.91872000  0.03110000  1.0
  H  H22  1  0.10786000  0.58128000  0.53110000  1.0
  H  H23  1  0.39215000  0.08128000  0.96890000  1.0
  H  H24  1  0.44628000  0.35239000  0.54967000  1.0
  H  H25  1  0.05373000  0.85239000  0.95033000  1.0
  H  H26  1  0.55372000  0.64761000  0.45033000  1.0
  H  H27  1  0.94628000  0.14761000  0.04967000  1.0
  H  H28  1  0.38062000  0.24249000  0.46627000  1.0
  H  H29  1  0.11939000  0.74250000  0.03374000  1.0
  H  H30  1  0.61938000  0.75751000  0.53373000  1.0
  H  H31  1  0.88062000  0.25750000  0.96626000  1.0
  H  H32  1  0.39552000  0.62463000  0.14586000  1.0
  H  H33  1  0.10449000  0.12463000  0.35414000  1.0
  H  H34  1  0.60449000  0.37537000  0.85414000  1.0
  H  H35  1  0.89551000  0.87537000  0.64586000  1.0
  H  H36  1  0.37115000  0.45867000  0.13993000  1.0
  H  H37  1  0.12885000  0.95867000  0.36007000  1.0
  H  H38  1  0.62885000  0.54133000  0.86007000  1.0
  H  H39  1  0.87115000  0.04133000  0.63993000  1.0
  H  H40  1  0.49628000  0.36734000  0.22725000  1.0
  H  H41  1  0.00372000  0.86734000  0.27275000  1.0
  H  H42  1  0.50373000  0.63266000  0.77275000  1.0
  H  H43  1  0.99628000  0.13266000  0.72725000  1.0
  H  H44  1  0.63858000  0.44361000  0.31602000  1.0
  H  H45  1  0.86141000  0.94361000  0.18398000  1.0
  H  H46  1  0.36142000  0.55639000  0.68398000  1.0
  H  H47  1  0.13858000  0.05639000  0.81602000  1.0
  H  H48  1  0.78879000  0.51493000  0.37731000  1.0
  H  H49  1  0.71120000  0.01493000  0.12269000  1.0
  H  H50  1  0.21121000  0.48507000  0.62269000  1.0
  H  H51  1  0.28879000  0.98507000  0.87731000  1.0
  H  H52  1  0.92837000  0.60849000  0.45797000  1.0
  H  H53  1  0.57162000  0.10849000  0.04203000  1.0
  H  H54  1  0.07163000  0.39151000  0.54203000  1.0
  H  H55  1  0.42837000  0.89151000  0.95797000  1.0
  H  H56  1  0.90345000  0.77636000  0.44913000  1.0
  H  H57  1  0.59655000  0.27636000  0.05087000  1.0
  H  H58  1  0.09655000  0.22364000  0.55088000  1.0
  H  H59  1  0.40345000  0.72364000  0.94912000  1.0
  H  H60  1  0.72763000  0.83835000  0.36038000  1.0
  H  H61  1  0.77237000  0.33835000  0.13961000  1.0
  H  H62  1  0.27237000  0.16165000  0.63962000  1.0
  H  H63  1  0.22763000  0.66165000  0.86038000  1.0
  H  H64  1  0.79154000  0.21227000  0.55573000  1.0
  H  H65  1  0.70845000  0.71227000  0.94427000  1.0
  H  H66  1  0.20845000  0.78773000  0.44427000  1.0
  H  H67  1  0.29155000  0.28773000  0.05573000  1.0
  H  H68  1  0.54855000  0.12151000  0.57959000  1.0
  H  H69  1  0.95146000  0.62151000  0.92041000  1.0
  H  H70  1  0.45145000  0.87849000  0.42041000  1.0
  H  H71  1  0.04855000  0.37849000  0.07959000  1.0
  H  H72  1  0.55466000  0.95685000  0.55948000  1.0
  H  H73  1  0.94534000  0.45685000  0.94052000  1.0
  H  H74  1  0.44535000  0.04314000  0.44052000  1.0
  H  H75  1  0.05465000  0.54315000  0.05948000  1.0
  H  H76  1  0.80347000  0.89136000  0.51543000  1.0
  H  H77  1  0.69653000  0.39136000  0.98457000  1.0
  H  H78  1  0.19654000  0.10864000  0.48457000  1.0
  H  H79  1  0.30346000  0.60864000  0.01543000  1.0
  C  C80  1  0.50178000  0.96427000  0.25795000  1.0
  C  C81  1  0.99822000  0.46427000  0.24205000  1.0
  C  C82  1  0.49822000  0.03573000  0.74205000  1.0
  C  C83  1  0.00178000  0.53573000  0.75795000  1.0
  C  C84  1  0.53028000  0.04426000  0.29779000  1.0
  C  C85  1  0.96972000  0.54426000  0.20222000  1.0
  C  C86  1  0.46972000  0.95574000  0.70221000  1.0
  C  C87  1  0.03028000  0.45574000  0.79778000  1.0
  C  C88  1  0.43442000  0.11977000  0.28676000  1.0
  C  C89  1  0.06557000  0.61977000  0.21324000  1.0
  C  C90  1  0.56557000  0.88023000  0.71324000  1.0
  C  C91  1  0.93443000  0.38023000  0.78676000  1.0
  C  C92  1  0.44931000  0.19388000  0.32547000  1.0
  C  C93  1  0.05068000  0.69388000  0.17453000  1.0
  C  C94  1  0.55068000  0.80612000  0.67453000  1.0
  C  C95  1  0.94932000  0.30612000  0.82547000  1.0
  C  C96  1  0.57066000  0.19464000  0.37473000  1.0
  C  C97  1  0.92934000  0.69464000  0.12527000  1.0
  C  C98  1  0.42934000  0.80536000  0.62527000  1.0
  C  C99  1  0.07067000  0.30536000  0.87473000  1.0
  C  C100  1  0.67091000  0.11943000  0.38369000  1.0
  C  C101  1  0.82908000  0.61943000  0.11631000  1.0
  C  C102  1  0.32908000  0.88057000  0.61631000  1.0
  C  C103  1  0.17092000  0.38057000  0.88369000  1.0
  C  C104  1  0.64899000  0.04440000  0.34696000  1.0
  C  C105  1  0.85101000  0.54440000  0.15304000  1.0
  C  C106  1  0.35101000  0.95560000  0.65304000  1.0
  C  C107  1  0.14899000  0.45560000  0.84696000  1.0
  C  C108  1  0.33097000  0.26866000  0.31289000  1.0
  C  C109  1  0.16902000  0.76866000  0.18711000  1.0
  C  C110  1  0.66902000  0.73134000  0.68711000  1.0
  C  C111  1  0.83098000  0.23134000  0.81289000  1.0
  C  C112  1  0.59988000  0.26793000  0.42004000  1.0
  C  C113  1  0.90012000  0.76793000  0.07996000  1.0
  C  C114  1  0.40012000  0.73206000  0.57996000  1.0
  C  C115  1  0.09989000  0.23207000  0.92004000  1.0
  C  C116  1  0.74566000  0.31769000  0.42198000  1.0
  C  C117  1  0.75434000  0.81769000  0.07802000  1.0
  C  C118  1  0.25434000  0.68231000  0.57802000  1.0
  C  C119  1  0.24566000  0.18231000  0.92198000  1.0
  C  C120  1  0.86681000  0.30803000  0.37432000  1.0
  C  C121  1  0.63318000  0.80803000  0.12567000  1.0
  C  C122  1  0.13319000  0.69196000  0.62568000  1.0
  C  C123  1  0.36682000  0.19197000  0.87433000  1.0
  C  C124  1  0.77995000  0.38001000  0.46878000  1.0
  C  C125  1  0.72005000  0.88001000  0.03122000  1.0
  C  C126  1  0.22005000  0.61998000  0.53122000  1.0
  C  C127  1  0.27996000  0.11999000  0.96878000  1.0
  C  C128  1  0.67226000  0.39317000  0.51461000  1.0
  C  C129  1  0.82774000  0.89316000  0.98539000  1.0
  C  C130  1  0.32774000  0.60683000  0.48539000  1.0
  C  C131  1  0.17226000  0.10684000  0.01461000  1.0
  C  C132  1  0.52890000  0.34232000  0.51344000  1.0
  C  C133  1  0.97111000  0.84232000  0.98656000  1.0
  C  C134  1  0.47110000  0.65768000  0.48656000  1.0
  C  C135  1  0.02890000  0.15768000  0.01344000  1.0
  C  C136  1  0.49336000  0.28095000  0.46685000  1.0
  C  C137  1  0.00664000  0.78095000  0.03315000  1.0
  C  C138  1  0.50664000  0.71905000  0.53315000  1.0
  C  C139  1  0.99336000  0.21905000  0.96685000  1.0
  C  C140  1  0.70898000  0.45886000  0.56517000  1.0
  C  C141  1  0.79102000  0.95886000  0.93483000  1.0
  C  C142  1  0.29102000  0.54114000  0.43483000  1.0
  C  C143  1  0.20898000  0.04114000  0.06517000  1.0
  C  C144  1  0.44917000  0.58204000  0.18234000  1.0
  C  C145  1  0.05083000  0.08204000  0.31766000  1.0
  C  C146  1  0.55084000  0.41796000  0.81766000  1.0
  C  C147  1  0.94917000  0.91796000  0.68234000  1.0
  C  C148  1  0.43653000  0.48993000  0.17914000  1.0
  C  C149  1  0.06347000  0.98993000  0.32086000  1.0
  C  C150  1  0.56347000  0.51007000  0.82086000  1.0
  C  C151  1  0.93653000  0.01007000  0.67914000  1.0
  C  C152  1  0.50606000  0.43949000  0.22773000  1.0
  C  C153  1  0.99394000  0.93949000  0.27227000  1.0
  C  C154  1  0.49395000  0.56051000  0.77227000  1.0
  C  C155  1  0.00606000  0.06051000  0.72773000  1.0
  C  C156  1  0.58719000  0.48231000  0.27737000  1.0
  C  C157  1  0.91281000  0.98231000  0.22263000  1.0
  C  C158  1  0.41282000  0.51769000  0.72263000  1.0
  C  C159  1  0.08719000  0.01769000  0.77737000  1.0
  C  C160  1  0.59668000  0.57508000  0.27700000  1.0
  C  C161  1  0.90332000  0.07508000  0.22300000  1.0
  C  C162  1  0.40333000  0.42493000  0.72300000  1.0
  C  C163  1  0.09667000  0.92493000  0.77700000  1.0
  C  C164  1  0.68295000  0.62669000  0.32691000  1.0
  C  C165  1  0.81705000  0.12669000  0.17309000  1.0
  C  C166  1  0.31706000  0.37331000  0.67309000  1.0
  C  C167  1  0.18294000  0.87331000  0.82691000  1.0
  C  C168  1  0.77776000  0.58672000  0.37492000  1.0
  C  C169  1  0.72224000  0.08672000  0.12508000  1.0
  C  C170  1  0.22225000  0.41328000  0.62508000  1.0
  C  C171  1  0.27775000  0.91328000  0.87492000  1.0
  C  C172  1  0.85726000  0.63959000  0.41987000  1.0
  C  C173  1  0.64274000  0.13959000  0.08013000  1.0
  C  C174  1  0.14274000  0.36041000  0.58013000  1.0
  C  C175  1  0.35726000  0.86041000  0.91987000  1.0
  C  C176  1  0.84203000  0.73179000  0.41551000  1.0
  C  C177  1  0.65797000  0.23179000  0.08449000  1.0
  C  C178  1  0.15797000  0.26821000  0.58449000  1.0
  C  C179  1  0.34203000  0.76821000  0.91551000  1.0
  C  C180  1  0.74557000  0.76707000  0.36641000  1.0
  C  C181  1  0.75442000  0.26707000  0.13359000  1.0
  C  C182  1  0.25443000  0.23293000  0.63359000  1.0
  C  C183  1  0.24557000  0.73293000  0.86640000  1.0
  C  C184  1  0.78904000  0.14072000  0.54711000  1.0
  C  C185  1  0.71095000  0.64072000  0.95289000  1.0
  C  C186  1  0.21095000  0.85928000  0.45289000  1.0
  C  C187  1  0.28904000  0.35928000  0.04711000  1.0
  C  C188  1  0.65290000  0.09019000  0.56009000  1.0
  C  C189  1  0.84710000  0.59019000  0.93991000  1.0
  C  C190  1  0.34710000  0.90981000  0.43991000  1.0
  C  C191  1  0.15290000  0.40981000  0.06009000  1.0
  C  C192  1  0.65685000  0.99893000  0.54883000  1.0
  C  C193  1  0.84315000  0.49893000  0.95117000  1.0
  C  C194  1  0.34316000  0.00107000  0.45117000  1.0
  C  C195  1  0.15684000  0.50107000  0.04883000  1.0
  C  C196  1  0.79415000  0.96220000  0.52464000  1.0
  C  C197  1  0.70585000  0.46220000  0.97536000  1.0
  C  C198  1  0.20585000  0.03780000  0.47536000  1.0
  C  C199  1  0.29415000  0.53780000  0.02464000  1.0
  C  C200  1  0.92528000  0.01805000  0.51282000  1.0
  C  C201  1  0.57472000  0.51805000  0.98718000  1.0
  C  C202  1  0.07472000  0.98195000  0.48718000  1.0
  C  C203  1  0.42528000  0.48195000  0.01282000  1.0
  N  N204  1  0.52682000  0.62335000  0.23017000  1.0
  N  N205  1  0.97318000  0.12335000  0.26983000  1.0
  N  N206  1  0.47319000  0.37665000  0.76983000  1.0
  N  N207  1  0.02681000  0.87666000  0.73017000  1.0
  N  N208  1  0.66720000  0.71598000  0.32331000  1.0
  N  N209  1  0.83280000  0.21598000  0.17669000  1.0
  N  N210  1  0.33280000  0.28402000  0.67669000  1.0
  N  N211  1  0.16720000  0.78402000  0.82331000  1.0
  N  N212  1  0.92262000  0.10611000  0.52433000  1.0
  N  N213  1  0.57738000  0.60611000  0.97567000  1.0
  N  N214  1  0.07738000  0.89389000  0.47567000  1.0
  N  N215  1  0.42261000  0.39389000  0.02433000  1.0
  O  O216  1  0.53284000  0.88913000  0.28255000  1.0
  O  O217  1  0.96715000  0.38914000  0.21745000  1.0
  O  O218  1  0.46715000  0.11087000  0.71745000  1.0
  O  O219  1  0.03285000  0.61087000  0.78255000  1.0
  O  O220  1  0.44798000  0.97971000  0.20276000  1.0
  O  O221  1  0.05202000  0.47971000  0.29725000  1.0
  O  O222  1  0.55202000  0.02029000  0.79724000  1.0
  O  O223  1  0.94798000  0.52029000  0.70276000  1.0
  O  O224  1  0.35219000  0.33802000  0.34620000  1.0
  O  O225  1  0.14781000  0.83802000  0.15380000  1.0
  O  O226  1  0.64781000  0.66198000  0.65380000  1.0
  O  O227  1  0.85220000  0.16198000  0.84620000  1.0
  O  O228  1  0.21877000  0.25810000  0.27042000  1.0
  O  O229  1  0.28123000  0.75810000  0.22959000  1.0
  O  O230  1  0.78123000  0.74190000  0.72958000  1.0
  O  O231  1  0.71878000  0.24190000  0.77041000  1.0
  O  O232  1  0.81149000  0.29226000  0.31925000  1.0
  O  O233  1  0.68850000  0.79226000  0.18075000  1.0
  O  O234  1  0.18851000  0.70773000  0.68075000  1.0
  O  O235  1  0.31151000  0.20774000  0.81925000  1.0
  O  O236  1  0.01761000  0.31726000  0.39137000  1.0
  O  O237  1  0.48238000  0.81726000  0.10862000  1.0
  O  O238  1  0.98239000  0.68274000  0.60863000  1.0
  O  O239  1  0.51762000  0.18274000  0.89138000  1.0
  O  O240  1  0.83007000  0.51334000  0.55865000  1.0
  O  O241  1  0.66993000  0.01333000  0.94134000  1.0
  O  O242  1  0.16993000  0.48666000  0.44134000  1.0
  O  O243  1  0.33007000  0.98666000  0.05866000  1.0
  O  O244  1  0.62655000  0.46030000  0.61147000  1.0
  O  O245  1  0.87346000  0.96030000  0.88853000  1.0
  O  O246  1  0.37345000  0.53970000  0.38853000  1.0
  O  O247  1  0.12655000  0.03970000  0.11147000  1.0
