# generated using pymatgen
data_ZnH8C7(NO3)2
_symmetry_space_group_name_H-M   'P 1'
_cell_length_a   9.33516000
_cell_length_b   10.63190000
_cell_length_c   11.13050000
_cell_angle_alpha   61.82200000
_cell_angle_beta   89.99990000
_cell_angle_gamma   89.99990000
_symmetry_Int_Tables_number   1
_chemical_formula_structural   ZnH8C7(NO3)2
_chemical_formula_sum   'Zn4 H32 C28 N8 O24'
_cell_volume   973.78295285
_cell_formula_units_Z   4
loop_
 _symmetry_equiv_pos_site_id
 _symmetry_equiv_pos_as_xyz
  1  'x, y, z'
loop_
 _atom_site_type_symbol
 _atom_site_label
 _atom_site_symmetry_multiplicity
 _atom_site_fract_x
 _atom_site_fract_y
 _atom_site_fract_z
 _atom_site_occupancy
  Zn  Zn0  1  0.32354000  0.34795000  0.59643000  1.0
  Zn  Zn1  1  0.82354000  0.15205000  0.90357000  1.0
  Zn  Zn2  1  0.67646000  0.65205000  0.40357000  1.0
  Zn  Zn3  1  0.17646000  0.84795000  0.09643000  1.0
  H  H4  1  0.15673000  0.14099000  0.71379000  1.0
  H  H5  1  0.65673000  0.35901000  0.78621000  1.0
  H  H6  1  0.84327000  0.85901000  0.28621000  1.0
  H  H7  1  0.34327000  0.64099000  0.21379000  1.0
  H  H8  1  0.06112000  0.27374000  0.59479000  1.0
  H  H9  1  0.56112000  0.22626000  0.90521000  1.0
  H  H10  1  0.93888000  0.72626000  0.40521000  1.0
  H  H11  1  0.43888000  0.77374000  0.09479000  1.0
  H  H12  1  0.35372000  0.88461000  0.50946000  1.0
  H  H13  1  0.85372000  0.61538000  0.99054000  1.0
  H  H14  1  0.64628000  0.11539000  0.49054000  1.0
  H  H15  1  0.14628000  0.38462000  0.00946000  1.0
  H  H16  1  0.32720000  0.00067000  0.65608000  1.0
  H  H17  1  0.82720000  0.49933000  0.84392000  1.0
  H  H18  1  0.67280000  0.99933000  0.34392000  1.0
  H  H19  1  0.17280000  0.50067000  0.15608000  1.0
  H  H20  1  0.00809000  0.28352000  0.38161000  1.0
  H  H21  1  0.50809000  0.21648000  0.11839000  1.0
  H  H22  1  0.99191000  0.71648000  0.61839000  1.0
  H  H23  1  0.49191000  0.78352000  0.88161000  1.0
  H  H24  1  0.03168000  0.16557000  0.23652000  1.0
  H  H25  1  0.53168000  0.33443000  0.26348000  1.0
  H  H26  1  0.96832000  0.83443000  0.76348000  1.0
  H  H27  1  0.46832000  0.66557000  0.73652000  1.0
  H  H28  1  0.57132000  0.24120000  0.58306000  1.0
  H  H29  1  0.07132000  0.25880000  0.91694000  1.0
  H  H30  1  0.42868000  0.75880000  0.41694000  1.0
  H  H31  1  0.92868000  0.74120000  0.08306000  1.0
  H  H32  1  0.54342000  0.38299000  0.43887000  1.0
  H  H33  1  0.04342000  0.11701000  0.06113000  1.0
  H  H34  1  0.45658000  0.61701000  0.56113000  1.0
  H  H35  1  0.95658000  0.88299000  0.93887000  1.0
  C  C36  1  0.20813000  0.93998000  0.28149000  1.0
  C  C37  1  0.70813000  0.56001000  0.21851000  1.0
  C  C38  1  0.79187000  0.06001000  0.71851000  1.0
  C  C39  1  0.29187000  0.43999000  0.78149000  1.0
  C  C40  1  0.19521000  0.01719000  0.36240000  1.0
  C  C41  1  0.69521000  0.48281000  0.13760000  1.0
  C  C42  1  0.80479000  0.98281000  0.63760000  1.0
  C  C43  1  0.30479000  0.51719000  0.86241000  1.0
  C  C44  1  0.27825000  0.97221000  0.48100000  1.0
  C  C45  1  0.77826000  0.52779000  0.01900000  1.0
  C  C46  1  0.72175000  0.02779000  0.51900000  1.0
  C  C47  1  0.22175000  0.47221000  0.98100000  1.0
  C  C48  1  0.26372000  0.03672000  0.56338000  1.0
  C  C49  1  0.76373000  0.46328000  0.93662000  1.0
  C  C50  1  0.73628000  0.96328000  0.43662000  1.0
  C  C51  1  0.23628000  0.53672000  0.06338000  1.0
  C  C52  1  0.16627000  0.14907000  0.52737000  1.0
  C  C53  1  0.66627000  0.35093000  0.97263000  1.0
  C  C54  1  0.83373000  0.85093000  0.47263000  1.0
  C  C55  1  0.33374000  0.64907000  0.02737000  1.0
  C  C56  1  0.08449000  0.19677000  0.40836000  1.0
  C  C57  1  0.58449000  0.30323000  0.09164000  1.0
  C  C58  1  0.91551000  0.80323000  0.59164000  1.0
  C  C59  1  0.41551000  0.69677000  0.90836000  1.0
  C  C60  1  0.09829000  0.13028000  0.32715000  1.0
  C  C61  1  0.59829000  0.36971000  0.17285000  1.0
  C  C62  1  0.90171000  0.86971000  0.67285000  1.0
  C  C63  1  0.40171000  0.63028000  0.82715000  1.0
  N  N64  1  0.15410000  0.21590000  0.61221000  1.0
  N  N65  1  0.65410000  0.28410000  0.88779000  1.0
  N  N66  1  0.84590000  0.78410000  0.38779000  1.0
  N  N67  1  0.34590000  0.71590000  0.11221000  1.0
  N  N68  1  0.15297000  0.58357000  0.40177000  1.0
  N  N69  1  0.65297000  0.91643000  0.09823000  1.0
  N  N70  1  0.84703000  0.41643000  0.59823000  1.0
  N  N71  1  0.34703000  0.08357000  0.90177000  1.0
  O  O72  1  0.30116000  0.84469000  0.30842000  1.0
  O  O73  1  0.80116000  0.65530000  0.19158000  1.0
  O  O74  1  0.69884000  0.15530000  0.69158000  1.0
  O  O75  1  0.19884000  0.34470000  0.80842000  1.0
  O  O76  1  0.11751000  0.96973000  0.18194000  1.0
  O  O77  1  0.61752000  0.53027000  0.31806000  1.0
  O  O78  1  0.88248000  0.03027000  0.81806000  1.0
  O  O79  1  0.38248000  0.46973000  0.68194000  1.0
  O  O80  1  0.49515000  0.30040000  0.51615000  1.0
  O  O81  1  0.99515000  0.19960000  0.98385000  1.0
  O  O82  1  0.50485000  0.69960000  0.48385000  1.0
  O  O83  1  0.00485000  0.80040000  0.01615000  1.0
  O  O84  1  0.26439000  0.51130000  0.39960000  1.0
  O  O85  1  0.76439000  0.98870000  0.10040000  1.0
  O  O86  1  0.73561000  0.48870000  0.60040000  1.0
  O  O87  1  0.23561000  0.01130000  0.89960000  1.0
  O  O88  1  0.08347000  0.65160000  0.29309000  1.0
  O  O89  1  0.58347000  0.84840000  0.20691000  1.0
  O  O90  1  0.91653000  0.34840000  0.70691000  1.0
  O  O91  1  0.41653000  0.15160000  0.79309000  1.0
  O  O92  1  0.11667000  0.58302000  0.50976000  1.0
  O  O93  1  0.61667000  0.91698000  0.99024000  1.0
  O  O94  1  0.88333000  0.41698000  0.49024000  1.0
  O  O95  1  0.38333000  0.08302000  0.00976000  1.0
