# generated using pymatgen
data_ZnH17C16NO4
_symmetry_space_group_name_H-M   'P 1'
_cell_length_a   9.98411000
_cell_length_b   11.21410000
_cell_length_c   16.13810000
_cell_angle_alpha   90.54590000
_cell_angle_beta   100.52810000
_cell_angle_gamma   95.68630000
_symmetry_Int_Tables_number   1
_chemical_formula_structural   ZnH17C16NO4
_chemical_formula_sum   'Zn2 H34 C32 N2 O8'
_cell_volume   1767.00254440
_cell_formula_units_Z   2
loop_
 _symmetry_equiv_pos_site_id
 _symmetry_equiv_pos_as_xyz
  1  'x, y, z'
loop_
 _atom_site_type_symbol
 _atom_site_label
 _atom_site_symmetry_multiplicity
 _atom_site_fract_x
 _atom_site_fract_y
 _atom_site_fract_z
 _atom_site_occupancy
  Zn  Zn0  1  0.64052000  0.48917000  0.52081000  1.0
  Zn  Zn1  1  0.36100000  0.51151000  0.48258000  1.0
  H  H2  1  0.55589000  0.30079000  0.05791000  1.0
  H  H3  1  0.11395000  0.59659000  0.41768000  1.0
  H  H4  1  0.31751000  0.18824000  0.02905000  1.0
  H  H5  1  0.18492000  0.28245000  0.02780000  1.0
  H  H6  1  0.16204000  0.15890000  0.95521000  1.0
  H  H7  1  0.21508000  0.34959000  0.88119000  1.0
  H  H8  1  0.34655000  0.25532000  0.88363000  1.0
  H  H9  1  0.77131000  0.74217000  0.96232000  1.0
  H  H10  1  0.65314000  0.82880000  0.99825000  1.0
  H  H11  1  0.82718000  0.84379000  0.04947000  1.0
  H  H12  1  0.67175000  0.72015000  0.13262000  1.0
  H  H13  1  0.44879000  0.69029000  0.94549000  1.0
  H  H14  1  0.80300000  0.64063000  0.10775000  1.0
  H  H15  1  0.98656000  0.63264000  0.02782000  1.0
  H  H16  1  0.09724000  0.75950000  0.00965000  1.0
  H  H17  1  0.97188000  0.69230000  0.92538000  1.0
  H  H18  1  0.20618000  0.63589000  0.91631000  1.0
  H  H19  1  0.09470000  0.50863000  0.92910000  1.0
  H  H20  1  0.20009000  0.49151000  0.07638000  1.0
  H  H21  1  0.27782000  0.63984000  0.08239000  1.0
  H  H22  1  0.91023000  0.35716000  0.84550000  1.0
  H  H23  1  0.95724000  0.28719000  0.94330000  1.0
  H  H24  1  0.38430000  0.89343000  0.50165000  1.0
  H  H25  1  0.86285000  0.20152000  0.85477000  1.0
  H  H26  1  0.70599000  0.24713000  0.95286000  1.0
  H  H27  1  0.66185000  0.32007000  0.85674000  1.0
  H  H28  1  0.79591000  0.51048000  0.92220000  1.0
  H  H29  1  0.83619000  0.43785000  0.01908000  1.0
  H  H30  1  0.61647000  0.10733000  0.52394000  1.0
  H  H31  1  0.69905000  0.90132000  0.52967000  1.0
  H  H32  1  0.30155000  0.09993000  0.48890000  1.0
  H  H33  1  0.88683000  0.57059000  0.44598000  1.0
  H  H34  1  0.11375000  0.42842000  0.55525000  1.0
  H  H35  1  0.88794000  0.40410000  0.58458000  1.0
  C  C36  1  0.43614000  0.26870000  0.49790000  1.0
  C  C37  1  0.47324000  0.60370000  0.97166000  1.0
  C  C38  1  0.40176000  0.40864000  0.96547000  1.0
  C  C39  1  0.60312000  0.58285000  0.03804000  1.0
  C  C40  1  0.48740000  0.49684000  0.75209000  1.0
  C  C41  1  0.51435000  0.50104000  0.25126000  1.0
  C  C42  1  0.62598000  0.47055000  0.98410000  1.0
  C  C43  1  0.37918000  0.52133000  0.01937000  1.0
  C  C44  1  0.49536000  0.49387000  0.91599000  1.0
  C  C45  1  0.50920000  0.49760000  0.08752000  1.0
  C  C46  1  0.48877000  0.49511000  0.82781000  1.0
  C  C47  1  0.56486000  0.73206000  0.51296000  1.0
  C  C48  1  0.51456000  0.49882000  0.17567000  1.0
  C  C49  1  0.40891000  0.13667000  0.50013000  1.0
  C  C50  1  0.59179000  0.86439000  0.51933000  1.0
  C  C51  1  0.29720000  0.31032000  0.92408000  1.0
  C  C52  1  0.23690000  0.23058000  0.98746000  1.0
  C  C53  1  0.70921000  0.68049000  0.07944000  1.0
  C  C54  1  0.74223000  0.77905000  0.01901000  1.0
  C  C55  1  0.24924000  0.55988000  0.03987000  1.0
  C  C56  1  0.14845000  0.59142000  0.96142000  1.0
  C  C57  1  0.04518000  0.67329000  0.98204000  1.0
  C  C58  1  0.51117000  0.06475000  0.51339000  1.0
  C  C59  1  0.75757000  0.43939000  0.96133000  1.0
  C  C60  1  0.74205000  0.31857000  0.91335000  1.0
  C  C61  1  0.87526000  0.28926000  0.88780000  1.0
  C  C62  1  0.48951000  0.93617000  0.51164000  1.0
  C  C63  1  0.07312000  0.48953000  0.50627000  1.0
  C  C64  1  0.92774000  0.51002000  0.49526000  1.0
  C  C65  1  0.49017000  0.49875000  0.66313000  1.0
  C  C66  1  0.51133000  0.50118000  0.34030000  1.0
  C  C67  1  0.53202000  0.38773000  0.03201000  1.0
  N  N68  1  0.15624000  0.53971000  0.46233000  1.0
  N  N69  1  0.84515000  0.46061000  0.53983000  1.0
  O  O70  1  0.56098000  0.31376000  0.51148000  1.0
  O  O71  1  0.44010000  0.68680000  0.49858000  1.0
  O  O72  1  0.33146000  0.32742000  0.48179000  1.0
  O  O73  1  0.66971000  0.67327000  0.52214000  1.0
  O  O74  1  0.60757000  0.49624000  0.64274000  1.0
  O  O75  1  0.39496000  0.50891000  0.36093000  1.0
  O  O76  1  0.37591000  0.50280000  0.61317000  1.0
  O  O77  1  0.62472000  0.49333000  0.39036000  1.0
