# generated using pymatgen
data_Zn4H16C31(Br4O5)3
_symmetry_space_group_name_H-M   'P 1'
_cell_length_a   18.15870000
_cell_length_b   18.17990000
_cell_length_c   18.22520000
_cell_angle_alpha   61.17290000
_cell_angle_beta   61.22020000
_cell_angle_gamma   60.91510000
_symmetry_Int_Tables_number   1
_chemical_formula_structural   Zn4H16C31(Br4O5)3
_chemical_formula_sum   'Zn8 H32 C62 Br24 O30'
_cell_volume   4359.88394269
_cell_formula_units_Z   2
loop_
 _symmetry_equiv_pos_site_id
 _symmetry_equiv_pos_as_xyz
  1  'x, y, z'
loop_
 _atom_site_type_symbol
 _atom_site_label
 _atom_site_symmetry_multiplicity
 _atom_site_fract_x
 _atom_site_fract_y
 _atom_site_fract_z
 _atom_site_occupancy
  Zn  Zn0  1  0.62098000  0.29132000  0.29244000  1.0
  Zn  Zn1  1  0.20633000  0.88190000  0.70587000  1.0
  Zn  Zn2  1  0.79485000  0.29376000  0.11898000  1.0
  Zn  Zn3  1  0.79005000  0.11918000  0.29450000  1.0
  Zn  Zn4  1  0.21049000  0.70490000  0.88052000  1.0
  Zn  Zn5  1  0.79540000  0.29555000  0.29285000  1.0
  Zn  Zn6  1  0.37933000  0.70670000  0.70806000  1.0
  Zn  Zn7  1  0.20250000  0.70657000  0.70849000  1.0
  H  H8  1  0.35651000  0.03904000  0.49706000  1.0
  H  H9  1  0.38544000  0.21662000  0.48035000  1.0
  H  H10  1  0.27956000  0.26767000  0.36300000  1.0
  H  H11  1  0.26232000  0.19376000  0.47314000  1.0
  H  H12  1  0.22145000  0.31577000  0.52874000  1.0
  H  H13  1  0.15268000  0.34937000  0.46692000  1.0
  H  H14  1  0.24232000  0.39045000  0.41890000  1.0
  H  H15  1  0.88289000  0.29112000  0.43430000  1.0
  H  H16  1  0.99298000  0.21433000  0.42337000  1.0
  H  H17  1  0.86229000  0.27078000  0.58846000  1.0
  H  H18  1  0.97161000  0.19438000  0.57868000  1.0
  H  H19  1  0.00256000  0.04576000  0.59903000  1.0
  H  H20  1  0.03423000  0.31407000  0.45239000  1.0
  H  H21  1  0.96678000  0.34697000  0.54837000  1.0
  H  H22  1  0.92477000  0.39142000  0.46013000  1.0
  H  H23  1  0.59735000  0.63130000  0.71242000  1.0
  H  H24  1  0.61744000  0.51844000  0.78199000  1.0
  H  H25  1  0.71771000  0.63949000  0.73483000  1.0
  H  H26  1  0.73798000  0.52817000  0.80686000  1.0
  H  H27  1  0.78246000  0.47401000  0.68274000  1.0
  H  H28  1  0.84834000  0.53719000  0.65286000  1.0
  H  H29  1  0.75994000  0.58546000  0.60976000  1.0
  H  H30  1  0.64471000  0.50141000  0.96024000  1.0
  H  H31  1  0.14485000  0.53369000  0.71805000  1.0
  H  H32  1  0.03167000  0.54780000  0.78630000  1.0
  H  H33  1  0.17224000  0.37207000  0.75572000  1.0
  H  H34  1  0.05866000  0.38732000  0.81932000  1.0
  H  H35  1  0.01537000  0.50013000  0.68197000  1.0
  H  H36  1  0.08620000  0.39491000  0.66752000  1.0
  H  H37  1  0.13001000  0.48263000  0.61876000  1.0
  H  H38  1  0.40303000  0.28739000  0.36845000  1.0
  H  H39  1  0.01021000  0.38681000  0.96370000  1.0
  C  C40  1  0.87877000  0.40105000  0.11128000  1.0
  C  C41  1  0.06835000  0.94508000  0.53710000  1.0
  C  C42  1  0.92134000  0.53336000  0.07443000  1.0
  C  C43  1  0.37917000  0.23111000  0.41716000  1.0
  C  C44  1  0.28337000  0.25254000  0.42758000  1.0
  C  C45  1  0.22152000  0.33139000  0.46240000  1.0
  C  C46  1  0.92640000  0.23299000  0.47139000  1.0
  C  C47  1  0.92969000  0.25399000  0.54081000  1.0
  C  C48  1  0.96583000  0.33088000  0.49806000  1.0
  C  C49  1  0.62175000  0.58236000  0.76852000  1.0
  C  C50  1  0.71648000  0.57410000  0.74831000  1.0
  C  C51  1  0.78028000  0.54084000  0.66906000  1.0
  C  C52  1  0.55373000  0.42860000  0.05407000  1.0
  C  C53  1  0.09951000  0.49927000  0.77576000  1.0
  C  C54  1  0.10465000  0.42100000  0.76137000  1.0
  C  C55  1  0.08283000  0.45141000  0.67772000  1.0
  C  C56  1  0.93381000  0.46146000  0.05444000  1.0
  C  C57  1  0.44766000  0.94491000  0.57044000  1.0
  C  C58  1  0.41917000  0.02262000  0.50467000  1.0
  C  C59  1  0.00679000  0.02660000  0.54866000  1.0
  C  C60  1  0.58216000  0.49396000  0.97634000  1.0
  C  C61  1  0.61134000  0.37586000  0.11219000  1.0
  C  C62  1  0.00196000  0.44186000  0.97898000  1.0
  C  C63  1  0.46983000  0.07889000  0.44859000  1.0
  C  C64  1  0.95015000  0.08263000  0.49797000  1.0
  C  C65  1  0.53131000  0.54991000  0.91988000  1.0
  C  C66  1  0.05979000  0.49103000  0.92415000  1.0
  C  C67  1  0.12168000  0.88827000  0.59954000  1.0
  C  C68  1  0.55295000  0.05556000  0.45578000  1.0
  C  C69  1  0.95313000  0.05624000  0.43523000  1.0
  C  C70  1  0.44867000  0.54247000  0.94271000  1.0
  C  C71  1  0.05031000  0.56051000  0.94563000  1.0
  C  C72  1  0.38970000  0.88738000  0.62377000  1.0
  C  C73  1  0.90669000  0.03070000  0.02558000  1.0
  C  C74  1  0.95703000  0.97682000  0.97134000  1.0
  C  C75  1  0.04995000  0.94336000  0.94830000  1.0
  C  C76  1  0.94962000  0.05099000  0.05648000  1.0
  C  C77  1  0.09285000  0.96328000  0.97953000  1.0
  C  C78  1  0.04254000  0.01741000  0.03350000  1.0
  C  C79  1  0.60940000  0.11385000  0.39064000  1.0
  C  C80  1  0.88902000  0.11623000  0.38385000  1.0
  C  C81  1  0.39203000  0.60792000  0.88427000  1.0
  C  C82  1  0.11339000  0.61245000  0.88591000  1.0
  C  C83  1  0.89478000  0.10977000  0.11423000  1.0
  C  C84  1  0.10508000  0.88597000  0.88920000  1.0
  C  C85  1  0.61606000  0.38228000  0.39384000  1.0
  C  C86  1  0.38222000  0.60951000  0.61637000  1.0
  C  C87  1  0.57134000  0.39425000  0.55128000  1.0
  C  C88  1  0.44801000  0.45837000  0.47591000  1.0
  C  C89  1  0.38616000  0.50740000  0.54862000  1.0
  C  C90  1  0.51866000  0.46682000  0.60155000  1.0
  C  C91  1  0.57012000  0.53515000  0.40613000  1.0
  C  C92  1  0.49468000  0.60425000  0.45796000  1.0
  C  C93  1  0.55230000  0.44055000  0.45693000  1.0
  C  C94  1  0.44377000  0.54826000  0.55661000  1.0
  C  C95  1  0.58036000  0.97900000  0.52393000  1.0
  C  C96  1  0.01684000  0.97558000  0.42138000  1.0
  C  C97  1  0.42146000  0.47455000  0.01914000  1.0
  C  C98  1  0.98032000  0.58217000  0.01984000  1.0
  C  C99  1  0.52755000  0.92397000  0.58230000  1.0
  C  C100  1  0.07513000  0.92000000  0.47142000  1.0
  C  C101  1  0.47413000  0.41662000  0.07471000  1.0
  Br  Br102  1  0.69776000  0.33472000  0.54964000  1.0
  Br  Br103  1  0.41615000  0.35270000  0.50823000  1.0
  Br  Br104  1  0.33354000  0.42885000  0.66564000  1.0
  Br  Br105  1  0.47058000  0.41505000  0.73277000  1.0
  Br  Br106  1  0.53974000  0.28391000  0.62021000  1.0
  Br  Br107  1  0.69237000  0.51930000  0.39078000  1.0
  Br  Br108  1  0.58394000  0.58471000  0.27761000  1.0
  Br  Br109  1  0.40512000  0.69852000  0.39915000  1.0
  Br  Br110  1  0.41501000  0.52660000  0.36573000  1.0
  Br  Br111  1  0.54513000  0.68702000  0.44682000  1.0
  Br  Br112  1  0.68663000  0.95442000  0.54030000  1.0
  Br  Br113  1  0.02836000  0.94611000  0.32878000  1.0
  Br  Br114  1  0.31552000  0.45841000  0.04294000  1.0
  Br  Br115  1  0.96214000  0.68332000  0.04085000  1.0
  Br  Br116  1  0.26912000  0.59101000  0.52689000  1.0
  Br  Br117  1  0.55997000  0.82731000  0.68005000  1.0
  Br  Br118  1  0.16516000  0.81558000  0.44604000  1.0
  Br  Br119  1  0.44203000  0.31925000  0.17180000  1.0
  Br  Br120  1  0.82244000  0.56834000  0.16923000  1.0
  Br  Br121  1  0.60085000  0.50908000  0.60221000  1.0
  Br  Br122  1  0.78094000  0.07724000  0.05833000  1.0
  Br  Br123  1  0.90198000  0.94729000  0.92836000  1.0
  Br  Br124  1  0.21856000  0.91611000  0.94737000  1.0
  Br  Br125  1  0.09788000  0.04685000  0.07622000  1.0
  O  O126  1  0.75141000  0.25034000  0.24853000  1.0
  O  O127  1  0.57206000  0.36032000  0.19512000  1.0
  O  O128  1  0.13839000  0.80481000  0.62691000  1.0
  O  O129  1  0.42861000  0.80374000  0.64153000  1.0
  O  O130  1  0.57277000  0.19582000  0.38423000  1.0
  O  O131  1  0.88844000  0.19623000  0.34287000  1.0
  O  O132  1  0.42784000  0.61301000  0.80311000  1.0
  O  O133  1  0.11337000  0.65262000  0.80626000  1.0
  O  O134  1  0.24890000  0.75178000  0.75016000  1.0
  O  O135  1  0.69503000  0.35453000  0.07218000  1.0
  O  O136  1  0.85901000  0.37684000  0.06972000  1.0
  O  O137  1  0.30603000  0.92852000  0.64344000  1.0
  O  O138  1  0.14259000  0.93022000  0.62220000  1.0
  O  O139  1  0.84052000  0.08229000  0.38630000  1.0
  O  O140  1  0.68818000  0.07714000  0.34666000  1.0
  O  O141  1  0.16103000  0.61177000  0.91965000  1.0
  O  O142  1  0.31386000  0.65364000  0.92036000  1.0
  O  O143  1  0.87630000  0.19275000  0.07336000  1.0
  O  O144  1  0.12759000  0.92750000  0.80677000  1.0
  O  O145  1  0.69874000  0.35511000  0.38045000  1.0
  O  O146  1  0.57905000  0.37035000  0.35922000  1.0
  O  O147  1  0.30069000  0.61707000  0.65247000  1.0
  O  O148  1  0.42113000  0.64596000  0.62360000  1.0
  O  O149  1  0.87285000  0.06967000  0.19707000  1.0
  O  O150  1  0.85948000  0.37666000  0.19454000  1.0
  O  O151  1  0.12332000  0.80271000  0.92868000  1.0
  O  O152  1  0.44016000  0.15529000  0.38502000  1.0
  O  O153  1  0.88935000  0.16179000  0.51080000  1.0
  O  O154  1  0.55974000  0.61416000  0.84405000  1.0
  O  O155  1  0.12755000  0.47150000  0.85077000  1.0
