# generated using pymatgen
data_ZnH3C4N4O
_symmetry_space_group_name_H-M   'P 1'
_cell_length_a   8.06557000
_cell_length_b   9.58633000
_cell_length_c   16.05720000
_cell_angle_alpha   90.00020000
_cell_angle_beta   90.00030000
_cell_angle_gamma   69.11100000
_symmetry_Int_Tables_number   1
_chemical_formula_structural   ZnH3C4N4O
_chemical_formula_sum   'Zn8 H24 C32 N32 O8'
_cell_volume   1159.92799294
_cell_formula_units_Z   8
loop_
 _symmetry_equiv_pos_site_id
 _symmetry_equiv_pos_as_xyz
  1  'x, y, z'
loop_
 _atom_site_type_symbol
 _atom_site_label
 _atom_site_symmetry_multiplicity
 _atom_site_fract_x
 _atom_site_fract_y
 _atom_site_fract_z
 _atom_site_occupancy
  Zn  Zn0  1  0.28291000  0.00852000  0.19108000  1.0
  Zn  Zn1  1  0.21709000  0.49148000  0.69108000  1.0
  Zn  Zn2  1  0.71709000  0.99148000  0.80892000  1.0
  Zn  Zn3  1  0.78291000  0.50852000  0.30892000  1.0
  Zn  Zn4  1  0.20135000  0.25702000  0.35992000  1.0
  Zn  Zn5  1  0.29865000  0.24298000  0.85992000  1.0
  Zn  Zn6  1  0.79865000  0.74298000  0.64008000  1.0
  Zn  Zn7  1  0.70135000  0.75702000  0.14008000  1.0
  H  H8  1  0.38096000  0.48913000  0.91730000  1.0
  H  H9  1  0.11904000  0.01087000  0.41730000  1.0
  H  H10  1  0.61904000  0.51087000  0.08270000  1.0
  H  H11  1  0.88096000  0.98913000  0.58270000  1.0
  H  H12  1  0.34037000  0.75608000  0.90182000  1.0
  H  H13  1  0.15963000  0.74392000  0.40182000  1.0
  H  H14  1  0.65963000  0.24392000  0.09818000  1.0
  H  H15  1  0.84037000  0.25608000  0.59818000  1.0
  H  H16  1  0.16948000  0.94114000  0.00668000  1.0
  H  H17  1  0.33052000  0.55886000  0.50668000  1.0
  H  H18  1  0.83052000  0.05886000  0.99333000  1.0
  H  H19  1  0.66948000  0.44114000  0.49332000  1.0
  H  H20  1  0.08408000  0.58965000  0.14684000  1.0
  H  H21  1  0.41592000  0.91035000  0.64684000  1.0
  H  H22  1  0.91592000  0.41035000  0.85316000  1.0
  H  H23  1  0.58408000  0.08965000  0.35316000  1.0
  H  H24  1  0.43164000  0.73182000  0.20553000  1.0
  H  H25  1  0.06836000  0.76818000  0.70553000  1.0
  H  H26  1  0.56836000  0.26818000  0.79447000  1.0
  H  H27  1  0.93164000  0.23182000  0.29447000  1.0
  H  H28  1  0.40959000  0.98549000  0.33134000  1.0
  H  H29  1  0.09041000  0.51451000  0.83134000  1.0
  H  H30  1  0.59041000  0.01451000  0.66866000  1.0
  H  H31  1  0.90959000  0.48549000  0.16866000  1.0
  C  C32  1  0.22945000  0.52181000  0.03176000  1.0
  C  C33  1  0.27054000  0.97819000  0.53176000  1.0
  C  C34  1  0.77055000  0.47820000  0.96824000  1.0
  C  C35  1  0.72945000  0.02180000  0.46824000  1.0
  C  C36  1  0.30264000  0.56963000  0.96293000  1.0
  C  C37  1  0.19737000  0.93037000  0.46293000  1.0
  C  C38  1  0.69736000  0.43038000  0.03707000  1.0
  C  C39  1  0.80263000  0.06963000  0.53707000  1.0
  C  C40  1  0.28019000  0.72008000  0.95444000  1.0
  C  C41  1  0.21981000  0.77992000  0.45444000  1.0
  C  C42  1  0.71981000  0.27992000  0.04556000  1.0
  C  C43  1  0.78019000  0.22008000  0.54556000  1.0
  C  C44  1  0.18314000  0.82445000  0.01313000  1.0
  C  C45  1  0.31686000  0.67555000  0.51314000  1.0
  C  C46  1  0.81686000  0.17555000  0.98687000  1.0
  C  C47  1  0.68314000  0.32445000  0.48686000  1.0
  C  C48  1  0.10654000  0.77778000  0.08117000  1.0
  C  C49  1  0.39346000  0.72222000  0.58117000  1.0
  C  C50  1  0.89346000  0.22222000  0.91883000  1.0
  C  C51  1  0.60654000  0.27778000  0.41883000  1.0
  C  C52  1  0.13298000  0.62661000  0.09101000  1.0
  C  C53  1  0.36702000  0.87339000  0.59102000  1.0
  C  C54  1  0.86702000  0.37339000  0.90899000  1.0
  C  C55  1  0.63298000  0.12660000  0.40898000  1.0
  C  C56  1  0.25619000  0.36448000  0.04546000  1.0
  C  C57  1  0.24381000  0.13552000  0.54546000  1.0
  C  C58  1  0.74381000  0.63552000  0.95455000  1.0
  C  C59  1  0.75619000  0.86448000  0.45454000  1.0
  C  C60  1  0.99655000  0.88601000  0.14179000  1.0
  C  C61  1  0.50345000  0.61399000  0.64179000  1.0
  C  C62  1  0.00345000  0.11399000  0.85822000  1.0
  C  C63  1  0.49655000  0.38601000  0.35821000  1.0
  N  N64  1  0.24944000  0.30569000  0.12078000  1.0
  N  N65  1  0.25056000  0.19431000  0.62078000  1.0
  N  N66  1  0.75056000  0.69431000  0.87922000  1.0
  N  N67  1  0.74944000  0.80569000  0.37922000  1.0
  N  N68  1  0.28296000  0.16067000  0.10533000  1.0
  N  N69  1  0.21704000  0.33933000  0.60533000  1.0
  N  N70  1  0.71704000  0.83933000  0.89467000  1.0
  N  N71  1  0.78296000  0.66067000  0.39467000  1.0
  N  N72  1  0.30723000  0.12905000  0.02538000  1.0
  N  N73  1  0.19278000  0.37095000  0.52538000  1.0
  N  N74  1  0.69277000  0.87095000  0.97462000  1.0
  N  N75  1  0.80722000  0.62905000  0.47462000  1.0
  N  N76  1  0.29102000  0.25633000  0.98632000  1.0
  N  N77  1  0.20898000  0.24367000  0.48632000  1.0
  N  N78  1  0.70898000  0.74368000  0.01368000  1.0
  N  N79  1  0.79102000  0.75632000  0.51368000  1.0
  N  N80  1  0.04020000  0.99180000  0.18082000  1.0
  N  N81  1  0.45980000  0.50821000  0.68082000  1.0
  N  N82  1  0.95980000  0.00821000  0.81918000  1.0
  N  N83  1  0.54021000  0.49179000  0.31917000  1.0
  N  N84  1  0.89922000  0.07018000  0.22865000  1.0
  N  N85  1  0.60078000  0.42982000  0.72865000  1.0
  N  N86  1  0.10078000  0.92982000  0.77135000  1.0
  N  N87  1  0.39922000  0.57018000  0.27135000  1.0
  N  N88  1  0.77396000  0.01508000  0.21948000  1.0
  N  N89  1  0.72604000  0.48492000  0.71948000  1.0
  N  N90  1  0.22604000  0.98492000  0.78052000  1.0
  N  N91  1  0.27396000  0.51508000  0.28052000  1.0
  N  N92  1  0.83134000  0.89879000  0.16579000  1.0
  N  N93  1  0.66866000  0.60121000  0.66579000  1.0
  N  N94  1  0.16866000  0.10121000  0.83421000  1.0
  N  N95  1  0.33134000  0.39879000  0.33421000  1.0
  O  O96  1  0.31645000  0.06623000  0.30388000  1.0
  O  O97  1  0.18355000  0.43377000  0.80388000  1.0
  O  O98  1  0.68355000  0.93377000  0.69611000  1.0
  O  O99  1  0.81646000  0.56623000  0.19611000  1.0
  O  O100  1  0.45858000  0.81170000  0.17641000  1.0
  O  O101  1  0.04142000  0.68830000  0.67641000  1.0
  O  O102  1  0.54142000  0.18830000  0.82359000  1.0
  O  O103  1  0.95859000  0.31170000  0.32359000  1.0
