# generated using pymatgen
data_NaGdH14C14(NO6)2
_symmetry_space_group_name_H-M   'P 1'
_cell_length_a   10.63510000
_cell_length_b   11.17700000
_cell_length_c   17.64970000
_cell_angle_alpha   90.00080000
_cell_angle_beta   90.00050000
_cell_angle_gamma   82.90090000
_symmetry_Int_Tables_number   1
_chemical_formula_structural   NaGdH14C14(NO6)2
_chemical_formula_sum   'Na4 Gd4 H56 C56 N8 O48'
_cell_volume   2081.91011625
_cell_formula_units_Z   4
loop_
 _symmetry_equiv_pos_site_id
 _symmetry_equiv_pos_as_xyz
  1  'x, y, z'
loop_
 _atom_site_type_symbol
 _atom_site_label
 _atom_site_symmetry_multiplicity
 _atom_site_fract_x
 _atom_site_fract_y
 _atom_site_fract_z
 _atom_site_occupancy
  Na  Na0  1  0.06375000  0.38948000  0.36623000  1.0
  Na  Na1  1  0.93625000  0.11052000  0.86624000  1.0
  Na  Na2  1  0.93625000  0.61052000  0.63376000  1.0
  Na  Na3  1  0.06375000  0.88948000  0.13376000  1.0
  Gd  Gd4  1  0.09332000  0.21762000  0.18383000  1.0
  Gd  Gd5  1  0.90668000  0.28237000  0.68382000  1.0
  Gd  Gd6  1  0.90668000  0.78237000  0.81618000  1.0
  Gd  Gd7  1  0.09332000  0.71763000  0.31618000  1.0
  H  H8  1  0.55214000  0.39576000  0.15569000  1.0
  H  H9  1  0.44786000  0.10422000  0.65570000  1.0
  H  H10  1  0.44785000  0.60424000  0.84432000  1.0
  H  H11  1  0.55214000  0.89578000  0.34429000  1.0
  H  H12  1  0.69218000  0.19544000  0.15804000  1.0
  H  H13  1  0.30782000  0.30454000  0.65805000  1.0
  H  H14  1  0.30782000  0.80456000  0.84197000  1.0
  H  H15  1  0.69218000  0.69545000  0.34194000  1.0
  H  H16  1  0.58884000  0.00519000  0.16134000  1.0
  H  H17  1  0.41116000  0.49479000  0.66135000  1.0
  H  H18  1  0.41117000  0.99481000  0.83866000  1.0
  H  H19  1  0.58884000  0.50520000  0.33865000  1.0
  H  H20  1  0.68250000  0.56310000  0.13844000  1.0
  H  H21  1  0.31752000  0.93690000  0.63846000  1.0
  H  H22  1  0.31750000  0.43691000  0.86156000  1.0
  H  H23  1  0.68248000  0.06310000  0.36154000  1.0
  H  H24  1  0.67856000  0.55463000  0.99503000  1.0
  H  H25  1  0.32146000  0.94536000  0.49505000  1.0
  H  H26  1  0.32145000  0.44538000  0.00497000  1.0
  H  H27  1  0.67854000  0.05464000  0.50495000  1.0
  H  H28  1  0.84578000  0.41553000  0.92847000  1.0
  H  H29  1  0.15424000  0.08444000  0.42847000  1.0
  H  H30  1  0.15422000  0.58447000  0.07153000  1.0
  H  H31  1  0.84576000  0.91556000  0.57152000  1.0
  H  H32  1  0.87070000  0.05546000  0.17148000  1.0
  H  H33  1  0.12930000  0.44454000  0.67148000  1.0
  H  H34  1  0.12930000  0.94455000  0.82852000  1.0
  H  H35  1  0.87070000  0.55546000  0.32852000  1.0
  H  H36  1  0.90094000  0.08183000  0.08445000  1.0
  H  H37  1  0.09907000  0.41817000  0.58445000  1.0
  H  H38  1  0.09906000  0.91818000  0.91555000  1.0
  H  H39  1  0.90094000  0.58183000  0.41555000  1.0
  H  H40  1  0.25364000  0.16030000  0.32128000  1.0
  H  H41  1  0.74636000  0.33971000  0.82128000  1.0
  H  H42  1  0.74636000  0.83970000  0.67873000  1.0
  H  H43  1  0.25364000  0.66029000  0.17872000  1.0
  H  H44  1  0.28522000  0.29540000  0.31242000  1.0
  H  H45  1  0.71478000  0.20461000  0.81242000  1.0
  H  H46  1  0.71478000  0.70460000  0.68758000  1.0
  H  H47  1  0.28522000  0.79539000  0.18758000  1.0
  H  H48  1  0.99158000  0.15381000  0.33630000  1.0
  H  H49  1  0.00843000  0.34619000  0.83629000  1.0
  H  H50  1  0.00842000  0.84619000  0.66370000  1.0
  H  H51  1  0.99157000  0.65381000  0.16371000  1.0
  H  H52  1  0.07683000  0.03421000  0.30804000  1.0
  H  H53  1  0.92317000  0.46579000  0.80804000  1.0
  H  H54  1  0.92317000  0.96579000  0.69196000  1.0
  H  H55  1  0.07683000  0.53421000  0.19196000  1.0
  H  H56  1  0.14670000  0.54521000  0.48346000  1.0
  H  H57  1  0.85330000  0.95481000  0.98346000  1.0
  H  H58  1  0.85331000  0.45479000  0.51654000  1.0
  H  H59  1  0.14670000  0.04519000  0.01654000  1.0
  H  H60  1  0.24584000  0.42904000  0.48802000  1.0
  H  H61  1  0.75416000  0.07098000  0.98803000  1.0
  H  H62  1  0.75416000  0.57096000  0.51197000  1.0
  H  H63  1  0.24584000  0.92902000  0.01197000  1.0
  C  C64  1  0.29057000  0.42539000  0.15988000  1.0
  C  C65  1  0.70943000  0.07460000  0.65987000  1.0
  C  C66  1  0.70942000  0.57460000  0.84013000  1.0
  C  C67  1  0.29058000  0.92540000  0.34012000  1.0
  C  C68  1  0.38167000  0.31116000  0.15577000  1.0
  C  C69  1  0.61833000  0.18883000  0.65577000  1.0
  C  C70  1  0.61832000  0.68884000  0.84423000  1.0
  C  C71  1  0.38167000  0.81117000  0.34423000  1.0
  C  C72  1  0.51302000  0.31034000  0.15510000  1.0
  C  C73  1  0.48698000  0.18964000  0.65511000  1.0
  C  C74  1  0.48697000  0.68965000  0.84491000  1.0
  C  C75  1  0.51302000  0.81036000  0.34489000  1.0
  C  C76  1  0.58933000  0.19951000  0.15625000  1.0
  C  C77  1  0.41068000  0.30047000  0.65626000  1.0
  C  C78  1  0.41067000  0.80049000  0.84375000  1.0
  C  C79  1  0.58933000  0.69953000  0.34374000  1.0
  C  C80  1  0.53266000  0.09325000  0.15793000  1.0
  C  C81  1  0.46734000  0.40673000  0.65794000  1.0
  C  C82  1  0.46734000  0.90675000  0.84207000  1.0
  C  C83  1  0.53266000  0.59326000  0.34206000  1.0
  C  C84  1  0.40061000  0.10243000  0.15878000  1.0
  C  C85  1  0.59939000  0.39755000  0.65878000  1.0
  C  C86  1  0.59939000  0.89756000  0.84122000  1.0
  C  C87  1  0.40061000  0.60245000  0.34122000  1.0
  C  C88  1  0.32794000  0.99540000  0.16565000  1.0
  C  C89  1  0.67206000  0.50459000  0.66565000  1.0
  C  C90  1  0.67206000  0.00459000  0.83435000  1.0
  C  C91  1  0.32794000  0.49541000  0.33435000  1.0
  C  C92  1  0.85626000  0.42556000  0.23007000  1.0
  C  C93  1  0.14374000  0.07444000  0.73008000  1.0
  C  C94  1  0.14374000  0.57444000  0.76993000  1.0
  C  C95  1  0.85626000  0.92556000  0.26992000  1.0
  C  C96  1  0.84325000  0.42629000  0.14500000  1.0
  C  C97  1  0.15676000  0.07371000  0.64501000  1.0
  C  C98  1  0.15676000  0.57371000  0.85500000  1.0
  C  C99  1  0.84324000  0.92629000  0.35499000  1.0
  C  C100  1  0.75074000  0.50243000  0.10632000  1.0
  C  C101  1  0.24927000  0.99757000  0.60633000  1.0
  C  C102  1  0.24926000  0.49758000  0.89369000  1.0
  C  C103  1  0.75073000  0.00243000  0.39367000  1.0
  C  C104  1  0.75045000  0.49829000  0.02739000  1.0
  C  C105  1  0.24956000  0.00170000  0.52740000  1.0
  C  C106  1  0.24955000  0.50172000  0.97261000  1.0
  C  C107  1  0.75044000  0.99830000  0.47260000  1.0
  C  C108  1  0.84337000  0.42099000  0.98988000  1.0
  C  C109  1  0.15665000  0.07900000  0.48988000  1.0
  C  C110  1  0.15663000  0.57901000  0.01012000  1.0
  C  C111  1  0.84335000  0.92100000  0.51012000  1.0
  C  C112  1  0.93368000  0.34935000  0.03276000  1.0
  C  C113  1  0.06632000  0.15063000  0.53276000  1.0
  C  C114  1  0.06632000  0.65065000  0.96725000  1.0
  C  C115  1  0.93367000  0.84938000  0.46724000  1.0
  C  C116  1  0.03649000  0.26041000  0.99778000  1.0
  C  C117  1  0.96353000  0.23958000  0.49777000  1.0
  C  C118  1  0.96351000  0.73960000  0.00222000  1.0
  C  C119  1  0.03647000  0.76042000  0.50222000  1.0
  N  N120  1  0.32759000  0.20920000  0.15745000  1.0
  N  N121  1  0.67241000  0.29078000  0.65745000  1.0
  N  N122  1  0.67241000  0.79079000  0.84255000  1.0
  N  N123  1  0.32759000  0.70922000  0.34255000  1.0
  N  N124  1  0.93164000  0.35174000  0.10867000  1.0
  N  N125  1  0.06837000  0.14825000  0.60867000  1.0
  N  N126  1  0.06836000  0.64826000  0.89133000  1.0
  N  N127  1  0.93163000  0.85175000  0.39133000  1.0
  O  O128  1  0.33333333  0.52496000  0.15707000  1.0
  O  O129  1  0.66673000  0.97502000  0.65707000  1.0
  O  O130  1  0.66671000  0.47503000  0.84293000  1.0
  O  O131  1  0.33333333  0.02498000  0.34293000  1.0
  O  O132  1  0.17263000  0.41030000  0.16655000  1.0
  O  O133  1  0.82737000  0.08969000  0.66656000  1.0
  O  O134  1  0.82736000  0.58969000  0.83345000  1.0
  O  O135  1  0.17263000  0.91032000  0.33344000  1.0
  O  O136  1  0.38612000  0.89056000  0.16371000  1.0
  O  O137  1  0.61389000  0.60942000  0.66371000  1.0
  O  O138  1  0.61389000  0.10943000  0.83629000  1.0
  O  O139  1  0.38612000  0.39058000  0.33628000  1.0
  O  O140  1  0.20717000  0.02110000  0.17368000  1.0
  O  O141  1  0.79283000  0.47889000  0.67368000  1.0
  O  O142  1  0.79283000  0.97890000  0.82632000  1.0
  O  O143  1  0.20717000  0.52111000  0.32632000  1.0
  O  O144  1  0.94804000  0.35203000  0.25660000  1.0
  O  O145  1  0.05195000  0.14797000  0.75661000  1.0
  O  O146  1  0.05195000  0.64797000  0.74340000  1.0
  O  O147  1  0.94805000  0.85202000  0.24339000  1.0
  O  O148  1  0.78153000  0.49779000  0.26813000  1.0
  O  O149  1  0.21847000  0.00222000  0.76814000  1.0
  O  O150  1  0.21848000  0.50221000  0.73187000  1.0
  O  O151  1  0.78153000  0.99778000  0.23186000  1.0
  O  O152  1  0.10799000  0.19557000  0.04499000  1.0
  O  O153  1  0.89202000  0.30441000  0.54498000  1.0
  O  O154  1  0.89200000  0.80443000  0.95501000  1.0
  O  O155  1  0.10799000  0.69559000  0.45502000  1.0
  O  O156  1  0.04322000  0.25188000  0.92691000  1.0
  O  O157  1  0.95681000  0.24810000  0.42691000  1.0
  O  O158  1  0.95678000  0.74813000  0.07309000  1.0
  O  O159  1  0.04319000  0.75190000  0.57309000  1.0
  O  O160  1  0.93388000  0.08827000  0.13670000  1.0
  O  O161  1  0.06612000  0.41173000  0.63670000  1.0
  O  O162  1  0.06612000  0.91173000  0.86330000  1.0
  O  O163  1  0.93389000  0.58827000  0.36330000  1.0
  O  O164  1  0.21572000  0.24268000  0.30452000  1.0
  O  O165  1  0.78428000  0.25733000  0.80452000  1.0
  O  O166  1  0.78428000  0.75732000  0.69548000  1.0
  O  O167  1  0.21572000  0.74268000  0.19548000  1.0
  O  O168  1  0.01879000  0.10670000  0.29069000  1.0
  O  O169  1  0.98121000  0.39331000  0.79068000  1.0
  O  O170  1  0.98121000  0.89331000  0.70932000  1.0
  O  O171  1  0.01879000  0.60669000  0.20932000  1.0
  O  O172  1  0.15552000  0.45582000  0.49255000  1.0
  O  O173  1  0.84448000  0.04420000  0.99255000  1.0
  O  O174  1  0.84448000  0.54418000  0.50745000  1.0
  O  O175  1  0.15552000  0.95580000  0.00745000  1.0
