# generated using pymatgen
data_ZnH8C10NO4
_symmetry_space_group_name_H-M   'P 1'
_cell_length_a   10.15880000
_cell_length_b   14.89940000
_cell_length_c   18.03258859
_cell_angle_alpha   113.63916953
_cell_angle_beta   89.99976125
_cell_angle_gamma   89.99980000
_symmetry_Int_Tables_number   1
_chemical_formula_structural   ZnH8C10NO4
_chemical_formula_sum   'Zn8 H64 C80 N8 O32'
_cell_volume   2500.38478992
_cell_formula_units_Z   8
loop_
 _symmetry_equiv_pos_site_id
 _symmetry_equiv_pos_as_xyz
  1  'x, y, z'
loop_
 _atom_site_type_symbol
 _atom_site_label
 _atom_site_symmetry_multiplicity
 _atom_site_fract_x
 _atom_site_fract_y
 _atom_site_fract_z
 _atom_site_occupancy
  Zn  Zn0  1  0.27965000  0.14173000  0.24747000  1.0
  Zn  Zn1  1  0.04908000  0.19419000  0.04380000  1.0
  Zn  Zn2  1  0.77964000  0.35827000  0.25253000  1.0
  Zn  Zn3  1  0.54907000  0.30581000  0.45620000  1.0
  Zn  Zn4  1  0.72036000  0.85828000  0.75254000  1.0
  Zn  Zn5  1  0.95093000  0.80581000  0.95620000  1.0
  Zn  Zn6  1  0.22035000  0.64172000  0.74746000  1.0
  Zn  Zn7  1  0.45092000  0.69419000  0.54380000  1.0
  H  H8  1  0.69754000  0.96828000  0.22246000  1.0
  H  H9  1  0.83111000  0.10866000  0.24556000  1.0
  H  H10  1  0.62801000  0.15662000  0.14196000  1.0
  H  H11  1  0.60836000  0.98356000  0.07092000  1.0
  H  H12  1  0.23262000  0.94036000  0.24446000  1.0
  H  H13  1  0.07570000  0.86779000  0.31347000  1.0
  H  H14  1  0.88931000  0.15175000  0.42187000  1.0
  H  H15  1  0.04648000  0.20976000  0.34505000  1.0
  H  H16  1  0.55140000  0.89886000  0.60423000  1.0
  H  H17  1  0.65996000  0.00805000  0.54882000  1.0
  H  H18  1  0.63143000  0.77389000  0.31123000  1.0
  H  H19  1  0.51970000  0.67231000  0.37722000  1.0
  H  H20  1  0.91244000  0.89090000  0.41177000  1.0
  H  H21  1  0.88148000  0.01071000  0.48423000  1.0
  H  H22  1  0.73239000  0.92126000  0.32272000  1.0
  H  H23  1  0.69393000  0.03119000  0.40573000  1.0
  H  H24  1  0.19754000  0.53172000  0.27754000  1.0
  H  H25  1  0.33111000  0.39134000  0.25445000  1.0
  H  H26  1  0.12801000  0.34338000  0.35804000  1.0
  H  H27  1  0.10835000  0.51643000  0.42908000  1.0
  H  H28  1  0.73261000  0.55963000  0.25553000  1.0
  H  H29  1  0.57569000  0.63221000  0.18652000  1.0
  H  H30  1  0.38931000  0.34825000  0.07812000  1.0
  H  H31  1  0.54647000  0.29024000  0.15495000  1.0
  H  H32  1  0.05140000  0.60113000  0.89577000  1.0
  H  H33  1  0.15996000  0.49194000  0.95118000  1.0
  H  H34  1  0.13143000  0.72611000  0.18877000  1.0
  H  H35  1  0.01971000  0.82768000  0.12277000  1.0
  H  H36  1  0.41243000  0.60909000  0.08822000  1.0
  H  H37  1  0.38147000  0.48928000  0.01576000  1.0
  H  H38  1  0.23240000  0.57874000  0.17728000  1.0
  H  H39  1  0.19394000  0.46880000  0.09427000  1.0
  H  H40  1  0.30246000  0.03172000  0.77754000  1.0
  H  H41  1  0.16890000  0.89133000  0.75444000  1.0
  H  H42  1  0.37200000  0.84338000  0.85804000  1.0
  H  H43  1  0.39164000  0.01644000  0.92908000  1.0
  H  H44  1  0.76737000  0.05964000  0.75554000  1.0
  H  H45  1  0.92430000  0.13222000  0.68653000  1.0
  H  H46  1  0.11070000  0.84826000  0.57813000  1.0
  H  H47  1  0.95353000  0.79024000  0.65495000  1.0
  H  H48  1  0.44860000  0.10114000  0.39578000  1.0
  H  H49  1  0.34004000  0.99194000  0.45118000  1.0
  H  H50  1  0.36858000  0.22610000  0.68877000  1.0
  H  H51  1  0.48030000  0.32769000  0.62278000  1.0
  H  H52  1  0.08757000  0.10911000  0.58824000  1.0
  H  H53  1  0.11852000  0.98929000  0.51577000  1.0
  H  H54  1  0.26761000  0.07874000  0.67729000  1.0
  H  H55  1  0.30607000  0.96881000  0.59427000  1.0
  H  H56  1  0.80245000  0.46828000  0.72246000  1.0
  H  H57  1  0.66890000  0.60866000  0.74555000  1.0
  H  H58  1  0.87200000  0.65662000  0.64196000  1.0
  H  H59  1  0.89164000  0.48356000  0.57092000  1.0
  H  H60  1  0.26738000  0.44035000  0.74446000  1.0
  H  H61  1  0.42431000  0.36779000  0.81347000  1.0
  H  H62  1  0.61069000  0.65175000  0.92187000  1.0
  H  H63  1  0.45352000  0.70975000  0.84504000  1.0
  H  H64  1  0.94858000  0.39886000  0.10423000  1.0
  H  H65  1  0.84003000  0.50806000  0.04882000  1.0
  H  H66  1  0.86859000  0.27390000  0.81123000  1.0
  H  H67  1  0.98030000  0.17231000  0.87722000  1.0
  H  H68  1  0.58757000  0.39090000  0.91177000  1.0
  H  H69  1  0.61852000  0.51071000  0.98423000  1.0
  H  H70  1  0.76761000  0.42126000  0.82271000  1.0
  H  H71  1  0.80607000  0.53120000  0.90573000  1.0
  C  C72  1  0.65406000  0.02249000  0.20314000  1.0
  C  C73  1  0.72872000  0.12243000  0.23322000  1.0
  C  C74  1  0.71924000  0.11944000  0.14625000  1.0
  C  C75  1  0.68917000  0.00801000  0.11459000  1.0
  C  C76  1  0.50775000  0.03214000  0.22173000  1.0
  C  C77  1  0.67524000  0.20747000  0.30546000  1.0
  C  C78  1  0.83118000  0.16218000  0.11624000  1.0
  C  C79  1  0.80776000  0.94120000  0.08281000  1.0
  C  C80  1  0.15232000  0.98280000  0.28252000  1.0
  C  C81  1  0.06672000  0.94440000  0.32237000  1.0
  C  C82  1  0.97080000  0.00407000  0.37466000  1.0
  C  C83  1  0.96295000  0.10158000  0.38301000  1.0
  C  C84  1  0.05022000  0.13453000  0.34034000  1.0
  C  C85  1  0.57114000  0.87364000  0.53956000  1.0
  C  C86  1  0.63180000  0.93405000  0.50792000  1.0
  C  C87  1  0.65685000  0.89902000  0.42463000  1.0
  C  C88  1  0.61524000  0.80388000  0.37647000  1.0
  C  C89  1  0.55441000  0.74712000  0.41170000  1.0
  C  C90  1  0.87897000  0.96418000  0.41898000  1.0
  C  C91  1  0.73513000  0.95736000  0.38907000  1.0
  C  C92  1  0.15406000  0.47752000  0.29687000  1.0
  C  C93  1  0.22872000  0.37757000  0.26678000  1.0
  C  C94  1  0.21924000  0.38055000  0.35375000  1.0
  C  C95  1  0.18916000  0.49198000  0.38541000  1.0
  C  C96  1  0.00774000  0.46786000  0.27827000  1.0
  C  C97  1  0.17525000  0.29253000  0.19454000  1.0
  C  C98  1  0.33118000  0.33782000  0.38376000  1.0
  C  C99  1  0.30775000  0.55879000  0.41719000  1.0
  C  C100  1  0.65231000  0.51720000  0.21748000  1.0
  C  C101  1  0.56672000  0.55560000  0.17762000  1.0
  C  C102  1  0.47080000  0.49592000  0.12533000  1.0
  C  C103  1  0.46295000  0.39841000  0.11698000  1.0
  C  C104  1  0.55022000  0.36546000  0.15965000  1.0
  C  C105  1  0.07115000  0.62635000  0.96043000  1.0
  C  C106  1  0.13181000  0.56595000  0.99208000  1.0
  C  C107  1  0.15685000  0.60097000  0.07537000  1.0
  C  C108  1  0.11525000  0.69611000  0.12353000  1.0
  C  C109  1  0.05442000  0.75287000  0.08829000  1.0
  C  C110  1  0.37896000  0.53582000  0.08102000  1.0
  C  C111  1  0.23513000  0.54264000  0.11093000  1.0
  C  C112  1  0.34594000  0.97751000  0.79686000  1.0
  C  C113  1  0.27128000  0.87757000  0.76678000  1.0
  C  C114  1  0.28076000  0.88056000  0.85375000  1.0
  C  C115  1  0.31083000  0.99199000  0.88541000  1.0
  C  C116  1  0.49226000  0.96786000  0.77827000  1.0
  C  C117  1  0.32476000  0.79253000  0.69454000  1.0
  C  C118  1  0.16882000  0.83783000  0.88376000  1.0
  C  C119  1  0.19225000  0.05880000  0.91719000  1.0
  C  C120  1  0.84768000  0.01720000  0.71748000  1.0
  C  C121  1  0.93328000  0.05560000  0.67763000  1.0
  C  C122  1  0.02920000  0.99593000  0.62534000  1.0
  C  C123  1  0.03705000  0.89842000  0.61699000  1.0
  C  C124  1  0.94978000  0.86547000  0.65966000  1.0
  C  C125  1  0.42886000  0.12636000  0.46044000  1.0
  C  C126  1  0.36819000  0.06595000  0.49208000  1.0
  C  C127  1  0.34315000  0.10098000  0.57537000  1.0
  C  C128  1  0.38476000  0.19612000  0.62354000  1.0
  C  C129  1  0.44559000  0.25288000  0.58830000  1.0
  C  C130  1  0.12103000  0.03583000  0.58103000  1.0
  C  C131  1  0.26487000  0.04264000  0.61093000  1.0
  C  C132  1  0.84594000  0.52249000  0.70314000  1.0
  C  C133  1  0.77128000  0.62243000  0.73322000  1.0
  C  C134  1  0.78076000  0.61944000  0.64625000  1.0
  C  C135  1  0.81083000  0.50801000  0.61459000  1.0
  C  C136  1  0.99225000  0.53214000  0.72173000  1.0
  C  C137  1  0.82476000  0.70747000  0.80546000  1.0
  C  C138  1  0.66883000  0.66218000  0.61624000  1.0
  C  C139  1  0.69224000  0.44121000  0.58282000  1.0
  C  C140  1  0.34768000  0.48279000  0.78251000  1.0
  C  C141  1  0.43328000  0.44440000  0.82237000  1.0
  C  C142  1  0.52920000  0.50407000  0.87466000  1.0
  C  C143  1  0.53705000  0.60158000  0.88300000  1.0
  C  C144  1  0.44977000  0.63453000  0.84034000  1.0
  C  C145  1  0.92885000  0.37364000  0.03956000  1.0
  C  C146  1  0.86819000  0.43405000  0.00792000  1.0
  C  C147  1  0.84315000  0.39903000  0.92463000  1.0
  C  C148  1  0.88477000  0.30388000  0.87646000  1.0
  C  C149  1  0.94559000  0.24712000  0.91170000  1.0
  C  C150  1  0.62104000  0.46417000  0.91897000  1.0
  C  C151  1  0.76487000  0.45736000  0.88907000  1.0
  N  N152  1  0.14440000  0.07679000  0.29172000  1.0
  N  N153  1  0.53387000  0.78136000  0.49218000  1.0
  N  N154  1  0.64439000  0.42322000  0.20828000  1.0
  N  N155  1  0.03387000  0.71864000  0.00782000  1.0
  N  N156  1  0.85560000  0.92321000  0.70828000  1.0
  N  N157  1  0.46613000  0.21865000  0.50783000  1.0
  N  N158  1  0.35560000  0.57679000  0.79172000  1.0
  N  N159  1  0.96613000  0.28136000  0.99218000  1.0
  O  O160  1  0.44541000  0.09060000  0.19557000  1.0
  O  O161  1  0.45556000  0.98735000  0.25957000  1.0
  O  O162  1  0.67128000  0.29429000  0.30767000  1.0
  O  O163  1  0.63358000  0.18859000  0.36409000  1.0
  O  O164  1  0.90537000  0.10896000  0.05897000  1.0
  O  O165  1  0.84908000  0.25516000  0.15044000  1.0
  O  O166  1  0.79629000  0.88107000  0.00758000  1.0
  O  O167  1  0.90248000  0.94529000  0.12838000  1.0
  O  O168  1  0.94540000  0.40939000  0.30442000  1.0
  O  O169  1  0.95555000  0.51265000  0.24043000  1.0
  O  O170  1  0.17129000  0.20571000  0.19233000  1.0
  O  O171  1  0.13358000  0.31142000  0.13592000  1.0
  O  O172  1  0.40536000  0.39105000  0.44104000  1.0
  O  O173  1  0.34910000  0.24484000  0.34955000  1.0
  O  O174  1  0.29628000  0.61893000  0.49243000  1.0
  O  O175  1  0.40247000  0.55472000  0.37163000  1.0
  O  O176  1  0.55460000  0.90940000  0.80443000  1.0
  O  O177  1  0.54445000  0.01266000  0.74044000  1.0
  O  O178  1  0.32872000  0.70571000  0.69233000  1.0
  O  O179  1  0.36642000  0.81141000  0.63591000  1.0
  O  O180  1  0.09464000  0.89105000  0.94104000  1.0
  O  O181  1  0.15090000  0.74485000  0.84955000  1.0
  O  O182  1  0.20371000  0.11893000  0.99242000  1.0
  O  O183  1  0.09752000  0.05472000  0.87163000  1.0
  O  O184  1  0.05460000  0.59059000  0.69557000  1.0
  O  O185  1  0.04444000  0.48734000  0.75957000  1.0
  O  O186  1  0.82872000  0.79429000  0.80767000  1.0
  O  O187  1  0.86641000  0.68859000  0.86409000  1.0
  O  O188  1  0.59463000  0.60895000  0.55896000  1.0
  O  O189  1  0.65092000  0.75516000  0.65045000  1.0
  O  O190  1  0.70371000  0.38107000  0.50758000  1.0
  O  O191  1  0.59752000  0.44529000  0.62838000  1.0
