# generated using pymatgen
data_Zn4H6C24Cl6O13
_symmetry_space_group_name_H-M   'P 1'
_cell_length_a   18.15160000
_cell_length_b   18.23170000
_cell_length_c   18.24220000
_cell_angle_alpha   61.50920000
_cell_angle_beta   61.29810000
_cell_angle_gamma   61.39080000
_symmetry_Int_Tables_number   1
_chemical_formula_structural   Zn4H6C24Cl6O13
_chemical_formula_sum   'Zn8 H12 C48 Cl12 O26'
_cell_volume   4402.94247175
_cell_formula_units_Z   2
loop_
 _symmetry_equiv_pos_site_id
 _symmetry_equiv_pos_as_xyz
  1  'x, y, z'
loop_
 _atom_site_type_symbol
 _atom_site_label
 _atom_site_symmetry_multiplicity
 _atom_site_fract_x
 _atom_site_fract_y
 _atom_site_fract_z
 _atom_site_occupancy
  Zn  Zn0  1  0.05115000  0.05804000  0.85533000  1.0
  Zn  Zn1  1  0.04982000  0.06508000  0.03022000  1.0
  Zn  Zn2  1  0.05641000  0.88731000  0.02570000  1.0
  Zn  Zn3  1  0.87813000  0.05608000  0.02777000  1.0
  Zn  Zn4  1  0.46670000  0.47352000  0.61394000  1.0
  Zn  Zn5  1  0.45914000  0.47660000  0.43980000  1.0
  Zn  Zn6  1  0.63981000  0.47033000  0.44258000  1.0
  Zn  Zn7  1  0.47179000  0.64593000  0.44160000  1.0
  H  H8  1  0.32269000  0.10833000  0.78865000  1.0
  H  H9  1  0.18480000  0.43381000  0.67829000  1.0
  H  H10  1  0.10011000  0.80980000  0.78096000  1.0
  H  H11  1  0.42872000  0.72409000  0.68510000  1.0
  H  H12  1  0.80890000  0.33112000  0.79003000  1.0
  H  H13  1  0.70812000  0.20324000  0.68091000  1.0
  H  H14  1  0.32824000  0.81987000  0.07019000  1.0
  H  H15  1  0.19228000  0.72945000  0.39696000  1.0
  H  H16  1  0.80560000  0.10046000  0.30585000  1.0
  H  H17  1  0.69330000  0.42629000  0.17201000  1.0
  H  H18  1  0.80437000  0.80867000  0.06952000  1.0
  H  H19  1  0.73205000  0.70835000  0.39495000  1.0
  C  C20  1  0.14323000  0.15845000  0.84914000  1.0
  C  C21  1  0.19995000  0.21736000  0.79052000  1.0
  C  C22  1  0.29224000  0.17962000  0.76518000  1.0
  C  C23  1  0.34572000  0.23318000  0.70942000  1.0
  C  C24  1  0.30763000  0.32491000  0.67793000  1.0
  C  C25  1  0.21533000  0.36259000  0.70261000  1.0
  C  C26  1  0.16185000  0.30900000  0.75890000  1.0
  C  C27  1  0.36510000  0.38310000  0.61998000  1.0
  C  C28  1  0.15125000  0.87823000  0.84489000  1.0
  C  C29  1  0.21037000  0.82058000  0.78710000  1.0
  C  C30  1  0.17203000  0.79084000  0.76054000  1.0
  C  C31  1  0.22589000  0.73669000  0.70761000  1.0
  C  C32  1  0.31841000  0.71225000  0.68021000  1.0
  C  C33  1  0.35679000  0.74239000  0.70630000  1.0
  C  C34  1  0.30293000  0.79607000  0.75976000  1.0
  C  C35  1  0.37671000  0.65422000  0.62281000  1.0
  C  C36  1  0.86924000  0.15234000  0.84746000  1.0
  C  C37  1  0.81162000  0.21146000  0.78978000  1.0
  C  C38  1  0.78686000  0.30287000  0.76636000  1.0
  C  C39  1  0.73401000  0.35817000  0.71227000  1.0
  C  C40  1  0.70539000  0.32283000  0.68119000  1.0
  C  C41  1  0.73015000  0.23142000  0.70466000  1.0
  C  C42  1  0.78305000  0.17613000  0.75864000  1.0
  C  C43  1  0.64798000  0.38101000  0.62328000  1.0
  C  C44  1  0.14856000  0.88676000  0.12213000  1.0
  C  C45  1  0.20607000  0.83044000  0.18018000  1.0
  C  C46  1  0.29819000  0.80081000  0.14173000  1.0
  C  C47  1  0.35203000  0.74617000  0.19490000  1.0
  C  C48  1  0.31449000  0.71991000  0.28697000  1.0
  C  C49  1  0.22237000  0.74950000  0.32541000  1.0
  C  C50  1  0.16856000  0.80465000  0.27226000  1.0
  C  C51  1  0.37175000  0.65993000  0.34509000  1.0
  C  C52  1  0.86595000  0.15237000  0.12674000  1.0
  C  C53  1  0.80600000  0.21008000  0.18456000  1.0
  C  C54  1  0.78153000  0.17180000  0.27622000  1.0
  C  C55  1  0.72621000  0.22498000  0.33014000  1.0
  C  C56  1  0.69439000  0.31675000  0.29317000  1.0
  C  C57  1  0.71788000  0.35498000  0.20155000  1.0
  C  C58  1  0.77365000  0.30186000  0.14762000  1.0
  C  C59  1  0.63800000  0.37528000  0.35025000  1.0
  C  C60  1  0.87722000  0.87239000  0.11714000  1.0
  C  C61  1  0.82163000  0.81264000  0.17672000  1.0
  C  C62  1  0.78911000  0.78650000  0.14068000  1.0
  C  C63  1  0.73656000  0.73196000  0.19602000  1.0
  C  C64  1  0.71546000  0.70367000  0.28770000  1.0
  C  C65  1  0.74814000  0.72969000  0.32373000  1.0
  C  C66  1  0.80127000  0.78366000  0.26834000  1.0
  C  C67  1  0.65615000  0.64756000  0.34744000  1.0
  Cl  Cl68  1  0.45998000  0.18530000  0.67824000  1.0
  Cl  Cl69  1  0.04755000  0.35652000  0.78937000  1.0
  Cl  Cl70  1  0.17753000  0.70042000  0.67498000  1.0
  Cl  Cl71  1  0.35128000  0.83283000  0.79190000  1.0
  Cl  Cl72  1  0.70393000  0.47138000  0.68352000  1.0
  Cl  Cl73  1  0.81312000  0.06294000  0.78735000  1.0
  Cl  Cl74  1  0.46611000  0.71027000  0.14636000  1.0
  Cl  Cl75  1  0.05444000  0.83988000  0.32086000  1.0
  Cl  Cl76  1  0.69631000  0.17655000  0.44364000  1.0
  Cl  Cl77  1  0.80311000  0.35020000  0.03415000  1.0
  Cl  Cl78  1  0.69630000  0.70013000  0.15075000  1.0
  Cl  Cl79  1  0.84125000  0.81584000  0.31358000  1.0
  O  O80  1  0.00887000  0.01697000  0.98522000  1.0
  O  O81  1  0.12175000  0.13940000  0.93186000  1.0
  O  O82  1  0.12399000  0.13238000  0.80917000  1.0
  O  O83  1  0.37888000  0.41052000  0.53755000  1.0
  O  O84  1  0.39340000  0.39974000  0.66011000  1.0
  O  O85  1  0.13247000  0.83861000  0.92750000  1.0
  O  O86  1  0.12475000  0.96061000  0.80547000  1.0
  O  O87  1  0.40286000  0.69378000  0.54041000  1.0
  O  O88  1  0.39443000  0.57170000  0.66253000  1.0
  O  O89  1  0.82922000  0.13221000  0.93018000  1.0
  O  O90  1  0.95238000  0.12947000  0.80746000  1.0
  O  O91  1  0.68838000  0.40179000  0.54064000  1.0
  O  O92  1  0.56472000  0.40190000  0.66291000  1.0
  O  O93  1  0.13036000  0.84460000  0.09757000  1.0
  O  O94  1  0.12516000  0.96982000  0.10240000  1.0
  O  O95  1  0.39758000  0.69758000  0.36739000  1.0
  O  O96  1  0.38731000  0.57780000  0.36716000  1.0
  O  O97  1  0.82746000  0.12532000  0.10666000  1.0
  O  O98  1  0.94885000  0.13564000  0.10464000  1.0
  O  O99  1  0.68048000  0.39267000  0.37528000  1.0
  O  O100  1  0.55463000  0.40259000  0.36634000  1.0
  O  O101  1  0.83481000  0.95441000  0.09406000  1.0
  O  O102  1  0.96079000  0.83490000  0.09529000  1.0
  O  O103  1  0.69380000  0.56459000  0.36645000  1.0
  O  O104  1  0.57378000  0.68937000  0.37355000  1.0
  O  O105  1  0.50913000  0.51625000  0.48408000  1.0
