# generated using pymatgen
data_TbH19(C3O)8
_symmetry_space_group_name_H-M   'P 1'
_cell_length_a   7.32491000
_cell_length_b   8.59456000
_cell_length_c   16.57200000
_cell_angle_alpha   82.75990000
_cell_angle_beta   88.83280000
_cell_angle_gamma   71.39730000
_symmetry_Int_Tables_number   1
_chemical_formula_structural   TbH19(C3O)8
_chemical_formula_sum   'Tb2 H38 C48 O16'
_cell_volume   980.67010398
_cell_formula_units_Z   2
loop_
 _symmetry_equiv_pos_site_id
 _symmetry_equiv_pos_as_xyz
  1  'x, y, z'
loop_
 _atom_site_type_symbol
 _atom_site_label
 _atom_site_symmetry_multiplicity
 _atom_site_fract_x
 _atom_site_fract_y
 _atom_site_fract_z
 _atom_site_occupancy
  Tb  Tb0  1  0.57662000  0.25271000  0.01596000  1.0
  Tb  Tb1  1  0.42337000  0.74729000  0.98405000  1.0
  H  H2  1  0.15572000  0.41880000  0.95215000  1.0
  H  H3  1  0.84428000  0.58120000  0.04785000  1.0
  H  H4  1  0.14192000  0.37579000  0.04735000  1.0
  H  H5  1  0.85808000  0.62421000  0.95265000  1.0
  H  H6  1  0.94339000  0.93966000  0.05049000  1.0
  H  H7  1  0.05661000  0.06034000  0.94951000  1.0
  H  H8  1  0.79492000  0.86904000  0.01441000  1.0
  H  H9  1  0.20507000  0.13097000  0.98559000  1.0
  H  H10  1  0.46767000  0.69491000  0.78700000  1.0
  H  H11  1  0.53233000  0.30509000  0.21300000  1.0
  H  H12  1  0.45133000  0.76805000  0.63928000  1.0
  H  H13  1  0.54867000  0.23196000  0.36072000  1.0
  H  H14  1  0.89927000  0.30895000  0.61370000  1.0
  H  H15  1  0.10073000  0.69106000  0.38630000  1.0
  H  H16  1  0.90931000  0.23478000  0.76434000  1.0
  H  H17  1  0.09068000  0.76522000  0.23566000  1.0
  H  H18  1  0.76891000  0.48757000  0.49386000  1.0
  H  H19  1  0.23109000  0.51244000  0.50614000  1.0
  H  H20  1  0.47252000  0.82339000  0.51886000  1.0
  H  H21  1  0.52748000  0.17661000  0.48114000  1.0
  H  H22  1  0.35394000  0.01726000  0.41078000  1.0
  H  H23  1  0.64606000  0.98274000  0.58922000  1.0
  H  H24  1  0.32773000  0.11648000  0.26270000  1.0
  H  H25  1  0.67227000  0.88352000  0.73730000  1.0
  H  H26  1  0.71269000  0.64501000  0.21400000  1.0
  H  H27  1  0.28731000  0.35499000  0.78600000  1.0
  H  H28  1  0.74698000  0.54695000  0.36132000  1.0
  H  H29  1  0.25301000  0.45305000  0.63868000  1.0
  H  H30  1  0.04064000  0.27631000  0.41677000  1.0
  H  H31  1  0.95937000  0.72368000  0.58323000  1.0
  H  H32  1  0.02322000  0.41168000  0.27496000  1.0
  H  H33  1  0.97680000  0.58831000  0.72504000  1.0
  H  H34  1  0.83914000  0.90143000  0.33398000  1.0
  H  H35  1  0.16086000  0.09857000  0.66602000  1.0
  H  H36  1  0.82632000  0.03773000  0.19246000  1.0
  H  H37  1  0.17368000  0.96227000  0.80754000  1.0
  H  H38  1  0.89211000  0.88714000  0.47312000  1.0
  H  H39  1  0.10790000  0.11285000  0.52688000  1.0
  C  C40  1  0.68630000  0.40887000  0.87369000  1.0
  C  C41  1  0.31369000  0.59113000  0.12631000  1.0
  C  C42  1  0.68956000  0.46008000  0.78521000  1.0
  C  C43  1  0.31044000  0.53992000  0.21479000  1.0
  C  C44  1  0.56149000  0.61018000  0.74894000  1.0
  C  C45  1  0.43851000  0.38982000  0.25106000  1.0
  C  C46  1  0.55436000  0.65132000  0.66530000  1.0
  C  C47  1  0.44563000  0.34869000  0.33470000  1.0
  C  C48  1  0.67674000  0.54449000  0.61476000  1.0
  C  C49  1  0.32325000  0.45551000  0.38524000  1.0
  C  C50  1  0.80551000  0.39399000  0.65205000  1.0
  C  C51  1  0.19449000  0.60601000  0.34795000  1.0
  C  C52  1  0.81209000  0.35217000  0.73589000  1.0
  C  C53  1  0.18791000  0.64784000  0.26411000  1.0
  C  C54  1  0.67463000  0.58428000  0.52673000  1.0
  C  C55  1  0.32537000  0.41572000  0.47327000  1.0
  C  C56  1  0.56591000  0.72868000  0.48472000  1.0
  C  C57  1  0.43409000  0.27132000  0.51528000  1.0
  C  C58  1  0.55421000  0.77614000  0.39734000  1.0
  C  C59  1  0.44579000  0.22386000  0.60266000  1.0
  C  C60  1  0.43459000  0.93633000  0.36767000  1.0
  C  C61  1  0.56541000  0.06367000  0.63233000  1.0
  C  C62  1  0.41830000  0.99201000  0.28513000  1.0
  C  C63  1  0.58170000  0.00799000  0.71487000  1.0
  C  C64  1  0.51769000  0.88771000  0.22940000  1.0
  C  C65  1  0.48231000  0.11229000  0.77061000  1.0
  C  C66  1  0.63518000  0.72623000  0.25761000  1.0
  C  C67  1  0.36482000  0.27377000  0.74239000  1.0
  C  C68  1  0.65483000  0.67217000  0.34050000  1.0
  C  C69  1  0.34517000  0.32783000  0.65950000  1.0
  C  C70  1  0.99310000  0.22271000  0.36817000  1.0
  C  C71  1  0.00692000  0.77729000  0.63182000  1.0
  C  C72  1  0.49774000  0.95132000  0.14117000  1.0
  C  C73  1  0.50226000  0.04869000  0.85883000  1.0
  C  C74  1  0.90689000  0.31841000  0.13993000  1.0
  C  C75  1  0.09311000  0.68159000  0.86007000  1.0
  C  C76  1  0.92492000  0.23291000  0.22485000  1.0
  C  C77  1  0.07508000  0.76708000  0.77515000  1.0
  C  C78  1  0.98433000  0.29924000  0.28882000  1.0
  C  C79  1  0.01569000  0.70076000  0.71118000  1.0
  C  C80  1  0.94350000  0.07653000  0.38597000  1.0
  C  C81  1  0.05651000  0.92347000  0.61402000  1.0
  C  C82  1  0.88151000  0.01258000  0.32131000  1.0
  C  C83  1  0.11849000  0.98742000  0.67868000  1.0
  C  C84  1  0.87433000  0.08841000  0.24195000  1.0
  C  C85  1  0.12567000  0.91159000  0.75805000  1.0
  C  C86  1  0.95663000  0.98667000  0.46707000  1.0
  C  C87  1  0.04338000  0.01332000  0.53293000  1.0
  O  O88  1  0.22271000  0.33805000  0.00022000  1.0
  O  O89  1  0.77729000  0.66195000  0.99978000  1.0
  O  O90  1  0.81667000  0.97368000  0.02361000  1.0
  O  O91  1  0.18332000  0.02632000  0.97639000  1.0
  O  O92  1  0.79985000  0.27206000  0.90641000  1.0
  O  O93  1  0.20015000  0.72794000  0.09359000  1.0
  O  O94  1  0.55321000  0.49906000  0.91734000  1.0
  O  O95  1  0.44679000  0.50094000  0.08266000  1.0
  O  O96  1  0.51399000  0.84911000  0.09054000  1.0
  O  O97  1  0.48601000  0.15090000  0.90946000  1.0
  O  O98  1  0.46801000  0.10598000  0.12098000  1.0
  O  O99  1  0.53198000  0.89402000  0.87903000  1.0
  O  O100  1  0.82774000  0.26325000  0.08711000  1.0
  O  O101  1  0.17226000  0.73675000  0.91289000  1.0
  O  O102  1  0.96970000  0.44075000  0.12369000  1.0
  O  O103  1  0.03030000  0.55925000  0.87631000  1.0
