# generated using pymatgen
data_AgH4AuC16N2(Cl2F3)2
_symmetry_space_group_name_H-M   'P 1'
_cell_length_a   7.38846000
_cell_length_b   13.59200000
_cell_length_c   21.46560000
_cell_angle_alpha   104.53600000
_cell_angle_beta   90.00000000
_cell_angle_gamma   105.77100000
_symmetry_Int_Tables_number   1
_chemical_formula_structural   AgH4AuC16N2(Cl2F3)2
_chemical_formula_sum   'Ag4 H16 Au4 C64 N8 Cl16 F24'
_cell_volume   2002.71557173
_cell_formula_units_Z   4
loop_
 _symmetry_equiv_pos_site_id
 _symmetry_equiv_pos_as_xyz
  1  'x, y, z'
loop_
 _atom_site_type_symbol
 _atom_site_label
 _atom_site_symmetry_multiplicity
 _atom_site_fract_x
 _atom_site_fract_y
 _atom_site_fract_z
 _atom_site_occupancy
  Ag  Ag0  1  0.03919000  0.93130000  0.79575000  1.0
  Ag  Ag1  1  0.10820000  0.06876000  0.70425000  1.0
  Ag  Ag2  1  0.96080000  0.06869000  0.20424000  1.0
  Ag  Ag3  1  0.89179000  0.93124000  0.29575000  1.0
  H  H4  1  0.99172000  0.98316000  0.94013000  1.0
  H  H5  1  0.00892000  0.01673000  0.55986000  1.0
  H  H6  1  0.00830000  0.01685000  0.05987000  1.0
  H  H7  1  0.99106000  0.98327000  0.44014000  1.0
  H  H8  1  0.88787000  0.72173000  0.01487000  1.0
  H  H9  1  0.16419000  0.27834000  0.48525000  1.0
  H  H10  1  0.11212000  0.27828000  0.98514000  1.0
  H  H11  1  0.83583000  0.72166000  0.51475000  1.0
  H  H12  1  0.93253000  0.60798000  0.90605000  1.0
  H  H13  1  0.32301000  0.39213000  0.59400000  1.0
  H  H14  1  0.06745000  0.39202000  0.09396000  1.0
  H  H15  1  0.67704000  0.60787000  0.40600000  1.0
  H  H16  1  0.00478000  0.69685000  0.81509000  1.0
  H  H17  1  0.30810000  0.30316000  0.68483000  1.0
  H  H18  1  0.99520000  0.30314000  0.18491000  1.0
  H  H19  1  0.69194000  0.69684000  0.31517000  1.0
  Au  Au20  1  0.76351000  0.99993000  0.74985000  1.0
  Au  Au21  1  0.23649000  0.00007000  0.25014000  1.0
  Au  Au22  1  0.37790000  0.00013000  0.75014000  1.0
  Au  Au23  1  0.62210000  0.99987000  0.24986000  1.0
  C  C24  1  0.68840000  0.83685000  0.73430000  1.0
  C  C25  1  0.85175000  0.16308000  0.76547000  1.0
  C  C26  1  0.31160000  0.16315000  0.26570000  1.0
  C  C27  1  0.14825000  0.83691000  0.23452000  1.0
  C  C28  1  0.59943000  0.78749000  0.78031000  1.0
  C  C29  1  0.81216000  0.21254000  0.71951000  1.0
  C  C30  1  0.40057000  0.21251000  0.21969000  1.0
  C  C31  1  0.18784000  0.78746000  0.28048000  1.0
  C  C32  1  0.52452000  0.67809000  0.76973000  1.0
  C  C33  1  0.84688000  0.32195000  0.73014000  1.0
  C  C34  1  0.47549000  0.32191000  0.23026000  1.0
  C  C35  1  0.15311000  0.67804000  0.26986000  1.0
  C  C36  1  0.54149000  0.61456000  0.70908000  1.0
  C  C37  1  0.92776000  0.38540000  0.79076000  1.0
  C  C38  1  0.45850000  0.38544000  0.29092000  1.0
  C  C39  1  0.07223000  0.61459000  0.20924000  1.0
  C  C40  1  0.63008000  0.65816000  0.66061000  1.0
  C  C41  1  0.97253000  0.34171000  0.83920000  1.0
  C  C42  1  0.36992000  0.34183000  0.33939000  1.0
  C  C43  1  0.02747000  0.65829000  0.16080000  1.0
  C  C44  1  0.70212000  0.76844000  0.67501000  1.0
  C  C45  1  0.93385000  0.23140000  0.82477000  1.0
  C  C46  1  0.29787000  0.23155000  0.32499000  1.0
  C  C47  1  0.06615000  0.76859000  0.17522000  1.0
  C  C48  1  0.30936000  0.87796000  0.66666667  1.0
  C  C49  1  0.43112000  0.12236000  0.83356000  1.0
  C  C50  1  0.69065000  0.12205000  0.33333333  1.0
  C  C51  1  0.56885000  0.87763000  0.16645000  1.0
  C  C52  1  0.22996000  0.77272000  0.66697000  1.0
  C  C53  1  0.45757000  0.22764000  0.83324000  1.0
  C  C54  1  0.77006000  0.22728000  0.33304000  1.0
  C  C55  1  0.54239000  0.77236000  0.16676000  1.0
  C  C56  1  0.20354000  0.68675000  0.61267000  1.0
  C  C57  1  0.51739000  0.31360000  0.88755000  1.0
  C  C58  1  0.79648000  0.31325000  0.38733000  1.0
  C  C59  1  0.48259000  0.68639000  0.11245000  1.0
  C  C60  1  0.25709000  0.70869000  0.55394000  1.0
  C  C61  1  0.54877000  0.29165000  0.94628000  1.0
  C  C62  1  0.74293000  0.29131000  0.44605000  1.0
  C  C63  1  0.45122000  0.70834000  0.05371000  1.0
  C  C64  1  0.33243000  0.81260000  0.54949000  1.0
  C  C65  1  0.51934000  0.18770000  0.95078000  1.0
  C  C66  1  0.66758000  0.18740000  0.45051000  1.0
  C  C67  1  0.48066000  0.81230000  0.04922000  1.0
  C  C68  1  0.35429000  0.89398000  0.60622000  1.0
  C  C69  1  0.45940000  0.10633000  0.89406000  1.0
  C  C70  1  0.64572000  0.10603000  0.39378000  1.0
  C  C71  1  0.54059000  0.89366000  0.10594000  1.0
  C  C72  1  0.97567000  0.89852000  0.93241000  1.0
  C  C73  1  0.07717000  0.10141000  0.56758000  1.0
  C  C74  1  0.02433000  0.10148000  0.06759000  1.0
  C  C75  1  0.92282000  0.89860000  0.43243000  1.0
  C  C76  1  0.91967000  0.75442000  0.97325000  1.0
  C  C77  1  0.16391000  0.24566000  0.52683000  1.0
  C  C78  1  0.08031000  0.24559000  0.02675000  1.0
  C  C79  1  0.83612000  0.75433000  0.47317000  1.0
  C  C80  1  0.94364000  0.69161000  0.91345000  1.0
  C  C81  1  0.25087000  0.30847000  0.58660000  1.0
  C  C82  1  0.05633000  0.30840000  0.08655000  1.0
  C  C83  1  0.74916000  0.69153000  0.41341000  1.0
  C  C84  1  0.98391000  0.74034000  0.86335000  1.0
  C  C85  1  0.24343000  0.25966000  0.63663000  1.0
  C  C86  1  0.01607000  0.25966000  0.13666000  1.0
  C  C87  1  0.75660000  0.74034000  0.36337000  1.0
  N  N88  1  0.99959000  0.84426000  0.87263000  1.0
  N  N89  1  0.15564000  0.15569000  0.62733000  1.0
  N  N90  1  0.00040000  0.15575000  0.12738000  1.0
  N  N91  1  0.84438000  0.84432000  0.37267000  1.0
  N  N92  1  0.93647000  0.85806000  0.98297000  1.0
  N  N93  1  0.07768000  0.14193000  0.51708000  1.0
  N  N94  1  0.06352000  0.14196000  0.01703000  1.0
  N  N95  1  0.92232000  0.85807000  0.48292000  1.0
  Cl  Cl96  1  0.41131000  0.62340000  0.82775000  1.0
  Cl  Cl97  1  0.78826000  0.37686000  0.67225000  1.0
  Cl  Cl98  1  0.58871000  0.37661000  0.17225000  1.0
  Cl  Cl99  1  0.21174000  0.62315000  0.32775000  1.0
  Cl  Cl100  1  0.64297000  0.57741000  0.58605000  1.0
  Cl  Cl101  1  0.06632000  0.42240000  0.91373000  1.0
  Cl  Cl102  1  0.35702000  0.42259000  0.41395000  1.0
  Cl  Cl103  1  0.93368000  0.57759000  0.08627000  1.0
  Cl  Cl104  1  0.11212000  0.55878000  0.61722000  1.0
  Cl  Cl105  1  0.55450000  0.44164000  0.88299000  1.0
  Cl  Cl106  1  0.88790000  0.44122000  0.38278000  1.0
  Cl  Cl107  1  0.44548000  0.55836000  0.11701000  1.0
  Cl  Cl108  1  0.39377000  0.83869000  0.47733000  1.0
  Cl  Cl109  1  0.55448000  0.16157000  0.02294000  1.0
  Cl  Cl110  1  0.60625000  0.16131000  0.52267000  1.0
  Cl  Cl111  1  0.44552000  0.83843000  0.97705000  1.0
  F  F112  1  0.58147000  0.84873000  0.83927000  1.0
  F  F113  1  0.73304000  0.15143000  0.66053000  1.0
  F  F114  1  0.41853000  0.15127000  0.16073000  1.0
  F  F115  1  0.26696000  0.84857000  0.33947000  1.0
  F  F116  1  0.46925000  0.50857000  0.69707000  1.0
  F  F117  1  0.96226000  0.49143000  0.80280000  1.0
  F  F118  1  0.53074000  0.49142000  0.30293000  1.0
  F  F119  1  0.03774000  0.50857000  0.19721000  1.0
  F  F120  1  0.78735000  0.81030000  0.62743000  1.0
  F  F121  1  0.97671000  0.18943000  0.87235000  1.0
  F  F122  1  0.21265000  0.18970000  0.37257000  1.0
  F  F123  1  0.02329000  0.81057000  0.12764000  1.0
  F  F124  1  0.17629000  0.74962000  0.72408000  1.0
  F  F125  1  0.42740000  0.25079000  0.77611000  1.0
  F  F126  1  0.82372000  0.25038000  0.27593000  1.0
  F  F127  1  0.57255000  0.74920000  0.22389000  1.0
  F  F128  1  0.23389000  0.62763000  0.50036000  1.0
  F  F129  1  0.60721000  0.37267000  0.99985000  1.0
  F  F130  1  0.76612000  0.37237000  0.49963000  1.0
  F  F131  1  0.39279000  0.62732000  0.00014000  1.0
  F  F132  1  0.42579000  0.99466000  0.60104000  1.0
  F  F133  1  0.42949000  0.00561000  0.89925000  1.0
  F  F134  1  0.57423000  0.00534000  0.39895000  1.0
  F  F135  1  0.57052000  0.99439000  0.10075000  1.0
