# generated using pymatgen
data_U2NiH34C20(N2O7)2
_symmetry_space_group_name_H-M   'P 1'
_cell_length_a   8.43065000
_cell_length_b   8.78558000
_cell_length_c   10.73060000
_cell_angle_alpha   83.85690000
_cell_angle_beta   70.59930000
_cell_angle_gamma   80.87320000
_symmetry_Int_Tables_number   1
_chemical_formula_structural   U2NiH34C20(N2O7)2
_chemical_formula_sum   'U2 Ni1 H34 C20 N4 O14'
_cell_volume   738.91477568
_cell_formula_units_Z   1
loop_
 _symmetry_equiv_pos_site_id
 _symmetry_equiv_pos_as_xyz
  1  'x, y, z'
loop_
 _atom_site_type_symbol
 _atom_site_label
 _atom_site_symmetry_multiplicity
 _atom_site_fract_x
 _atom_site_fract_y
 _atom_site_fract_z
 _atom_site_occupancy
  U  U0  1  0.53621000  0.12377000  0.96963000  1.0
  U  U1  1  0.91186000  0.96460000  0.10149000  1.0
  Ni  Ni2  1  0.72427000  0.54091000  0.52607000  1.0
  H  H3  1  0.75242000  0.39173000  0.35301000  1.0
  H  H4  1  0.51489000  0.43881000  0.71138000  1.0
  H  H5  1  0.68481000  0.69538000  0.69957000  1.0
  H  H6  1  0.92937000  0.65067000  0.34193000  1.0
  H  H7  1  0.05718000  0.44765000  0.84901000  1.0
  H  H8  1  0.90500000  0.41914000  0.00872000  1.0
  H  H9  1  0.12643000  0.09376000  0.78262000  1.0
  H  H10  1  0.09437000  0.25164000  0.66936000  1.0
  H  H11  1  0.96068000  0.10171000  0.71359000  1.0
  H  H12  1  0.37809000  0.68421000  0.26886000  1.0
  H  H13  1  0.41718000  0.87200000  0.28788000  1.0
  H  H14  1  0.74364000  0.65137000  0.93768000  1.0
  H  H15  1  0.53323000  0.72885000  0.94477000  1.0
  H  H16  1  0.57006000  0.55431000  0.03928000  1.0
  H  H17  1  0.68176000  0.19107000  0.60119000  1.0
  H  H18  1  0.64994000  0.15381000  0.45084000  1.0
  H  H19  1  0.44198000  0.38955000  0.46929000  1.0
  H  H20  1  0.38060000  0.28104000  0.62535000  1.0
  H  H21  1  0.23698000  0.53923000  0.69538000  1.0
  H  H22  1  0.34021000  0.63612000  0.54261000  1.0
  H  H23  1  0.23540000  0.80368000  0.74105000  1.0
  H  H24  1  0.37564000  0.68773000  0.81075000  1.0
  H  H25  1  0.49106000  0.92790000  0.68912000  1.0
  H  H26  1  0.48234000  0.86582000  0.53866000  1.0
  H  H27  1  0.79960000  0.92524000  0.60774000  1.0
  H  H28  1  0.77322000  0.89430000  0.45411000  1.0
  H  H29  1  0.07025000  0.79607000  0.43602000  1.0
  H  H30  1  0.00122000  0.68129000  0.58889000  1.0
  H  H31  1  0.11303000  0.44291000  0.49759000  1.0
  H  H32  1  0.20815000  0.54650000  0.34578000  1.0
  H  H33  1  0.05684000  0.40791000  0.23361000  1.0
  H  H34  1  0.20722000  0.28739000  0.29145000  1.0
  H  H35  1  0.95202000  0.16149000  0.34985000  1.0
  H  H36  1  0.97287000  0.21557000  0.49857000  1.0
  C  C37  1  0.78561000  0.38025000  0.80885000  1.0
  C  C38  1  0.90672000  0.26368000  0.86518000  1.0
  C  C39  1  0.99981000  0.36078000  0.92443000  1.0
  C  C40  1  0.13082000  0.25997000  0.97416000  1.0
  C  C41  1  0.03104000  0.17203000  0.74989000  1.0
  C  C42  1  0.70765000  0.66138000  0.19657000  1.0
  C  C43  1  0.59955000  0.76162000  0.11845000  1.0
  C  C44  1  0.41701000  0.79242000  0.21502000  1.0
  C  C45  1  0.28939000  0.86674000  0.14813000  1.0
  C  C46  1  0.61152000  0.66761000  0.00261000  1.0
  C  C47  1  0.64895000  0.24470000  0.51408000  1.0
  C  C48  1  0.48016000  0.34438000  0.55615000  1.0
  C  C49  1  0.35011000  0.59566000  0.64087000  1.0
  C  C50  1  0.35832000  0.72990000  0.71502000  1.0
  C  C51  1  0.49673000  0.82589000  0.63571000  1.0
  C  C52  1  0.80148000  0.83686000  0.54188000  1.0
  C  C53  1  0.96800000  0.73322000  0.50166000  1.0
  C  C54  1  0.09704000  0.48851000  0.40229000  1.0
  C  C55  1  0.08371000  0.35970000  0.32463000  1.0
  C  C56  1  0.94966000  0.26040000  0.40550000  1.0
  N  N57  1  0.77708000  0.34735000  0.43993000  1.0
  N  N58  1  0.50166000  0.47820000  0.61999000  1.0
  N  N59  1  0.66782000  0.73704000  0.61060000  1.0
  N  N60  1  0.94500000  0.60579000  0.43150000  1.0
  O  O61  1  0.44860000  0.20936000  0.12897000  1.0
  O  O62  1  0.61759000  0.03716000  0.80901000  1.0
  O  O63  1  0.78170000  0.04144000  0.26035000  1.0
  O  O64  1  0.04670000  0.87736000  0.94956000  1.0
  O  O65  1  0.62977000  0.35282000  0.84513000  1.0
  O  O66  1  0.84242000  0.49034000  0.73239000  1.0
  O  O67  1  0.07203000  0.16759000  0.07376000  1.0
  O  O68  1  0.28790000  0.26782000  0.91697000  1.0
  O  O69  1  0.80975000  0.16409000  0.96425000  1.0
  O  O70  1  0.84016000  0.71754000  0.19796000  1.0
  O  O71  1  0.66427000  0.53478000  0.25011000  1.0
  O  O72  1  0.34604000  0.94361000  0.03841000  1.0
  O  O73  1  0.13372000  0.85082000  0.20176000  1.0
  O  O74  1  0.66568000  0.90368000  0.07229000  1.0
