# generated using pymatgen
data_CuH11C11(NO2)2
_symmetry_space_group_name_H-M   'P 1'
_cell_length_a   7.27273000
_cell_length_b   8.16500000
_cell_length_c   10.69420000
_cell_angle_alpha   96.93380000
_cell_angle_beta   105.37600000
_cell_angle_gamma   90.38360000
_symmetry_Int_Tables_number   1
_chemical_formula_structural   CuH11C11(NO2)2
_chemical_formula_sum   'Cu2 H22 C22 N4 O8'
_cell_volume   607.33554060
_cell_formula_units_Z   2
loop_
 _symmetry_equiv_pos_site_id
 _symmetry_equiv_pos_as_xyz
  1  'x, y, z'
loop_
 _atom_site_type_symbol
 _atom_site_label
 _atom_site_symmetry_multiplicity
 _atom_site_fract_x
 _atom_site_fract_y
 _atom_site_fract_z
 _atom_site_occupancy
  Cu  Cu0  1  0.63262000  0.44146000  0.59204000  1.0
  Cu  Cu1  1  0.36739000  0.55854000  0.40797000  1.0
  H  H2  1  0.04956000  0.24984000  0.02014000  1.0
  H  H3  1  0.95044000  0.75018000  0.97985000  1.0
  H  H4  1  0.30964000  0.20521000  0.69858000  1.0
  H  H5  1  0.69039000  0.79485000  0.30142000  1.0
  H  H6  1  0.01667000  0.33796000  0.57646000  1.0
  H  H7  1  0.98332000  0.66204000  0.42353000  1.0
  H  H8  1  0.56746000  0.18057000  0.84473000  1.0
  H  H9  1  0.43255000  0.81944000  0.15528000  1.0
  H  H10  1  0.18986000  0.00516000  0.05573000  1.0
  H  H11  1  0.81013000  0.99486000  0.94427000  1.0
  H  H12  1  0.22347000  0.99290000  0.50980000  1.0
  H  H13  1  0.77655000  0.00709000  0.49019000  1.0
  H  H14  1  0.05836000  0.06583000  0.37194000  1.0
  H  H15  1  0.94166000  0.93419000  0.62807000  1.0
  H  H16  1  0.27668000  0.97458000  0.35828000  1.0
  H  H17  1  0.72333000  0.02542000  0.64171000  1.0
  H  H18  1  0.71589000  0.38099000  0.13193000  1.0
  H  H19  1  0.28409000  0.61899000  0.86808000  1.0
  H  H20  1  0.91316000  0.32493000  0.26076000  1.0
  H  H21  1  0.08681000  0.67508000  0.73928000  1.0
  H  H22  1  0.70865000  0.18961000  0.19417000  1.0
  H  H23  1  0.29136000  0.81036000  0.80584000  1.0
  C  C24  1  0.05027000  0.25871000  0.91920000  1.0
  C  C25  1  0.94973000  0.74130000  0.08078000  1.0
  C  C26  1  0.20430000  0.20290000  0.87051000  1.0
  C  C27  1  0.79571000  0.79711000  0.12948000  1.0
  C  C28  1  0.19595000  0.23754000  0.74474000  1.0
  C  C29  1  0.80405000  0.76248000  0.25524000  1.0
  C  C30  1  0.03486000  0.31126000  0.67637000  1.0
  C  C31  1  0.96513000  0.68875000  0.32362000  1.0
  C  C32  1  0.35827000  0.10582000  0.94127000  1.0
  C  C33  1  0.64173000  0.89420000  0.05872000  1.0
  C  C34  1  0.53463000  0.09892000  0.91012000  1.0
  C  C35  1  0.46537000  0.90109000  0.08988000  1.0
  C  C36  1  0.32712000  0.00594000  0.03267000  1.0
  C  C37  1  0.67288000  0.99407000  0.96732000  1.0
  C  C38  1  0.31429000  0.22049000  0.45443000  1.0
  C  C39  1  0.68575000  0.77949000  0.54558000  1.0
  C  C40  1  0.20878000  0.05393000  0.42212000  1.0
  C  C41  1  0.79124000  0.94607000  0.57788000  1.0
  C  C42  1  0.66112000  0.39353000  0.32171000  1.0
  C  C43  1  0.33885000  0.60643000  0.67829000  1.0
  C  C44  1  0.75772000  0.31983000  0.22020000  1.0
  C  C45  1  0.24226000  0.68015000  0.77981000  1.0
  N  N46  1  0.88645000  0.34839000  0.72548000  1.0
  N  N47  1  0.11353000  0.65161000  0.27451000  1.0
  N  N48  1  0.89616000  0.32612000  0.84893000  1.0
  N  N49  1  0.10383000  0.67388000  0.15105000  1.0
  O  O50  1  0.46704000  0.23368000  0.54784000  1.0
  O  O51  1  0.53303000  0.76627000  0.45214000  1.0
  O  O52  1  0.24287000  0.33205000  0.38479000  1.0
  O  O53  1  0.75713000  0.66796000  0.61526000  1.0
  O  O54  1  0.73646000  0.36572000  0.43888000  1.0
  O  O55  1  0.26353000  0.63429000  0.56112000  1.0
  O  O56  1  0.51191000  0.47326000  0.28132000  1.0
  O  O57  1  0.48802000  0.52666000  0.71868000  1.0
