# generated using pymatgen
data_KH11C10NO4
_symmetry_space_group_name_H-M   'P 1'
_cell_length_a   8.05363000
_cell_length_b   8.63898000
_cell_length_c   16.21800000
_cell_angle_alpha   83.44020000
_cell_angle_beta   89.98990000
_cell_angle_gamma   89.98480000
_symmetry_Int_Tables_number   1
_chemical_formula_structural   KH11C10NO4
_chemical_formula_sum   'K4 H44 C40 N4 O16'
_cell_volume   1120.98245453
_cell_formula_units_Z   4
loop_
 _symmetry_equiv_pos_site_id
 _symmetry_equiv_pos_as_xyz
  1  'x, y, z'
loop_
 _atom_site_type_symbol
 _atom_site_label
 _atom_site_symmetry_multiplicity
 _atom_site_fract_x
 _atom_site_fract_y
 _atom_site_fract_z
 _atom_site_occupancy
  K  K0  1  0.70179000  0.42816000  0.89950000  1.0
  K  K1  1  0.20177000  0.07138000  0.10025000  1.0
  K  K2  1  0.29821000  0.57140000  0.10036000  1.0
  K  K3  1  0.79828000  0.92815000  0.89968000  1.0
  H  H4  1  0.58262000  0.72506000  0.97990000  1.0
  H  H5  1  0.08259000  0.77436000  0.02012000  1.0
  H  H6  1  0.41744000  0.27445000  0.02015000  1.0
  H  H7  1  0.91741000  0.22515000  0.97991000  1.0
  H  H8  1  0.41705000  0.70441000  0.92898000  1.0
  H  H9  1  0.91704000  0.79511000  0.07106000  1.0
  H  H10  1  0.58298000  0.29516000  0.07107000  1.0
  H  H11  1  0.08302000  0.20450000  0.92898000  1.0
  H  H12  1  0.69494000  0.80743000  0.69278000  1.0
  H  H13  1  0.19514000  0.69319000  0.30707000  1.0
  H  H14  1  0.30491000  0.19297000  0.30719000  1.0
  H  H15  1  0.80478000  0.30691000  0.69294000  1.0
  H  H16  1  0.55044000  0.95197000  0.57261000  1.0
  H  H17  1  0.05128000  0.54838000  0.42732000  1.0
  H  H18  1  0.44910000  0.04829000  0.42739000  1.0
  H  H19  1  0.94855000  0.45179000  0.57270000  1.0
  H  H20  1  0.35706000  0.81176000  0.48415000  1.0
  H  H21  1  0.85767000  0.68812000  0.51595000  1.0
  H  H22  1  0.64257000  0.18824000  0.51593000  1.0
  H  H23  1  0.14226000  0.31221000  0.48405000  1.0
  H  H24  1  0.29875000  0.53192000  0.52281000  1.0
  H  H25  1  0.79874000  0.96792000  0.47745000  1.0
  H  H26  1  0.70115000  0.46805000  0.47734000  1.0
  H  H27  1  0.20139000  0.03247000  0.52255000  1.0
  H  H28  1  0.34620000  0.29033000  0.60427000  1.0
  H  H29  1  0.84517000  0.20961000  0.39574000  1.0
  H  H30  1  0.65420000  0.70969000  0.39575000  1.0
  H  H31  1  0.15504000  0.79070000  0.60428000  1.0
  H  H32  1  0.55262000  0.04804000  0.75000000  1.0
  H  H33  1  0.05255000  0.45199000  0.24994000  1.0
  H  H34  1  0.44743000  0.95207000  0.24994000  1.0
  H  H35  1  0.94741000  0.54824000  0.74995000  1.0
  H  H36  1  0.37195000  0.05442000  0.68619000  1.0
  H  H37  1  0.87183000  0.44598000  0.31373000  1.0
  H  H38  1  0.62812000  0.94577000  0.31374000  1.0
  H  H39  1  0.12810000  0.55427000  0.68615000  1.0
  H  H40  1  0.31389000  0.94655000  0.83493000  1.0
  H  H41  1  0.81371000  0.55332000  0.16496000  1.0
  H  H42  1  0.68623000  0.05325000  0.16495000  1.0
  H  H43  1  0.18628000  0.44659000  0.83484000  1.0
  H  H44  1  0.19701000  0.11805000  0.80472000  1.0
  H  H45  1  0.69693000  0.38186000  0.19532000  1.0
  H  H46  1  0.80305000  0.88176000  0.19531000  1.0
  H  H47  1  0.30307000  0.61811000  0.80461000  1.0
  C  C48  1  0.58387000  0.58332000  0.67671000  1.0
  C  C49  1  0.08364000  0.91711000  0.32328000  1.0
  C  C50  1  0.41615000  0.41698000  0.32333000  1.0
  C  C51  1  0.91639000  0.08306000  0.67672000  1.0
  C  C52  1  0.60700000  0.74892000  0.65550000  1.0
  C  C53  1  0.10721000  0.75156000  0.34443000  1.0
  C  C54  1  0.39281000  0.25140000  0.34451000  1.0
  C  C55  1  0.89273000  0.24860000  0.65559000  1.0
  C  C56  1  0.52803000  0.82738000  0.58771000  1.0
  C  C57  1  0.02855000  0.67296000  0.41227000  1.0
  C  C58  1  0.47165000  0.17286000  0.41232000  1.0
  C  C59  1  0.97134000  0.32725000  0.58773000  1.0
  C  C60  1  0.41795000  0.75012000  0.53830000  1.0
  C  C61  1  0.91839000  0.74995000  0.46181000  1.0
  C  C62  1  0.58174000  0.24998000  0.46179000  1.0
  C  C63  1  0.08152000  0.25032000  0.53819000  1.0
  C  C64  1  0.38681000  0.59150000  0.55939000  1.0
  C  C65  1  0.88683000  0.90848000  0.44080000  1.0
  C  C66  1  0.61307000  0.40855000  0.44073000  1.0
  C  C67  1  0.11322000  0.09182000  0.55921000  1.0
  C  C68  1  0.46371000  0.50730000  0.62731000  1.0
  C  C69  1  0.96348000  0.99285000  0.37284000  1.0
  C  C70  1  0.53628000  0.49284000  0.37281000  1.0
  C  C71  1  0.03663000  0.00740000  0.62718000  1.0
  C  C72  1  0.42112000  0.34578000  0.65069000  1.0
  C  C73  1  0.92062000  0.15429000  0.34944000  1.0
  C  C74  1  0.57901000  0.65429000  0.34941000  1.0
  C  C75  1  0.07953000  0.84601000  0.65058000  1.0
  C  C76  1  0.43037000  0.10382000  0.73906000  1.0
  C  C77  1  0.93026000  0.39629000  0.26092000  1.0
  C  C78  1  0.56966000  0.89623000  0.26092000  1.0
  C  C79  1  0.06972000  0.60386000  0.73899000  1.0
  C  C80  1  0.32336000  0.07303000  0.81683000  1.0
  C  C81  1  0.82324000  0.42686000  0.18316000  1.0
  C  C82  1  0.67673000  0.92680000  0.18314000  1.0
  C  C83  1  0.17675000  0.57308000  0.81674000  1.0
  C  C84  1  0.39753000  0.14514000  0.89073000  1.0
  C  C85  1  0.89743000  0.35460000  0.10928000  1.0
  C  C86  1  0.60259000  0.85455000  0.10928000  1.0
  C  C87  1  0.10255000  0.64515000  0.89068000  1.0
  N  N88  1  0.46098000  0.26853000  0.71954000  1.0
  N  N89  1  0.96078000  0.23164000  0.28066000  1.0
  N  N90  1  0.53902000  0.73160000  0.28056000  1.0
  N  N91  1  0.03931000  0.76855000  0.71931000  1.0
  O  O92  1  0.66654000  0.50771000  0.73450000  1.0
  O  O93  1  0.16583000  0.99299000  0.26537000  1.0
  O  O94  1  0.33378000  0.49273000  0.26545000  1.0
  O  O95  1  0.83427000  0.00709000  0.73463000  1.0
  O  O96  1  0.55304000  0.14101000  0.89968000  1.0
  O  O97  1  0.05297000  0.35844000  0.10039000  1.0
  O  O98  1  0.44705000  0.85845000  0.10039000  1.0
  O  O99  1  0.94702000  0.64112000  0.89959000  1.0
  O  O100  1  0.29784000  0.20630000  0.93930000  1.0
  O  O101  1  0.79774000  0.29365000  0.06066000  1.0
  O  O102  1  0.70230000  0.79351000  0.06068000  1.0
  O  O103  1  0.20224000  0.70612000  0.93929000  1.0
  O  O104  1  0.53974000  0.69269000  0.92693000  1.0
  O  O105  1  0.03975000  0.80667000  0.07312000  1.0
  O  O106  1  0.46026000  0.30667000  0.07317000  1.0
  O  O107  1  0.96035000  0.19271000  0.92695000  1.0
