# generated using pymatgen
data_Hf3H43C62N3O16
_symmetry_space_group_name_H-M   'P 1'
_cell_length_a   14.93170000
_cell_length_b   23.45330000
_cell_length_c   40.60770000
_cell_angle_alpha   93.86380000
_cell_angle_beta   97.67620000
_cell_angle_gamma   90.04370000
_symmetry_Int_Tables_number   1
_chemical_formula_structural   Hf3H43C62N3O16
_chemical_formula_sum   'Hf6 H86 C124 N6 O32'
_cell_volume   14060.56672665
_cell_formula_units_Z   2
loop_
 _symmetry_equiv_pos_site_id
 _symmetry_equiv_pos_as_xyz
  1  'x, y, z'
loop_
 _atom_site_type_symbol
 _atom_site_label
 _atom_site_symmetry_multiplicity
 _atom_site_fract_x
 _atom_site_fract_y
 _atom_site_fract_z
 _atom_site_occupancy
  Hf  Hf0  1  0.04806000  0.91868000  0.04115000  1.0
  Hf  Hf1  1  0.01318000  0.08208000  0.96658000  1.0
  Hf  Hf2  1  0.93155000  0.04859000  0.04127000  1.0
  Hf  Hf3  1  0.12923000  0.95220000  0.96780000  1.0
  Hf  Hf4  1  0.89346000  0.95297000  0.96968000  1.0
  Hf  Hf5  1  0.16531000  0.05022000  0.03692000  1.0
  H  H6  1  0.01238000  0.85963000  0.97170000  1.0
  H  H7  1  0.83132000  0.06468000  0.97739000  1.0
  H  H8  1  0.20173000  0.06029000  0.96995000  1.0
  H  H9  1  0.08289000  0.01347000  0.08885000  1.0
  H  H10  1  0.73595000  0.93178000  0.99324000  1.0
  H  H11  1  0.98248000  0.09520000  0.10600000  1.0
  H  H12  1  0.18091000  0.14566000  0.07584000  1.0
  H  H13  1  0.84488000  0.85854000  0.93124000  1.0
  H  H14  1  0.13681000  0.90797000  0.90581000  1.0
  H  H15  1  0.30538000  0.92823000  0.97912000  1.0
  H  H16  1  0.33905000  0.06468000  0.01858000  1.0
  H  H17  1  0.82029000  0.97211000  0.90829000  1.0
  H  H18  1  0.85764000  0.03762000  0.92197000  1.0
  H  H19  1  0.13352000  0.90847000  0.10301000  1.0
  H  H20  1  0.30319000  0.99152000  0.06889000  1.0
  H  H21  1  0.16386000  0.85618000  0.92911000  1.0
  H  H22  1  0.87635000  0.12604000  0.92856000  1.0
  H  H23  1  0.75514000  0.07377000  0.03356000  1.0
  H  H24  1  0.76431000  0.99734000  0.00831000  1.0
  H  H25  1  0.29705000  0.99907000  0.00033000  1.0
  H  H26  1  0.06240000  0.11238000  0.08408000  1.0
  H  H27  1  0.21398000  0.96184000  0.08045000  1.0
  H  H28  1  0.36701000  0.49712000  0.00051000  1.0
  H  H29  1  0.70054000  0.50262000  0.00799000  1.0
  H  H30  1  0.63665000  0.00824000  0.49789000  1.0
  H  H31  1  0.31514000  0.99434000  0.50972000  1.0
  H  H32  1  0.66228000  0.09916000  0.51557000  1.0
  H  H33  1  0.80005000  0.13643000  0.55075000  1.0
  H  H34  1  0.57235000  0.02533000  0.60005000  1.0
  H  H35  1  0.66198000  0.04091000  0.65558000  1.0
  H  H36  1  0.80891000  0.06860000  0.68953000  1.0
  H  H37  1  0.90423000  0.13437000  0.60413000  1.0
  H  H38  1  0.12116000  0.17303000  0.61616000  1.0
  H  H39  1  0.22654000  0.16650000  0.57360000  1.0
  H  H40  1  0.25410000  0.03327000  0.66530000  1.0
  H  H41  1  0.37345000  0.97929000  0.63844000  1.0
  H  H42  1  0.45638000  0.96150000  0.59003000  1.0
  H  H43  1  0.33949000  0.11099000  0.54629000  1.0
  H  H44  1  0.97185000  0.00897000  0.39137000  1.0
  H  H45  1  0.09878000  0.04031000  0.43494000  1.0
  H  H46  1  0.13981000  0.88145000  0.34991000  1.0
  H  H47  1  0.29499000  0.86365000  0.38114000  1.0
  H  H48  1  0.41459000  0.88954000  0.42740000  1.0
  H  H49  1  0.25295000  0.02808000  0.46141000  1.0
  H  H50  1  0.65065000  0.98667000  0.31246000  1.0
  H  H51  1  0.53283000  0.00821000  0.34911000  1.0
  H  H52  1  0.79268000  0.88520000  0.38663000  1.0
  H  H53  1  0.72993000  0.86830000  0.43744000  1.0
  H  H54  1  0.62812000  0.90161000  0.47833000  1.0
  H  H55  1  0.48536000  0.00828000  0.40685000  1.0
  H  H56  1  0.15718000  0.75417000  0.04709000  1.0
  H  H57  1  0.23388000  0.66033000  0.05319000  1.0
  H  H58  1  0.30693000  0.78913000  0.96732000  1.0
  H  H59  1  0.41915000  0.71872000  0.94966000  1.0
  H  H60  1  0.50225000  0.62858000  0.95804000  1.0
  H  H61  1  0.34865000  0.59160000  0.03672000  1.0
  H  H62  1  0.90467000  0.24148000  0.06284000  1.0
  H  H63  1  0.82882000  0.33537000  0.06994000  1.0
  H  H64  1  0.77408000  0.21839000  0.96174000  1.0
  H  H65  1  0.65248000  0.28516000  0.94140000  1.0
  H  H66  1  0.56327000  0.37242000  0.95096000  1.0
  H  H67  1  0.71780000  0.40667000  0.04762000  1.0
  H  H68  1  0.53400000  0.36831000  0.04773000  1.0
  H  H69  1  0.45563000  0.27784000  0.05431000  1.0
  H  H70  1  0.33446000  0.40435000  0.96511000  1.0
  H  H71  1  0.20754000  0.33591000  0.94695000  1.0
  H  H72  1  0.12969000  0.24406000  0.95343000  1.0
  H  H73  1  0.32961000  0.20857000  0.03558000  1.0
  H  H74  1  0.56045000  0.63776000  0.05328000  1.0
  H  H75  1  0.64560000  0.72897000  0.06475000  1.0
  H  H76  1  0.71241000  0.59007000  0.97289000  1.0
  H  H77  1  0.82640000  0.65698000  0.95802000  1.0
  H  H78  1  0.90381000  0.75129000  0.96673000  1.0
  H  H79  1  0.76091000  0.79631000  0.05014000  1.0
  H  H80  1  0.22923000  0.97616000  0.86594000  1.0
  H  H81  1  0.23408000  0.98665000  0.80565000  1.0
  H  H82  1  0.02971000  0.10773000  0.86808000  1.0
  H  H83  1  0.96940000  0.15206000  0.81617000  1.0
  H  H84  1  0.96052000  0.15492000  0.75457000  1.0
  H  H85  1  0.17447000  0.03242000  0.75292000  1.0
  H  H86  1  0.02722000  0.86229000  0.26107000  1.0
  H  H87  1  0.04955000  0.85789000  0.20125000  1.0
  H  H88  1  0.78931000  0.96379000  0.24038000  1.0
  H  H89  1  0.74820000  0.99845000  0.18349000  1.0
  H  H90  1  0.78705000  0.00793000  0.12618000  1.0
  H  H91  1  0.00813000  0.89210000  0.14460000  1.0
  C  C92  1  0.88151000  0.83702000  0.01157000  1.0
  C  C93  1  0.18014000  0.83279000  0.00415000  1.0
  C  C94  1  0.92771000  0.96017000  0.09906000  1.0
  C  C95  1  0.89127000  0.16919000  0.00801000  1.0
  C  C96  1  0.17827000  0.16617000  0.99813000  1.0
  C  C97  1  0.12159000  0.03531000  0.90614000  1.0
  C  C98  1  0.48431000  0.55130000  0.00273000  1.0
  C  C99  1  0.57993000  0.55305000  0.00652000  1.0
  C  C100  1  0.62695000  0.50145000  0.00623000  1.0
  C  C101  1  0.58290000  0.44843000  0.00381000  1.0
  C  C102  1  0.48796000  0.44677000  0.00328000  1.0
  C  C103  1  0.44057000  0.49831000  0.00205000  1.0
  C  C104  1  0.89859000  0.91924000  0.28993000  1.0
  C  C105  1  0.81509000  0.93241000  0.33240000  1.0
  C  C106  1  0.96909000  0.92999000  0.34300000  1.0
  C  C107  1  0.05531000  0.09583000  0.71377000  1.0
  C  C108  1  0.10903000  0.10355000  0.66476000  1.0
  C  C109  1  0.95770000  0.10804000  0.66679000  1.0
  C  C110  1  0.50650000  0.98164000  0.47347000  1.0
  C  C111  1  0.41311000  0.98020000  0.47578000  1.0
  C  C112  1  0.38623000  0.99875000  0.50664000  1.0
  C  C113  1  0.44546000  0.02103000  0.53418000  1.0
  C  C114  1  0.53775000  0.02780000  0.53064000  1.0
  C  C115  1  0.56503000  0.00602000  0.50054000  1.0
  C  C116  1  0.60896000  0.05685000  0.55498000  1.0
  C  C117  1  0.67386000  0.09067000  0.54185000  1.0
  C  C118  1  0.75024000  0.11190000  0.56143000  1.0
  C  C119  1  0.76689000  0.10107000  0.59566000  1.0
  C  C120  1  0.69868000  0.07164000  0.60992000  1.0
  C  C121  1  0.62083000  0.05007000  0.58898000  1.0
  C  C122  1  0.71456000  0.06206000  0.64443000  1.0
  C  C123  1  0.79559000  0.07728000  0.66331000  1.0
  C  C124  1  0.86580000  0.10231000  0.64842000  1.0
  C  C125  1  0.84999000  0.11530000  0.61534000  1.0
  C  C126  1  0.18160000  0.10316000  0.64321000  1.0
  C  C127  1  0.17442000  0.14124000  0.61718000  1.0
  C  C128  1  0.23215000  0.13714000  0.59350000  1.0
  C  C129  1  0.29681000  0.09278000  0.59342000  1.0
  C  C130  1  0.30572000  0.05495000  0.62001000  1.0
  C  C131  1  0.24877000  0.06236000  0.64526000  1.0
  C  C132  1  0.36669000  0.00865000  0.61851000  1.0
  C  C133  1  0.41359000  0.99901000  0.59165000  1.0
  C  C134  1  0.40445000  0.03605000  0.56508000  1.0
  C  C135  1  0.34793000  0.08259000  0.56669000  1.0
  C  C136  1  0.04916000  0.94372000  0.36790000  1.0
  C  C137  1  0.03741000  0.98837000  0.39247000  1.0
  C  C138  1  0.10725000  0.00517000  0.41662000  1.0
  C  C139  1  0.19094000  0.97619000  0.41870000  1.0
  C  C140  1  0.20265000  0.92994000  0.39469000  1.0
  C  C141  1  0.13105000  0.91574000  0.36873000  1.0
  C  C142  1  0.28553000  0.89975000  0.39872000  1.0
  C  C143  1  0.35289000  0.91447000  0.42459000  1.0
  C  C144  1  0.34279000  0.96154000  0.44789000  1.0
  C  C145  1  0.26221000  0.99136000  0.44424000  1.0
  C  C146  1  0.73085000  0.93556000  0.34793000  1.0
  C  C147  1  0.65449000  0.96848000  0.33663000  1.0
  C  C148  1  0.58897000  0.98033000  0.35710000  1.0
  C  C149  1  0.59519000  0.95913000  0.38938000  1.0
  C  C150  1  0.66735000  0.92069000  0.39894000  1.0
  C  C151  1  0.73403000  0.91043000  0.37796000  1.0
  C  C152  1  0.67594000  0.89844000  0.43079000  1.0
  C  C153  1  0.61998000  0.91702000  0.45337000  1.0
  C  C154  1  0.55173000  0.95809000  0.44518000  1.0
  C  C155  1  0.53795000  0.97708000  0.41330000  1.0
  C  C156  1  0.22740000  0.77687000  0.00658000  1.0
  C  C157  1  0.20695000  0.74008000  0.03106000  1.0
  C  C158  1  0.24967000  0.68844000  0.03434000  1.0
  C  C159  1  0.31583000  0.67097000  0.01373000  1.0
  C  C160  1  0.33670000  0.70809000  0.98900000  1.0
  C  C161  1  0.29086000  0.76062000  0.98591000  1.0
  C  C162  1  0.40392000  0.69103000  0.96880000  1.0
  C  C163  1  0.45010000  0.64092000  0.97343000  1.0
  C  C164  1  0.43112000  0.60420000  0.99826000  1.0
  C  C165  1  0.36360000  0.61912000  0.01745000  1.0
  C  C166  1  0.84500000  0.22536000  0.01147000  1.0
  C  C167  1  0.85902000  0.25794000  0.04250000  1.0
  C  C168  1  0.81608000  0.30939000  0.04643000  1.0
  C  C169  1  0.75254000  0.32886000  0.02045000  1.0
  C  C170  1  0.73494000  0.29437000  0.98966000  1.0
  C  C171  1  0.78516000  0.24382000  0.98548000  1.0
  C  C172  1  0.66634000  0.31154000  0.96474000  1.0
  C  C173  1  0.61698000  0.36003000  0.96998000  1.0
  C  C174  1  0.63586000  0.39546000  0.99996000  1.0
  C  C175  1  0.70364000  0.38008000  0.02435000  1.0
  C  C176  1  0.43954000  0.39234000  0.00562000  1.0
  C  C177  1  0.47315000  0.35561000  0.03094000  1.0
  C  C178  1  0.42948000  0.30533000  0.03464000  1.0
  C  C179  1  0.34955000  0.28833000  0.01321000  1.0
  C  C180  1  0.31446000  0.32509000  0.98773000  1.0
  C  C181  1  0.36089000  0.37682000  0.98473000  1.0
  C  C182  1  0.23436000  0.30803000  0.96632000  1.0
  C  C183  1  0.19102000  0.25741000  0.96977000  1.0
  C  C184  1  0.22568000  0.22108000  0.99499000  1.0
  C  C185  1  0.30354000  0.23667000  0.01625000  1.0
  C  C186  1  0.63106000  0.60774000  0.01214000  1.0
  C  C187  1  0.61261000  0.64799000  0.03816000  1.0
  C  C188  1  0.65998000  0.69873000  0.04454000  1.0
  C  C189  1  0.72747000  0.71297000  0.02488000  1.0
  C  C190  1  0.74646000  0.67276000  0.99851000  1.0
  C  C191  1  0.69800000  0.62029000  0.99313000  1.0
  C  C192  1  0.81184000  0.68749000  0.97808000  1.0
  C  C193  1  0.85509000  0.73980000  0.98303000  1.0
  C  C194  1  0.83677000  0.77937000  0.00925000  1.0
  C  C195  1  0.77508000  0.76582000  0.03000000  1.0
  C  C196  1  0.12889000  0.04199000  0.87035000  1.0
  C  C197  1  0.18657000  0.00715000  0.85261000  1.0
  C  C198  1  0.18913000  0.01310000  0.81921000  1.0
  C  C199  1  0.13233000  0.05280000  0.80164000  1.0
  C  C200  1  0.07330000  0.08749000  0.81964000  1.0
  C  C201  1  0.07432000  0.08186000  0.85407000  1.0
  C  C202  1  0.01324000  0.12548000  0.80220000  1.0
  C  C203  1  0.00878000  0.12753000  0.76834000  1.0
  C  C204  1  0.06745000  0.09363000  0.75038000  1.0
  C  C205  1  0.12965000  0.05811000  0.76694000  1.0
  C  C206  1  0.90644000  0.91344000  0.25400000  1.0
  C  C207  1  0.98057000  0.88328000  0.24287000  1.0
  C  C208  1  0.99312000  0.88143000  0.20991000  1.0
  C  C209  1  0.93529000  0.91196000  0.18671000  1.0
  C  C210  1  0.86029000  0.94251000  0.19785000  1.0
  C  C211  1  0.84606000  0.94095000  0.23154000  1.0
  C  C212  1  0.80561000  0.97566000  0.17506000  1.0
  C  C213  1  0.82635000  0.98075000  0.14335000  1.0
  C  C214  1  0.90049000  0.95052000  0.13235000  1.0
  C  C215  1  0.95192000  0.91553000  0.15344000  1.0
  N  N216  1  0.81595000  0.92874000  0.29931000  1.0
  N  N217  1  0.88993000  0.93526000  0.35496000  1.0
  N  N218  1  0.97691000  0.91713000  0.31077000  1.0
  N  N219  1  0.12716000  0.09100000  0.69692000  1.0
  N  N220  1  0.02644000  0.11457000  0.64904000  1.0
  N  N221  1  0.96936000  0.10244000  0.69976000  1.0
  O  O222  1  0.15159000  0.91149000  0.08112000  1.0
  O  O223  1  0.95192000  0.84646000  0.03260000  1.0
  O  O224  1  0.97377000  0.92155000  0.08561000  1.0
  O  O225  1  0.19468000  0.86486000  0.98084000  1.0
  O  O226  1  0.90560000  0.00815000  0.08737000  1.0
  O  O227  1  0.12719000  0.84480000  0.02548000  1.0
  O  O228  1  0.84608000  0.87094000  0.99051000  1.0
  O  O229  1  0.94114000  0.96690000  0.02136000  1.0
  O  O230  1  0.01735000  0.89936000  0.98006000  1.0
  O  O231  1  0.06599000  0.01029000  0.06488000  1.0
  O  O232  1  0.13605000  0.96460000  0.01780000  1.0
  O  O233  1  0.27536000  0.96426000  0.97467000  1.0
  O  O234  1  0.75733000  0.96808000  0.98676000  1.0
  O  O235  1  0.00768000  0.99412000  0.95710000  1.0
  O  O236  1  0.88808000  0.04666000  0.98501000  1.0
  O  O237  1  0.03840000  0.07523000  0.01788000  1.0
  O  O238  1  0.15502000  0.04358000  0.98082000  1.0
  O  O239  1  0.78919000  0.03876000  0.03627000  1.0
  O  O240  1  0.88415000  0.13601000  0.03117000  1.0
  O  O241  1  0.93151000  0.15846000  0.98260000  1.0
  O  O242  1  0.24650000  0.00033000  0.07747000  1.0
  O  O243  1  0.10857000  0.15402000  0.97706000  1.0
  O  O244  1  0.99160000  0.11009000  0.08490000  1.0
  O  O245  1  0.15779000  0.10777000  0.07857000  1.0
  O  O246  1  0.30632000  0.03137000  0.02385000  1.0
  O  O247  1  0.21107000  0.13459000  0.02137000  1.0
  O  O248  1  0.91536000  0.09350000  0.92563000  1.0
  O  O249  1  0.11755000  0.88431000  0.92277000  1.0
  O  O250  1  0.08831000  0.07656000  0.92213000  1.0
  O  O251  1  0.14821000  0.98789000  0.91824000  1.0
  O  O252  1  0.86056000  0.89806000  0.92909000  1.0
  O  O253  1  0.82294000  0.00157000  0.92659000  1.0
