# generated using pymatgen
data_Cd3P2H20(C9O5)2
_symmetry_space_group_name_H-M   'P 1'
_cell_length_a   5.82125000
_cell_length_b   6.94056000
_cell_length_c   27.90480000
_cell_angle_alpha   89.99970000
_cell_angle_beta   92.31320000
_cell_angle_gamma   89.99950000
_symmetry_Int_Tables_number   1
_chemical_formula_structural   Cd3P2H20(C9O5)2
_chemical_formula_sum   'Cd6 P4 H40 C36 O20'
_cell_volume   1126.51151969
_cell_formula_units_Z   2
loop_
 _symmetry_equiv_pos_site_id
 _symmetry_equiv_pos_as_xyz
  1  'x, y, z'
loop_
 _atom_site_type_symbol
 _atom_site_label
 _atom_site_symmetry_multiplicity
 _atom_site_fract_x
 _atom_site_fract_y
 _atom_site_fract_z
 _atom_site_occupancy
  Cd  Cd0  1  0.50626000  0.21162000  0.95907000  1.0
  Cd  Cd1  1  0.99375000  0.71164000  0.54093000  1.0
  Cd  Cd2  1  0.49374000  0.78837000  0.04093000  1.0
  Cd  Cd3  1  0.00628000  0.28838000  0.45908000  1.0
  Cd  Cd4  1  0.00000000  0.00000000  0.00000000  1.0
  Cd  Cd5  1  0.50001000  0.50001000  0.50000000  1.0
  P  P6  1  0.98191000  0.20807000  0.88636000  1.0
  P  P7  1  0.51812000  0.70808000  0.61364000  1.0
  P  P8  1  0.01809000  0.79192000  0.11364000  1.0
  P  P9  1  0.48192000  0.29194000  0.38636000  1.0
  H  H10  1  0.72180000  0.10341000  0.79875000  1.0
  H  H11  1  0.77818000  0.60340000  0.70126000  1.0
  H  H12  1  0.27818000  0.89659000  0.20125000  1.0
  H  H13  1  0.22180000  0.39659000  0.29875000  1.0
  H  H14  1  0.81927000  0.90827000  0.72769000  1.0
  H  H15  1  0.68066000  0.40825000  0.77231000  1.0
  H  H16  1  0.18071000  0.09174000  0.27230000  1.0
  H  H17  1  0.31925000  0.59172000  0.22769000  1.0
  H  H18  1  0.19691000  0.73877000  0.72654000  1.0
  H  H19  1  0.30303000  0.23873000  0.77345000  1.0
  H  H20  1  0.80308000  0.26126000  0.27345000  1.0
  H  H21  1  0.69688000  0.76122000  0.22654000  1.0
  H  H22  1  0.47600000  0.76920000  0.79575000  1.0
  H  H23  1  0.02399000  0.26917000  0.70424000  1.0
  H  H24  1  0.52400000  0.23082000  0.20424000  1.0
  H  H25  1  0.97598000  0.73081000  0.29574000  1.0
  H  H26  1  0.38670000  0.97694000  0.86500000  1.0
  H  H27  1  0.11332000  0.47693000  0.63499000  1.0
  H  H28  1  0.61329000  0.02306000  0.13499000  1.0
  H  H29  1  0.88669000  0.52308000  0.36500000  1.0
  H  H30  1  0.25490000  0.44731000  0.86214000  1.0
  H  H31  1  0.24512000  0.94732000  0.63786000  1.0
  H  H32  1  0.74511000  0.55267000  0.13786000  1.0
  H  H33  1  0.75491000  0.05270000  0.36214000  1.0
  H  H34  1  0.97335000  0.49203000  0.83810000  1.0
  H  H35  1  0.52668000  0.99203000  0.66191000  1.0
  H  H36  1  0.02668000  0.50797000  0.16190000  1.0
  H  H37  1  0.47336000  0.00797000  0.33810000  1.0
  H  H38  1  0.01506000  0.74015000  0.89646000  1.0
  H  H39  1  0.48495000  0.24017000  0.60354000  1.0
  H  H40  1  0.98496000  0.25983000  0.10354000  1.0
  H  H41  1  0.51508000  0.75984000  0.39646000  1.0
  H  H42  1  0.87165000  0.56315000  0.92923000  1.0
  H  H43  1  0.62836000  0.06317000  0.57077000  1.0
  H  H44  1  0.12837000  0.43684000  0.07077000  1.0
  H  H45  1  0.37167000  0.93685000  0.42923000  1.0
  H  H46  1  0.34669000  0.19382000  0.05252000  1.0
  H  H47  1  0.15333000  0.69382000  0.44748000  1.0
  H  H48  1  0.65332000  0.80618000  0.94748000  1.0
  H  H49  1  0.84670000  0.30618000  0.55253000  1.0
  C  C50  1  0.04828000  0.05523000  0.83613000  1.0
  C  C51  1  0.45170000  0.55524000  0.66387000  1.0
  C  C52  1  0.95170000  0.94475000  0.16387000  1.0
  C  C53  1  0.54828000  0.44477000  0.33613000  1.0
  C  C54  1  0.88898000  0.03358000  0.79747000  1.0
  C  C55  1  0.61098000  0.53356000  0.70253000  1.0
  C  C56  1  0.11099000  0.96643000  0.20252000  1.0
  C  C57  1  0.38896000  0.46643000  0.29747000  1.0
  C  C58  1  0.94291000  0.92158000  0.75795000  1.0
  C  C59  1  0.55703000  0.42157000  0.74205000  1.0
  C  C60  1  0.05706000  0.07842000  0.24205000  1.0
  C  C61  1  0.44289000  0.57841000  0.25795000  1.0
  C  C62  1  0.15440000  0.82666000  0.75727000  1.0
  C  C63  1  0.34557000  0.32663000  0.74273000  1.0
  C  C64  1  0.84559000  0.17335000  0.24273000  1.0
  C  C65  1  0.65437000  0.67333000  0.25726000  1.0
  C  C66  1  0.31189000  0.84439000  0.79617000  1.0
  C  C67  1  0.18809000  0.34438000  0.70382000  1.0
  C  C68  1  0.68811000  0.15561000  0.20383000  1.0
  C  C69  1  0.81187000  0.65563000  0.29617000  1.0
  C  C70  1  0.26098000  0.95974000  0.83527000  1.0
  C  C71  1  0.23904000  0.45972000  0.66473000  1.0
  C  C72  1  0.73903000  0.04028000  0.16473000  1.0
  C  C73  1  0.76097000  0.54027000  0.33527000  1.0
  C  C74  1  0.07247000  0.45032000  0.87086000  1.0
  C  C75  1  0.42755000  0.95032000  0.62915000  1.0
  C  C76  1  0.92754000  0.54967000  0.12914000  1.0
  C  C77  1  0.57247000  0.04968000  0.37086000  1.0
  C  C78  1  0.03276000  0.59372000  0.91141000  1.0
  C  C79  1  0.46726000  0.09373000  0.58860000  1.0
  C  C80  1  0.96725000  0.40628000  0.08859000  1.0
  C  C81  1  0.53278000  0.90629000  0.41141000  1.0
  C  C82  1  0.22683000  0.60592000  0.94955000  1.0
  C  C83  1  0.27319000  0.10592000  0.55045000  1.0
  C  C84  1  0.77318000  0.39407000  0.05045000  1.0
  C  C85  1  0.72685000  0.89408000  0.44955000  1.0
  O  O86  1  0.18558000  0.70170000  0.98762000  1.0
  O  O87  1  0.31441000  0.20171000  0.51238000  1.0
  O  O88  1  0.81441000  0.29829000  0.01238000  1.0
  O  O89  1  0.68562000  0.79831000  0.48762000  1.0
  O  O90  1  0.42030000  0.53008000  0.94230000  1.0
  O  O91  1  0.07970000  0.03009000  0.55771000  1.0
  O  O92  1  0.57971000  0.46991000  0.05771000  1.0
  O  O93  1  0.92032000  0.96994000  0.44230000  1.0
  O  O94  1  0.72314000  0.20630000  0.89232000  1.0
  O  O95  1  0.77689000  0.70630000  0.60768000  1.0
  O  O96  1  0.27687000  0.79370000  0.10768000  1.0
  O  O97  1  0.22315000  0.29370000  0.39233000  1.0
  O  O98  1  0.13411000  0.13787000  0.92943000  1.0
  O  O99  1  0.36591000  0.63790000  0.57057000  1.0
  O  O100  1  0.86588000  0.86210000  0.07057000  1.0
  O  O101  1  0.63412000  0.36214000  0.42944000  1.0
  O  O102  1  0.34268000  0.09599000  0.02752000  1.0
  O  O103  1  0.15734000  0.59600000  0.47248000  1.0
  O  O104  1  0.65732000  0.90401000  0.97248000  1.0
  O  O105  1  0.84270000  0.40401000  0.52753000  1.0
