# generated using pymatgen
data_DyAgH12C14N2O11
_symmetry_space_group_name_H-M   'P 1'
_cell_length_a   7.29308000
_cell_length_b   13.89850000
_cell_length_c   19.25420000
_cell_angle_alpha   79.09800000
_cell_angle_beta   89.99980000
_cell_angle_gamma   89.99880000
_symmetry_Int_Tables_number   1
_chemical_formula_structural   DyAgH12C14N2O11
_chemical_formula_sum   'Dy4 Ag4 H48 C56 N8 O44'
_cell_volume   1916.43765637
_cell_formula_units_Z   4
loop_
 _symmetry_equiv_pos_site_id
 _symmetry_equiv_pos_as_xyz
  1  'x, y, z'
loop_
 _atom_site_type_symbol
 _atom_site_label
 _atom_site_symmetry_multiplicity
 _atom_site_fract_x
 _atom_site_fract_y
 _atom_site_fract_z
 _atom_site_occupancy
  Dy  Dy0  1  0.07271000  0.29130000  0.86179000  1.0
  Dy  Dy1  1  0.57271000  0.20871000  0.63820000  1.0
  Dy  Dy2  1  0.92728000  0.70872000  0.13821000  1.0
  Dy  Dy3  1  0.42728000  0.79128000  0.36181000  1.0
  Ag  Ag4  1  0.56208000  0.37415000  0.02673000  1.0
  Ag  Ag5  1  0.06207000  0.12584000  0.47326000  1.0
  Ag  Ag6  1  0.43794000  0.62585000  0.97328000  1.0
  Ag  Ag7  1  0.93793000  0.87414000  0.52673000  1.0
  H  H8  1  0.67910000  0.02138000  0.05168000  1.0
  H  H9  1  0.17908000  0.47862000  0.44832000  1.0
  H  H10  1  0.32091000  0.97862000  0.94832000  1.0
  H  H11  1  0.82093000  0.52137000  0.55168000  1.0
  H  H12  1  0.90062000  0.00779000  0.15491000  1.0
  H  H13  1  0.40055000  0.49219000  0.34506000  1.0
  H  H14  1  0.09940000  0.99221000  0.84507000  1.0
  H  H15  1  0.59943000  0.50780000  0.65492000  1.0
  H  H16  1  0.18946000  0.10865000  0.13825000  1.0
  H  H17  1  0.68941000  0.39133000  0.36173000  1.0
  H  H18  1  0.81054000  0.89136000  0.86175000  1.0
  H  H19  1  0.31057000  0.60864000  0.63826000  1.0
  H  H20  1  0.88654000  0.65622000  0.91241000  1.0
  H  H21  1  0.38658000  0.84379000  0.58759000  1.0
  H  H22  1  0.11348000  0.34380000  0.08760000  1.0
  H  H23  1  0.61343000  0.15620000  0.41242000  1.0
  H  H24  1  0.15771000  0.75086000  0.85239000  1.0
  H  H25  1  0.65779000  0.74916000  0.64760000  1.0
  H  H26  1  0.84232000  0.24914000  0.14762000  1.0
  H  H27  1  0.34221000  0.25083000  0.35241000  1.0
  H  H28  1  0.40669000  0.65628000  0.80241000  1.0
  H  H29  1  0.90673000  0.84375000  0.69758000  1.0
  H  H30  1  0.59334000  0.34372000  0.19760000  1.0
  H  H31  1  0.09328000  0.15625000  0.30242000  1.0
  H  H32  1  0.39024000  0.13955000  0.88987000  1.0
  H  H33  1  0.89025000  0.36045000  0.61013000  1.0
  H  H34  1  0.60973000  0.86046000  0.11014000  1.0
  H  H35  1  0.10975000  0.63954000  0.38987000  1.0
  H  H36  1  0.29884000  0.13336000  0.81789000  1.0
  H  H37  1  0.79884000  0.36664000  0.68211000  1.0
  H  H38  1  0.70112000  0.86665000  0.18212000  1.0
  H  H39  1  0.20118000  0.63335000  0.31789000  1.0
  H  H40  1  0.13961000  0.28877000  0.70394000  1.0
  H  H41  1  0.63962000  0.21125000  0.79606000  1.0
  H  H42  1  0.86040000  0.71123000  0.29607000  1.0
  H  H43  1  0.36038000  0.78876000  0.20394000  1.0
  H  H44  1  0.98520000  0.20381000  0.72757000  1.0
  H  H45  1  0.48519000  0.29620000  0.77242000  1.0
  H  H46  1  0.01482000  0.79618000  0.27243000  1.0
  H  H47  1  0.51480000  0.70380000  0.22758000  1.0
  H  H48  1  0.75275000  0.43441000  0.78376000  1.0
  H  H49  1  0.25275000  0.06560000  0.71624000  1.0
  H  H50  1  0.24724000  0.56559000  0.21624000  1.0
  H  H51  1  0.74723000  0.93439000  0.28376000  1.0
  H  H52  1  0.75883000  0.32889000  0.77313000  1.0
  H  H53  1  0.25884000  0.17112000  0.72687000  1.0
  H  H54  1  0.24116000  0.67111000  0.22687000  1.0
  H  H55  1  0.74116000  0.82887000  0.27314000  1.0
  C  C56  1  0.73385000  0.13499000  0.91922000  1.0
  C  C57  1  0.23388000  0.36503000  0.58077000  1.0
  C  C58  1  0.26614000  0.86503000  0.08078000  1.0
  C  C59  1  0.76614000  0.63496000  0.41923000  1.0
  C  C60  1  0.85543000  0.12131000  0.98343000  1.0
  C  C61  1  0.35543000  0.37871000  0.51657000  1.0
  C  C62  1  0.14456000  0.87871000  0.01657000  1.0
  C  C63  1  0.64457000  0.62129000  0.48344000  1.0
  C  C64  1  0.80842000  0.06119000  0.04757000  1.0
  C  C65  1  0.30840000  0.43881000  0.45243000  1.0
  C  C66  1  0.19158000  0.93882000  0.95242000  1.0
  C  C67  1  0.69160000  0.56117000  0.54758000  1.0
  C  C68  1  0.93038000  0.05459000  0.10417000  1.0
  C  C69  1  0.43035000  0.44541000  0.39582000  1.0
  C  C70  1  0.06963000  0.94541000  0.89582000  1.0
  C  C71  1  0.56966000  0.55458000  0.60418000  1.0
  C  C72  1  0.09122000  0.11002000  0.09549000  1.0
  C  C73  1  0.59120000  0.38997000  0.40450000  1.0
  C  C74  1  0.90878000  0.88999000  0.90450000  1.0
  C  C75  1  0.40881000  0.61001000  0.59551000  1.0
  C  C76  1  0.12442000  0.17024000  0.02999000  1.0
  C  C77  1  0.62441000  0.32976000  0.46999000  1.0
  C  C78  1  0.87557000  0.82976000  0.97000000  1.0
  C  C79  1  0.37560000  0.67023000  0.53001000  1.0
  C  C80  1  0.27969000  0.24190000  0.01569000  1.0
  C  C81  1  0.77967000  0.25810000  0.48428000  1.0
  C  C82  1  0.72030000  0.75810000  0.98430000  1.0
  C  C83  1  0.22032000  0.74189000  0.51572000  1.0
  C  C84  1  0.84896000  0.45355000  0.93454000  1.0
  C  C85  1  0.34896000  0.04646000  0.56545000  1.0
  C  C86  1  0.15104000  0.54647000  0.06546000  1.0
  C  C87  1  0.65104000  0.95354000  0.43454000  1.0
  C  C88  1  0.98991000  0.51919000  0.89311000  1.0
  C  C89  1  0.48995000  0.98082000  0.60689000  1.0
  C  C90  1  0.01009000  0.48083000  0.10690000  1.0
  C  C91  1  0.51005000  0.01917000  0.39311000  1.0
  C  C92  1  0.99663000  0.62044000  0.88901000  1.0
  C  C93  1  0.49667000  0.87956000  0.61099000  1.0
  C  C94  1  0.00338000  0.37957000  0.11099000  1.0
  C  C95  1  0.50333000  0.12043000  0.38902000  1.0
  C  C96  1  0.14679000  0.67189000  0.85566000  1.0
  C  C97  1  0.64685000  0.82812000  0.64433000  1.0
  C  C98  1  0.85323000  0.32812000  0.14434000  1.0
  C  C99  1  0.35315000  0.17187000  0.35567000  1.0
  C  C100  1  0.28439000  0.62050000  0.82751000  1.0
  C  C101  1  0.78442000  0.87951000  0.67248000  1.0
  C  C102  1  0.71561000  0.37951000  0.17249000  1.0
  C  C103  1  0.21558000  0.12048000  0.32752000  1.0
  C  C104  1  0.26096000  0.51982000  0.83068000  1.0
  C  C105  1  0.76099000  0.98019000  0.66931000  1.0
  C  C106  1  0.73901000  0.48019000  0.16932000  1.0
  C  C107  1  0.23901000  0.01980000  0.33069000  1.0
  C  C108  1  0.39807000  0.45729000  0.80102000  1.0
  C  C109  1  0.89809000  0.04272000  0.69899000  1.0
  C  C110  1  0.60191000  0.54271000  0.19899000  1.0
  C  C111  1  0.10193000  0.95728000  0.30101000  1.0
  N  N112  1  0.01006000  0.17402000  0.97512000  1.0
  N  N113  1  0.51006000  0.32599000  0.52487000  1.0
  N  N114  1  0.98993000  0.82599000  0.02488000  1.0
  N  N115  1  0.48994000  0.67401000  0.47512000  1.0
  N  N116  1  0.11622000  0.47102000  0.86236000  1.0
  N  N117  1  0.61624000  0.02899000  0.63764000  1.0
  N  N118  1  0.88377000  0.52898000  0.13764000  1.0
  N  N119  1  0.38375000  0.97100000  0.36237000  1.0
  O  O120  1  0.80262000  0.18621000  0.86221000  1.0
  O  O121  1  0.30263000  0.31381000  0.63778000  1.0
  O  O122  1  0.19736000  0.81381000  0.13778000  1.0
  O  O123  1  0.69738000  0.68619000  0.36222000  1.0
  O  O124  1  0.57739000  0.09719000  0.92578000  1.0
  O  O125  1  0.07741000  0.40281000  0.57423000  1.0
  O  O126  1  0.42260000  0.90282000  0.07422000  1.0
  O  O127  1  0.92261000  0.59718000  0.42578000  1.0
  O  O128  1  0.28644000  0.29551000  0.95429000  1.0
  O  O129  1  0.78641000  0.20449000  0.54569000  1.0
  O  O130  1  0.71356000  0.70452000  0.04571000  1.0
  O  O131  1  0.21357000  0.79550000  0.45431000  1.0
  O  O132  1  0.38784000  0.24860000  0.06642000  1.0
  O  O133  1  0.88783000  0.25139000  0.43356000  1.0
  O  O134  1  0.61218000  0.75140000  0.93356000  1.0
  O  O135  1  0.11217000  0.74859000  0.56645000  1.0
  O  O136  1  0.34369000  0.36920000  0.80004000  1.0
  O  O137  1  0.84372000  0.13083000  0.69995000  1.0
  O  O138  1  0.65630000  0.63081000  0.19996000  1.0
  O  O139  1  0.15629000  0.86917000  0.30005000  1.0
  O  O140  1  0.55001000  0.49464000  0.78067000  1.0
  O  O141  1  0.05001000  0.00537000  0.71934000  1.0
  O  O142  1  0.44998000  0.50535000  0.21933000  1.0
  O  O143  1  0.95000000  0.99461000  0.28065000  1.0
  O  O144  1  0.85933000  0.36276000  0.93300000  1.0
  O  O145  1  0.35935000  0.13725000  0.56700000  1.0
  O  O146  1  0.14068000  0.63726000  0.06702000  1.0
  O  O147  1  0.64066000  0.86274000  0.43300000  1.0
  O  O148  1  0.73356000  0.49210000  0.97070000  1.0
  O  O149  1  0.23356000  0.00790000  0.52931000  1.0
  O  O150  1  0.26641000  0.50791000  0.02930000  1.0
  O  O151  1  0.76646000  0.99209000  0.47069000  1.0
  O  O152  1  0.27342000  0.15597000  0.86226000  1.0
  O  O153  1  0.77343000  0.34403000  0.63774000  1.0
  O  O154  1  0.72656000  0.84405000  0.13775000  1.0
  O  O155  1  0.22658000  0.65596000  0.36227000  1.0
  O  O156  1  0.08247000  0.24516000  0.74574000  1.0
  O  O157  1  0.58246000  0.25485000  0.75425000  1.0
  O  O158  1  0.91754000  0.75484000  0.25426000  1.0
  O  O159  1  0.41753000  0.74515000  0.24575000  1.0
  O  O160  1  0.84474000  0.38338000  0.77727000  1.0
  O  O161  1  0.34475000  0.11663000  0.72273000  1.0
  O  O162  1  0.15525000  0.61662000  0.22273000  1.0
  O  O163  1  0.65524000  0.88337000  0.27727000  1.0
