# generated using pymatgen
data_CdH25C25N5O7
_symmetry_space_group_name_H-M   'P 1'
_cell_length_a   8.53491000
_cell_length_b   9.45487000
_cell_length_c   17.75490000
_cell_angle_alpha   80.67570000
_cell_angle_beta   77.24110000
_cell_angle_gamma   65.68290000
_symmetry_Int_Tables_number   1
_chemical_formula_structural   CdH25C25N5O7
_chemical_formula_sum   'Cd2 H50 C50 N10 O14'
_cell_volume   1269.32622884
_cell_formula_units_Z   2
loop_
 _symmetry_equiv_pos_site_id
 _symmetry_equiv_pos_as_xyz
  1  'x, y, z'
loop_
 _atom_site_type_symbol
 _atom_site_label
 _atom_site_symmetry_multiplicity
 _atom_site_fract_x
 _atom_site_fract_y
 _atom_site_fract_z
 _atom_site_occupancy
  Cd  Cd0  1  0.91846000  0.96146000  0.15802000  1.0
  Cd  Cd1  1  0.08154000  0.03854000  0.84198000  1.0
  H  H2  1  0.97035000  0.84097000  0.01436000  1.0
  H  H3  1  0.02965000  0.15903000  0.98564000  1.0
  H  H4  1  0.77473000  0.93802000  0.02374000  1.0
  H  H5  1  0.22527000  0.06198000  0.97626000  1.0
  H  H6  1  0.45002000  0.51732000  0.14177000  1.0
  H  H7  1  0.54997000  0.48268000  0.85823000  1.0
  H  H8  1  0.54640000  0.86391000  0.97104000  1.0
  H  H9  1  0.45361000  0.13609000  0.02896000  1.0
  H  H10  1  0.92484000  0.39115000  0.97499000  1.0
  H  H11  1  0.07516000  0.60884000  0.02501000  1.0
  H  H12  1  0.86200000  0.78776000  0.89856000  1.0
  H  H13  1  0.13800000  0.21224000  0.10144000  1.0
  H  H14  1  0.99445000  0.58554000  0.88898000  1.0
  H  H15  1  0.00555000  0.41447000  0.11102000  1.0
  H  H16  1  0.89204000  0.43937000  0.82748000  1.0
  H  H17  1  0.10796000  0.56063000  0.17251000  1.0
  H  H18  1  0.76145000  0.44215000  0.71326000  1.0
  H  H19  1  0.23856000  0.55786000  0.28674000  1.0
  H  H20  1  0.68482000  0.92288000  0.81762000  1.0
  H  H21  1  0.31518000  0.07713000  0.18238000  1.0
  H  H22  1  0.55327000  0.94230000  0.69878000  1.0
  H  H23  1  0.44673000  0.05770000  0.30122000  1.0
  H  H24  1  0.75673000  0.24209000  0.28680000  1.0
  H  H25  1  0.24328000  0.75791000  0.71320000  1.0
  H  H26  1  0.21782000  0.83649000  0.29045000  1.0
  H  H27  1  0.78218000  0.16352000  0.70955000  1.0
  H  H28  1  0.15411000  0.99358000  0.42129000  1.0
  H  H29  1  0.84589000  0.00642000  0.57871000  1.0
  H  H30  1  0.85656000  0.21425000  0.48446000  1.0
  H  H31  1  0.14344000  0.78575000  0.51554000  1.0
  H  H32  1  0.70345000  0.32091000  0.42153000  1.0
  H  H33  1  0.29654000  0.67909000  0.57847000  1.0
  H  H34  1  0.93216000  0.42990000  0.34594000  1.0
  H  H35  1  0.06783000  0.57010000  0.65406000  1.0
  H  H36  1  0.05313000  0.34498000  0.42161000  1.0
  H  H37  1  0.94687000  0.65502000  0.57839000  1.0
  H  H38  1  0.77203000  0.50554000  0.51513000  1.0
  H  H39  1  0.22797000  0.49446000  0.48486000  1.0
  H  H40  1  0.88783000  0.60769000  0.45200000  1.0
  H  H41  1  0.11217000  0.39231000  0.54800000  1.0
  H  H42  1  0.55374000  0.58377000  0.42722000  1.0
  H  H43  1  0.44626000  0.41623000  0.57278000  1.0
  H  H44  1  0.57045000  0.74544000  0.45981000  1.0
  H  H45  1  0.42955000  0.25456000  0.54019000  1.0
  H  H46  1  0.57442000  0.57400000  0.28960000  1.0
  H  H47  1  0.42558000  0.42600000  0.71040000  1.0
  H  H48  1  0.79407000  0.85814000  0.35043000  1.0
  H  H49  1  0.20592000  0.14186000  0.64957000  1.0
  H  H50  1  0.70388000  0.72309000  0.15424000  1.0
  H  H51  1  0.29612000  0.27691000  0.84576000  1.0
  C  C52  1  0.74887000  0.27477000  0.10071000  1.0
  C  C53  1  0.25113000  0.72522000  0.89928000  1.0
  C  C54  1  0.69259000  0.43682000  0.06254000  1.0
  C  C55  1  0.30741000  0.56318000  0.93746000  1.0
  C  C56  1  0.53227000  0.54958000  0.09202000  1.0
  C  C57  1  0.46773000  0.45042000  0.90798000  1.0
  C  C58  1  0.47830000  0.70281000  0.05883000  1.0
  C  C59  1  0.52170000  0.29719000  0.94117000  1.0
  C  C60  1  0.58651000  0.74335000  0.99557000  1.0
  C  C61  1  0.41349000  0.25665000  0.00443000  1.0
  C  C62  1  0.74657000  0.63080000  0.96497000  1.0
  C  C63  1  0.25343000  0.36920000  0.03503000  1.0
  C  C64  1  0.79903000  0.47800000  0.99834000  1.0
  C  C65  1  0.20097000  0.52200000  0.00166000  1.0
  C  C66  1  0.86056000  0.67359000  0.89527000  1.0
  C  C67  1  0.13944000  0.32641000  0.10473000  1.0
  C  C68  1  0.30586000  0.82424000  0.09103000  1.0
  C  C69  1  0.69414000  0.17576000  0.90897000  1.0
  C  C70  1  0.81906000  0.54697000  0.79606000  1.0
  C  C71  1  0.18094000  0.45303000  0.20394000  1.0
  C  C72  1  0.74608000  0.55042000  0.73355000  1.0
  C  C73  1  0.25392000  0.44958000  0.26645000  1.0
  C  C74  1  0.64817000  0.69321000  0.69753000  1.0
  C  C75  1  0.35183000  0.30679000  0.30247000  1.0
  C  C76  1  0.69905000  0.82207000  0.79031000  1.0
  C  C77  1  0.30095000  0.17793000  0.20969000  1.0
  C  C78  1  0.62785000  0.83006000  0.72622000  1.0
  C  C79  1  0.37215000  0.16994000  0.27378000  1.0
  C  C80  1  0.56207000  0.69816000  0.62986000  1.0
  C  C81  1  0.43793000  0.30184000  0.37014000  1.0
  C  C82  1  0.87408000  0.15230000  0.30458000  1.0
  C  C83  1  0.12592000  0.84770000  0.69542000  1.0
  C  C84  1  0.11137000  0.94330000  0.30937000  1.0
  C  C85  1  0.88863000  0.05670000  0.69063000  1.0
  C  C86  1  0.08072000  0.01843000  0.37472000  1.0
  C  C87  1  0.91928000  0.98157000  0.62528000  1.0
  C  C88  1  0.84292000  0.27095000  0.42582000  1.0
  C  C89  1  0.15707000  0.72905000  0.57418000  1.0
  C  C90  1  0.91972000  0.39546000  0.40858000  1.0
  C  C91  1  0.08028000  0.60454000  0.59142000  1.0
  C  C92  1  0.80930000  0.53923000  0.45367000  1.0
  C  C93  1  0.19069000  0.46077000  0.54633000  1.0
  C  C94  1  0.63945000  0.64563000  0.42416000  1.0
  C  C95  1  0.36055000  0.35437000  0.57584000  1.0
  C  C96  1  0.63991000  0.65426000  0.28018000  1.0
  C  C97  1  0.36009000  0.34574000  0.71982000  1.0
  C  C98  1  0.75479000  0.80086000  0.31423000  1.0
  C  C99  1  0.24520000  0.19914000  0.68577000  1.0
  C  C100  1  0.70374000  0.72797000  0.21487000  1.0
  C  C101  1  0.29626000  0.27203000  0.78513000  1.0
  N  N102  1  0.79359000  0.68177000  0.82359000  1.0
  N  N103  1  0.20641000  0.31824000  0.17641000  1.0
  N  N104  1  0.98161000  0.02863000  0.26594000  1.0
  N  N105  1  0.01839000  0.97137000  0.73406000  1.0
  N  N106  1  0.92924000  0.15007000  0.37097000  1.0
  N  N107  1  0.07077000  0.84993000  0.62903000  1.0
  N  N108  1  0.67289000  0.70229000  0.34250000  1.0
  N  N109  1  0.32711000  0.29771000  0.65750000  1.0
  N  N110  1  0.77518000  0.81899000  0.23700000  1.0
  N  N111  1  0.22482000  0.18101000  0.76300000  1.0
  O  O112  1  0.86179000  0.86239000  0.05443000  1.0
  O  O113  1  0.13821000  0.13761000  0.94557000  1.0
  O  O114  1  0.19445000  0.77437000  0.13437000  1.0
  O  O115  1  0.80555000  0.22563000  0.86563000  1.0
  O  O116  1  0.28100000  0.96610000  0.07360000  1.0
  O  O117  1  0.71900000  0.03390000  0.92640000  1.0
  O  O118  1  0.52299000  0.82159000  0.58586000  1.0
  O  O119  1  0.47702000  0.17841000  0.41414000  1.0
  O  O120  1  0.53782000  0.57522000  0.62632000  1.0
  O  O121  1  0.46218000  0.42478000  0.37368000  1.0
  O  O122  1  0.88615000  0.16923000  0.06593000  1.0
  O  O123  1  0.11385000  0.83077000  0.93407000  1.0
  O  O124  1  0.66622000  0.24490000  0.16508000  1.0
  O  O125  1  0.33378000  0.75510000  0.83492000  1.0
