# generated using pymatgen
data_CuH7C2N11
_symmetry_space_group_name_H-M   'P 1'
_cell_length_a   7.33198000
_cell_length_b   9.40700000
_cell_length_c   12.52480000
_cell_angle_alpha   90.00020000
_cell_angle_beta   90.00010000
_cell_angle_gamma   89.13750000
_symmetry_Int_Tables_number   1
_chemical_formula_structural   CuH7C2N11
_chemical_formula_sum   'Cu4 H28 C8 N44'
_cell_volume   863.76182586
_cell_formula_units_Z   4
loop_
 _symmetry_equiv_pos_site_id
 _symmetry_equiv_pos_as_xyz
  1  'x, y, z'
loop_
 _atom_site_type_symbol
 _atom_site_label
 _atom_site_symmetry_multiplicity
 _atom_site_fract_x
 _atom_site_fract_y
 _atom_site_fract_z
 _atom_site_occupancy
  Cu  Cu0  1  0.90001000  0.78415000  0.90295000  1.0
  Cu  Cu1  1  0.10001000  0.71579000  0.40302000  1.0
  Cu  Cu2  1  0.09999000  0.21579000  0.09700000  1.0
  Cu  Cu3  1  0.90004000  0.28413000  0.59708000  1.0
  H  H4  1  0.65876000  0.80488000  0.75207000  1.0
  H  H5  1  0.34113000  0.69518000  0.25210000  1.0
  H  H6  1  0.34119000  0.19509000  0.24785000  1.0
  H  H7  1  0.65871000  0.30497000  0.74787000  1.0
  H  H8  1  0.38810000  0.06534000  0.92502000  1.0
  H  H9  1  0.61191000  0.43469000  0.42509000  1.0
  H  H10  1  0.61190000  0.93469000  0.07495000  1.0
  H  H11  1  0.38809000  0.56535000  0.57503000  1.0
  H  H12  1  0.61137000  0.92138000  0.84609000  1.0
  H  H13  1  0.38856000  0.57865000  0.34607000  1.0
  H  H14  1  0.38852000  0.07861000  0.15380000  1.0
  H  H15  1  0.61144000  0.42142000  0.65378000  1.0
  H  H16  1  0.54902000  0.75419000  0.86092000  1.0
  H  H17  1  0.45091000  0.74584000  0.36093000  1.0
  H  H18  1  0.45090000  0.24576000  0.13898000  1.0
  H  H19  1  0.54903000  0.25427000  0.63899000  1.0
  H  H20  1  0.67269000  0.65939000  0.03771000  1.0
  H  H21  1  0.32736000  0.84058000  0.53775000  1.0
  H  H22  1  0.32735000  0.34059000  0.96226000  1.0
  H  H23  1  0.67270000  0.15941000  0.46230000  1.0
  H  H24  1  0.88765000  0.63601000  0.07403000  1.0
  H  H25  1  0.11238000  0.86394000  0.57407000  1.0
  H  H26  1  0.11237000  0.36397000  0.92594000  1.0
  H  H27  1  0.88766000  0.13601000  0.42597000  1.0
  H  H28  1  0.80358000  0.53778000  0.97661000  1.0
  H  H29  1  0.19645000  0.96214000  0.47661000  1.0
  H  H30  1  0.19645000  0.46216000  0.02339000  1.0
  H  H31  1  0.80358000  0.03776000  0.52337000  1.0
  C  C32  1  0.27097000  0.88075000  0.98045000  1.0
  C  C33  1  0.72909000  0.61923000  0.48052000  1.0
  C  C34  1  0.72909000  0.11921000  0.01951000  1.0
  C  C35  1  0.27094000  0.38079000  0.51958000  1.0
  C  C36  1  0.14193000  0.03299000  0.84516000  1.0
  C  C37  1  0.85812000  0.46698000  0.34524000  1.0
  C  C38  1  0.85815000  0.96694000  0.15479000  1.0
  C  C39  1  0.14188000  0.53305000  0.65485000  1.0
  N  N40  1  0.89124000  0.03225000  0.75547000  1.0
  N  N41  1  0.10875000  0.46769000  0.25551000  1.0
  N  N42  1  0.10871000  0.96772000  0.24455000  1.0
  N  N43  1  0.89128000  0.53221000  0.74460000  1.0
  N  N44  1  0.27481000  0.99930000  0.91821000  1.0
  N  N45  1  0.72528000  0.50065000  0.41831000  1.0
  N  N46  1  0.72531000  0.00060000  0.08171000  1.0
  N  N47  1  0.27474000  0.49937000  0.58179000  1.0
  N  N48  1  0.13758000  0.78389000  0.98238000  1.0
  N  N49  1  0.86247000  0.71610000  0.48243000  1.0
  N  N50  1  0.86254000  0.21601000  0.01752000  1.0
  N  N51  1  0.13752000  0.28396000  0.51758000  1.0
  N  N52  1  0.98300000  0.96384000  0.83441000  1.0
  N  N53  1  0.01709000  0.53605000  0.33453000  1.0
  N  N54  1  0.01703000  0.03610000  0.16556000  1.0
  N  N55  1  0.98307000  0.46377000  0.66568000  1.0
  N  N56  1  0.35149000  0.71831000  0.09210000  1.0
  N  N57  1  0.64853000  0.78179000  0.59208000  1.0
  N  N58  1  0.64846000  0.28183000  0.90800000  1.0
  N  N59  1  0.35154000  0.21828000  0.40797000  1.0
  N  N60  1  0.40554000  0.84321000  0.04856000  1.0
  N  N61  1  0.59448000  0.65686000  0.54858000  1.0
  N  N62  1  0.59440000  0.15692000  0.95152000  1.0
  N  N63  1  0.40558000  0.34317000  0.45152000  1.0
  N  N64  1  0.19330000  0.68285000  0.05300000  1.0
  N  N65  1  0.80674000  0.81719000  0.55300000  1.0
  N  N66  1  0.80676000  0.31715000  0.94701000  1.0
  N  N67  1  0.19329000  0.18288000  0.44701000  1.0
  N  N68  1  0.65054000  0.81780000  0.83385000  1.0
  N  N69  1  0.34937000  0.68224000  0.33387000  1.0
  N  N70  1  0.34937000  0.18218000  0.16607000  1.0
  N  N71  1  0.65055000  0.31784000  0.66609000  1.0
  N  N72  1  0.15311000  0.14160000  0.77640000  1.0
  N  N73  1  0.84682000  0.35845000  0.27639000  1.0
  N  N74  1  0.84691000  0.85832000  0.22355000  1.0
  N  N75  1  0.15297000  0.64178000  0.72351000  1.0
  N  N76  1  0.99310000  0.13633000  0.72240000  1.0
  N  N77  1  0.00679000  0.36371000  0.22237000  1.0
  N  N78  1  0.00684000  0.86364000  0.27760000  1.0
  N  N79  1  0.99302000  0.63642000  0.77755000  1.0
  N  N80  1  0.80144000  0.63825000  0.00964000  1.0
  N  N81  1  0.19861000  0.86170000  0.50968000  1.0
  N  N82  1  0.19860000  0.36172000  0.99033000  1.0
  N  N83  1  0.80145000  0.13824000  0.49036000  1.0
