# generated using pymatgen
data_AlH6C27N13O18
_symmetry_space_group_name_H-M   'P 1'
_cell_length_a   4.18381000
_cell_length_b   16.42976624
_cell_length_c   17.94941838
_cell_angle_alpha   64.24214300
_cell_angle_beta   89.34736985
_cell_angle_gamma   82.89144930
_symmetry_Int_Tables_number   1
_chemical_formula_structural   AlH6C27N13O18
_chemical_formula_sum   'Al1 H6 C27 N13 O18'
_cell_volume   1101.44846696
_cell_formula_units_Z   1
loop_
 _symmetry_equiv_pos_site_id
 _symmetry_equiv_pos_as_xyz
  1  'x, y, z'
loop_
 _atom_site_type_symbol
 _atom_site_label
 _atom_site_symmetry_multiplicity
 _atom_site_fract_x
 _atom_site_fract_y
 _atom_site_fract_z
 _atom_site_occupancy
  Al  Al0  1  0.51794000  0.00917000  0.48554000  1.0
  H  H1  1  0.65298000  0.30718000  0.09851000  1.0
  H  H2  1  0.70919000  0.08160000  0.81529000  1.0
  H  H3  1  0.69194000  0.59712000  0.58926000  1.0
  H  H4  1  0.37618000  0.31940000  0.59099000  1.0
  H  H5  1  0.31436000  0.60140000  0.81172000  1.0
  H  H6  1  0.31789000  0.08232000  0.10215000  1.0
  C  C7  1  0.99810000  0.06806000  0.35962000  1.0
  C  C8  1  0.96390000  0.07824000  0.55659000  1.0
  C  C9  1  0.09263000  0.87068000  0.55823000  1.0
  C  C10  1  0.79837000  0.24125000  0.13185000  1.0
  C  C11  1  0.98495000  0.20024000  0.08917000  1.0
  C  C12  1  0.70056000  0.11935000  0.74814000  1.0
  C  C13  1  0.53696000  0.20775000  0.70892000  1.0
  C  C14  1  0.51447000  0.58711000  0.70582000  1.0
  C  C15  1  0.54939000  0.63211000  0.62044000  1.0
  C  C16  1  0.51175000  0.25160000  0.62240000  1.0
  C  C17  1  0.64884000  0.20715000  0.57728000  1.0
  C  C18  1  0.83390000  0.11998000  0.61366000  1.0
  C  C19  1  0.84598000  0.07744000  0.70131000  1.0
  C  C20  1  0.40942000  0.72164000  0.57635000  1.0
  C  C21  1  0.21640000  0.77097000  0.61224000  1.0
  C  C22  1  0.18698000  0.72238000  0.69870000  1.0
  C  C23  1  0.33416000  0.63341000  0.74484000  1.0
  C  C24  1  0.17128000  0.11577000  0.13390000  1.0
  C  C25  1  0.16776000  0.07419000  0.21962000  1.0
  C  C26  1  0.98788000  0.11338000  0.26518000  1.0
  C  C27  1  0.80453000  0.19813000  0.21770000  1.0
  C  C28  1  0.80916000  0.37020000  0.87774000  1.0
  C  C29  1  0.20050000  0.24565000  0.88036000  1.0
  C  C30  1  0.99003000  0.24620000  0.99815000  1.0
  C  C31  1  0.68231000  0.49398000  0.75289000  1.0
  C  C32  1  0.03297000  0.37735000  0.74971000  1.0
  C  C33  1  0.36794000  0.25324000  0.75598000  1.0
  N  N34  1  0.01407000  0.33099000  0.83599000  1.0
  N  N35  1  0.19121000  0.20471000  0.96249000  1.0
  N  N36  1  0.79438000  0.32548000  0.95957000  1.0
  N  N37  1  0.63300000  0.45118000  0.83438000  1.0
  N  N38  1  0.87358000  0.46069000  0.70914000  1.0
  N  N39  1  0.38307000  0.20774000  0.83910000  1.0
  N  N40  1  0.20886000  0.33669000  0.71009000  1.0
  N  N41  1  0.36364000  0.98380000  0.26308000  1.0
  N  N42  1  0.61314000  0.24728000  0.25905000  1.0
  N  N43  1  0.01321000  0.76200000  0.75098000  1.0
  N  N44  1  0.48772000  0.75820000  0.48720000  1.0
  N  N45  1  0.56530000  0.26076000  0.48684000  1.0
  N  N46  1  0.99270000  0.98100000  0.75220000  1.0
  O  O47  1  0.81830000  0.90637000  0.56644000  1.0
  O  O48  1  0.77933000  0.01908000  0.39341000  1.0
  O  O49  1  0.75795000  0.08941000  0.50029000  1.0
  O  O50  1  0.28971000  0.91198000  0.50464000  1.0
  O  O51  1  0.24930000  0.04000000  0.56428000  1.0
  O  O52  1  0.22732000  0.08513000  0.39374000  1.0
  O  O53  1  0.28916000  0.93525000  0.33376000  1.0
  O  O54  1  0.58487000  0.96395000  0.22505000  1.0
  O  O55  1  0.69957000  0.22783000  0.33080000  1.0
  O  O56  1  0.38349000  0.30434000  0.21826000  1.0
  O  O57  1  0.74752000  0.80790000  0.72487000  1.0
  O  O58  1  0.14743000  0.74198000  0.81865000  1.0
  O  O59  1  0.72450000  0.79939000  0.46650000  1.0
  O  O60  1  0.32688000  0.73570000  0.44393000  1.0
  O  O61  1  0.32582000  0.24295000  0.46057000  1.0
  O  O62  1  0.72278000  0.32372000  0.44851000  1.0
  O  O63  1  0.22573000  0.95004000  0.72541000  1.0
  O  O64  1  0.86814000  0.93994000  0.81865000  1.0
