# generated using pymatgen
data_LaH8C7SeNO9
_symmetry_space_group_name_H-M   'P 1'
_cell_length_a   7.15155000
_cell_length_b   7.15962000
_cell_length_c   12.72290000
_cell_angle_alpha   73.66140000
_cell_angle_beta   76.28200000
_cell_angle_gamma   70.84270000
_symmetry_Int_Tables_number   1
_chemical_formula_structural   LaH8C7SeNO9
_chemical_formula_sum   'La2 H16 C14 Se2 N2 O18'
_cell_volume   582.93011541
_cell_formula_units_Z   2
loop_
 _symmetry_equiv_pos_site_id
 _symmetry_equiv_pos_as_xyz
  1  'x, y, z'
loop_
 _atom_site_type_symbol
 _atom_site_label
 _atom_site_symmetry_multiplicity
 _atom_site_fract_x
 _atom_site_fract_y
 _atom_site_fract_z
 _atom_site_occupancy
  La  La0  1  0.94447000  0.81931000  0.90943000  1.0
  La  La1  1  0.05553000  0.18069000  0.09057000  1.0
  H  H2  1  0.65284000  0.44774000  0.72856000  1.0
  H  H3  1  0.34716000  0.55226000  0.27144000  1.0
  H  H4  1  0.25415000  0.06530000  0.74098000  1.0
  H  H5  1  0.74586000  0.93470000  0.25902000  1.0
  H  H6  1  0.02388000  0.20959000  0.76376000  1.0
  H  H7  1  0.97613000  0.79041000  0.23624000  1.0
  H  H8  1  0.56281000  0.88226000  0.11083000  1.0
  H  H9  1  0.43719000  0.11774000  0.88917000  1.0
  H  H10  1  0.67476000  0.64545000  0.11323000  1.0
  H  H11  1  0.32523000  0.35455000  0.88677000  1.0
  H  H12  1  0.31979000  0.58300000  0.50000000  1.0
  H  H13  1  0.68021000  0.41700000  0.50000000  1.0
  H  H14  1  0.01898000  0.72089000  0.40388000  1.0
  H  H15  1  0.98102000  0.27910000  0.59612000  1.0
  H  H16  1  0.68874000  0.89852000  0.50425000  1.0
  H  H17  1  0.31126000  0.10148000  0.49575000  1.0
  C  C18  1  0.32333000  0.60082000  0.71367000  1.0
  C  C19  1  0.67667000  0.39917000  0.28633000  1.0
  C  C20  1  0.15240000  0.68455000  0.64867000  1.0
  C  C21  1  0.84759000  0.31544000  0.35133000  1.0
  C  C22  1  0.17453000  0.66056000  0.54085000  1.0
  C  C23  1  0.82547000  0.33944000  0.45915000  1.0
  C  C24  1  0.00627000  0.73755000  0.48786000  1.0
  C  C25  1  0.99373000  0.26246000  0.51214000  1.0
  C  C26  1  0.82339000  0.83657000  0.54284000  1.0
  C  C27  1  0.17660000  0.16343000  0.45716000  1.0
  C  C28  1  0.81548000  0.85524000  0.65052000  1.0
  C  C29  1  0.18452000  0.14477000  0.34947000  1.0
  C  C30  1  0.62378000  0.96040000  0.71634000  1.0
  C  C31  1  0.37622000  0.03960000  0.28366000  1.0
  Se  Se32  1  0.29295000  0.60543000  0.08644000  1.0
  Se  Se33  1  0.70705000  0.39457000  0.91356000  1.0
  N  N34  1  0.97618000  0.77959000  0.70215000  1.0
  N  N35  1  0.02382000  0.22042000  0.29785000  1.0
  O  O36  1  0.28341000  0.61230000  0.81590000  1.0
  O  O37  1  0.71659000  0.38769000  0.18410000  1.0
  O  O38  1  0.49471000  0.51855000  0.66517000  1.0
  O  O39  1  0.50529000  0.48143000  0.33483000  1.0
  O  O40  1  0.63485000  0.96583000  0.81514000  1.0
  O  O41  1  0.36515000  0.03418000  0.18486000  1.0
  O  O42  1  0.46964000  0.03302000  0.67098000  1.0
  O  O43  1  0.53036000  0.96698000  0.32902000  1.0
  O  O44  1  0.11201000  0.51663000  0.06648000  1.0
  O  O45  1  0.88799000  0.48336000  0.93352000  1.0
  O  O46  1  0.19399000  0.85353000  0.02483000  1.0
  O  O47  1  0.80601000  0.14647000  0.97517000  1.0
  O  O48  1  0.21758000  0.60516000  0.23026000  1.0
  O  O49  1  0.78242000  0.39484000  0.76974000  1.0
  O  O50  1  0.11276000  0.07135000  0.78156000  1.0
  O  O51  1  0.88725000  0.92865000  0.21844000  1.0
  O  O52  1  0.65231000  0.78359000  0.06552000  1.0
  O  O53  1  0.34769000  0.21641000  0.93449000  1.0
