# generated using pymatgen
data_CoH21C17(NO2)2
_symmetry_space_group_name_H-M   'P 1'
_cell_length_a   9.91897000
_cell_length_b   12.95870000
_cell_length_c   13.67280000
_cell_angle_alpha   90.00000000
_cell_angle_beta   89.55540000
_cell_angle_gamma   89.99980000
_symmetry_Int_Tables_number   1
_chemical_formula_structural   CoH21C17(NO2)2
_chemical_formula_sum   'Co4 H84 C68 N8 O16'
_cell_volume   1757.40718824
_cell_formula_units_Z   4
loop_
 _symmetry_equiv_pos_site_id
 _symmetry_equiv_pos_as_xyz
  1  'x, y, z'
loop_
 _atom_site_type_symbol
 _atom_site_label
 _atom_site_symmetry_multiplicity
 _atom_site_fract_x
 _atom_site_fract_y
 _atom_site_fract_z
 _atom_site_occupancy
  Co  Co0  1  0.11841000  0.52690000  0.75632000  1.0
  Co  Co1  1  0.88138000  0.02695000  0.24367000  1.0
  Co  Co2  1  0.88974000  0.49975000  0.74001000  1.0
  Co  Co3  1  0.11009000  0.99976000  0.25998000  1.0
  H  H4  1  0.85450000  0.42210000  0.43670000  1.0
  H  H5  1  0.14547000  0.92208000  0.56331000  1.0
  H  H6  1  0.91228000  0.53465000  0.37844000  1.0
  H  H7  1  0.08770000  0.03466000  0.62155000  1.0
  H  H8  1  0.87921000  0.34437000  0.28061000  1.0
  H  H9  1  0.12076000  0.84438000  0.71938000  1.0
  H  H10  1  0.99383000  0.43922000  0.23952000  1.0
  H  H11  1  0.00622000  0.93918000  0.76046000  1.0
  H  H12  1  0.17837000  0.34283000  0.28814000  1.0
  H  H13  1  0.82160000  0.84284000  0.71188000  1.0
  H  H14  1  0.13790000  0.60185000  0.41858000  1.0
  H  H15  1  0.86210000  0.10186000  0.58141000  1.0
  H  H16  1  0.20271000  0.50545000  0.33928000  1.0
  H  H17  1  0.79730000  0.00542000  0.66073000  1.0
  H  H18  1  0.26786000  0.51888000  0.45934000  1.0
  H  H19  1  0.73212000  0.01887000  0.54067000  1.0
  H  H20  1  0.05449000  0.17780000  0.48726000  1.0
  H  H21  1  0.94550000  0.67779000  0.51275000  1.0
  H  H22  1  0.91577000  0.26286000  0.47824000  1.0
  H  H23  1  0.08422000  0.76285000  0.52177000  1.0
  H  H24  1  0.02950000  0.27442000  0.57794000  1.0
  H  H25  1  0.97048000  0.77441000  0.42208000  1.0
  H  H26  1  0.28140000  0.22789000  0.45691000  1.0
  H  H27  1  0.71858000  0.72786000  0.54309000  1.0
  H  H28  1  0.27553000  0.33159000  0.54337000  1.0
  H  H29  1  0.72448000  0.83157000  0.45662000  1.0
  H  H30  1  0.33046000  0.35429000  0.42112000  1.0
  H  H31  1  0.66952000  0.85429000  0.57888000  1.0
  H  H32  1  0.95992000  0.10416000  0.74213000  1.0
  H  H33  1  0.04012000  0.60416000  0.25786000  1.0
  H  H34  1  0.86773000  0.20155000  0.80141000  1.0
  H  H35  1  0.13226000  0.70148000  0.19859000  1.0
  H  H36  1  0.84094000  0.10192000  0.94352000  1.0
  H  H37  1  0.15909000  0.60194000  0.05646000  1.0
  H  H38  1  0.90600000  0.99575000  0.87846000  1.0
  H  H39  1  0.09404000  0.49576000  0.12152000  1.0
  H  H40  1  0.13346000  0.03153000  0.93200000  1.0
  H  H41  1  0.86653000  0.53149000  0.06798000  1.0
  H  H42  1  0.17898000  0.16929000  0.69076000  1.0
  H  H43  1  0.82104000  0.66929000  0.30925000  1.0
  H  H44  1  0.20960000  0.07753000  0.78400000  1.0
  H  H45  1  0.79042000  0.57751000  0.21599000  1.0
  H  H46  1  0.29570000  0.19713000  0.78447000  1.0
  H  H47  1  0.70432000  0.69711000  0.21553000  1.0
  H  H48  1  0.26033000  0.19647000  0.05413000  1.0
  H  H49  1  0.73969000  0.69648000  0.94586000  1.0
  H  H50  1  0.29091000  0.28656000  0.95701000  1.0
  H  H51  1  0.70913000  0.78655000  0.04300000  1.0
  H  H52  1  0.32054000  0.15197000  0.93981000  1.0
  H  H53  1  0.67946000  0.65196000  0.06018000  1.0
  H  H54  1  0.02391000  0.25997000  0.07902000  1.0
  H  H55  1  0.97612000  0.75996000  0.92099000  1.0
  H  H56  1  0.91450000  0.27431000  0.97740000  1.0
  H  H57  1  0.08551000  0.77430000  0.02261000  1.0
  H  H58  1  0.05932000  0.35359000  0.98730000  1.0
  H  H59  1  0.94069000  0.85356000  0.01271000  1.0
  H  H60  1  0.41487000  0.54212000  0.63831000  1.0
  H  H61  1  0.58515000  0.04207000  0.36172000  1.0
  H  H62  1  0.60231000  0.69390000  0.68827000  1.0
  H  H63  1  0.39770000  0.19384000  0.31174000  1.0
  H  H64  1  0.26381000  0.70881000  0.87922000  1.0
  H  H65  1  0.73616000  0.20877000  0.12075000  1.0
  H  H66  1  0.61139000  0.79770000  0.86672000  1.0
  H  H67  1  0.38854000  0.29765000  0.13335000  1.0
  H  H68  1  0.45070000  0.82888000  0.91396000  1.0
  H  H69  1  0.54917000  0.32883000  0.08604000  1.0
  H  H70  1  0.37427000  0.86598000  0.67245000  1.0
  H  H71  1  0.62565000  0.36591000  0.32758000  1.0
  H  H72  1  0.38022000  0.03178000  0.58351000  1.0
  H  H73  1  0.61972000  0.53174000  0.41651000  1.0
  H  H74  1  0.64985000  0.15623000  0.79894000  1.0
  H  H75  1  0.35019000  0.65622000  0.20104000  1.0
  H  H76  1  0.64481000  0.99029000  0.88747000  1.0
  H  H77  1  0.35519000  0.49028000  0.11250000  1.0
  H  H78  1  0.58641000  0.19577000  0.56202000  1.0
  H  H79  1  0.41363000  0.69574000  0.43799000  1.0
  H  H80  1  0.41876000  0.22193000  0.59804000  1.0
  H  H81  1  0.58127000  0.72188000  0.40195000  1.0
  H  H82  1  0.76011000  0.31985000  0.60746000  1.0
  H  H83  1  0.23993000  0.81980000  0.39253000  1.0
  H  H84  1  0.58127000  0.47736000  0.84398000  1.0
  H  H85  1  0.41875000  0.97731000  0.15603000  1.0
  H  H86  1  0.40433000  0.32514000  0.78241000  1.0
  H  H87  1  0.59570000  0.82509000  0.21758000  1.0
  C  C88  1  0.04474000  0.47066000  0.56304000  1.0
  C  C89  1  0.95529000  0.97065000  0.43695000  1.0
  C  C90  1  0.06853000  0.44741000  0.45492000  1.0
  C  C91  1  0.93144000  0.94741000  0.54506000  1.0
  C  C92  1  0.93893000  0.45434000  0.39442000  1.0
  C  C93  1  0.06103000  0.95434000  0.60557000  1.0
  C  C94  1  0.96713000  0.39010000  0.30201000  1.0
  C  C95  1  0.03283000  0.89008000  0.69796000  1.0
  C  C96  1  0.08625000  0.31804000  0.32684000  1.0
  C  C97  1  0.91372000  0.81804000  0.67316000  1.0
  C  C98  1  0.11239000  0.33131000  0.43935000  1.0
  C  C99  1  0.88756000  0.83129000  0.56066000  1.0
  C  C100  1  0.06374000  0.20598000  0.29903000  1.0
  C  C101  1  0.93631000  0.70597000  0.70098000  1.0
  C  C102  1  0.17601000  0.52235000  0.41557000  1.0
  C  C103  1  0.82398000  0.02235000  0.58443000  1.0
  C  C104  1  0.02212000  0.25792000  0.49931000  1.0
  C  C105  1  0.97786000  0.75791000  0.50071000  1.0
  C  C106  1  0.25897000  0.31035000  0.46651000  1.0
  C  C107  1  0.74099000  0.81032000  0.53349000  1.0
  C  C108  1  0.06927000  0.32142000  0.79937000  1.0
  C  C109  1  0.93079000  0.82143000  0.20062000  1.0
  C  C110  1  0.08343000  0.20781000  0.82934000  1.0
  C  C111  1  0.91659000  0.70780000  0.17066000  1.0
  C  C112  1  0.95107000  0.14728000  0.81076000  1.0
  C  C113  1  0.04892000  0.64725000  0.18922000  1.0
  C  C114  1  0.92722000  0.07602000  0.89915000  1.0
  C  C115  1  0.07280000  0.57602000  0.10082000  1.0
  C  C116  1  0.05512000  0.08395000  0.96046000  1.0
  C  C117  1  0.94489000  0.58393000  0.03953000  1.0
  C  C118  1  0.10706000  0.19658000  0.94329000  1.0
  C  C119  1  0.89293000  0.69657000  0.05672000  1.0
  C  C120  1  0.03547000  0.05716000  0.06719000  1.0
  C  C121  1  0.96461000  0.55715000  0.93281000  1.0
  C  C122  1  0.19894000  0.16040000  0.76928000  1.0
  C  C123  1  0.80108000  0.66038000  0.23072000  1.0
  C  C124  1  0.25368000  0.20881000  0.97477000  1.0
  C  C125  1  0.74632000  0.70880000  0.02522000  1.0
  C  C126  1  0.02050000  0.27528000  0.00000000  1.0
  C  C127  1  0.97952000  0.77526000  0.00001000  1.0
  C  C128  1  0.41108000  0.60048000  0.69495000  1.0
  C  C129  1  0.58890000  0.10044000  0.30506000  1.0
  C  C130  1  0.50260000  0.67656000  0.71684000  1.0
  C  C131  1  0.49739000  0.17651000  0.28316000  1.0
  C  C132  1  0.32941000  0.68324000  0.82018000  1.0
  C  C133  1  0.67055000  0.18324000  0.17981000  1.0
  C  C134  1  0.50788000  0.81736000  0.84548000  1.0
  C  C135  1  0.49205000  0.31731000  0.15453000  1.0
  C  C136  1  0.50911000  0.91628000  0.78634000  1.0
  C  C137  1  0.49085000  0.41624000  0.21367000  1.0
  C  C138  1  0.43548000  0.92921000  0.70035000  1.0
  C  C139  1  0.56448000  0.42916000  0.29966000  1.0
  C  C140  1  0.43928000  0.02294000  0.65008000  1.0
  C  C141  1  0.56069000  0.52290000  0.34993000  1.0
  C  C142  1  0.51604000  0.10576000  0.68466000  1.0
  C  C143  1  0.48396000  0.60573000  0.31533000  1.0
  C  C144  1  0.58911000  0.09292000  0.77083000  1.0
  C  C145  1  0.41092000  0.59289000  0.22916000  1.0
  C  C146  1  0.58602000  0.99914000  0.82078000  1.0
  C  C147  1  0.41399000  0.49911000  0.17921000  1.0
  C  C148  1  0.51974000  0.20503000  0.62623000  1.0
  C  C149  1  0.48028000  0.70500000  0.37377000  1.0
  C  C150  1  0.68836000  0.34279000  0.66358000  1.0
  C  C151  1  0.31166000  0.84278000  0.33642000  1.0
  C  C152  1  0.59248000  0.42087000  0.78611000  1.0
  C  C153  1  0.40753000  0.92084000  0.21391000  1.0
  C  C154  1  0.50558000  0.34399000  0.75786000  1.0
  C  C155  1  0.49444000  0.84395000  0.24213000  1.0
  N  N156  1  0.30464000  0.60507000  0.76025000  1.0
  N  N157  1  0.69534000  0.10507000  0.23976000  1.0
  N  N158  1  0.44903000  0.72872000  0.79659000  1.0
  N  N159  1  0.55092000  0.22868000  0.20340000  1.0
  N  N160  1  0.56828000  0.29470000  0.67972000  1.0
  N  N161  1  0.43174000  0.79466000  0.32028000  1.0
  N  N162  1  0.70507000  0.41971000  0.72648000  1.0
  N  N163  1  0.29494000  0.91970000  0.27353000  1.0
  O  O164  1  0.14772000  0.48680000  0.61632000  1.0
  O  O165  1  0.85232000  0.98681000  0.38366000  1.0
  O  O166  1  0.92415000  0.47261000  0.59600000  1.0
  O  O167  1  0.07589000  0.97259000  0.40402000  1.0
  O  O168  1  0.16736000  0.14726000  0.29177000  1.0
  O  O169  1  0.83273000  0.64725000  0.70829000  1.0
  O  O170  1  0.94350000  0.17559000  0.28619000  1.0
  O  O171  1  0.05654000  0.67557000  0.71383000  1.0
  O  O172  1  0.17331000  0.37979000  0.79991000  1.0
  O  O173  1  0.82679000  0.87983000  0.20010000  1.0
  O  O174  1  0.95285000  0.35224000  0.77458000  1.0
  O  O175  1  0.04722000  0.85225000  0.22540000  1.0
  O  O176  1  0.13843000  0.03007000  0.11637000  1.0
  O  O177  1  0.86169000  0.53002000  0.88360000  1.0
  O  O178  1  0.91688000  0.06408000  0.10365000  1.0
  O  O179  1  0.08321000  0.56407000  0.89637000  1.0
