# generated using pymatgen
data_CdH8(C2O3)2
_symmetry_space_group_name_H-M   'P 1'
_cell_length_a   6.94847000
_cell_length_b   7.03447000
_cell_length_c   15.44910000
_cell_angle_alpha   90.00030000
_cell_angle_beta   90.00010000
_cell_angle_gamma   111.53800000
_symmetry_Int_Tables_number   1
_chemical_formula_structural   CdH8(C2O3)2
_chemical_formula_sum   'Cd4 H32 C16 O24'
_cell_volume   702.40579290
_cell_formula_units_Z   4
loop_
 _symmetry_equiv_pos_site_id
 _symmetry_equiv_pos_as_xyz
  1  'x, y, z'
loop_
 _atom_site_type_symbol
 _atom_site_label
 _atom_site_symmetry_multiplicity
 _atom_site_fract_x
 _atom_site_fract_y
 _atom_site_fract_z
 _atom_site_occupancy
  Cd  Cd0  1  0.91543000  0.51173000  0.20018000  1.0
  Cd  Cd1  1  0.41544000  0.01174000  0.29982000  1.0
  Cd  Cd2  1  0.08457000  0.48827000  0.79982000  1.0
  Cd  Cd3  1  0.58456000  0.98827000  0.70018000  1.0
  H  H4  1  0.70308000  0.73763000  0.30113000  1.0
  H  H5  1  0.20308000  0.23763000  0.19886000  1.0
  H  H6  1  0.29692000  0.26237000  0.69887000  1.0
  H  H7  1  0.79692000  0.76237000  0.80113000  1.0
  H  H8  1  0.57150000  0.50006000  0.31535000  1.0
  H  H9  1  0.07150000  0.00006000  0.18465000  1.0
  H  H10  1  0.42850000  0.49994000  0.68465000  1.0
  H  H11  1  0.92850000  0.99994000  0.81535000  1.0
  H  H12  1  0.22207000  0.46733000  0.07564000  1.0
  H  H13  1  0.72208000  0.96733000  0.42435000  1.0
  H  H14  1  0.77793000  0.53267000  0.92436000  1.0
  H  H15  1  0.27792000  0.03267000  0.57565000  1.0
  H  H16  1  0.33058000  0.60530000  0.15544000  1.0
  H  H17  1  0.83059000  0.10530000  0.34456000  1.0
  H  H18  1  0.66942000  0.39469000  0.84456000  1.0
  H  H19  1  0.16940000  0.89469000  0.65544000  1.0
  H  H20  1  0.29638000  0.40266000  0.55270000  1.0
  H  H21  1  0.79638000  0.90265000  0.94731000  1.0
  H  H22  1  0.70362000  0.59735000  0.44730000  1.0
  H  H23  1  0.20363000  0.09735000  0.05270000  1.0
  H  H24  1  0.06153000  0.27688000  0.49987000  1.0
  H  H25  1  0.56154000  0.77686000  0.00013000  1.0
  H  H26  1  0.93846000  0.72313000  0.50014000  1.0
  H  H27  1  0.43847000  0.22314000  0.99987000  1.0
  H  H28  1  0.41656000  0.64886000  0.42415000  1.0
  H  H29  1  0.91656000  0.14885000  0.07585000  1.0
  H  H30  1  0.58344000  0.35115000  0.57585000  1.0
  H  H31  1  0.08345000  0.85115000  0.92415000  1.0
  H  H32  1  0.21379000  0.67135000  0.48362000  1.0
  H  H33  1  0.71378000  0.17133000  0.01638000  1.0
  H  H34  1  0.78622000  0.32866000  0.51638000  1.0
  H  H35  1  0.28623000  0.82867000  0.98362000  1.0
  C  C36  1  0.31295000  0.22782000  0.44155000  1.0
  C  C37  1  0.81295000  0.72781000  0.05845000  1.0
  C  C38  1  0.68704000  0.77218000  0.55845000  1.0
  C  C39  1  0.18705000  0.27218000  0.94155000  1.0
  C  C40  1  0.12921000  0.54085000  0.35905000  1.0
  C  C41  1  0.62921000  0.04084000  0.14095000  1.0
  C  C42  1  0.87079000  0.45916000  0.64095000  1.0
  C  C43  1  0.37080000  0.95916000  0.85905000  1.0
  C  C44  1  0.22562000  0.36807000  0.48817000  1.0
  C  C45  1  0.72562000  0.86807000  0.01183000  1.0
  C  C46  1  0.77438000  0.63193000  0.51183000  1.0
  C  C47  1  0.27439000  0.13193000  0.98817000  1.0
  C  C48  1  0.25394000  0.56608000  0.44114000  1.0
  C  C49  1  0.75394000  0.06607000  0.05886000  1.0
  C  C50  1  0.74606000  0.43393000  0.55886000  1.0
  C  C51  1  0.24607000  0.93393000  0.94114000  1.0
  O  O52  1  0.17331000  0.69443000  0.30672000  1.0
  O  O53  1  0.67331000  0.19442000  0.19328000  1.0
  O  O54  1  0.82669000  0.30557000  0.69327000  1.0
  O  O55  1  0.32669000  0.80558000  0.80672000  1.0
  O  O56  1  0.66471000  0.60092000  0.27461000  1.0
  O  O57  1  0.16472000  0.10092000  0.22539000  1.0
  O  O58  1  0.33528000  0.39908000  0.72539000  1.0
  O  O59  1  0.83528000  0.89908000  0.77461000  1.0
  O  O60  1  0.41881000  0.29272000  0.37217000  1.0
  O  O61  1  0.91880000  0.79272000  0.12783000  1.0
  O  O62  1  0.58119000  0.70728000  0.62783000  1.0
  O  O63  1  0.08120000  0.20728000  0.87217000  1.0
  O  O64  1  0.27748000  0.04993000  0.47071000  1.0
  O  O65  1  0.77749000  0.54993000  0.02929000  1.0
  O  O66  1  0.72251000  0.95007000  0.52929000  1.0
  O  O67  1  0.22251000  0.45007000  0.97071000  1.0
  O  O68  1  0.21635000  0.47536000  0.14113000  1.0
  O  O69  1  0.71637000  0.97537000  0.35887000  1.0
  O  O70  1  0.78364000  0.52463000  0.85887000  1.0
  O  O71  1  0.28363000  0.02463000  0.64113000  1.0
  O  O72  1  0.98273000  0.37591000  0.34117000  1.0
  O  O73  1  0.48273000  0.87590000  0.15883000  1.0
  O  O74  1  0.01727000  0.62410000  0.65883000  1.0
  O  O75  1  0.51727000  0.12410000  0.84117000  1.0
