# generated using pymatgen
data_CdH18C18(N3Cl)2
_symmetry_space_group_name_H-M   'P 1'
_cell_length_a   9.81262000
_cell_length_b   10.39960000
_cell_length_c   11.36526402
_cell_angle_alpha   116.91423799
_cell_angle_beta   95.31825486
_cell_angle_gamma   96.01400000
_symmetry_Int_Tables_number   1
_chemical_formula_structural   CdH18C18(N3Cl)2
_chemical_formula_sum   'Cd2 H36 C36 N12 Cl4'
_cell_volume   1015.56086079
_cell_formula_units_Z   2
loop_
 _symmetry_equiv_pos_site_id
 _symmetry_equiv_pos_as_xyz
  1  'x, y, z'
loop_
 _atom_site_type_symbol
 _atom_site_label
 _atom_site_symmetry_multiplicity
 _atom_site_fract_x
 _atom_site_fract_y
 _atom_site_fract_z
 _atom_site_occupancy
  Cd  Cd0  1  0.00890000  0.89749000  0.31321000  1.0
  Cd  Cd1  1  0.99110000  0.10251000  0.68679000  1.0
  H  H2  1  0.33539000  0.07214000  0.13629000  1.0
  H  H3  1  0.66461000  0.92785000  0.86370000  1.0
  H  H4  1  0.57071000  0.50523000  0.36957000  1.0
  H  H5  1  0.42929000  0.49478000  0.63044000  1.0
  H  H6  1  0.76357000  0.12970000  0.30479000  1.0
  H  H7  1  0.23642000  0.87030000  0.69521000  1.0
  H  H8  1  0.57711000  0.86930000  0.06120000  1.0
  H  H9  1  0.42289000  0.13070000  0.93880000  1.0
  H  H10  1  0.61164000  0.89913000  0.22811000  1.0
  H  H11  1  0.38836000  0.10087000  0.77189000  1.0
  H  H12  1  0.36792000  0.93802000  0.34839000  1.0
  H  H13  1  0.63208000  0.06198000  0.65161000  1.0
  H  H14  1  0.08845000  0.67645000  0.99223000  1.0
  H  H15  1  0.91155000  0.32355000  0.00777000  1.0
  H  H16  1  0.34762000  0.73062000  0.92720000  1.0
  H  H17  1  0.65238000  0.26938000  0.07280000  1.0
  H  H18  1  0.22520000  0.30205000  0.25428000  1.0
  H  H19  1  0.77480000  0.69794000  0.74572000  1.0
  H  H20  1  0.32770000  0.47457000  0.29801000  1.0
  H  H21  1  0.67230000  0.52543000  0.70199000  1.0
  H  H22  1  0.11035000  0.14458000  0.01419000  1.0
  H  H23  1  0.88965000  0.85543000  0.98581000  1.0
  H  H24  1  0.26923000  0.39621000  0.83743000  1.0
  H  H25  1  0.73077000  0.60379000  0.16258000  1.0
  H  H26  1  0.40924000  0.51277000  0.09815000  1.0
  H  H27  1  0.59076000  0.48724000  0.90186000  1.0
  H  H28  1  0.79420000  0.50863000  0.52556000  1.0
  H  H29  1  0.20580000  0.49137000  0.47444000  1.0
  H  H30  1  0.88303000  0.35782000  0.45137000  1.0
  H  H31  1  0.11697000  0.64218000  0.54863000  1.0
  H  H32  1  0.84493000  0.72063000  0.47724000  1.0
  H  H33  1  0.15506000  0.27937000  0.52276000  1.0
  H  H34  1  0.09450000  0.55070000  0.17731000  1.0
  H  H35  1  0.90550000  0.44929000  0.82269000  1.0
  H  H36  1  0.98363000  0.32590000  0.23273000  1.0
  H  H37  1  0.01637000  0.67411000  0.76727000  1.0
  C  C38  1  0.54955000  0.08263000  0.21106000  1.0
  C  C39  1  0.45045000  0.91737000  0.78894000  1.0
  C  C40  1  0.43430000  0.14278000  0.19114000  1.0
  C  C41  1  0.56570000  0.85722000  0.80886000  1.0
  C  C42  1  0.44167000  0.29480000  0.24698000  1.0
  C  C43  1  0.55833000  0.70521000  0.75303000  1.0
  C  C44  1  0.56556000  0.38657000  0.32310000  1.0
  C  C45  1  0.43444000  0.61344000  0.67691000  1.0
  C  C46  1  0.68187000  0.32707000  0.34324000  1.0
  C  C47  1  0.31813000  0.67294000  0.65677000  1.0
  C  C48  1  0.67358000  0.17556000  0.28665000  1.0
  C  C49  1  0.32642000  0.82444000  0.71335000  1.0
  C  C50  1  0.54227000  0.91946000  0.15890000  1.0
  C  C51  1  0.45773000  0.08054000  0.84110000  1.0
  C  C52  1  0.32632000  0.87063000  0.24314000  1.0
  C  C53  1  0.67368000  0.12937000  0.75686000  1.0
  C  C54  1  0.18506000  0.73862000  0.05692000  1.0
  C  C55  1  0.81494000  0.26138000  0.94308000  1.0
  C  C56  1  0.31237000  0.76345000  0.02277000  1.0
  C  C57  1  0.68763000  0.23655000  0.97723000  1.0
  C  C58  1  0.31292000  0.35651000  0.23059000  1.0
  C  C59  1  0.68708000  0.64349000  0.76941000  1.0
  C  C60  1  0.17177000  0.22748000  0.99894000  1.0
  C  C61  1  0.82823000  0.77252000  0.00106000  1.0
  C  C62  1  0.25801000  0.36015000  0.91234000  1.0
  C  C63  1  0.74198000  0.63985000  0.08766000  1.0
  C  C64  1  0.32837000  0.41885000  0.04052000  1.0
  C  C65  1  0.67163000  0.58115000  0.95948000  1.0
  C  C66  1  0.81463000  0.42419000  0.43014000  1.0
  C  C67  1  0.18537000  0.57582000  0.56986000  1.0
  C  C68  1  0.89579000  0.64423000  0.40028000  1.0
  C  C69  1  0.10421000  0.35577000  0.59972000  1.0
  C  C70  1  0.02517000  0.55144000  0.24656000  1.0
  C  C71  1  0.97483000  0.44857000  0.75344000  1.0
  C  C72  1  0.97153000  0.43995000  0.27122000  1.0
  C  C73  1  0.02847000  0.56005000  0.72878000  1.0
  N  N74  1  0.40139000  0.84656000  0.14227000  1.0
  N  N75  1  0.59862000  0.15344000  0.85773000  1.0
  N  N76  1  0.19511000  0.80598000  0.19412000  1.0
  N  N77  1  0.80489000  0.19402000  0.80588000  1.0
  N  N78  1  0.27204000  0.33407000  0.09458000  1.0
  N  N79  1  0.72796000  0.66593000  0.90542000  1.0
  N  N80  1  0.16101000  0.24134000  0.88775000  1.0
  N  N81  1  0.83899000  0.75865000  0.11224000  1.0
  N  N82  1  0.89029000  0.50084000  0.36923000  1.0
  N  N83  1  0.10971000  0.49916000  0.63077000  1.0
  N  N84  1  0.97711000  0.67745000  0.32737000  1.0
  N  N85  1  0.02289000  0.32255000  0.67263000  1.0
  Cl  Cl86  1  0.80508000  0.97576000  0.45779000  1.0
  Cl  Cl87  1  0.19492000  0.02424000  0.54221000  1.0
  Cl  Cl88  1  0.04469000  0.10951000  0.25169000  1.0
  Cl  Cl89  1  0.95531000  0.89048000  0.74830000  1.0
