# generated using pymatgen
data_NaAgH8C14S2(NO3)2
_symmetry_space_group_name_H-M   'P 1'
_cell_length_a   8.15313000
_cell_length_b   8.88590000
_cell_length_c   11.17980000
_cell_angle_alpha   100.19300000
_cell_angle_beta   99.38580000
_cell_angle_gamma   91.76900000
_symmetry_Int_Tables_number   1
_chemical_formula_structural   NaAgH8C14S2(NO3)2
_chemical_formula_sum   'Na2 Ag2 H16 C28 S4 N4 O12'
_cell_volume   785.00838697
_cell_formula_units_Z   2
loop_
 _symmetry_equiv_pos_site_id
 _symmetry_equiv_pos_as_xyz
  1  'x, y, z'
loop_
 _atom_site_type_symbol
 _atom_site_label
 _atom_site_symmetry_multiplicity
 _atom_site_fract_x
 _atom_site_fract_y
 _atom_site_fract_z
 _atom_site_occupancy
  Na  Na0  1  0.26588000  0.70672000  0.09799000  1.0
  Na  Na1  1  0.73411000  0.29328000  0.90201000  1.0
  Ag  Ag2  1  0.27427000  0.29927000  0.02016000  1.0
  Ag  Ag3  1  0.72574000  0.70074000  0.97984000  1.0
  H  H4  1  0.52969000  0.88894000  0.44119000  1.0
  H  H5  1  0.47030000  0.11105000  0.55881000  1.0
  H  H6  1  0.82044000  0.81787000  0.45847000  1.0
  H  H7  1  0.17956000  0.18212000  0.54154000  1.0
  H  H8  1  0.00050000  0.88466000  0.31090000  1.0
  H  H9  1  0.99950000  0.11533000  0.68910000  1.0
  H  H10  1  0.88882000  0.03158000  0.14882000  1.0
  H  H11  1  0.11117000  0.96842000  0.85118000  1.0
  H  H12  1  0.91963000  0.68972000  0.62480000  1.0
  H  H13  1  0.08036000  0.31027000  0.37520000  1.0
  H  H14  1  0.07283000  0.74768000  0.45851000  1.0
  H  H15  1  0.92717000  0.25232000  0.54149000  1.0
  H  H16  1  0.35903000  0.67339000  0.45374000  1.0
  H  H17  1  0.64097000  0.32662000  0.54627000  1.0
  H  H18  1  0.50729000  0.54008000  0.61669000  1.0
  H  H19  1  0.49272000  0.45995000  0.38331000  1.0
  C  C20  1  0.54913000  0.00479000  0.28754000  1.0
  C  C21  1  0.45087000  0.99520000  0.71246000  1.0
  C  C22  1  0.60697000  0.92190000  0.37827000  1.0
  C  C23  1  0.39302000  0.07808000  0.62173000  1.0
  C  C24  1  0.77223000  0.88061000  0.38635000  1.0
  C  C25  1  0.22777000  0.11937000  0.61365000  1.0
  C  C26  1  0.87279000  0.91876000  0.30464000  1.0
  C  C27  1  0.12721000  0.08123000  0.69536000  1.0
  C  C28  1  0.81106000  0.00005000  0.21224000  1.0
  C  C29  1  0.18894000  0.99993000  0.78777000  1.0
  C  C30  1  0.64769000  0.04357000  0.20530000  1.0
  C  C31  1  0.35230000  0.95642000  0.79470000  1.0
  C  C32  1  0.55681000  0.13371000  0.11836000  1.0
  C  C33  1  0.44319000  0.86628000  0.88164000  1.0
  C  C34  1  0.12965000  0.57674000  0.70661000  1.0
  C  C35  1  0.87035000  0.42326000  0.29339000  1.0
  C  C36  1  0.04601000  0.65525000  0.62091000  1.0
  C  C37  1  0.95400000  0.34475000  0.37908000  1.0
  C  C38  1  0.13273000  0.68833000  0.52943000  1.0
  C  C39  1  0.86727000  0.31168000  0.47057000  1.0
  C  C40  1  0.29585000  0.64570000  0.52653000  1.0
  C  C41  1  0.70415000  0.35432000  0.47347000  1.0
  C  C42  1  0.37845000  0.56894000  0.61543000  1.0
  C  C43  1  0.62156000  0.43107000  0.38457000  1.0
  C  C44  1  0.29277000  0.53378000  0.70572000  1.0
  C  C45  1  0.70724000  0.46623000  0.29428000  1.0
  C  C46  1  0.35491000  0.45379000  0.80948000  1.0
  C  C47  1  0.64509000  0.54621000  0.19052000  1.0
  S  S48  1  0.35064000  0.07837000  0.25074000  1.0
  S  S49  1  0.64936000  0.92163000  0.74926000  1.0
  S  S50  1  0.06134000  0.51410000  0.83282000  1.0
  S  S51  1  0.93866000  0.48590000  0.16718000  1.0
  N  N52  1  0.39774000  0.15930000  0.13869000  1.0
  N  N53  1  0.60228000  0.84070000  0.86131000  1.0
  N  N54  1  0.23525000  0.43782000  0.88103000  1.0
  N  N55  1  0.76476000  0.56218000  0.11896000  1.0
  O  O56  1  0.31312000  0.19182000  0.35159000  1.0
  O  O57  1  0.68688000  0.80819000  0.64841000  1.0
  O  O58  1  0.22473000  0.95201000  0.20488000  1.0
  O  O59  1  0.77524000  0.04801000  0.79512000  1.0
  O  O60  1  0.61781000  0.18243000  0.03682000  1.0
  O  O61  1  0.38219000  0.81755000  0.96319000  1.0
  O  O62  1  0.92199000  0.40028000  0.79091000  1.0
  O  O63  1  0.07801000  0.59973000  0.20909000  1.0
  O  O64  1  0.03214000  0.64334000  0.92630000  1.0
  O  O65  1  0.96786000  0.35667000  0.07369000  1.0
  O  O66  1  0.49736000  0.40775000  0.82848000  1.0
  O  O67  1  0.50264000  0.59224000  0.17151000  1.0
