# generated using pymatgen
data_ErH22(C3O)11
_symmetry_space_group_name_H-M   'P 1'
_cell_length_a   9.86663000
_cell_length_b   10.17990000
_cell_length_c   15.45520000
_cell_angle_alpha   96.63150000
_cell_angle_beta   97.19200000
_cell_angle_gamma   113.59300000
_symmetry_Int_Tables_number   1
_chemical_formula_structural   ErH22(C3O)11
_chemical_formula_sum   'Er2 H44 C66 O22'
_cell_volume   1387.78459070
_cell_formula_units_Z   2
loop_
 _symmetry_equiv_pos_site_id
 _symmetry_equiv_pos_as_xyz
  1  'x, y, z'
loop_
 _atom_site_type_symbol
 _atom_site_label
 _atom_site_symmetry_multiplicity
 _atom_site_fract_x
 _atom_site_fract_y
 _atom_site_fract_z
 _atom_site_occupancy
  Er  Er0  1  0.43651000  0.63625000  0.58972000  1.0
  Er  Er1  1  0.56350000  0.36376000  0.41028000  1.0
  H  H2  1  0.51877000  0.13717000  0.58771000  1.0
  H  H3  1  0.48123000  0.86284000  0.41228000  1.0
  H  H4  1  0.74878000  0.31275000  0.90654000  1.0
  H  H5  1  0.25121000  0.68724000  0.09346000  1.0
  H  H6  1  0.82150000  0.82035000  0.86724000  1.0
  H  H7  1  0.17849000  0.17965000  0.13276000  1.0
  H  H8  1  0.99609000  0.01388000  0.80168000  1.0
  H  H9  1  0.00391000  0.98612000  0.19832000  1.0
  H  H10  1  0.12950000  0.95060000  0.68710000  1.0
  H  H11  1  0.87051000  0.04939000  0.31291000  1.0
  H  H12  1  0.08470000  0.69238000  0.63995000  1.0
  H  H13  1  0.91531000  0.30761000  0.36006000  1.0
  H  H14  1  0.90421000  0.49820000  0.70165000  1.0
  H  H15  1  0.09579000  0.50180000  0.29836000  1.0
  H  H16  1  0.65073000  0.79977000  0.93738000  1.0
  H  H17  1  0.34926000  0.20023000  0.06261000  1.0
  H  H18  1  0.42595000  0.60828000  0.97718000  1.0
  H  H19  1  0.57404000  0.39171000  0.02282000  1.0
  H  H20  1  0.17834000  0.62153000  0.94931000  1.0
  H  H21  1  0.82165000  0.37847000  0.05070000  1.0
  H  H22  1  0.15575000  0.82716000  0.88673000  1.0
  H  H23  1  0.84425000  0.17284000  0.11328000  1.0
  H  H24  1  0.37648000  0.01202000  0.84262000  1.0
  H  H25  1  0.62351000  0.98798000  0.15738000  1.0
  H  H26  1  0.82122000  0.97957000  0.60238000  1.0
  H  H27  1  0.17878000  0.02044000  0.39762000  1.0
  H  H28  1  0.06035000  0.67164000  0.23055000  1.0
  H  H29  1  0.93965000  0.32835000  0.76946000  1.0
  H  H30  1  0.94328000  0.65102000  0.07365000  1.0
  H  H31  1  0.05672000  0.34897000  0.92635000  1.0
  H  H32  1  0.70888000  0.68352000  0.04153000  1.0
  H  H33  1  0.29112000  0.31649000  0.95847000  1.0
  H  H34  1  0.59305000  0.74680000  0.16551000  1.0
  H  H35  1  0.40696000  0.25321000  0.83449000  1.0
  H  H36  1  0.71761000  0.78207000  0.32168000  1.0
  H  H37  1  0.28240000  0.21794000  0.67833000  1.0
  H  H38  1  0.12912000  0.50242000  0.51272000  1.0
  H  H39  1  0.87088000  0.49759000  0.48729000  1.0
  H  H40  1  0.15733000  0.65586000  0.48858000  1.0
  H  H41  1  0.84268000  0.34414000  0.51142000  1.0
  H  H42  1  0.38619000  0.66149000  0.77126000  1.0
  H  H43  1  0.61383000  0.33851000  0.22874000  1.0
  H  H44  1  0.24295000  0.51947000  0.72619000  1.0
  H  H45  1  0.75707000  0.48053000  0.27381000  1.0
  C  C46  1  0.53293000  0.92178000  0.66788000  1.0
  C  C47  1  0.46708000  0.07822000  0.33211000  1.0
  C  C48  1  0.58202000  0.42081000  0.63846000  1.0
  C  C49  1  0.41797000  0.57919000  0.36154000  1.0
  C  C50  1  0.58046000  0.07695000  0.71039000  1.0
  C  C51  1  0.41953000  0.92305000  0.28960000  1.0
  C  C52  1  0.56728000  0.17621000  0.65817000  1.0
  C  C53  1  0.43272000  0.82379000  0.34183000  1.0
  C  C54  1  0.61490000  0.32316000  0.69491000  1.0
  C  C55  1  0.38510000  0.67684000  0.30509000  1.0
  C  C56  1  0.68301000  0.37383000  0.78510000  1.0
  C  C57  1  0.31698000  0.62616000  0.21490000  1.0
  C  C58  1  0.69663000  0.27417000  0.83677000  1.0
  C  C59  1  0.30336000  0.72582000  0.16322000  1.0
  C  C60  1  0.64423000  0.12611000  0.80130000  1.0
  C  C61  1  0.35576000  0.87389000  0.19869000  1.0
  C  C62  1  0.74298000  0.53114000  0.82960000  1.0
  C  C63  1  0.25701000  0.46886000  0.17039000  1.0
  C  C64  1  0.84892000  0.64543000  0.78892000  1.0
  C  C65  1  0.15108000  0.35457000  0.21108000  1.0
  C  C66  1  0.87785000  0.79203000  0.81695000  1.0
  C  C67  1  0.12214000  0.20797000  0.18305000  1.0
  C  C68  1  0.97668000  0.90114000  0.77973000  1.0
  C  C69  1  0.02332000  0.09885000  0.22027000  1.0
  C  C70  1  0.05042000  0.86526000  0.71554000  1.0
  C  C71  1  0.94959000  0.13473000  0.28447000  1.0
  C  C72  1  0.02449000  0.72036000  0.68815000  1.0
  C  C73  1  0.97552000  0.27964000  0.31186000  1.0
  C  C74  1  0.92309000  0.61067000  0.72398000  1.0
  C  C75  1  0.07691000  0.38933000  0.27602000  1.0
  C  C76  1  0.66411000  0.02874000  0.86379000  1.0
  C  C77  1  0.33588000  0.97126000  0.13620000  1.0
  C  C78  1  0.52803000  0.91736000  0.88706000  1.0
  C  C79  1  0.47195000  0.08264000  0.11293000  1.0
  C  C80  1  0.54159000  0.80407000  0.92618000  1.0
  C  C81  1  0.45840000  0.19592000  0.07382000  1.0
  C  C82  1  0.41633000  0.69760000  0.94821000  1.0
  C  C83  1  0.58367000  0.30240000  0.05179000  1.0
  C  C84  1  0.27711000  0.70579000  0.93322000  1.0
  C  C85  1  0.72289000  0.29421000  0.06678000  1.0
  C  C86  1  0.26352000  0.82004000  0.89692000  1.0
  C  C87  1  0.73647000  0.17996000  0.10308000  1.0
  C  C88  1  0.38824000  0.92455000  0.87269000  1.0
  C  C89  1  0.61175000  0.07545000  0.12731000  1.0
  C  C90  1  0.75496000  0.72321000  0.50385000  1.0
  C  C91  1  0.24506000  0.27680000  0.49614000  1.0
  C  C92  1  0.88234000  0.86508000  0.50076000  1.0
  C  C93  1  0.11767000  0.13493000  0.49924000  1.0
  C  C94  1  0.89990000  0.99071000  0.55717000  1.0
  C  C95  1  0.10011000  0.00929000  0.44283000  1.0
  C  C96  1  0.98357000  0.87441000  0.44302000  1.0
  C  C97  1  0.01643000  0.12560000  0.55698000  1.0
  C  C98  1  0.97754000  0.74989000  0.37766000  1.0
  C  C99  1  0.02247000  0.25012000  0.62234000  1.0
  C  C100  1  0.89592000  0.72662000  0.28587000  1.0
  C  C101  1  0.10408000  0.27338000  0.71414000  1.0
  C  C102  1  0.95745000  0.68668000  0.21541000  1.0
  C  C103  1  0.04255000  0.31331000  0.78460000  1.0
  C  C104  1  0.89134000  0.67425000  0.12813000  1.0
  C  C105  1  0.10865000  0.32574000  0.87187000  1.0
  C  C106  1  0.76015000  0.69567000  0.11023000  1.0
  C  C107  1  0.23985000  0.30432000  0.88977000  1.0
  C  C108  1  0.69673000  0.73260000  0.17988000  1.0
  C  C109  1  0.30327000  0.26740000  0.82012000  1.0
  C  C110  1  0.76581000  0.75147000  0.26742000  1.0
  C  C111  1  0.23419000  0.24854000  0.73259000  1.0
  O  O112  1  0.57522000  0.84008000  0.71033000  1.0
  O  O113  1  0.42478000  0.15992000  0.28966000  1.0
  O  O114  1  0.45259000  0.87335000  0.58974000  1.0
  O  O115  1  0.54741000  0.12665000  0.41026000  1.0
  O  O116  1  0.58813000  0.39815000  0.55694000  1.0
  O  O117  1  0.41187000  0.60186000  0.44305000  1.0
  O  O118  1  0.54398000  0.51596000  0.67465000  1.0
  O  O119  1  0.45602000  0.48405000  0.32535000  1.0
  O  O120  1  0.70793000  0.55909000  0.90141000  1.0
  O  O121  1  0.29206000  0.44091000  0.09858000  1.0
  O  O122  1  0.79266000  0.05189000  0.89907000  1.0
  O  O123  1  0.20733000  0.94810000  0.10092000  1.0
  O  O124  1  0.67290000  0.72451000  0.56005000  1.0
  O  O125  1  0.32710000  0.27550000  0.43994000  1.0
  O  O126  1  0.73914000  0.61234000  0.44838000  1.0
  O  O127  1  0.26089000  0.38767000  0.55162000  1.0
  O  O128  1  0.05878000  0.68625000  0.39546000  1.0
  O  O129  1  0.94122000  0.31375000  0.60454000  1.0
  O  O130  1  0.18174000  0.60681000  0.53611000  1.0
  O  O131  1  0.81828000  0.39320000  0.46389000  1.0
  O  O132  1  0.31500000  0.61227000  0.71545000  1.0
  O  O133  1  0.68502000  0.38773000  0.28456000  1.0
