# generated using pymatgen
data_ZnH14C26I6NO6
_symmetry_space_group_name_H-M   'P 1'
_cell_length_a   14.21010000
_cell_length_b   14.26530000
_cell_length_c   15.19850000
_cell_angle_alpha   90.93680000
_cell_angle_beta   91.20680000
_cell_angle_gamma   90.46410000
_symmetry_Int_Tables_number   1
_chemical_formula_structural   ZnH14C26I6NO6
_chemical_formula_sum   'Zn2 H28 C52 I12 N2 O12'
_cell_volume   3079.70332507
_cell_formula_units_Z   2
loop_
 _symmetry_equiv_pos_site_id
 _symmetry_equiv_pos_as_xyz
  1  'x, y, z'
loop_
 _atom_site_type_symbol
 _atom_site_label
 _atom_site_symmetry_multiplicity
 _atom_site_fract_x
 _atom_site_fract_y
 _atom_site_fract_z
 _atom_site_occupancy
  Zn  Zn0  1  0.48974000  0.61330000  0.51519000  1.0
  Zn  Zn1  1  0.47818000  0.38564000  0.51488000  1.0
  H  H2  1  0.51380000  0.81111000  0.23743000  1.0
  H  H3  1  0.88740000  0.23511000  0.61753000  1.0
  H  H4  1  0.94835000  0.13080000  0.59159000  1.0
  H  H5  1  0.98789000  0.19445000  0.44238000  1.0
  H  H6  1  0.02860000  0.27253000  0.52736000  1.0
  H  H7  1  0.92464000  0.29853000  0.46658000  1.0
  H  H8  1  0.82361000  0.88262000  0.46552000  1.0
  H  H9  1  0.76284000  0.78232000  0.50626000  1.0
  H  H10  1  0.93862000  0.87007000  0.59518000  1.0
  H  H11  1  0.88261000  0.76394000  0.62391000  1.0
  H  H12  1  0.92097000  0.69504000  0.47279000  1.0
  H  H13  1  0.53690000  0.91589000  0.17815000  1.0
  H  H14  1  0.02393000  0.72892000  0.53314000  1.0
  H  H15  1  0.98054000  0.80105000  0.44769000  1.0
  H  H16  1  0.51410000  0.12655000  0.20052000  1.0
  H  H17  1  0.47548000  0.22422000  0.26568000  1.0
  H  H18  1  0.34188000  0.25011000  0.16530000  1.0
  H  H19  1  0.36080000  0.14222000  0.10958000  1.0
  H  H20  1  0.50220000  0.30826000  0.11197000  1.0
  H  H21  1  0.42208000  0.28133000  0.02400000  1.0
  H  H22  1  0.51326000  0.20189000  0.05116000  1.0
  H  H23  1  0.37370000  0.77870000  0.13755000  1.0
  H  H24  1  0.40359000  0.87703000  0.07431000  1.0
  H  H25  1  0.56036000  0.80200000  0.03863000  1.0
  H  H26  1  0.46507000  0.72677000  0.00693000  1.0
  H  H27  1  0.53095000  0.70488000  0.10471000  1.0
  H  H28  1  0.77207000  0.20379000  0.49615000  1.0
  H  H29  1  0.83480000  0.10083000  0.46397000  1.0
  C  C30  1  0.48156000  0.47702000  0.34817000  1.0
  C  C31  1  0.64511000  0.45544000  0.97301000  1.0
  C  C32  1  0.57652000  0.81023000  0.53096000  1.0
  C  C33  1  0.45462000  0.18833000  0.44348000  1.0
  C  C34  1  0.46825000  0.80695000  0.41270000  1.0
  C  C35  1  0.58386000  0.19248000  0.54168000  1.0
  C  C36  1  0.48637000  0.90215000  0.39323000  1.0
  C  C37  1  0.60975000  0.09977000  0.51861000  1.0
  C  C38  1  0.60682000  0.90211000  0.51284000  1.0
  C  C39  1  0.47797000  0.09923000  0.40960000  1.0
  C  C40  1  0.55056000  0.95136000  0.45095000  1.0
  C  C41  1  0.47222000  0.47728000  0.68246000  1.0
  C  C42  1  0.54966000  0.05116000  0.45674000  1.0
  C  C43  1  0.44370000  0.95639000  0.32285000  1.0
  C  C44  1  0.68982000  0.04819000  0.55310000  1.0
  C  C45  1  0.68670000  0.95122000  0.55273000  1.0
  C  C46  1  0.43565000  0.05250000  0.33342000  1.0
  C  C47  1  0.66145000  0.50625000  0.51529000  1.0
  C  C48  1  0.31008000  0.53485000  0.52071000  1.0
  C  C49  1  0.76265000  0.49994000  0.51964000  1.0
  C  C50  1  0.20883000  0.53221000  0.52671000  1.0
  C  C51  1  0.84893000  0.49913000  0.52451000  1.0
  C  C52  1  0.47409000  0.48500000  0.96891000  1.0
  C  C53  1  0.12309000  0.52138000  0.52841000  1.0
  C  C54  1  0.94304000  0.50258000  0.52792000  1.0
  C  C55  1  0.02953000  0.51067000  0.52918000  1.0
  C  C56  1  0.55670000  0.47448000  0.82935000  1.0
  C  C57  1  0.39650000  0.50306000  0.20326000  1.0
  C  C58  1  0.47116000  0.47660000  0.78268000  1.0
  C  C59  1  0.48109000  0.48666000  0.24884000  1.0
  C  C60  1  0.38589000  0.47948000  0.82766000  1.0
  C  C61  1  0.56584000  0.48249000  0.20373000  1.0
  C  C62  1  0.38421000  0.48517000  0.92130000  1.0
  C  C63  1  0.47871000  0.49608000  0.06314000  1.0
  C  C64  1  0.56776000  0.49154000  0.11085000  1.0
  C  C65  1  0.48139000  0.86553000  0.19623000  1.0
  C  C66  1  0.43326000  0.82153000  0.11572000  1.0
  C  C67  1  0.50130000  0.76066000  0.06367000  1.0
  C  C68  1  0.81824000  0.14746000  0.52021000  1.0
  C  C69  1  0.90710000  0.18812000  0.56292000  1.0
  C  C70  1  0.96522000  0.24124000  0.49603000  1.0
  C  C71  1  0.80897000  0.84221000  0.52515000  1.0
  C  C72  1  0.89961000  0.80884000  0.56810000  1.0
  C  C73  1  0.95945000  0.75557000  0.50175000  1.0
  C  C74  1  0.55975000  0.46831000  0.92229000  1.0
  C  C75  1  0.45173000  0.16599000  0.22171000  1.0
  C  C76  1  0.39686000  0.20196000  0.14274000  1.0
  C  C77  1  0.46216000  0.25108000  0.07903000  1.0
  C  C78  1  0.39403000  0.51363000  0.11071000  1.0
  C  C79  1  0.30149000  0.50039000  0.97319000  1.0
  C  C80  1  0.65162000  0.48474000  0.05980000  1.0
  C  C81  1  0.31028000  0.53203000  0.05940000  1.0
  I  I82  1  0.67803000  0.51260000  0.75866000  1.0
  I  I83  1  0.31862000  0.24010000  0.42049000  1.0
  I  I84  1  0.35731000  0.73430000  0.34734000  1.0
  I  I85  1  0.64742000  0.25997000  0.65200000  1.0
  I  I86  1  0.27378000  0.47946000  0.27665000  1.0
  I  I87  1  0.26964000  0.50175000  0.74127000  1.0
  I  I88  1  0.68048000  0.43125000  0.28001000  1.0
  I  I89  1  0.16277000  0.45677000  0.93626000  1.0
  I  I90  1  0.78347000  0.54030000  0.10325000  1.0
  I  I91  1  0.20892000  0.62810000  0.10570000  1.0
  I  I92  1  0.75411000  0.36762000  0.92738000  1.0
  I  I93  1  0.61178000  0.75235000  0.65347000  1.0
  N  N94  1  0.50996000  0.76419000  0.48213000  1.0
  N  N95  1  0.50725000  0.23405000  0.50559000  1.0
  O  O96  1  0.48823000  0.55457000  0.38906000  1.0
  O  O97  1  0.76925000  0.09206000  0.58486000  1.0
  O  O98  1  0.76143000  0.90395000  0.58709000  1.0
  O  O99  1  0.39119000  0.10187000  0.26904000  1.0
  O  O100  1  0.46414000  0.39622000  0.64645000  1.0
  O  O101  1  0.48451000  0.55498000  0.64610000  1.0
  O  O102  1  0.47649000  0.39533000  0.37969000  1.0
  O  O103  1  0.62981000  0.58947000  0.51259000  1.0
  O  O104  1  0.34784000  0.45596000  0.50834000  1.0
  O  O105  1  0.34961000  0.61537000  0.52699000  1.0
  O  O106  1  0.61604000  0.42954000  0.51498000  1.0
  O  O107  1  0.41112000  0.91625000  0.24622000  1.0
