# generated using pymatgen
data_InPH6C6NO5
_symmetry_space_group_name_H-M   'P 1'
_cell_length_a   9.06332000
_cell_length_b   9.14939000
_cell_length_c   11.94870000
_cell_angle_alpha   98.03370000
_cell_angle_beta   89.99980000
_cell_angle_gamma   89.99930000
_symmetry_Int_Tables_number   1
_chemical_formula_structural   InPH6C6NO5
_chemical_formula_sum   'In4 P4 H24 C24 N4 O20'
_cell_volume   981.10821056
_cell_formula_units_Z   4
loop_
 _symmetry_equiv_pos_site_id
 _symmetry_equiv_pos_as_xyz
  1  'x, y, z'
loop_
 _atom_site_type_symbol
 _atom_site_label
 _atom_site_symmetry_multiplicity
 _atom_site_fract_x
 _atom_site_fract_y
 _atom_site_fract_z
 _atom_site_occupancy
  In  In0  1  0.77342000  0.11411000  0.60673000  1.0
  In  In1  1  0.27341000  0.88588000  0.89328000  1.0
  In  In2  1  0.22660000  0.88587000  0.39328000  1.0
  In  In3  1  0.72660000  0.11408000  0.10671000  1.0
  P  P4  1  0.59197000  0.04389000  0.84179000  1.0
  P  P5  1  0.09198000  0.95611000  0.65820000  1.0
  P  P6  1  0.40802000  0.95611000  0.15821000  1.0
  P  P7  1  0.90802000  0.04388000  0.34179000  1.0
  H  H8  1  0.68336000  0.91819000  0.83772000  1.0
  H  H9  1  0.18335000  0.08181000  0.66227000  1.0
  H  H10  1  0.31663000  0.08181000  0.16228000  1.0
  H  H11  1  0.81665000  0.91819000  0.33773000  1.0
  H  H12  1  0.80169000  0.41172000  0.50439000  1.0
  H  H13  1  0.30169000  0.58830000  0.99561000  1.0
  H  H14  1  0.19830000  0.58828000  0.49560000  1.0
  H  H15  1  0.69830000  0.41172000  0.00440000  1.0
  H  H16  1  0.87805000  0.30626000  0.82581000  1.0
  H  H17  1  0.37806000  0.69375000  0.67419000  1.0
  H  H18  1  0.12196000  0.69373000  0.17419000  1.0
  H  H19  1  0.62195000  0.30626000  0.32581000  1.0
  H  H20  1  0.92378000  0.57313000  0.90391000  1.0
  H  H21  1  0.42379000  0.42687000  0.59610000  1.0
  H  H22  1  0.07622000  0.42686000  0.09609000  1.0
  H  H23  1  0.57622000  0.57314000  0.40391000  1.0
  H  H24  1  0.89600000  0.76416000  0.77385000  1.0
  H  H25  1  0.39599000  0.23585000  0.72617000  1.0
  H  H26  1  0.10400000  0.23584000  0.22616000  1.0
  H  H27  1  0.60401000  0.76416000  0.27384000  1.0
  H  H28  1  0.83413000  0.68389000  0.57099000  1.0
  H  H29  1  0.33413000  0.31613000  0.92901000  1.0
  H  H30  1  0.16586000  0.31611000  0.42901000  1.0
  H  H31  1  0.66586000  0.68389000  0.07099000  1.0
  C  C32  1  0.52366000  0.91995000  0.50858000  1.0
  C  C33  1  0.02365000  0.08005000  0.99142000  1.0
  C  C34  1  0.47635000  0.08006000  0.49141000  1.0
  C  C35  1  0.97635000  0.91994000  0.00859000  1.0
  C  C36  1  0.82590000  0.45377000  0.59240000  1.0
  C  C37  1  0.32590000  0.54625000  0.90760000  1.0
  C  C38  1  0.17411000  0.54622000  0.40760000  1.0
  C  C39  1  0.67410000  0.45377000  0.09240000  1.0
  C  C40  1  0.87078000  0.39395000  0.77283000  1.0
  C  C41  1  0.37079000  0.60605000  0.72716000  1.0
  C  C42  1  0.12921000  0.60604000  0.22717000  1.0
  C  C43  1  0.62921000  0.39396000  0.27283000  1.0
  C  C44  1  0.89407000  0.54145000  0.81547000  1.0
  C  C45  1  0.39407000  0.45856000  0.68453000  1.0
  C  C46  1  0.10593000  0.45854000  0.18453000  1.0
  C  C47  1  0.60592000  0.54145000  0.31547000  1.0
  C  C48  1  0.87894000  0.64783000  0.74315000  1.0
  C  C49  1  0.37895000  0.35218000  0.75685000  1.0
  C  C50  1  0.12105000  0.35217000  0.25685000  1.0
  C  C51  1  0.62106000  0.64783000  0.24315000  1.0
  C  C52  1  0.84534000  0.60337000  0.62949000  1.0
  C  C53  1  0.34534000  0.39665000  0.87052000  1.0
  C  C54  1  0.15466000  0.39662000  0.37052000  1.0
  C  C55  1  0.65466000  0.60338000  0.12949000  1.0
  N  N56  1  0.83638000  0.35181000  0.66324000  1.0
  N  N57  1  0.33639000  0.64820000  0.83676000  1.0
  N  N58  1  0.16362000  0.64819000  0.33677000  1.0
  N  N59  1  0.66361000  0.35181000  0.16323000  1.0
  O  O60  1  0.65164000  0.14312000  0.75945000  1.0
  O  O61  1  0.15164000  0.85688000  0.74054000  1.0
  O  O62  1  0.34837000  0.85687000  0.24054000  1.0
  O  O63  1  0.84836000  0.14312000  0.25945000  1.0
  O  O64  1  0.43636000  0.98958000  0.80479000  1.0
  O  O65  1  0.93636000  0.01042000  0.69521000  1.0
  O  O66  1  0.56363000  0.01043000  0.19522000  1.0
  O  O67  1  0.06363000  0.98957000  0.30478000  1.0
  O  O68  1  0.59423000  0.12616000  0.96303000  1.0
  O  O69  1  0.09424000  0.87385000  0.53697000  1.0
  O  O70  1  0.40578000  0.87386000  0.03697000  1.0
  O  O71  1  0.90577000  0.12614000  0.46303000  1.0
  O  O72  1  0.65212000  0.90294000  0.54687000  1.0
  O  O73  1  0.15211000  0.09706000  0.95312000  1.0
  O  O74  1  0.34789000  0.09706000  0.45312000  1.0
  O  O75  1  0.84788000  0.90292000  0.04688000  1.0
  O  O76  1  0.43139000  0.81674000  0.48260000  1.0
  O  O77  1  0.93137000  0.18326000  0.01740000  1.0
  O  O78  1  0.56863000  0.18326000  0.51739000  1.0
  O  O79  1  0.06862000  0.81673000  0.98261000  1.0
