# generated using pymatgen
data_MnZn2H68C104(N2O3)4
_symmetry_space_group_name_H-M   'P 1'
_cell_length_a   13.35000000
_cell_length_b   14.15870000
_cell_length_c   16.73837927
_cell_angle_alpha   99.44895179
_cell_angle_beta   112.92652195
_cell_angle_gamma   106.37670000
_symmetry_Int_Tables_number   1
_chemical_formula_structural   MnZn2H68C104(N2O3)4
_chemical_formula_sum   'Mn1 Zn2 H68 C104 N8 O12'
_cell_volume   2657.91070190
_cell_formula_units_Z   1
loop_
 _symmetry_equiv_pos_site_id
 _symmetry_equiv_pos_as_xyz
  1  'x, y, z'
loop_
 _atom_site_type_symbol
 _atom_site_label
 _atom_site_symmetry_multiplicity
 _atom_site_fract_x
 _atom_site_fract_y
 _atom_site_fract_z
 _atom_site_occupancy
  Mn  Mn0  1  0.00000000  0.00000000  0.50000000  1.0
  Zn  Zn1  1  0.04067000  0.43196000  0.95680000  1.0
  Zn  Zn2  1  0.95933000  0.56804000  0.04320000  1.0
  H  H3  1  0.69696000  0.21669000  0.71503000  1.0
  H  H4  1  0.30304000  0.78330000  0.28497000  1.0
  H  H5  1  0.48207000  0.11933000  0.60725000  1.0
  H  H6  1  0.51793000  0.88067000  0.39274000  1.0
  H  H7  1  0.39600000  0.26927000  0.80262000  1.0
  H  H8  1  0.60400000  0.73073000  0.19738000  1.0
  H  H9  1  0.60885000  0.36781000  0.90774000  1.0
  H  H10  1  0.39115000  0.63218000  0.09226000  1.0
  H  H11  1  0.39021000  0.05194000  0.78244000  1.0
  H  H12  1  0.60978000  0.94806000  0.21755000  1.0
  H  H13  1  0.22288000  0.88843000  0.78004000  1.0
  H  H14  1  0.77711000  0.11158000  0.21996000  1.0
  H  H15  1  0.76951000  0.68737000  0.57211000  1.0
  H  H16  1  0.23049000  0.31264000  0.42789000  1.0
  H  H17  1  0.60501000  0.70332000  0.42148000  1.0
  H  H18  1  0.39500000  0.29669000  0.57852000  1.0
  H  H19  1  0.07183000  0.67856000  0.63947000  1.0
  H  H20  1  0.92816000  0.32143000  0.36052000  1.0
  H  H21  1  0.07488000  0.57081000  0.74458000  1.0
  H  H22  1  0.92513000  0.42919000  0.25542000  1.0
  H  H23  1  0.93259000  0.74839000  0.87004000  1.0
  H  H24  1  0.06742000  0.25161000  0.12996000  1.0
  H  H25  1  0.92472000  0.85381000  0.76281000  1.0
  H  H26  1  0.07529000  0.14619000  0.23720000  1.0
  H  H27  1  0.26932000  0.44111000  0.07974000  1.0
  H  H28  1  0.73068000  0.55889000  0.92026000  1.0
  H  H29  1  0.39047000  0.33106000  0.09518000  1.0
  H  H30  1  0.60953000  0.66894000  0.90483000  1.0
  H  H31  1  0.12671000  0.12562000  0.82773000  1.0
  H  H32  1  0.87331000  0.87439000  0.17227000  1.0
  H  H33  1  0.01602000  0.24352000  0.82335000  1.0
  H  H34  1  0.98399000  0.75647000  0.17665000  1.0
  H  H35  1  0.19798000  0.84828000  0.93527000  1.0
  H  H36  1  0.80200000  0.15172000  0.06473000  1.0
  H  H37  1  0.68185000  0.26270000  0.03967000  1.0
  H  H38  1  0.31815000  0.73729000  0.96034000  1.0
  H  H39  1  0.24326000  0.20626000  0.16671000  1.0
  H  H40  1  0.75675000  0.79374000  0.83328000  1.0
  H  H41  1  0.04703000  0.06025000  0.09171000  1.0
  H  H42  1  0.95298000  0.93975000  0.90828000  1.0
  H  H43  1  0.03508000  0.87943000  0.06800000  1.0
  H  H44  1  0.96491000  0.12058000  0.93200000  1.0
  H  H45  1  0.21750000  0.84293000  0.12241000  1.0
  H  H46  1  0.78250000  0.15707000  0.87759000  1.0
  H  H47  1  0.41266000  0.98685000  0.19517000  1.0
  H  H48  1  0.58733000  0.01314000  0.80482000  1.0
  H  H49  1  0.45244000  0.27097000  0.24472000  1.0
  H  H50  1  0.54755000  0.72903000  0.75528000  1.0
  H  H51  1  0.56562000  0.11731000  0.20801000  1.0
  H  H52  1  0.43438000  0.88268000  0.79200000  1.0
  H  H53  1  0.63687000  0.25989000  0.25818000  1.0
  H  H54  1  0.36314000  0.74011000  0.74183000  1.0
  H  H55  1  0.97653000  0.36787000  0.52251000  1.0
  H  H56  1  0.02349000  0.63213000  0.47750000  1.0
  H  H57  1  0.80704000  0.20315000  0.46778000  1.0
  H  H58  1  0.19298000  0.79685000  0.53223000  1.0
  H  H59  1  0.82263000  0.07122000  0.54931000  1.0
  H  H60  1  0.17738000  0.92879000  0.45069000  1.0
  H  H61  1  0.01109000  0.10454000  0.68356000  1.0
  H  H62  1  0.98892000  0.89546000  0.31644000  1.0
  H  H63  1  0.18260000  0.26944000  0.73739000  1.0
  H  H64  1  0.81740000  0.73056000  0.26262000  1.0
  H  H65  1  0.26581000  0.44037000  0.73552000  1.0
  H  H66  1  0.73419000  0.55964000  0.26449000  1.0
  H  H67  1  0.14713000  0.48660000  0.55526000  1.0
  H  H68  1  0.85288000  0.51340000  0.44475000  1.0
  H  H69  1  0.29200000  0.56601000  0.65539000  1.0
  H  H70  1  0.70801000  0.43399000  0.34461000  1.0
  C  C71  1  0.79286000  0.36231000  0.87999000  1.0
  C  C72  1  0.20714000  0.63770000  0.12001000  1.0
  C  C73  1  0.66547000  0.29932000  0.81674000  1.0
  C  C74  1  0.33454000  0.70068000  0.18326000  1.0
  C  C75  1  0.62994000  0.22826000  0.73273000  1.0
  C  C76  1  0.37006000  0.77175000  0.26727000  1.0
  C  C77  1  0.51057000  0.17435000  0.67310000  1.0
  C  C78  1  0.48943000  0.82565000  0.32690000  1.0
  C  C79  1  0.42574000  0.18941000  0.69767000  1.0
  C  C80  1  0.57425000  0.81058000  0.30232000  1.0
  C  C81  1  0.46187000  0.25879000  0.78278000  1.0
  C  C82  1  0.53813000  0.74120000  0.21722000  1.0
  C  C83  1  0.58081000  0.31395000  0.84164000  1.0
  C  C84  1  0.41919000  0.68604000  0.15836000  1.0
  C  C85  1  0.29804000  0.13126000  0.63620000  1.0
  C  C86  1  0.70197000  0.86873000  0.36380000  1.0
  C  C87  1  0.23963000  0.05056000  0.65899000  1.0
  C  C88  1  0.76037000  0.94943000  0.34101000  1.0
  C  C89  1  0.29706000  0.01659000  0.73489000  1.0
  C  C90  1  0.70295000  0.98341000  0.26512000  1.0
  C  C91  1  0.21292000  0.93434000  0.73375000  1.0
  C  C92  1  0.78708000  0.06566000  0.26625000  1.0
  C  C93  1  0.10324000  0.91730000  0.65749000  1.0
  C  C94  1  0.89676000  0.08270000  0.34251000  1.0
  C  C95  1  0.99697000  0.83975000  0.63483000  1.0
  C  C96  1  0.00303000  0.16026000  0.36517000  1.0
  C  C97  1  0.89055000  0.82447000  0.56151000  1.0
  C  C98  1  0.10945000  0.17553000  0.43849000  1.0
  C  C99  1  0.78082000  0.74380000  0.53642000  1.0
  C  C100  1  0.21918000  0.25620000  0.46358000  1.0
  C  C101  1  0.69786000  0.75195000  0.46051000  1.0
  C  C102  1  0.30214000  0.24804000  0.53949000  1.0
  C  C103  1  0.75680000  0.83781000  0.43901000  1.0
  C  C104  1  0.24320000  0.16218000  0.56099000  1.0
  C  C105  1  0.99674000  0.77216000  0.69406000  1.0
  C  C106  1  0.00326000  0.22785000  0.30594000  1.0
  C  C107  1  0.03972000  0.69275000  0.68926000  1.0
  C  C108  1  0.96028000  0.30725000  0.31073000  1.0
  C  C109  1  0.04221000  0.63304000  0.74796000  1.0
  C  C110  1  0.95778000  0.36696000  0.25203000  1.0
  C  C111  1  0.00308000  0.65319000  0.81298000  1.0
  C  C112  1  0.99691000  0.34680000  0.18701000  1.0
  C  C113  1  0.96053000  0.73269000  0.81790000  1.0
  C  C114  1  0.03947000  0.26731000  0.18210000  1.0
  C  C115  1  0.95642000  0.79111000  0.75842000  1.0
  C  C116  1  0.04359000  0.20889000  0.24158000  1.0
  C  C117  1  0.00688000  0.59168000  0.87821000  1.0
  C  C118  1  0.99310000  0.40832000  0.12178000  1.0
  C  C119  1  0.24197000  0.37052000  0.02589000  1.0
  C  C120  1  0.75803000  0.62947000  0.97411000  1.0
  C  C121  1  0.30822000  0.30965000  0.03398000  1.0
  C  C122  1  0.69178000  0.69034000  0.96602000  1.0
  C  C123  1  0.26704000  0.22030000  0.96182000  1.0
  C  C124  1  0.73295000  0.77969000  0.03818000  1.0
  C  C125  1  0.16122000  0.19525000  0.88435000  1.0
  C  C126  1  0.83878000  0.80476000  0.11565000  1.0
  C  C127  1  0.09984000  0.26030000  0.88184000  1.0
  C  C128  1  0.90016000  0.73970000  0.11816000  1.0
  C  C129  1  0.27172000  0.04826000  0.95166000  1.0
  C  C130  1  0.72825000  0.95174000  0.04833000  1.0
  C  C131  1  0.45374000  0.20431000  0.99310000  1.0
  C  C132  1  0.54626000  0.79569000  0.00691000  1.0
  C  C133  1  0.29164000  0.88066000  0.95515000  1.0
  C  C134  1  0.70835000  0.11934000  0.04484000  1.0
  C  C135  1  0.34415000  0.98576000  0.96652000  1.0
  C  C136  1  0.65583000  0.01423000  0.03347000  1.0
  C  C137  1  0.46589000  0.03146000  0.99295000  1.0
  C  C138  1  0.53409000  0.96854000  0.00704000  1.0
  C  C139  1  0.52151000  0.13786000  0.00547000  1.0
  C  C140  1  0.47849000  0.86213000  0.99453000  1.0
  C  C141  1  0.64170000  0.18070000  0.03074000  1.0
  C  C142  1  0.35829000  0.81930000  0.96926000  1.0
  C  C143  1  0.23755000  0.12632000  0.15649000  1.0
  C  C144  1  0.76245000  0.87368000  0.84351000  1.0
  C  C145  1  0.12777000  0.04515000  0.11471000  1.0
  C  C146  1  0.87223000  0.95485000  0.88528000  1.0
  C  C147  1  0.12076000  0.94307000  0.10141000  1.0
  C  C148  1  0.87924000  0.05693000  0.89859000  1.0
  C  C149  1  0.22367000  0.92269000  0.13110000  1.0
  C  C150  1  0.77632000  0.07731000  0.86890000  1.0
  C  C151  1  0.33308000  0.00387000  0.17198000  1.0
  C  C152  1  0.66691000  0.99612000  0.82801000  1.0
  C  C153  1  0.34207000  0.10729000  0.18426000  1.0
  C  C154  1  0.65793000  0.89271000  0.81575000  1.0
  C  C155  1  0.45512000  0.19486000  0.22268000  1.0
  C  C156  1  0.54489000  0.80513000  0.77733000  1.0
  C  C157  1  0.55742000  0.19030000  0.23024000  1.0
  C  C158  1  0.44258000  0.80970000  0.76976000  1.0
  C  C159  1  0.98517000  0.30976000  0.55738000  1.0
  C  C160  1  0.01484000  0.69025000  0.44263000  1.0
  C  C161  1  0.88936000  0.21758000  0.52698000  1.0
  C  C162  1  0.11064000  0.78242000  0.47302000  1.0
  C  C163  1  0.89811000  0.14295000  0.57216000  1.0
  C  C164  1  0.10189000  0.85705000  0.42784000  1.0
  C  C165  1  0.00416000  0.16199000  0.64776000  1.0
  C  C166  1  0.99585000  0.83802000  0.35224000  1.0
  C  C167  1  0.10027000  0.25476000  0.67808000  1.0
  C  C168  1  0.89974000  0.74524000  0.32193000  1.0
  C  C169  1  0.09286000  0.33018000  0.63340000  1.0
  C  C170  1  0.90715000  0.66983000  0.36660000  1.0
  C  C171  1  0.19577000  0.42667000  0.66770000  1.0
  C  C172  1  0.80425000  0.57334000  0.33231000  1.0
  C  C173  1  0.21169000  0.49668000  0.62403000  1.0
  C  C174  1  0.78831000  0.50332000  0.37597000  1.0
  N  N175  1  0.12030000  0.98932000  0.61199000  1.0
  N  N176  1  0.87970000  0.01068000  0.38800000  1.0
  N  N177  1  0.87541000  0.88251000  0.50156000  1.0
  N  N178  1  0.12461000  0.11749000  0.49845000  1.0
  N  N179  1  0.13948000  0.34635000  0.95109000  1.0
  N  N180  1  0.86051000  0.65365000  0.04891000  1.0
  N  N181  1  0.33256000  0.15557000  0.96868000  1.0
  N  N182  1  0.66743000  0.84442000  0.03131000  1.0
  O  O183  1  0.86939000  0.33406000  0.86705000  1.0
  O  O184  1  0.13060000  0.66597000  0.13292000  1.0
  O  O185  1  0.81432000  0.44090000  0.94235000  1.0
  O  O186  1  0.18568000  0.55909000  0.05767000  1.0
  O  O187  1  0.97902000  0.62191000  0.93955000  1.0
  O  O188  1  0.02095000  0.37808000  0.06043000  1.0
  O  O189  1  0.03710000  0.51472000  0.86732000  1.0
  O  O190  1  0.96292000  0.48529000  0.13269000  1.0
  O  O191  1  0.16522000  0.01300000  0.92718000  1.0
  O  O192  1  0.83477000  0.98701000  0.07282000  1.0
  O  O193  1  0.49618000  0.29713000  0.00171000  1.0
  O  O194  1  0.50382000  0.70287000  0.99830000  1.0
