# generated using pymatgen
data_Zn8H36C61O27
_symmetry_space_group_name_H-M   'P 1'
_cell_length_a   18.38614585
_cell_length_b   18.40700000
_cell_length_c   18.45920000
_cell_angle_alpha   60.18700000
_cell_angle_beta   89.74164952
_cell_angle_gamma   119.66692296
_symmetry_Int_Tables_number   1
_chemical_formula_structural   Zn8H36C61O27
_chemical_formula_sum   'Zn8 H36 C61 O27'
_cell_volume   4442.11441944
_cell_formula_units_Z   1
loop_
 _symmetry_equiv_pos_site_id
 _symmetry_equiv_pos_as_xyz
  1  'x, y, z'
loop_
 _atom_site_type_symbol
 _atom_site_label
 _atom_site_symmetry_multiplicity
 _atom_site_fract_x
 _atom_site_fract_y
 _atom_site_fract_z
 _atom_site_occupancy
  Zn  Zn0  1  0.45491000  0.91605000  0.13347000  1.0
  Zn  Zn1  1  0.45861000  0.91161000  0.96179000  1.0
  Zn  Zn2  1  0.62988000  0.08753000  0.95818000  1.0
  Zn  Zn3  1  0.45637000  0.08742000  0.95755000  1.0
  Zn  Zn4  1  0.04741000  0.08834000  0.36866000  1.0
  Zn  Zn5  1  0.87333000  0.91498000  0.54241000  1.0
  Zn  Zn6  1  0.04625000  0.08581000  0.54436000  1.0
  Zn  Zn7  1  0.04550000  0.91246000  0.54282000  1.0
  H  H8  1  0.32454000  0.17305000  0.22120000  1.0
  H  H9  1  0.53131000  0.40606000  0.75014000  1.0
  H  H10  1  0.29735000  0.87816000  0.80101000  1.0
  H  H11  1  0.28019000  0.13100000  0.09270000  1.0
  H  H12  1  0.20286000  0.87965000  0.70502000  1.0
  H  H13  1  0.25292000  0.21572000  0.65458000  1.0
  H  H14  1  0.15654000  0.12105000  0.75094000  1.0
  H  H15  1  0.35002000  0.21516000  0.75094000  1.0
  H  H16  1  0.25363000  0.12055000  0.84729000  1.0
  H  H17  1  0.81267000  0.15414000  0.75361000  1.0
  H  H18  1  0.90843000  0.15380000  0.65867000  1.0
  H  H19  1  0.63150000  0.87937000  0.46970000  1.0
  H  H20  1  0.62494000  0.81359000  0.71295000  1.0
  H  H21  1  0.66034000  0.75925000  0.80271000  1.0
  H  H22  1  0.52737000  0.81367000  0.80984000  1.0
  H  H23  1  0.11042000  0.95687000  0.22050000  1.0
  H  H24  1  0.56330000  0.75973000  0.89922000  1.0
  H  H25  1  0.23093000  0.59385000  0.30681000  1.0
  H  H26  1  0.33302000  0.40468000  0.18603000  1.0
  H  H27  1  0.25292000  0.40621000  0.13217000  1.0
  H  H28  1  0.43018000  0.59695000  0.09169000  1.0
  H  H29  1  0.35066000  0.59942000  0.03743000  1.0
  H  H30  1  0.53329000  0.77953000  0.37586000  1.0
  H  H31  1  0.17971000  0.83666000  0.27435000  1.0
  H  H32  1  0.22358000  0.87796000  0.40304000  1.0
  H  H33  1  0.39379000  0.05242000  0.27553000  1.0
  H  H34  1  0.81691000  0.11221000  0.08783000  1.0
  H  H35  1  0.91416000  0.11661000  0.18093000  1.0
  H  H36  1  0.63307000  0.78348000  0.46948000  1.0
  H  H37  1  0.05908000  0.31459000  0.44702000  1.0
  H  H38  1  0.53299000  0.87661000  0.37485000  1.0
  H  H39  1  0.81690000  0.40404000  0.79974000  1.0
  H  H40  1  0.91289000  0.59391000  0.70183000  1.0
  H  H41  1  0.62957000  0.60064000  0.74817000  1.0
  H  H42  1  0.62829000  0.59905000  0.65245000  1.0
  H  H43  1  0.53135000  0.40769000  0.84582000  1.0
  C  C44  1  0.36253000  0.99523000  0.86493000  1.0
  C  C45  1  0.84225000  0.06469000  0.21192000  1.0
  C  C46  1  0.80675000  0.00109000  0.30531000  1.0
  C  C47  1  0.63700000  0.99467000  0.14073000  1.0
  C  C48  1  0.71446000  0.93610000  0.34200000  1.0
  C  C49  1  0.63711000  0.85447000  0.42809000  1.0
  C  C50  1  0.57507000  0.85212000  0.36900000  1.0
  C  C51  1  0.65836000  0.44831000  0.77702000  1.0
  C  C52  1  0.69360000  0.39087000  0.80686000  1.0
  C  C53  1  0.78712000  0.44653000  0.77799000  1.0
  C  C54  1  0.84093000  0.55293000  0.72313000  1.0
  C  C55  1  0.17410000  0.97834000  0.23183000  1.0
  C  C56  1  0.80470000  0.61055000  0.69372000  1.0
  C  C57  1  0.71235000  0.55505000  0.72221000  1.0
  C  C58  1  0.63426000  0.56339000  0.71853000  1.0
  C  C59  1  0.36156000  0.72525000  0.14440000  1.0
  C  C60  1  0.57313000  0.44255000  0.78000000  1.0
  C  C61  1  0.27875000  0.06101000  0.77841000  1.0
  C  C62  1  0.30608000  0.99573000  0.80751000  1.0
  C  C63  1  0.27710000  0.93011000  0.77956000  1.0
  C  C64  1  0.22404000  0.93085000  0.72588000  1.0
  C  C65  1  0.19605000  0.99671000  0.69727000  1.0
  C  C66  1  0.21120000  0.91122000  0.26343000  1.0
  C  C67  1  0.22502000  0.06125000  0.72515000  1.0
  C  C68  1  0.22253000  0.14431000  0.72095000  1.0
  C  C69  1  0.28335000  0.14399000  0.78129000  1.0
  C  C70  1  0.66497000  0.92339000  0.79439000  1.0
  C  C71  1  0.63699000  0.27726000  0.86566000  1.0
  C  C72  1  0.69639000  0.00537000  0.80093000  1.0
  C  C73  1  0.78587000  0.08858000  0.75033000  1.0
  C  C74  1  0.83966000  0.08836000  0.69707000  1.0
  C  C75  1  0.80733000  0.00478000  0.69116000  1.0
  C  C76  1  0.71884000  0.92309000  0.74111000  1.0
  C  C77  1  0.23679000  0.93430000  0.33392000  1.0
  C  C78  1  0.64639000  0.81713000  0.76722000  1.0
  C  C79  1  0.58540000  0.81736000  0.82773000  1.0
  C  C80  1  0.30984000  0.55495000  0.17386000  1.0
  C  C81  1  0.30437000  0.61146000  0.20058000  1.0
  C  C82  1  0.24006000  0.55458000  0.28265000  1.0
  C  C83  1  0.63950000  0.00509000  0.85878000  1.0
  C  C84  1  0.18418000  0.44732000  0.33521000  1.0
  C  C85  1  0.19199000  0.39086000  0.30778000  1.0
  C  C86  1  0.25553000  0.44823000  0.22611000  1.0
  C  C87  1  0.29784000  0.44120000  0.16120000  1.0
  C  C88  1  0.33021000  0.03115000  0.26404000  1.0
  C  C89  1  0.35894000  0.56202000  0.10196000  1.0
  C  C90  1  0.86271000  0.72408000  0.63612000  1.0
  C  C91  1  0.13966000  0.27687000  0.36326000  1.0
  C  C92  1  0.86505000  0.00344000  0.36087000  1.0
  C  C93  1  0.13887000  0.99653000  0.64056000  1.0
  C  C94  1  0.86515000  0.00416000  0.63525000  1.0
  C  C95  1  0.36266000  0.00861000  0.13615000  1.0
  C  C96  1  0.14212000  0.00037000  0.36073000  1.0
  C  C97  1  0.26745000  0.07514000  0.16187000  1.0
  C  C98  1  0.29307000  0.09836000  0.23235000  1.0
  C  C99  1  0.30531000  0.00911000  0.19235000  1.0
  C  C100  1  0.19951000  0.00086000  0.30355000  1.0
  C  C101  1  0.11264000  0.39635000  0.41633000  1.0
  C  C102  1  0.65971000  0.93356000  0.28973000  1.0
  C  C103  1  0.69423000  0.99590000  0.19749000  1.0
  C  C104  1  0.78774000  0.06216000  0.15975000  1.0
  O  O105  1  0.49963000  0.00011000  0.00337000  1.0
  O  O106  1  0.11289000  0.05462000  0.62311000  1.0
  O  O107  1  0.82642000  0.93238000  0.62413000  1.0
  O  O108  1  0.38835000  0.06217000  0.88138000  1.0
  O  O109  1  0.11588000  0.93501000  0.44421000  1.0
  O  O110  1  0.94829000  0.07459000  0.60324000  1.0
  O  O111  1  0.12411000  0.06635000  0.32064000  1.0
  O  O112  1  0.94878000  0.06186000  0.32108000  1.0
  O  O113  1  0.12053000  0.93919000  0.61408000  1.0
  O  O114  1  0.82329000  0.76877000  0.60955000  1.0
  O  O115  1  0.12549000  0.23223000  0.44635000  1.0
  O  O116  1  0.36947000  0.77013000  0.18175000  1.0
  O  O117  1  0.55316000  0.93310000  0.18110000  1.0
  O  O118  1  0.39783000  0.76774000  0.06272000  1.0
  O  O119  1  0.67645000  0.23282000  0.89264000  1.0
  O  O120  1  0.55639000  0.93525000  0.88889000  1.0
  O  O121  1  0.37713000  0.06060000  0.05283000  1.0
  O  O122  1  0.67775000  0.07343000  0.87396000  1.0
  O  O123  1  0.39240000  0.95509000  0.17688000  1.0
  O  O124  1  0.10970000  0.44038000  0.44767000  1.0
  O  O125  1  0.55312000  0.23375000  0.88427000  1.0
  O  O126  1  0.38030000  0.92885000  0.89288000  1.0
  O  O127  1  0.67621000  0.05490000  0.05704000  1.0
  O  O128  1  0.00371000  0.00145000  0.49866000  1.0
  O  O129  1  0.94638000  0.76739000  0.61826000  1.0
  O  O130  1  0.11615000  0.23490000  0.32190000  1.0
  O  O131  1  0.82560000  0.94589000  0.44454000  1.0
