# generated using pymatgen
data_CoH18C26N4(ClO2)2
_symmetry_space_group_name_H-M   'P 1'
_cell_length_a   9.72622000
_cell_length_b   10.21390000
_cell_length_c   12.57560000
_cell_angle_alpha   81.54620000
_cell_angle_beta   86.11520000
_cell_angle_gamma   79.73190000
_symmetry_Int_Tables_number   1
_chemical_formula_structural   CoH18C26N4(ClO2)2
_chemical_formula_sum   'Co2 H36 C52 N8 Cl4 O8'
_cell_volume   1214.82040201
_cell_formula_units_Z   2
loop_
 _symmetry_equiv_pos_site_id
 _symmetry_equiv_pos_as_xyz
  1  'x, y, z'
loop_
 _atom_site_type_symbol
 _atom_site_label
 _atom_site_symmetry_multiplicity
 _atom_site_fract_x
 _atom_site_fract_y
 _atom_site_fract_z
 _atom_site_occupancy
  Co  Co0  1  0.24460000  0.38009000  0.25510000  1.0
  Co  Co1  1  0.75479000  0.62117000  0.74382000  1.0
  H  H2  1  0.92919000  0.55244000  0.25102000  1.0
  H  H3  1  0.06993000  0.44857000  0.74792000  1.0
  H  H4  1  0.89878000  0.94786000  0.68484000  1.0
  H  H5  1  0.10077000  0.05113000  0.31608000  1.0
  H  H6  1  0.66993000  0.89459000  0.23954000  1.0
  H  H7  1  0.33086000  0.10621000  0.76006000  1.0
  H  H8  1  0.30146000  0.67799000  0.25607000  1.0
  H  H9  1  0.69870000  0.32389000  0.74719000  1.0
  H  H10  1  0.67178000  0.61405000  0.17544000  1.0
  H  H11  1  0.32777000  0.38665000  0.82456000  1.0
  H  H12  1  0.37805000  0.48357000  0.02877000  1.0
  H  H13  1  0.62124000  0.51704000  0.97048000  1.0
  H  H14  1  0.57055000  0.77627000  0.40681000  1.0
  H  H15  1  0.43115000  0.22581000  0.59355000  1.0
  H  H16  1  0.43653000  0.84192000  0.31587000  1.0
  H  H17  1  0.56488000  0.15938000  0.68473000  1.0
  H  H18  1  0.50620000  0.19505000  0.37577000  1.0
  H  H19  1  0.49325000  0.80652000  0.62552000  1.0
  H  H20  1  0.39127000  0.81657000  0.94717000  1.0
  H  H21  1  0.60868000  0.18018000  0.05270000  1.0
  H  H22  1  0.76328000  0.74328000  0.00631000  1.0
  H  H23  1  0.23551000  0.25667000  0.99308000  1.0
  H  H24  1  0.81767000  0.85578000  0.08447000  1.0
  H  H25  1  0.18123000  0.14491000  0.91424000  1.0
  H  H26  1  0.75824000  0.56641000  0.44283000  1.0
  H  H27  1  0.24405000  0.43358000  0.55774000  1.0
  H  H28  1  0.73631000  0.14292000  0.46496000  1.0
  H  H29  1  0.26400000  0.85752000  0.53490000  1.0
  H  H30  1  0.95978000  0.80602000  0.87553000  1.0
  H  H31  1  0.04007000  0.19535000  0.12346000  1.0
  H  H32  1  0.85912000  0.32496000  0.49697000  1.0
  H  H33  1  0.14255000  0.67459000  0.50272000  1.0
  H  H34  1  0.18461000  0.76549000  0.76755000  1.0
  H  H35  1  0.81540000  0.23511000  0.23167000  1.0
  H  H36  1  0.39049000  0.61229000  0.84362000  1.0
  H  H37  1  0.60930000  0.38819000  0.15588000  1.0
  C  C38  1  0.16238000  0.57612000  0.05622000  1.0
  C  C39  1  0.83690000  0.42503000  0.94283000  1.0
  C  C40  1  0.50747000  0.40978000  0.35712000  1.0
  C  C41  1  0.49248000  0.59173000  0.64498000  1.0
  C  C42  1  0.99126000  0.57583000  0.17791000  1.0
  C  C43  1  0.00796000  0.42530000  0.82111000  1.0
  C  C44  1  0.94525000  0.96944000  0.60441000  1.0
  C  C45  1  0.05486000  0.02896000  0.39662000  1.0
  C  C46  1  0.04593000  0.66710000  0.01283000  1.0
  C  C47  1  0.95342000  0.33396000  0.98617000  1.0
  C  C48  1  0.06921000  0.11124000  0.47352000  1.0
  C  C49  1  0.93108000  0.88706000  0.52754000  1.0
  C  C50  1  0.01310000  0.07953000  0.57797000  1.0
  C  C51  1  0.98714000  0.91885000  0.42304000  1.0
  C  C52  1  0.64054000  0.79570000  0.24229000  1.0
  C  C53  1  0.36017000  0.20505000  0.75773000  1.0
  C  C54  1  0.44079000  0.06565000  0.08692000  1.0
  C  C55  1  0.55838000  0.93196000  0.91202000  1.0
  C  C56  1  0.38317000  0.60202000  0.29349000  1.0
  C  C57  1  0.61703000  0.39972000  0.70950000  1.0
  C  C58  1  0.57946000  0.51259000  0.37522000  1.0
  C  C59  1  0.42163000  0.48835000  0.62618000  1.0
  C  C60  1  0.69998000  0.71337000  0.17265000  1.0
  C  C61  1  0.29968000  0.28734000  0.82705000  1.0
  C  C62  1  0.14995000  0.22424000  0.43953000  1.0
  C  C63  1  0.85119000  0.77344000  0.56066000  1.0
  C  C64  1  0.28877000  0.55482000  0.99613000  1.0
  C  C65  1  0.71060000  0.44596000  0.00316000  1.0
  C  C66  1  0.53211000  0.76658000  0.32854000  1.0
  C  C67  1  0.46924000  0.23466000  0.67217000  1.0
  C  C68  1  0.38145000  0.13866000  0.18015000  1.0
  C  C69  1  0.61706000  0.85934000  0.81843000  1.0
  C  C70  1  0.56228000  0.27439000  0.38891000  1.0
  C  C71  1  0.43750000  0.72691000  0.61236000  1.0
  C  C72  1  0.43899000  0.89676000  0.96957000  1.0
  C  C73  1  0.56044000  0.10059000  0.02975000  1.0
  C  C74  1  0.38094000  0.96335000  0.05520000  1.0
  C  C75  1  0.61834000  0.03432000  0.94387000  1.0
  C  C76  1  0.80231000  0.75157000  0.08482000  1.0
  C  C77  1  0.19676000  0.24901000  0.91429000  1.0
  C  C78  1  0.70689000  0.48570000  0.42568000  1.0
  C  C79  1  0.29488000  0.51461000  0.57487000  1.0
  C  C80  1  0.69010000  0.24701000  0.43852000  1.0
  C  C81  1  0.31032000  0.75360000  0.56185000  1.0
  C  C82  1  0.05037000  0.73771000  0.90909000  1.0
  C  C83  1  0.94927000  0.26329000  0.08992000  1.0
  C  C84  1  0.76035000  0.35069000  0.45681000  1.0
  C  C85  1  0.24093000  0.64939000  0.54339000  1.0
  C  C86  1  0.17643000  0.71483000  0.84967000  1.0
  C  C87  1  0.82333000  0.28584000  0.14953000  1.0
  C  C88  1  0.29370000  0.62573000  0.89282000  1.0
  C  C89  1  0.70593000  0.37480000  0.10646000  1.0
  N  N90  1  0.49707000  0.63290000  0.33409000  1.0
  N  N91  1  0.50407000  0.36834000  0.66763000  1.0
  N  N92  1  0.38445000  0.46973000  0.30564000  1.0
  N  N93  1  0.61492000  0.53225000  0.69746000  1.0
  N  N94  1  0.12417000  0.52066000  0.15967000  1.0
  N  N95  1  0.87503000  0.48072000  0.83934000  1.0
  N  N96  1  0.93996000  0.66469000  0.09258000  1.0
  N  N97  1  0.05933000  0.33629000  0.90641000  1.0
  Cl  Cl98  1  0.22866000  0.92011000  0.12055000  1.0
  Cl  Cl99  1  0.77101000  0.07768000  0.87929000  1.0
  Cl  Cl100  1  0.01982000  0.18029000  0.67674000  1.0
  Cl  Cl101  1  0.98020000  0.81839000  0.32407000  1.0
  O  O102  1  0.11389000  0.29367000  0.34710000  1.0
  O  O103  1  0.88930000  0.70027000  0.65151000  1.0
  O  O104  1  0.33622000  0.26586000  0.15089000  1.0
  O  O105  1  0.65388000  0.73035000  0.84678000  1.0
  O  O106  1  0.24296000  0.24196000  0.49604000  1.0
  O  O107  1  0.75729000  0.75728000  0.50433000  1.0
  O  O108  1  0.37969000  0.07823000  0.27328000  1.0
  O  O109  1  0.62635000  0.92081000  0.72616000  1.0
