# generated using pymatgen
data_CuH3C5SIN3
_symmetry_space_group_name_H-M   'P 1'
_cell_length_a   7.44356000
_cell_length_b   10.38210000
_cell_length_c   11.12080000
_cell_angle_alpha   106.64100000
_cell_angle_beta   89.99990000
_cell_angle_gamma   89.99720000
_symmetry_Int_Tables_number   1
_chemical_formula_structural   CuH3C5SIN3
_chemical_formula_sum   'Cu4 H12 C20 S4 I4 N12'
_cell_volume   823.41899717
_cell_formula_units_Z   4
loop_
 _symmetry_equiv_pos_site_id
 _symmetry_equiv_pos_as_xyz
  1  'x, y, z'
loop_
 _atom_site_type_symbol
 _atom_site_label
 _atom_site_symmetry_multiplicity
 _atom_site_fract_x
 _atom_site_fract_y
 _atom_site_fract_z
 _atom_site_occupancy
  Cu  Cu0  1  0.34346000  0.04847000  0.56212000  1.0
  Cu  Cu1  1  0.84349000  0.95152000  0.93788000  1.0
  Cu  Cu2  1  0.65652000  0.95153000  0.43788000  1.0
  Cu  Cu3  1  0.15651000  0.04848000  0.06212000  1.0
  H  H4  1  0.49495000  0.24107000  0.43789000  1.0
  H  H5  1  0.99496000  0.75891000  0.06212000  1.0
  H  H6  1  0.50505000  0.75891000  0.56210000  1.0
  H  H7  1  0.00505000  0.24110000  0.93789000  1.0
  H  H8  1  0.85250000  0.32692000  0.43493000  1.0
  H  H9  1  0.35250000  0.67309000  0.06503000  1.0
  H  H10  1  0.14751000  0.67309000  0.56508000  1.0
  H  H11  1  0.64751000  0.32690000  0.93495000  1.0
  H  H12  1  0.97696000  0.16238000  0.54181000  1.0
  H  H13  1  0.47697000  0.83764000  0.95817000  1.0
  H  H14  1  0.02304000  0.83764000  0.45821000  1.0
  H  H15  1  0.52303000  0.16235000  0.04181000  1.0
  C  C16  1  0.35132000  0.26167000  0.43918000  1.0
  C  C17  1  0.85132000  0.73832000  0.06082000  1.0
  C  C18  1  0.64868000  0.73832000  0.56081000  1.0
  C  C19  1  0.14867000  0.26168000  0.93919000  1.0
  C  C20  1  0.27944000  0.35406000  0.38231000  1.0
  C  C21  1  0.77944000  0.64594000  0.11769000  1.0
  C  C22  1  0.72056000  0.64594000  0.61768000  1.0
  C  C23  1  0.22056000  0.35407000  0.88232000  1.0
  C  C24  1  0.99670000  0.30810000  0.43634000  1.0
  C  C25  1  0.49670000  0.69192000  0.06363000  1.0
  C  C26  1  0.00331000  0.69191000  0.56366000  1.0
  C  C27  1  0.50330000  0.30808000  0.93636000  1.0
  C  C28  1  0.06505000  0.21695000  0.49524000  1.0
  C  C29  1  0.56506000  0.78306000  0.00474000  1.0
  C  C30  1  0.93495000  0.78306000  0.50476000  1.0
  C  C31  1  0.43494000  0.21694000  0.99525000  1.0
  C  C32  1  0.70191000  0.06537000  0.73032000  1.0
  C  C33  1  0.20192000  0.93462000  0.76970000  1.0
  C  C34  1  0.29810000  0.93463000  0.26968000  1.0
  C  C35  1  0.79807000  0.06537000  0.23032000  1.0
  S  S36  1  0.63988000  0.13598000  0.62258000  1.0
  S  S37  1  0.13991000  0.86402000  0.87743000  1.0
  S  S38  1  0.36010000  0.86403000  0.37742000  1.0
  S  S39  1  0.86008000  0.13598000  0.12257000  1.0
  I  I40  1  0.45076000  0.46247000  0.29500000  1.0
  I  I41  1  0.95072000  0.53753000  0.20502000  1.0
  I  I42  1  0.54925000  0.53753000  0.70499000  1.0
  I  I43  1  0.04926000  0.46248000  0.79500000  1.0
  N  N44  1  0.24348000  0.19363000  0.49653000  1.0
  N  N45  1  0.74350000  0.80637000  0.00347000  1.0
  N  N46  1  0.75653000  0.80636000  0.50347000  1.0
  N  N47  1  0.25650000  0.19363000  0.99653000  1.0
  N  N48  1  0.10387000  0.37717000  0.38008000  1.0
  N  N49  1  0.60387000  0.62283000  0.11990000  1.0
  N  N50  1  0.89614000  0.62283000  0.61991000  1.0
  N  N51  1  0.39613000  0.37718000  0.88010000  1.0
  N  N52  1  0.74786000  0.01623000  0.80886000  1.0
  N  N53  1  0.24785000  0.98377000  0.69114000  1.0
  N  N54  1  0.25216000  0.98378000  0.19113000  1.0
  N  N55  1  0.75215000  0.01622000  0.30887000  1.0
