# generated using pymatgen
data_AlH3C8Cl2O5
_symmetry_space_group_name_H-M   'P 1'
_cell_length_a   6.66233000
_cell_length_b   12.37290000
_cell_length_c   17.30820000
_cell_angle_alpha   89.86240000
_cell_angle_beta   89.25180000
_cell_angle_gamma   88.90350000
_symmetry_Int_Tables_number   1
_chemical_formula_structural   AlH3C8Cl2O5
_chemical_formula_sum   'Al4 H12 C32 Cl8 O20'
_cell_volume   1426.36928443
_cell_formula_units_Z   4
loop_
 _symmetry_equiv_pos_site_id
 _symmetry_equiv_pos_as_xyz
  1  'x, y, z'
loop_
 _atom_site_type_symbol
 _atom_site_label
 _atom_site_symmetry_multiplicity
 _atom_site_fract_x
 _atom_site_fract_y
 _atom_site_fract_z
 _atom_site_occupancy
  Al  Al0  1  0.00206000  0.00334000  0.49761000  1.0
  Al  Al1  1  0.50248000  0.99784000  0.49935000  1.0
  Al  Al2  1  0.99752000  0.50217000  0.00065000  1.0
  Al  Al3  1  0.49794000  0.49666000  0.00239000  1.0
  H  H4  1  0.25338000  0.13530000  0.52839000  1.0
  H  H5  1  0.76447000  0.86980000  0.53369000  1.0
  H  H6  1  0.24664000  0.36471000  0.97160000  1.0
  H  H7  1  0.73555000  0.63020000  0.96632000  1.0
  H  H8  1  0.46474000  0.36749000  0.21028000  1.0
  H  H9  1  0.03530000  0.13250000  0.28972000  1.0
  H  H10  1  0.96297000  0.75469000  0.84161000  1.0
  H  H11  1  0.53702000  0.74532000  0.65840000  1.0
  H  H12  1  0.52978000  0.74528000  0.15479000  1.0
  H  H13  1  0.97018000  0.75472000  0.34521000  1.0
  H  H14  1  0.47204000  0.24709000  0.84562000  1.0
  H  H15  1  0.02792000  0.25292000  0.65436000  1.0
  C  C16  1  0.74593000  0.12360000  0.60828000  1.0
  C  C17  1  0.74441000  0.12693000  0.39323000  1.0
  C  C18  1  0.25755000  0.88189000  0.38894000  1.0
  C  C19  1  0.25118000  0.87458000  0.60677000  1.0
  C  C20  1  0.75406000  0.37642000  0.89171000  1.0
  C  C21  1  0.75563000  0.37307000  0.10676000  1.0
  C  C22  1  0.24245000  0.61811000  0.11107000  1.0
  C  C23  1  0.24881000  0.62543000  0.89324000  1.0
  C  C24  1  0.74219000  0.19394000  0.32121000  1.0
  C  C25  1  0.75784000  0.30604000  0.17878000  1.0
  C  C26  1  0.58015000  0.26102000  0.29835000  1.0
  C  C27  1  0.91986000  0.23894000  0.20164000  1.0
  C  C28  1  0.58977000  0.31547000  0.22791000  1.0
  C  C29  1  0.91027000  0.18450000  0.27206000  1.0
  C  C30  1  0.24337000  0.81231000  0.68111000  1.0
  C  C31  1  0.25664000  0.68767000  0.81890000  1.0
  C  C32  1  0.08056000  0.81477000  0.73400000  1.0
  C  C33  1  0.41941000  0.68523000  0.76600000  1.0
  C  C34  1  0.08945000  0.75287000  0.80119000  1.0
  C  C35  1  0.41055000  0.74712000  0.69880000  1.0
  C  C36  1  0.26067000  0.81604000  0.31642000  1.0
  C  C37  1  0.23928000  0.68393000  0.18359000  1.0
  C  C38  1  0.41904000  0.81377000  0.26162000  1.0
  C  C39  1  0.08097000  0.68623000  0.23839000  1.0
  C  C40  1  0.40668000  0.74782000  0.19679000  1.0
  C  C41  1  0.09326000  0.75217000  0.30323000  1.0
  C  C42  1  0.74072000  0.18690000  0.68196000  1.0
  C  C43  1  0.75928000  0.31312000  0.81803000  1.0
  C  C44  1  0.58303000  0.18530000  0.73701000  1.0
  C  C45  1  0.91690000  0.31472000  0.76297000  1.0
  C  C46  1  0.59440000  0.24808000  0.80339000  1.0
  C  C47  1  0.90558000  0.25194000  0.69659000  1.0
  Cl  Cl48  1  0.36843000  0.28308000  0.35519000  1.0
  Cl  Cl49  1  0.13162000  0.21691000  0.14480000  1.0
  Cl  Cl50  1  0.86738000  0.89460000  0.72226000  1.0
  Cl  Cl51  1  0.63262000  0.60540000  0.77775000  1.0
  Cl  Cl52  1  0.62803000  0.89327000  0.26867000  1.0
  Cl  Cl53  1  0.87194000  0.60670000  0.23134000  1.0
  Cl  Cl54  1  0.37451000  0.10535000  0.72872000  1.0
  Cl  Cl55  1  0.12545000  0.39468000  0.77125000  1.0
  O  O56  1  0.91983000  0.09820000  0.58188000  1.0
  O  O57  1  0.57792000  0.09215000  0.41788000  1.0
  O  O58  1  0.42265000  0.89803000  0.42231000  1.0
  O  O59  1  0.08629000  0.89546000  0.57345000  1.0
  O  O60  1  0.08529000  0.91426000  0.41285000  1.0
  O  O61  1  0.42512000  0.90001000  0.58210000  1.0
  O  O62  1  0.57974000  0.10190000  0.57735000  1.0
  O  O63  1  0.91488000  0.10736000  0.42326000  1.0
  O  O64  1  0.25163000  0.06611000  0.50231000  1.0
  O  O65  1  0.75641000  0.93384000  0.50134000  1.0
  O  O66  1  0.92026000  0.39812000  0.92263000  1.0
  O  O67  1  0.58516000  0.39264000  0.07674000  1.0
  O  O68  1  0.41472000  0.58575000  0.08716000  1.0
  O  O69  1  0.07490000  0.60000000  0.91792000  1.0
  O  O70  1  0.07736000  0.60196000  0.07770000  1.0
  O  O71  1  0.41372000  0.60455000  0.92655000  1.0
  O  O72  1  0.58016000  0.40180000  0.91812000  1.0
  O  O73  1  0.92210000  0.40786000  0.08212000  1.0
  O  O74  1  0.24837000  0.43388000  0.99770000  1.0
  O  O75  1  0.74359000  0.56616000  0.99866000  1.0
