# generated using pymatgen
data_CuH10C16(NO)4
_symmetry_space_group_name_H-M   'P 1'
_cell_length_a   13.62810000
_cell_length_b   13.88140000
_cell_length_c   14.92920000
_cell_angle_alpha   90.00000000
_cell_angle_beta   91.70080000
_cell_angle_gamma   89.99980000
_symmetry_Int_Tables_number   1
_chemical_formula_structural   CuH10C16(NO)4
_chemical_formula_sum   'Cu4 H40 C64 N16 O16'
_cell_volume   2823.01863002
_cell_formula_units_Z   4
loop_
 _symmetry_equiv_pos_site_id
 _symmetry_equiv_pos_as_xyz
  1  'x, y, z'
loop_
 _atom_site_type_symbol
 _atom_site_label
 _atom_site_symmetry_multiplicity
 _atom_site_fract_x
 _atom_site_fract_y
 _atom_site_fract_z
 _atom_site_occupancy
  Cu  Cu0  1  0.50000000  0.00000000  0.50000000  1.0
  Cu  Cu1  1  0.50000000  0.50000000  0.00000000  1.0
  Cu  Cu2  1  0.00000000  0.00000000  0.00000000  1.0
  Cu  Cu3  1  0.00000000  0.50000000  0.50000000  1.0
  H  H4  1  0.29752000  0.28470000  0.09390000  1.0
  H  H5  1  0.70248000  0.78470000  0.40610000  1.0
  H  H6  1  0.70248000  0.71530000  0.90610000  1.0
  H  H7  1  0.29752000  0.21530000  0.59390000  1.0
  H  H8  1  0.07901000  0.28865000  0.29816000  1.0
  H  H9  1  0.92099000  0.78865000  0.20184000  1.0
  H  H10  1  0.92099000  0.71135000  0.70184000  1.0
  H  H11  1  0.07901000  0.21135000  0.79816000  1.0
  H  H12  1  0.25855000  0.53861000  0.25519000  1.0
  H  H13  1  0.74145000  0.03861000  0.24481000  1.0
  H  H14  1  0.74145000  0.46139000  0.74481000  1.0
  H  H15  1  0.25855000  0.96139000  0.75519000  1.0
  H  H16  1  0.03945000  0.23743000  0.98328000  1.0
  H  H17  1  0.96055000  0.73743000  0.51672000  1.0
  H  H18  1  0.96055000  0.76257000  0.01672000  1.0
  H  H19  1  0.03945000  0.26256000  0.48327000  1.0
  H  H20  1  0.03361000  0.30686000  0.08433000  1.0
  H  H21  1  0.96639000  0.80686000  0.41567000  1.0
  H  H22  1  0.96639000  0.69314000  0.91567000  1.0
  H  H23  1  0.03360000  0.19314000  0.58433000  1.0
  H  H24  1  0.94592000  0.21316000  0.06022000  1.0
  H  H25  1  0.05408000  0.71316000  0.43978000  1.0
  H  H26  1  0.05408000  0.78684000  0.93978000  1.0
  H  H27  1  0.94592000  0.28684000  0.56022000  1.0
  H  H28  1  0.31289000  0.22244000  0.29424000  1.0
  H  H29  1  0.68711000  0.72244000  0.20576000  1.0
  H  H30  1  0.68711000  0.77756000  0.70576000  1.0
  H  H31  1  0.31289000  0.27756000  0.79424000  1.0
  H  H32  1  0.43085000  0.17356000  0.41497000  1.0
  H  H33  1  0.56915000  0.67357000  0.08503000  1.0
  H  H34  1  0.56915000  0.82643000  0.58503000  1.0
  H  H35  1  0.43085000  0.32643000  0.91497000  1.0
  H  H36  1  0.37403000  0.88405000  0.37376000  1.0
  H  H37  1  0.62597000  0.38405000  0.12624000  1.0
  H  H38  1  0.62597000  0.11595000  0.62624000  1.0
  H  H39  1  0.37403000  0.61595000  0.87376000  1.0
  H  H40  1  0.24873000  0.92021000  0.25180000  1.0
  H  H41  1  0.75127000  0.42021000  0.24820000  1.0
  H  H42  1  0.75127000  0.07979000  0.74820000  1.0
  H  H43  1  0.24873000  0.57979000  0.75180000  1.0
  C  C44  1  0.36323000  0.46744000  0.11613000  1.0
  C  C45  1  0.63677000  0.96745000  0.38387000  1.0
  C  C46  1  0.63677000  0.53256000  0.88387000  1.0
  C  C47  1  0.36323000  0.03256000  0.61613000  1.0
  C  C48  1  0.28650000  0.41684000  0.16919000  1.0
  C  C49  1  0.71351000  0.91684000  0.33081000  1.0
  C  C50  1  0.71351000  0.58316000  0.83081000  1.0
  C  C51  1  0.28650000  0.08316000  0.66919000  1.0
  C  C52  1  0.25989000  0.32236000  0.14697000  1.0
  C  C53  1  0.74011000  0.82236000  0.35302000  1.0
  C  C54  1  0.74011000  0.67764000  0.85303000  1.0
  C  C55  1  0.25989000  0.17763000  0.64697000  1.0
  C  C56  1  0.18506000  0.27779000  0.19326000  1.0
  C  C57  1  0.81494000  0.77779000  0.30674000  1.0
  C  C58  1  0.81494000  0.72221000  0.80674000  1.0
  C  C59  1  0.18506000  0.22221000  0.69326000  1.0
  C  C60  1  0.13752000  0.32410000  0.26243000  1.0
  C  C61  1  0.86248000  0.82410000  0.23757000  1.0
  C  C62  1  0.86248000  0.67590000  0.73757000  1.0
  C  C63  1  0.13752000  0.17590000  0.76243000  1.0
  C  C64  1  0.16578000  0.41809000  0.28581000  1.0
  C  C65  1  0.83422000  0.91809000  0.21419000  1.0
  C  C66  1  0.83422000  0.58191000  0.71419000  1.0
  C  C67  1  0.16578000  0.08191000  0.78581000  1.0
  C  C68  1  0.23894000  0.46454000  0.23818000  1.0
  C  C69  1  0.76106000  0.96454000  0.26182000  1.0
  C  C70  1  0.76106000  0.53546000  0.76182000  1.0
  C  C71  1  0.23894000  0.03546000  0.73818000  1.0
  C  C72  1  0.11734000  0.46975000  0.36182000  1.0
  C  C73  1  0.88266000  0.96975000  0.13818000  1.0
  C  C74  1  0.88266000  0.53026000  0.63818000  1.0
  C  C75  1  0.11734000  0.03025000  0.86182000  1.0
  C  C76  1  0.02301000  0.23523000  0.05483000  1.0
  C  C77  1  0.97699000  0.73523000  0.44517000  1.0
  C  C78  1  0.97699000  0.76477000  0.94517000  1.0
  C  C79  1  0.02301000  0.26477000  0.55483000  1.0
  C  C80  1  0.08630000  0.16319000  0.10118000  1.0
  C  C81  1  0.91370000  0.66319000  0.39882000  1.0
  C  C82  1  0.91370000  0.83681000  0.89882000  1.0
  C  C83  1  0.08630000  0.33681000  0.60118000  1.0
  C  C84  1  0.19448000  0.09382000  0.19284000  1.0
  C  C85  1  0.80552000  0.59382000  0.30716000  1.0
  C  C86  1  0.80552000  0.90618000  0.80716000  1.0
  C  C87  1  0.19448000  0.40618000  0.69284000  1.0
  C  C88  1  0.26886000  0.07465000  0.26288000  1.0
  C  C89  1  0.73114000  0.57465000  0.23712000  1.0
  C  C90  1  0.73114000  0.92535000  0.73712000  1.0
  C  C91  1  0.26886000  0.42535000  0.76288000  1.0
  C  C92  1  0.32224000  0.14645000  0.30933000  1.0
  C  C93  1  0.67776000  0.64645000  0.19067000  1.0
  C  C94  1  0.67776000  0.85355000  0.69067000  1.0
  C  C95  1  0.32224000  0.35354000  0.80933000  1.0
  C  C96  1  0.38901000  0.11990000  0.37685000  1.0
  C  C97  1  0.61099000  0.61990000  0.12314000  1.0
  C  C98  1  0.61100000  0.88010000  0.62314000  1.0
  C  C99  1  0.38901000  0.38010000  0.87686000  1.0
  C  C100  1  0.35691000  0.95782000  0.35398000  1.0
  C  C101  1  0.64308000  0.45782000  0.14603000  1.0
  C  C102  1  0.64308000  0.04219000  0.64603000  1.0
  C  C103  1  0.35692000  0.54218000  0.85397000  1.0
  C  C104  1  0.28810000  0.97813000  0.28637000  1.0
  C  C105  1  0.71189000  0.47813000  0.21363000  1.0
  C  C106  1  0.71190000  0.02187000  0.71363000  1.0
  C  C107  1  0.28810000  0.52187000  0.78637000  1.0
  N  N108  1  0.15601000  0.18233000  0.16650000  1.0
  N  N109  1  0.84399000  0.68233000  0.33350000  1.0
  N  N110  1  0.84399000  0.81767000  0.83350000  1.0
  N  N111  1  0.15601000  0.31767000  0.66650000  1.0
  N  N112  1  0.08431000  0.06820000  0.08894000  1.0
  N  N113  1  0.91569000  0.56820000  0.41106000  1.0
  N  N114  1  0.91569000  0.93180000  0.91106000  1.0
  N  N115  1  0.08431000  0.43179000  0.58894000  1.0
  N  N116  1  0.15016000  0.02466000  0.14542000  1.0
  N  N117  1  0.84984000  0.52466000  0.35459000  1.0
  N  N118  1  0.84984000  0.97534000  0.85459000  1.0
  N  N119  1  0.15016000  0.47534000  0.64541000  1.0
  N  N120  1  0.40581000  0.02757000  0.39931000  1.0
  N  N121  1  0.59419000  0.52758000  0.10069000  1.0
  N  N122  1  0.59419000  0.97243000  0.60069000  1.0
  N  N123  1  0.40581000  0.47243000  0.89931000  1.0
  O  O124  1  0.42402000  0.41058000  0.07596000  1.0
  O  O125  1  0.57598000  0.91058000  0.42404000  1.0
  O  O126  1  0.57598000  0.58942000  0.92404000  1.0
  O  O127  1  0.42402000  0.08942000  0.57596000  1.0
  O  O128  1  0.36418000  0.55719000  0.11098000  1.0
  O  O129  1  0.63582000  0.05719000  0.38902000  1.0
  O  O130  1  0.63582000  0.44281000  0.88902000  1.0
  O  O131  1  0.36418000  0.94281000  0.61098000  1.0
  O  O132  1  0.05397000  0.41798000  0.40400000  1.0
  O  O133  1  0.94603000  0.91798000  0.09600000  1.0
  O  O134  1  0.94603000  0.58202000  0.59600000  1.0
  O  O135  1  0.05397000  0.08202000  0.90400000  1.0
  O  O136  1  0.13928000  0.55492000  0.38012000  1.0
  O  O137  1  0.86072000  0.05492000  0.11988000  1.0
  O  O138  1  0.86072000  0.44508000  0.61988000  1.0
  O  O139  1  0.13928000  0.94508000  0.88012000  1.0
