# generated using pymatgen
data_NiH8C12N2O5
_symmetry_space_group_name_H-M   'P 1'
_cell_length_a   8.30778000
_cell_length_b   11.95730000
_cell_length_c   12.24660000
_cell_angle_alpha   83.66010000
_cell_angle_beta   89.99990000
_cell_angle_gamma   89.99990000
_symmetry_Int_Tables_number   1
_chemical_formula_structural   NiH8C12N2O5
_chemical_formula_sum   'Ni4 H32 C48 N8 O20'
_cell_volume   1209.12019506
_cell_formula_units_Z   4
loop_
 _symmetry_equiv_pos_site_id
 _symmetry_equiv_pos_as_xyz
  1  'x, y, z'
loop_
 _atom_site_type_symbol
 _atom_site_label
 _atom_site_symmetry_multiplicity
 _atom_site_fract_x
 _atom_site_fract_y
 _atom_site_fract_z
 _atom_site_occupancy
  Ni  Ni0  1  0.43700000  0.51114000  0.29613000  1.0
  Ni  Ni1  1  0.93700000  0.98886000  0.20387000  1.0
  Ni  Ni2  1  0.56299000  0.48886000  0.70387000  1.0
  Ni  Ni3  1  0.06300000  0.01114000  0.79613000  1.0
  H  H4  1  0.68311000  0.54055000  0.42157000  1.0
  H  H5  1  0.18311000  0.95944000  0.07843000  1.0
  H  H6  1  0.31689000  0.45944000  0.57843000  1.0
  H  H7  1  0.81689000  0.04055000  0.92157000  1.0
  H  H8  1  0.54881000  0.61932000  0.45679000  1.0
  H  H9  1  0.04881000  0.88068000  0.04322000  1.0
  H  H10  1  0.45119000  0.38068000  0.54322000  1.0
  H  H11  1  0.95119000  0.11932000  0.95678000  1.0
  H  H12  1  0.56312000  0.18618000  0.54352000  1.0
  H  H13  1  0.06312000  0.31383000  0.95648000  1.0
  H  H14  1  0.43687000  0.81382000  0.45648000  1.0
  H  H15  1  0.93688000  0.68618000  0.04352000  1.0
  H  H16  1  0.69582000  0.99817000  0.58038000  1.0
  H  H17  1  0.19582000  0.50183000  0.91962000  1.0
  H  H18  1  0.30419000  0.00183000  0.41962000  1.0
  H  H19  1  0.80419000  0.49817000  0.08038000  1.0
  H  H20  1  0.75917000  0.21044000  0.21589000  1.0
  H  H21  1  0.25918000  0.28956000  0.28411000  1.0
  H  H22  1  0.24082000  0.78956000  0.78411000  1.0
  H  H23  1  0.74082000  0.71044000  0.71589000  1.0
  H  H24  1  0.80970000  0.83856000  0.59386000  1.0
  H  H25  1  0.30970000  0.66143000  0.90614000  1.0
  H  H26  1  0.19031000  0.16144000  0.40614000  1.0
  H  H27  1  0.69031000  0.33856000  0.09386000  1.0
  H  H28  1  0.96920000  0.65889000  0.59650000  1.0
  H  H29  1  0.46920000  0.84111000  0.90350000  1.0
  H  H30  1  0.03080000  0.34111000  0.40350000  1.0
  H  H31  1  0.53081000  0.15889000  0.09650000  1.0
  H  H32  1  0.10887000  0.76468000  0.26290000  1.0
  H  H33  1  0.60887000  0.73533000  0.23710000  1.0
  H  H34  1  0.89113000  0.23533000  0.73710000  1.0
  H  H35  1  0.39113000  0.26467000  0.76290000  1.0
  C  C36  1  0.57970000  0.32717000  0.34819000  1.0
  C  C37  1  0.07970000  0.17283000  0.15181000  1.0
  C  C38  1  0.42029000  0.67283000  0.65181000  1.0
  C  C39  1  0.92030000  0.82717000  0.84819000  1.0
  C  C40  1  0.65158000  0.21365000  0.37666000  1.0
  C  C41  1  0.15158000  0.28635000  0.12334000  1.0
  C  C42  1  0.34842000  0.78635000  0.62334000  1.0
  C  C43  1  0.84842000  0.71365000  0.87666000  1.0
  C  C44  1  0.63232000  0.15137000  0.47962000  1.0
  C  C45  1  0.13232000  0.34863000  0.02038000  1.0
  C  C46  1  0.36768000  0.84863000  0.52038000  1.0
  C  C47  1  0.86768000  0.65137000  0.97962000  1.0
  C  C48  1  0.70455000  0.04609000  0.49962000  1.0
  C  C49  1  0.20455000  0.45391000  0.00038000  1.0
  C  C50  1  0.29545000  0.95391000  0.50038000  1.0
  C  C51  1  0.79545000  0.54610000  0.99962000  1.0
  C  C52  1  0.79053000  0.00311000  0.41499000  1.0
  C  C53  1  0.29053000  0.49689000  0.08501000  1.0
  C  C54  1  0.20947000  0.99689000  0.58501000  1.0
  C  C55  1  0.70947000  0.50311000  0.91499000  1.0
  C  C56  1  0.74003000  0.16548000  0.29702000  1.0
  C  C57  1  0.24003000  0.33452000  0.20298000  1.0
  C  C58  1  0.25996000  0.83452000  0.70298000  1.0
  C  C59  1  0.75996000  0.66548000  0.79702000  1.0
  C  C60  1  0.87379000  0.89388000  0.42562000  1.0
  C  C61  1  0.37378000  0.60612000  0.07438000  1.0
  C  C62  1  0.12622000  0.10612000  0.57438000  1.0
  C  C63  1  0.62622000  0.39389000  0.92562000  1.0
  C  C64  1  0.87351000  0.81818000  0.52105000  1.0
  C  C65  1  0.37350000  0.68182000  0.97895000  1.0
  C  C66  1  0.12649000  0.18182000  0.47895000  1.0
  C  C67  1  0.62650000  0.31818000  0.02105000  1.0
  C  C68  1  0.96297000  0.71966000  0.52347000  1.0
  C  C69  1  0.46296000  0.78034000  0.97653000  1.0
  C  C70  1  0.03703000  0.28034000  0.47653000  1.0
  C  C71  1  0.53703000  0.21966000  0.02347000  1.0
  C  C72  1  0.05161000  0.69883000  0.43096000  1.0
  C  C73  1  0.55160000  0.80117000  0.06904000  1.0
  C  C74  1  0.94839000  0.30117000  0.56904000  1.0
  C  C75  1  0.44840000  0.19884000  0.93096000  1.0
  C  C76  1  0.04251000  0.77693000  0.33734000  1.0
  C  C77  1  0.54250000  0.72307000  0.16266000  1.0
  C  C78  1  0.95749000  0.22307000  0.66266000  1.0
  C  C79  1  0.45750000  0.27693000  0.83734000  1.0
  C  C80  1  0.16715000  0.60099000  0.43511000  1.0
  C  C81  1  0.66714000  0.89900000  0.06489000  1.0
  C  C82  1  0.83284000  0.39900000  0.56490000  1.0
  C  C83  1  0.33285000  0.10100000  0.93510000  1.0
  N  N84  1  0.80502000  0.06319000  0.31483000  1.0
  N  N85  1  0.30502000  0.43681000  0.18517000  1.0
  N  N86  1  0.19498000  0.93681000  0.68517000  1.0
  N  N87  1  0.69498000  0.56319000  0.81483000  1.0
  N  N88  1  0.95678000  0.87168000  0.33501000  1.0
  N  N89  1  0.45678000  0.62833000  0.16499000  1.0
  N  N90  1  0.04323000  0.12833000  0.66499000  1.0
  N  N91  1  0.54322000  0.37168000  0.83501000  1.0
  O  O92  1  0.46117000  0.35704000  0.40575000  1.0
  O  O93  1  0.96116000  0.14296000  0.09425000  1.0
  O  O94  1  0.53884000  0.64296000  0.59425000  1.0
  O  O95  1  0.03884000  0.85703000  0.90575000  1.0
  O  O96  1  0.63033000  0.39081000  0.26547000  1.0
  O  O97  1  0.13033000  0.10919000  0.23452000  1.0
  O  O98  1  0.36966000  0.60919000  0.73452000  1.0
  O  O99  1  0.86967000  0.89081000  0.76548000  1.0
  O  O100  1  0.24139000  0.59275000  0.34473000  1.0
  O  O101  1  0.74139000  0.90725000  0.15526000  1.0
  O  O102  1  0.75860000  0.40724000  0.65526000  1.0
  O  O103  1  0.25862000  0.09275000  0.84474000  1.0
  O  O104  1  0.18304000  0.54240000  0.52626000  1.0
  O  O105  1  0.68304000  0.95759000  0.97373000  1.0
  O  O106  1  0.81696000  0.45760000  0.47374000  1.0
  O  O107  1  0.31696000  0.04240000  0.02626000  1.0
  O  O108  1  0.59402000  0.59241000  0.38964000  1.0
  O  O109  1  0.09402000  0.90759000  0.11036000  1.0
  O  O110  1  0.40597000  0.40759000  0.61036000  1.0
  O  O111  1  0.90598000  0.09241000  0.88964000  1.0
