# generated using pymatgen
data_ErH24C36(NO2)3
_symmetry_space_group_name_H-M   'P 1'
_cell_length_a   9.36057000
_cell_length_b   19.93400000
_cell_length_c   19.93390000
_cell_angle_alpha   86.11190000
_cell_angle_beta   76.45090000
_cell_angle_gamma   76.45070000
_symmetry_Int_Tables_number   1
_chemical_formula_structural   ErH24C36(NO2)3
_chemical_formula_sum   'Er4 H96 C144 N12 O24'
_cell_volume   3515.05450264
_cell_formula_units_Z   4
loop_
 _symmetry_equiv_pos_site_id
 _symmetry_equiv_pos_as_xyz
  1  'x, y, z'
loop_
 _atom_site_type_symbol
 _atom_site_label
 _atom_site_symmetry_multiplicity
 _atom_site_fract_x
 _atom_site_fract_y
 _atom_site_fract_z
 _atom_site_occupancy
  Er  Er0  1  0.78040000  0.96976000  0.46963000  1.0
  Er  Er1  1  0.71960000  0.53037000  0.03024000  1.0
  Er  Er2  1  0.21960000  0.03024000  0.53037000  1.0
  Er  Er3  1  0.28039000  0.46963000  0.96976000  1.0
  H  H4  1  0.70225000  0.16966000  0.35873000  1.0
  H  H5  1  0.76835000  0.85873000  0.66980000  1.0
  H  H6  1  0.79775000  0.64127000  0.83034000  1.0
  H  H7  1  0.73165000  0.33020000  0.14127000  1.0
  H  H8  1  0.29775000  0.83034000  0.64128000  1.0
  H  H9  1  0.23165000  0.14127000  0.33020000  1.0
  H  H10  1  0.20225000  0.35872000  0.16966000  1.0
  H  H11  1  0.26835000  0.66980000  0.85873000  1.0
  H  H12  1  0.24480000  0.19199000  0.47508000  1.0
  H  H13  1  0.08791000  0.97487000  0.69198000  1.0
  H  H14  1  0.25519000  0.52492000  0.80801000  1.0
  H  H15  1  0.41208000  0.30802000  0.02513000  1.0
  H  H16  1  0.75520000  0.80801000  0.52492000  1.0
  H  H17  1  0.91208000  0.02513000  0.30802000  1.0
  H  H18  1  0.74481000  0.47508000  0.19199000  1.0
  H  H19  1  0.58792000  0.69198000  0.97487000  1.0
  H  H20  1  0.64247000  0.29194000  0.31806000  1.0
  H  H21  1  0.74685000  0.81807000  0.79207000  1.0
  H  H22  1  0.85754000  0.68194000  0.70805000  1.0
  H  H23  1  0.75315000  0.20794000  0.18193000  1.0
  H  H24  1  0.35754000  0.70806000  0.68194000  1.0
  H  H25  1  0.25315000  0.18193000  0.20793000  1.0
  H  H26  1  0.14246000  0.31806000  0.29194000  1.0
  H  H27  1  0.24685000  0.79207000  0.81807000  1.0
  H  H28  1  0.18414000  0.31370000  0.43516000  1.0
  H  H29  1  0.06689000  0.93507000  0.81372000  1.0
  H  H30  1  0.31586000  0.56484000  0.68630000  1.0
  H  H31  1  0.43311000  0.18628000  0.06493000  1.0
  H  H32  1  0.81586000  0.68630000  0.56483000  1.0
  H  H33  1  0.93311000  0.06493000  0.18628000  1.0
  H  H34  1  0.68414000  0.43516000  0.31370000  1.0
  H  H35  1  0.56689000  0.81372000  0.93507000  1.0
  H  H36  1  0.51356000  0.36748000  0.24650000  1.0
  H  H37  1  0.87222000  0.74647000  0.86756000  1.0
  H  H38  1  0.98644000  0.75350000  0.63251000  1.0
  H  H39  1  0.62778000  0.13244000  0.25352000  1.0
  H  H40  1  0.48644000  0.63251000  0.75350000  1.0
  H  H41  1  0.12778000  0.25352000  0.13244000  1.0
  H  H42  1  0.01355000  0.24650000  0.36749000  1.0
  H  H43  1  0.37222000  0.86756000  0.74647000  1.0
  H  H44  1  0.21681000  0.42227000  0.44583000  1.0
  H  H45  1  0.91466000  0.94593000  0.92237000  1.0
  H  H46  1  0.28320000  0.55417000  0.57772000  1.0
  H  H47  1  0.58534000  0.07763000  0.05406000  1.0
  H  H48  1  0.78320000  0.57772000  0.55417000  1.0
  H  H49  1  0.08534000  0.05406000  0.07763000  1.0
  H  H50  1  0.71680000  0.44583000  0.42227000  1.0
  H  H51  1  0.41466000  0.92237000  0.94593000  1.0
  H  H52  1  0.45429000  0.49152000  0.21320000  1.0
  H  H53  1  0.84093000  0.71321000  0.99163000  1.0
  H  H54  1  0.04571000  0.78680000  0.50848000  1.0
  H  H55  1  0.65907000  0.00837000  0.28679000  1.0
  H  H56  1  0.54571000  0.50848000  0.78680000  1.0
  H  H57  1  0.15906000  0.28679000  0.00837000  1.0
  H  H58  1  0.95428000  0.21320000  0.49153000  1.0
  H  H59  1  0.34093000  0.99163000  0.71321000  1.0
  H  H60  1  0.16195000  0.54346000  0.40228000  1.0
  H  H61  1  0.89191000  0.90247000  0.04359000  1.0
  H  H62  1  0.33806000  0.59772000  0.45654000  1.0
  H  H63  1  0.60809000  0.95641000  0.09753000  1.0
  H  H64  1  0.83806000  0.45654000  0.59772000  1.0
  H  H65  1  0.10809000  0.09753000  0.95641000  1.0
  H  H66  1  0.66194000  0.40228000  0.54346000  1.0
  H  H67  1  0.39191000  0.04359000  0.90247000  1.0
  H  H68  1  0.84072000  0.88395000  0.24052000  1.0
  H  H69  1  0.03527000  0.74053000  0.38411000  1.0
  H  H70  1  0.65929000  0.75948000  0.11605000  1.0
  H  H71  1  0.46473000  0.61589000  0.25947000  1.0
  H  H72  1  0.15928000  0.11605000  0.75948000  1.0
  H  H73  1  0.96473000  0.25947000  0.61589000  1.0
  H  H74  1  0.34071000  0.24052000  0.88395000  1.0
  H  H75  1  0.53527000  0.38411000  0.74053000  1.0
  H  H76  1  0.93028000  0.79425000  0.15048000  1.0
  H  H77  1  0.12494000  0.65035000  0.29457000  1.0
  H  H78  1  0.56972000  0.84952000  0.20576000  1.0
  H  H79  1  0.37506000  0.70543000  0.34965000  1.0
  H  H80  1  0.06972000  0.20575000  0.84952000  1.0
  H  H81  1  0.87506000  0.34966000  0.70543000  1.0
  H  H82  1  0.43027000  0.15048000  0.79424000  1.0
  H  H83  1  0.62494000  0.29457000  0.65034000  1.0
  H  H84  1  0.91274000  0.70258000  0.10572000  1.0
  H  H85  1  0.27843000  0.60561000  0.20292000  1.0
  H  H86  1  0.58726000  0.89428000  0.29742000  1.0
  H  H87  1  0.22157000  0.79708000  0.39439000  1.0
  H  H88  1  0.08726000  0.29742000  0.89428000  1.0
  H  H89  1  0.72157000  0.39439000  0.79708000  1.0
  H  H90  1  0.41274000  0.10572000  0.70258000  1.0
  H  H91  1  0.77843000  0.20293000  0.60561000  1.0
  H  H92  1  0.00885000  0.61087000  0.01882000  1.0
  H  H93  1  0.36166000  0.51895000  0.11098000  1.0
  H  H94  1  0.49115000  0.98118000  0.38913000  1.0
  H  H95  1  0.13834000  0.88902000  0.48105000  1.0
  H  H96  1  0.99115000  0.38913000  0.98118000  1.0
  H  H97  1  0.63834000  0.48105000  0.88902000  1.0
  H  H98  1  0.50885000  0.01882000  0.61087000  1.0
  H  H99  1  0.86166000  0.11098000  0.51895000  1.0
  C  C100  1  0.51372000  0.09974000  0.44209000  1.0
  C  C101  1  0.94398000  0.94195000  0.59977000  1.0
  C  C102  1  0.98626000  0.55791000  0.90026000  1.0
  C  C103  1  0.55601000  0.40023000  0.05805000  1.0
  C  C104  1  0.48627000  0.90026000  0.55791000  1.0
  C  C105  1  0.05602000  0.05805000  0.40023000  1.0
  C  C106  1  0.01373000  0.44209000  0.09973000  1.0
  C  C107  1  0.44398000  0.59977000  0.94195000  1.0
  C  C108  1  0.47697000  0.17310000  0.41836000  1.0
  C  C109  1  0.93091000  0.91830000  0.67317000  1.0
  C  C110  1  0.02303000  0.58164000  0.82689000  1.0
  C  C111  1  0.56908000  0.32683000  0.08170000  1.0
  C  C112  1  0.52304000  0.82689000  0.58164000  1.0
  C  C113  1  0.06908000  0.08170000  0.32683000  1.0
  C  C114  1  0.97697000  0.41836000  0.17310000  1.0
  C  C115  1  0.43091000  0.67317000  0.91830000  1.0
  C  C116  1  0.58858000  0.20166000  0.37421000  1.0
  C  C117  1  0.83472000  0.87419000  0.70177000  1.0
  C  C118  1  0.91142000  0.62579000  0.79833000  1.0
  C  C119  1  0.66527000  0.29823000  0.12580000  1.0
  C  C120  1  0.41142000  0.79834000  0.62579000  1.0
  C  C121  1  0.16528000  0.12580000  0.29823000  1.0
  C  C122  1  0.08858000  0.37421000  0.20166000  1.0
  C  C123  1  0.33473000  0.70177000  0.87419000  1.0
  C  C124  1  0.33124000  0.21408000  0.44049000  1.0
  C  C125  1  0.01379000  0.94038000  0.71412000  1.0
  C  C126  1  0.16876000  0.55951000  0.78592000  1.0
  C  C127  1  0.48621000  0.28588000  0.05962000  1.0
  C  C128  1  0.66876000  0.78592000  0.55951000  1.0
  C  C129  1  0.98622000  0.05962000  0.28588000  1.0
  C  C130  1  0.83124000  0.44049000  0.21408000  1.0
  C  C131  1  0.51378000  0.71412000  0.94038000  1.0
  C  C132  1  0.55447000  0.26984000  0.35151000  1.0
  C  C133  1  0.82351000  0.85150000  0.76994000  1.0
  C  C134  1  0.94553000  0.64849000  0.73016000  1.0
  C  C135  1  0.67649000  0.23006000  0.14850000  1.0
  C  C136  1  0.44553000  0.73016000  0.64849000  1.0
  C  C137  1  0.17649000  0.14850000  0.23006000  1.0
  C  C138  1  0.05447000  0.35150000  0.26984000  1.0
  C  C139  1  0.32352000  0.76994000  0.85150000  1.0
  C  C140  1  0.29812000  0.28247000  0.41837000  1.0
  C  C141  1  0.00071000  0.91830000  0.78252000  1.0
  C  C142  1  0.20188000  0.58163000  0.71753000  1.0
  C  C143  1  0.49930000  0.21748000  0.08170000  1.0
  C  C144  1  0.70188000  0.71753000  0.58163000  1.0
  C  C145  1  0.99929000  0.08170000  0.21748000  1.0
  C  C146  1  0.79812000  0.41837000  0.28247000  1.0
  C  C147  1  0.50071000  0.78252000  0.91830000  1.0
  C  C148  1  0.40842000  0.31129000  0.37326000  1.0
  C  C149  1  0.90660000  0.87325000  0.81138000  1.0
  C  C150  1  0.09159000  0.62674000  0.68871000  1.0
  C  C151  1  0.59340000  0.18863000  0.12675000  1.0
  C  C152  1  0.59159000  0.68871000  0.62674000  1.0
  C  C153  1  0.09341000  0.12675000  0.18862000  1.0
  C  C154  1  0.90842000  0.37326000  0.31129000  1.0
  C  C155  1  0.40659000  0.81138000  0.87325000  1.0
  C  C156  1  0.37137000  0.38377000  0.34985000  1.0
  C  C157  1  0.89461000  0.84989000  0.88388000  1.0
  C  C158  1  0.12863000  0.65015000  0.61623000  1.0
  C  C159  1  0.60540000  0.11612000  0.15011000  1.0
  C  C160  1  0.62863000  0.61623000  0.65016000  1.0
  C  C161  1  0.10539000  0.15011000  0.11612000  1.0
  C  C162  1  0.87137000  0.34984000  0.38377000  1.0
  C  C163  1  0.39461000  0.88388000  0.84989000  1.0
  C  C164  1  0.43639000  0.40481000  0.28335000  1.0
  C  C165  1  0.87511000  0.78337000  0.90492000  1.0
  C  C166  1  0.06361000  0.71665000  0.59518000  1.0
  C  C167  1  0.62489000  0.09508000  0.21663000  1.0
  C  C168  1  0.56361000  0.59518000  0.71665000  1.0
  C  C169  1  0.12489000  0.21663000  0.09508000  1.0
  C  C170  1  0.93639000  0.28335000  0.40482000  1.0
  C  C171  1  0.37511000  0.90492000  0.78337000  1.0
  C  C172  1  0.26983000  0.43503000  0.39320000  1.0
  C  C173  1  0.90149000  0.89331000  0.93513000  1.0
  C  C174  1  0.23017000  0.60680000  0.56497000  1.0
  C  C175  1  0.59851000  0.06488000  0.10669000  1.0
  C  C176  1  0.73017000  0.56496000  0.60680000  1.0
  C  C177  1  0.09851000  0.10669000  0.06487000  1.0
  C  C178  1  0.76983000  0.39320000  0.43503000  1.0
  C  C179  1  0.40149000  0.93513000  0.89331000  1.0
  C  C180  1  0.40114000  0.47421000  0.26414000  1.0
  C  C181  1  0.86027000  0.76419000  0.97432000  1.0
  C  C182  1  0.09887000  0.73586000  0.52579000  1.0
  C  C183  1  0.63973000  0.02568000  0.23581000  1.0
  C  C184  1  0.59887000  0.52579000  0.73586000  1.0
  C  C185  1  0.13972000  0.23581000  0.02568000  1.0
  C  C186  1  0.90113000  0.26414000  0.47421000  1.0
  C  C187  1  0.36027000  0.97432000  0.76419000  1.0
  C  C188  1  0.24046000  0.50297000  0.36904000  1.0
  C  C189  1  0.88715000  0.86917000  0.00310000  1.0
  C  C190  1  0.25955000  0.63096000  0.49702000  1.0
  C  C191  1  0.61286000  0.99690000  0.13083000  1.0
  C  C192  1  0.75955000  0.49702000  0.63096000  1.0
  C  C193  1  0.11285000  0.13083000  0.99690000  1.0
  C  C194  1  0.74045000  0.36904000  0.50298000  1.0
  C  C195  1  0.38715000  0.00310000  0.86917000  1.0
  C  C196  1  0.87859000  0.87160000  0.37161000  1.0
  C  C197  1  0.62141000  0.62839000  0.12841000  1.0
  C  C198  1  0.12141000  0.12841000  0.62839000  1.0
  C  C199  1  0.37859000  0.37161000  0.87159000  1.0
  C  C200  1  0.93230000  0.81784000  0.31794000  1.0
  C  C201  1  0.56771000  0.68206000  0.18216000  1.0
  C  C202  1  0.06770000  0.18216000  0.68206000  1.0
  C  C203  1  0.43230000  0.31794000  0.81784000  1.0
  C  C204  1  0.90317000  0.83272000  0.25201000  1.0
  C  C205  1  0.01241000  0.75195000  0.33289000  1.0
  C  C206  1  0.59684000  0.74799000  0.16728000  1.0
  C  C207  1  0.48760000  0.66711000  0.24805000  1.0
  C  C208  1  0.09683000  0.16728000  0.74799000  1.0
  C  C209  1  0.98760000  0.24805000  0.66711000  1.0
  C  C210  1  0.40316000  0.25201000  0.83272000  1.0
  C  C211  1  0.51240000  0.33289000  0.75195000  1.0
  C  C212  1  0.95300000  0.78227000  0.20175000  1.0
  C  C213  1  0.06301000  0.70161000  0.28252000  1.0
  C  C214  1  0.54700000  0.79825000  0.21773000  1.0
  C  C215  1  0.43699000  0.71748000  0.29839000  1.0
  C  C216  1  0.04700000  0.21773000  0.79825000  1.0
  C  C217  1  0.93699000  0.29839000  0.71748000  1.0
  C  C218  1  0.45300000  0.20175000  0.78227000  1.0
  C  C219  1  0.56300000  0.28252000  0.70161000  1.0
  C  C220  1  0.03375000  0.71604000  0.21628000  1.0
  C  C221  1  0.46625000  0.78372000  0.28396000  1.0
  C  C222  1  0.96625000  0.28396000  0.78372000  1.0
  C  C223  1  0.53374000  0.21628000  0.71604000  1.0
  C  C224  1  0.08706000  0.66264000  0.16288000  1.0
  C  C225  1  0.41294000  0.83712000  0.33736000  1.0
  C  C226  1  0.91294000  0.33736000  0.83712000  1.0
  C  C227  1  0.58706000  0.16288000  0.66264000  1.0
  C  C228  1  0.01289000  0.66304000  0.10922000  1.0
  C  C229  1  0.21454000  0.60909000  0.16328000  1.0
  C  C230  1  0.48710000  0.89078000  0.33696000  1.0
  C  C231  1  0.28547000  0.83672000  0.39091000  1.0
  C  C232  1  0.98711000  0.33696000  0.89078000  1.0
  C  C233  1  0.78546000  0.39091000  0.83672000  1.0
  C  C234  1  0.51289000  0.10922000  0.66304000  1.0
  C  C235  1  0.71453000  0.16329000  0.60909000  1.0
  C  C236  1  0.06696000  0.61176000  0.05999000  1.0
  C  C237  1  0.26132000  0.55998000  0.11189000  1.0
  C  C238  1  0.43304000  0.94001000  0.38824000  1.0
  C  C239  1  0.23868000  0.88811000  0.44002000  1.0
  C  C240  1  0.93304000  0.38824000  0.94001000  1.0
  C  C241  1  0.73868000  0.44002000  0.88811000  1.0
  C  C242  1  0.56696000  0.05999000  0.61176000  1.0
  C  C243  1  0.76132000  0.11189000  0.55998000  1.0
  N  N244  1  0.30511000  0.52338000  0.30592000  1.0
  N  N245  1  0.86533000  0.80603000  0.02349000  1.0
  N  N246  1  0.19489000  0.69408000  0.47662000  1.0
  N  N247  1  0.63467000  0.97651000  0.19397000  1.0
  N  N248  1  0.69489000  0.47662000  0.69408000  1.0
  N  N249  1  0.13467000  0.19397000  0.97651000  1.0
  N  N250  1  0.80510000  0.30592000  0.52338000  1.0
  N  N251  1  0.36533000  0.02349000  0.80603000  1.0
  N  N252  1  0.18971000  0.56042000  0.06044000  1.0
  N  N253  1  0.31029000  0.93956000  0.43958000  1.0
  N  N254  1  0.81029000  0.43958000  0.93956000  1.0
  N  N255  1  0.68971000  0.06044000  0.56042000  1.0
  O  O256  1  0.64559000  0.06348000  0.41957000  1.0
  O  O257  1  0.87072000  0.91949000  0.56350000  1.0
  O  O258  1  0.85440000  0.58043000  0.93652000  1.0
  O  O259  1  0.62926000  0.43650000  0.08051000  1.0
  O  O260  1  0.35442000  0.93652000  0.58043000  1.0
  O  O261  1  0.12928000  0.08051000  0.43650000  1.0
  O  O262  1  0.14559000  0.41957000  0.06348000  1.0
  O  O263  1  0.37073000  0.56350000  0.91949000  1.0
  O  O264  1  0.41101000  0.07631000  0.48418000  1.0
  O  O265  1  0.02843000  0.98389000  0.57632000  1.0
  O  O266  1  0.08898000  0.51581000  0.92369000  1.0
  O  O267  1  0.47157000  0.42368000  0.01610000  1.0
  O  O268  1  0.58900000  0.92369000  0.51581000  1.0
  O  O269  1  0.97157000  0.01610000  0.42368000  1.0
  O  O270  1  0.91101000  0.48419000  0.07632000  1.0
  O  O271  1  0.52843000  0.57632000  0.98390000  1.0
  O  O272  1  0.79846000  0.93086000  0.35917000  1.0
  O  O273  1  0.91181000  0.85927000  0.43092000  1.0
  O  O274  1  0.70154000  0.64083000  0.06914000  1.0
  O  O275  1  0.58820000  0.56908000  0.14074000  1.0
  O  O276  1  0.20153000  0.06914000  0.64083000  1.0
  O  O277  1  0.08820000  0.14074000  0.56908000  1.0
  O  O278  1  0.29846000  0.35917000  0.93086000  1.0
  O  O279  1  0.41180000  0.43092000  0.85926000  1.0
