# generated using pymatgen
data_CdH14C14S2N2O5
_symmetry_space_group_name_H-M   'P 1'
_cell_length_a   6.60044000
_cell_length_b   11.19380637
_cell_length_c   11.95796146
_cell_angle_alpha   85.37078028
_cell_angle_beta   74.00129201
_cell_angle_gamma   72.89556655
_symmetry_Int_Tables_number   1
_chemical_formula_structural   CdH14C14S2N2O5
_chemical_formula_sum   'Cd2 H28 C28 S4 N4 O10'
_cell_volume   811.71907651
_cell_formula_units_Z   2
loop_
 _symmetry_equiv_pos_site_id
 _symmetry_equiv_pos_as_xyz
  1  'x, y, z'
loop_
 _atom_site_type_symbol
 _atom_site_label
 _atom_site_symmetry_multiplicity
 _atom_site_fract_x
 _atom_site_fract_y
 _atom_site_fract_z
 _atom_site_occupancy
  Cd  Cd0  1  0.43432000  0.25000000  0.25000000  1.0
  Cd  Cd1  1  0.56569000  0.75000000  0.74999000  1.0
  H  H2  1  0.96846000  0.22550000  0.31392000  1.0
  H  H3  1  0.00803000  0.27426000  0.18595000  1.0
  H  H4  1  0.03154000  0.77449000  0.68608000  1.0
  H  H5  1  0.99198000  0.72574000  0.81405000  1.0
  H  H6  1  0.12425000  0.30290000  0.58583000  1.0
  H  H7  1  0.51274000  0.19702000  0.91478000  1.0
  H  H8  1  0.87574000  0.69709000  0.41418000  1.0
  H  H9  1  0.48726000  0.80298000  0.08522000  1.0
  H  H10  1  0.00757000  0.52837000  0.64609000  1.0
  H  H11  1  0.68148000  0.97166000  0.85435000  1.0
  H  H12  1  0.99242000  0.47163000  0.35390000  1.0
  H  H13  1  0.31852000  0.02834000  0.14564000  1.0
  H  H14  1  0.34902000  0.54788000  0.71363000  1.0
  H  H15  1  0.11071000  0.95214000  0.78586000  1.0
  H  H16  1  0.65098000  0.45212000  0.28639000  1.0
  H  H17  1  0.88930000  0.04785000  0.21414000  1.0
  H  H18  1  0.43310000  0.32704000  0.65912000  1.0
  H  H19  1  0.91981000  0.17280000  0.84054000  1.0
  H  H20  1  0.56691000  0.67295000  0.34090000  1.0
  H  H21  1  0.08020000  0.82720000  0.15945000  1.0
  H  H22  1  0.49307000  0.13297000  0.64319000  1.0
  H  H23  1  0.76919000  0.36690000  0.85696000  1.0
  H  H24  1  0.50691000  0.86702000  0.35680000  1.0
  H  H25  1  0.23083000  0.63311000  0.14303000  1.0
  H  H26  1  0.67603000  0.00527000  0.55719000  1.0
  H  H27  1  0.73896000  0.49473000  0.94264000  1.0
  H  H28  1  0.32394000  0.99475000  0.44281000  1.0
  H  H29  1  0.26106000  0.50526000  0.05736000  1.0
  C  C30  1  0.95087000  0.35406000  0.61659000  1.0
  C  C31  1  0.42130000  0.14590000  0.88385000  1.0
  C  C32  1  0.04913000  0.64593000  0.38341000  1.0
  C  C33  1  0.57869000  0.85411000  0.11613000  1.0
  C  C34  1  0.88663000  0.47901000  0.64776000  1.0
  C  C35  1  0.51310000  0.02100000  0.85253000  1.0
  C  C36  1  0.11338000  0.52098000  0.35224000  1.0
  C  C37  1  0.48690000  0.97900000  0.14747000  1.0
  C  C38  1  0.51899000  0.49062000  0.68427000  1.0
  C  C39  1  0.19407000  0.00929000  0.81550000  1.0
  C  C40  1  0.48102000  0.50938000  0.31574000  1.0
  C  C41  1  0.80594000  0.99071000  0.18450000  1.0
  C  C42  1  0.56786000  0.36631000  0.65373000  1.0
  C  C43  1  0.08823000  0.13355000  0.84610000  1.0
  C  C44  1  0.43215000  0.63369000  0.34629000  1.0
  C  C45  1  0.91177000  0.86644000  0.15390000  1.0
  C  C46  1  0.78883000  0.29395000  0.62063000  1.0
  C  C47  1  0.20351000  0.20600000  0.87951000  1.0
  C  C48  1  0.21116000  0.70604000  0.37938000  1.0
  C  C49  1  0.79650000  0.79401000  0.12048000  1.0
  C  C50  1  0.63467000  0.10753000  0.56689000  1.0
  C  C51  1  0.80922000  0.39247000  0.93318000  1.0
  C  C52  1  0.36531000  0.89248000  0.43312000  1.0
  C  C53  1  0.19077000  0.60753000  0.06682000  1.0
  C  C54  1  0.57204000  0.16680000  0.45726000  1.0
  C  C55  1  0.69578000  0.33350000  0.04284000  1.0
  C  C56  1  0.42794000  0.83320000  0.54275000  1.0
  C  C57  1  0.30423000  0.66649000  0.95715000  1.0
  S  S58  1  0.87511000  0.13471000  0.58943000  1.0
  S  S59  1  0.09921000  0.36526000  0.91083000  1.0
  S  S60  1  0.12486000  0.86528000  0.41059000  1.0
  S  S61  1  0.90080000  0.63473000  0.08918000  1.0
  N  N62  1  0.67416000  0.54698000  0.68259000  1.0
  N  N63  1  0.40368000  0.95299000  0.81737000  1.0
  N  N64  1  0.32584000  0.45302000  0.31741000  1.0
  N  N65  1  0.59634000  0.04701000  0.18261000  1.0
  O  O66  1  0.70979000  0.20273000  0.37560000  1.0
  O  O67  1  0.78752000  0.29764000  0.12463000  1.0
  O  O68  1  0.29022000  0.79726000  0.62440000  1.0
  O  O69  1  0.21245000  0.70237000  0.87538000  1.0
  O  O70  1  0.37873000  0.17313000  0.45244000  1.0
  O  O71  1  0.50390000  0.32727000  0.04764000  1.0
  O  O72  1  0.62127000  0.82687000  0.54756000  1.0
  O  O73  1  0.49610000  0.67274000  0.95235000  1.0
  O  O74  1  0.08124000  0.24966000  0.24986000  1.0
  O  O75  1  0.91876000  0.75034000  0.75014000  1.0
