# generated using pymatgen
data_ZnH20C23(NO2)3
_symmetry_space_group_name_H-M   'P 1'
_cell_length_a   8.51867000
_cell_length_b   10.27050000
_cell_length_c   15.10210000
_cell_angle_alpha   106.97030000
_cell_angle_beta   91.44480000
_cell_angle_gamma   105.85870000
_symmetry_Int_Tables_number   1
_chemical_formula_structural   ZnH20C23(NO2)3
_chemical_formula_sum   'Zn2 H40 C46 N6 O12'
_cell_volume   1207.72428730
_cell_formula_units_Z   2
loop_
 _symmetry_equiv_pos_site_id
 _symmetry_equiv_pos_as_xyz
  1  'x, y, z'
loop_
 _atom_site_type_symbol
 _atom_site_label
 _atom_site_symmetry_multiplicity
 _atom_site_fract_x
 _atom_site_fract_y
 _atom_site_fract_z
 _atom_site_occupancy
  Zn  Zn0  1  0.43022000  0.07961000  0.41548000  1.0
  Zn  Zn1  1  0.56977000  0.92038000  0.58452000  1.0
  H  H2  1  0.13531000  0.99496000  0.51558000  1.0
  H  H3  1  0.86468000  0.00504000  0.48442000  1.0
  H  H4  1  0.32009000  0.55672000  0.83409000  1.0
  H  H5  1  0.67993000  0.44328000  0.16591000  1.0
  H  H6  1  0.13386000  0.03003000  0.70702000  1.0
  H  H7  1  0.86614000  0.96997000  0.29298000  1.0
  H  H8  1  0.99807000  0.15069000  0.83322000  1.0
  H  H9  1  0.00193000  0.84933000  0.16678000  1.0
  H  H10  1  0.31769000  0.75954000  0.29352000  1.0
  H  H11  1  0.68230000  0.24046000  0.70648000  1.0
  H  H12  1  0.91815000  0.78559000  0.52132000  1.0
  H  H13  1  0.08183000  0.21441000  0.47868000  1.0
  H  H14  1  0.10702000  0.53720000  0.28772000  1.0
  H  H15  1  0.89297000  0.46280000  0.71229000  1.0
  H  H16  1  0.91430000  0.36324000  0.28079000  1.0
  H  H17  1  0.08570000  0.63676000  0.71922000  1.0
  H  H18  1  0.28888000  0.61334000  0.98143000  1.0
  H  H19  1  0.71114000  0.38668000  0.01857000  1.0
  H  H20  1  0.52535000  0.65804000  0.77655000  1.0
  H  H21  1  0.47466000  0.34195000  0.22344000  1.0
  H  H22  1  0.68548000  0.61134000  0.71421000  1.0
  H  H23  1  0.31454000  0.38865000  0.28578000  1.0
  H  H24  1  0.83503000  0.27366000  0.88382000  1.0
  H  H25  1  0.16499000  0.72636000  0.11618000  1.0
  H  H26  1  0.76900000  0.61136000  0.53306000  1.0
  H  H27  1  0.23099000  0.38864000  0.46695000  1.0
  H  H28  1  0.55711000  0.39070000  0.53133000  1.0
  H  H29  1  0.44287000  0.60930000  0.46868000  1.0
  H  H30  1  0.69425000  0.15462000  0.29016000  1.0
  H  H31  1  0.30574000  0.84538000  0.70984000  1.0
  H  H32  1  0.58073000  0.53948000  0.89218000  1.0
  H  H33  1  0.41928000  0.46052000  0.10781000  1.0
  H  H34  1  0.72177000  0.47200000  0.82446000  1.0
  H  H35  1  0.27824000  0.52799000  0.17553000  1.0
  H  H36  1  0.91077000  0.71953000  0.85393000  1.0
  H  H37  1  0.08924000  0.28047000  0.14607000  1.0
  H  H38  1  0.86315000  0.68703000  0.96081000  1.0
  H  H39  1  0.13686000  0.31296000  0.03918000  1.0
  H  H40  1  0.76760000  0.79293000  0.91692000  1.0
  H  H41  1  0.23241000  0.20707000  0.08308000  1.0
  C  C42  1  0.86328000  0.50903000  0.40650000  1.0
  C  C43  1  0.13671000  0.49097000  0.59351000  1.0
  C  C44  1  0.99189000  0.63848000  0.40508000  1.0
  C  C45  1  0.00809000  0.36152000  0.59493000  1.0
  C  C46  1  0.14831000  0.36361000  0.84242000  1.0
  C  C47  1  0.85171000  0.63640000  0.15758000  1.0
  C  C48  1  0.30252000  0.22242000  0.69705000  1.0
  C  C49  1  0.69748000  0.77758000  0.30296000  1.0
  C  C50  1  0.38062000  0.14119000  0.62142000  1.0
  C  C51  1  0.61938000  0.85880000  0.37858000  1.0
  C  C52  1  0.35670000  0.37224000  0.73442000  1.0
  C  C53  1  0.64332000  0.62776000  0.26558000  1.0
  C  C54  1  0.12604000  0.89093000  0.46683000  1.0
  C  C55  1  0.87395000  0.10907000  0.53316000  1.0
  C  C56  1  0.27890000  0.44099000  0.80618000  1.0
  C  C57  1  0.72112000  0.55901000  0.19382000  1.0
  C  C58  1  0.17281000  0.14597000  0.73394000  1.0
  C  C59  1  0.82719000  0.85403000  0.26607000  1.0
  C  C60  1  0.09542000  0.21437000  0.80486000  1.0
  C  C61  1  0.90458000  0.78564000  0.19514000  1.0
  C  C62  1  0.22703000  0.76016000  0.34311000  1.0
  C  C63  1  0.77295000  0.23984000  0.65689000  1.0
  C  C64  1  0.00326000  0.77180000  0.46920000  1.0
  C  C65  1  0.99673000  0.22820000  0.53079000  1.0
  C  C66  1  0.07155000  0.43534000  0.92120000  1.0
  C  C67  1  0.92847000  0.56468000  0.07880000  1.0
  C  C68  1  0.10756000  0.63562000  0.34046000  1.0
  C  C69  1  0.89243000  0.36438000  0.65954000  1.0
  C  C70  1  0.83889000  0.37665000  0.33798000  1.0
  C  C71  1  0.16110000  0.62335000  0.66203000  1.0
  C  C72  1  0.16075000  0.56419000  0.98808000  1.0
  C  C73  1  0.83926000  0.43582000  0.01192000  1.0
  C  C74  1  0.59288000  0.57796000  0.75878000  1.0
  C  C75  1  0.40713000  0.42204000  0.24121000  1.0
  C  C76  1  0.90874000  0.37271000  0.93479000  1.0
  C  C77  1  0.09128000  0.62731000  0.06521000  1.0
  C  C78  1  0.75876000  0.51339000  0.47710000  1.0
  C  C79  1  0.24122000  0.48660000  0.52291000  1.0
  C  C80  1  0.63837000  0.39056000  0.47665000  1.0
  C  C81  1  0.36162000  0.60944000  0.52335000  1.0
  C  C82  1  0.71541000  0.25858000  0.34213000  1.0
  C  C83  1  0.28458000  0.74142000  0.65787000  1.0
  C  C84  1  0.67351000  0.56428000  0.84544000  1.0
  C  C85  1  0.32650000  0.43571000  0.15455000  1.0
  C  C86  1  0.81130000  0.69827000  0.89732000  1.0
  C  C87  1  0.18871000  0.30173000  0.10268000  1.0
  N  N88  1  0.23835000  0.88687000  0.40595000  1.0
  N  N89  1  0.76164000  0.11313000  0.59405000  1.0
  N  N90  1  0.61603000  0.26459000  0.41029000  1.0
  N  N91  1  0.38395000  0.73540000  0.58971000  1.0
  N  N92  1  0.22467000  0.10082000  0.28334000  1.0
  N  N93  1  0.77532000  0.89919000  0.71666000  1.0
  O  O94  1  0.40732000  0.18305000  0.55029000  1.0
  O  O95  1  0.59267000  0.81694000  0.44971000  1.0
  O  O96  1  0.48728000  0.44303000  0.69883000  1.0
  O  O97  1  0.51273000  0.55696000  0.30117000  1.0
  O  O98  1  0.40878000  0.03141000  0.63304000  1.0
  O  O99  1  0.59120000  0.96857000  0.36696000  1.0
  O  O100  1  0.24364000  0.16460000  0.37284000  1.0
  O  O101  1  0.75635000  0.83541000  0.62717000  1.0
  O  O102  1  0.32158000  0.02802000  0.25217000  1.0
  O  O103  1  0.67840000  0.97199000  0.74783000  1.0
  O  O104  1  0.11557000  0.11264000  0.23281000  1.0
  O  O105  1  0.88442000  0.88738000  0.76719000  1.0
