# generated using pymatgen
data_MnH14C20S2(NO)4
_symmetry_space_group_name_H-M   'P 1'
_cell_length_a   8.89350000
_cell_length_b   16.68780000
_cell_length_c   19.23870000
_cell_angle_alpha   90.00020000
_cell_angle_beta   90.00020000
_cell_angle_gamma   76.33000000
_symmetry_Int_Tables_number   1
_chemical_formula_structural   MnH14C20S2(NO)4
_chemical_formula_sum   'Mn4 H56 C80 S8 N16 O16'
_cell_volume   2774.39089750
_cell_formula_units_Z   4
loop_
 _symmetry_equiv_pos_site_id
 _symmetry_equiv_pos_as_xyz
  1  'x, y, z'
loop_
 _atom_site_type_symbol
 _atom_site_label
 _atom_site_symmetry_multiplicity
 _atom_site_fract_x
 _atom_site_fract_y
 _atom_site_fract_z
 _atom_site_occupancy
  Mn  Mn0  1  0.18303000  0.97965000  0.43813000  1.0
  Mn  Mn1  1  0.81697000  0.52035000  0.93812000  1.0
  Mn  Mn2  1  0.81698000  0.02035000  0.56189000  1.0
  Mn  Mn3  1  0.18303000  0.47964000  0.06189000  1.0
  H  H4  1  0.80511000  0.34059000  0.89384000  1.0
  H  H5  1  0.19489000  0.15941000  0.39384000  1.0
  H  H6  1  0.19489000  0.65941000  0.10616000  1.0
  H  H7  1  0.80511000  0.84059000  0.60616000  1.0
  H  H8  1  0.89451000  0.24196000  0.79624000  1.0
  H  H9  1  0.10549000  0.25804000  0.29623000  1.0
  H  H10  1  0.10549000  0.75804000  0.20376000  1.0
  H  H11  1  0.89450000  0.74196000  0.70376000  1.0
  H  H12  1  0.17151000  0.40571000  0.72424000  1.0
  H  H13  1  0.82850000  0.09428000  0.22424000  1.0
  H  H14  1  0.82850000  0.59429000  0.27577000  1.0
  H  H15  1  0.17150000  0.90571000  0.77577000  1.0
  H  H16  1  0.06938000  0.49776000  0.82580000  1.0
  H  H17  1  0.93062000  0.00224000  0.32580000  1.0
  H  H18  1  0.93062000  0.50225000  0.17420000  1.0
  H  H19  1  0.06938000  0.99775000  0.67421000  1.0
  H  H20  1  0.42609000  0.15567000  0.53320000  1.0
  H  H21  1  0.57391000  0.34433000  0.03320000  1.0
  H  H22  1  0.57391000  0.84434000  0.46680000  1.0
  H  H23  1  0.42608000  0.65566000  0.96680000  1.0
  H  H24  1  0.46024000  0.24521000  0.57627000  1.0
  H  H25  1  0.53976000  0.25479000  0.07627000  1.0
  H  H26  1  0.53976000  0.75480000  0.42372000  1.0
  H  H27  1  0.46023000  0.74520000  0.92372000  1.0
  H  H28  1  0.33111000  0.25532000  0.50451000  1.0
  H  H29  1  0.66888000  0.24468000  0.00451000  1.0
  H  H30  1  0.66889000  0.74469000  0.49549000  1.0
  H  H31  1  0.33110000  0.75531000  0.99549000  1.0
  H  H32  1  0.57940000  0.54204000  0.06621000  1.0
  H  H33  1  0.42060000  0.95797000  0.56621000  1.0
  H  H34  1  0.42060000  0.45797000  0.93380000  1.0
  H  H35  1  0.57941000  0.04203000  0.43380000  1.0
  H  H36  1  0.48645000  0.64100000  0.16064000  1.0
  H  H37  1  0.51355000  0.85900000  0.66064000  1.0
  H  H38  1  0.51355000  0.35900000  0.83937000  1.0
  H  H39  1  0.48645000  0.14100000  0.33937000  1.0
  H  H40  1  0.77363000  0.79418000  0.07729000  1.0
  H  H41  1  0.22637000  0.70583000  0.57729000  1.0
  H  H42  1  0.22638000  0.20582000  0.92271000  1.0
  H  H43  1  0.77362000  0.29418000  0.42271000  1.0
  H  H44  1  0.85290000  0.68840000  0.98348000  1.0
  H  H45  1  0.14709000  0.81160000  0.48349000  1.0
  H  H46  1  0.14709000  0.31159000  0.01651000  1.0
  H  H47  1  0.85292000  0.18841000  0.51651000  1.0
  H  H48  1  0.57203000  0.03026000  0.24042000  1.0
  H  H49  1  0.42796000  0.46974000  0.74041000  1.0
  H  H50  1  0.42796000  0.96974000  0.75958000  1.0
  H  H51  1  0.57205000  0.53026000  0.25959000  1.0
  H  H52  1  0.76296000  0.96641000  0.23339000  1.0
  H  H53  1  0.23703000  0.53359000  0.73339000  1.0
  H  H54  1  0.23704000  0.03360000  0.76661000  1.0
  H  H55  1  0.76297000  0.46640000  0.26661000  1.0
  H  H56  1  0.66300000  0.98082000  0.31561000  1.0
  H  H57  1  0.33699000  0.51918000  0.81560000  1.0
  H  H58  1  0.33700000  0.01918000  0.68440000  1.0
  H  H59  1  0.66301000  0.48082000  0.18440000  1.0
  C  C60  1  0.88543000  0.35272000  0.85462000  1.0
  C  C61  1  0.11457000  0.14727000  0.35462000  1.0
  C  C62  1  0.11457000  0.64728000  0.14538000  1.0
  C  C63  1  0.88543000  0.85273000  0.64538000  1.0
  C  C64  1  0.93559000  0.29843000  0.80015000  1.0
  C  C65  1  0.06441000  0.20157000  0.30015000  1.0
  C  C66  1  0.06442000  0.70157000  0.19985000  1.0
  C  C67  1  0.93558000  0.79844000  0.69985000  1.0
  C  C68  1  0.04029000  0.31678000  0.75139000  1.0
  C  C69  1  0.95972000  0.18321000  0.25139000  1.0
  C  C70  1  0.95972000  0.68322000  0.24861000  1.0
  C  C71  1  0.04028000  0.81678000  0.74861000  1.0
  C  C72  1  0.08979000  0.38990000  0.76084000  1.0
  C  C73  1  0.91021000  0.11010000  0.26084000  1.0
  C  C74  1  0.91022000  0.61010000  0.23917000  1.0
  C  C75  1  0.08979000  0.88990000  0.73917000  1.0
  C  C76  1  0.03361000  0.44059000  0.81671000  1.0
  C  C77  1  0.96638000  0.05941000  0.31671000  1.0
  C  C78  1  0.96639000  0.55941000  0.18329000  1.0
  C  C79  1  0.03361000  0.94059000  0.68329000  1.0
  C  C80  1  0.09806000  0.26383000  0.69225000  1.0
  C  C81  1  0.90195000  0.23616000  0.19225000  1.0
  C  C82  1  0.90195000  0.73617000  0.30775000  1.0
  C  C83  1  0.09805000  0.76383000  0.80775000  1.0
  C  C84  1  0.14621000  0.16345000  0.59882000  1.0
  C  C85  1  0.85380000  0.33654000  0.09882000  1.0
  C  C86  1  0.85380000  0.83655000  0.40118000  1.0
  C  C87  1  0.14619000  0.66345000  0.90118000  1.0
  C  C88  1  0.24422000  0.21775000  0.60017000  1.0
  C  C89  1  0.75579000  0.28224000  0.10016000  1.0
  C  C90  1  0.75579000  0.78225000  0.39983000  1.0
  C  C91  1  0.24420000  0.71775000  0.89984000  1.0
  C  C92  1  0.13824000  0.09568000  0.55064000  1.0
  C  C93  1  0.86175000  0.40432000  0.05064000  1.0
  C  C94  1  0.86178000  0.90432000  0.44937000  1.0
  C  C95  1  0.13822000  0.59568000  0.94937000  1.0
  C  C96  1  0.37341000  0.21820000  0.55094000  1.0
  C  C97  1  0.62659000  0.28180000  0.05094000  1.0
  C  C98  1  0.62659000  0.78181000  0.44906000  1.0
  C  C99  1  0.37340000  0.71819000  0.94906000  1.0
  C  C100  1  0.62074000  0.59842000  0.06993000  1.0
  C  C101  1  0.37928000  0.90158000  0.56993000  1.0
  C  C102  1  0.37927000  0.40158000  0.93007000  1.0
  C  C103  1  0.62074000  0.09842000  0.43007000  1.0
  C  C104  1  0.56816000  0.65481000  0.12286000  1.0
  C  C105  1  0.43184000  0.84519000  0.62286000  1.0
  C  C106  1  0.43184000  0.34519000  0.87714000  1.0
  C  C107  1  0.56816000  0.15481000  0.37714000  1.0
  C  C108  1  0.62392000  0.72665000  0.12727000  1.0
  C  C109  1  0.37609000  0.77335000  0.62727000  1.0
  C  C110  1  0.37608000  0.27335000  0.87273000  1.0
  C  C111  1  0.62391000  0.22665000  0.37272000  1.0
  C  C112  1  0.72866000  0.73893000  0.07586000  1.0
  C  C113  1  0.27134000  0.76107000  0.57586000  1.0
  C  C114  1  0.27135000  0.26106000  0.92414000  1.0
  C  C115  1  0.72866000  0.23894000  0.42413000  1.0
  C  C116  1  0.77338000  0.68008000  0.02445000  1.0
  C  C117  1  0.22663000  0.81992000  0.52445000  1.0
  C  C118  1  0.22662000  0.31992000  0.97555000  1.0
  C  C119  1  0.77338000  0.18008000  0.47554000  1.0
  C  C120  1  0.57994000  0.78823000  0.18204000  1.0
  C  C121  1  0.42007000  0.71177000  0.68204000  1.0
  C  C122  1  0.42007000  0.21177000  0.81796000  1.0
  C  C123  1  0.57993000  0.28823000  0.31796000  1.0
  C  C124  1  0.47144000  0.87550000  0.27980000  1.0
  C  C125  1  0.52856000  0.62450000  0.77980000  1.0
  C  C126  1  0.52856000  0.12450000  0.72020000  1.0
  C  C127  1  0.47144000  0.37550000  0.22020000  1.0
  C  C128  1  0.58884000  0.89992000  0.24375000  1.0
  C  C129  1  0.41115000  0.60008000  0.74375000  1.0
  C  C130  1  0.41116000  0.10008000  0.75625000  1.0
  C  C131  1  0.58884000  0.39992000  0.25625000  1.0
  C  C132  1  0.37934000  0.91429000  0.33999000  1.0
  C  C133  1  0.62066000  0.58571000  0.83998000  1.0
  C  C134  1  0.62066000  0.08571000  0.66002000  1.0
  C  C135  1  0.37935000  0.41430000  0.16002000  1.0
  C  C136  1  0.65104000  0.97345000  0.25947000  1.0
  C  C137  1  0.34895000  0.52655000  0.75946000  1.0
  C  C138  1  0.34896000  0.02656000  0.74053000  1.0
  C  C139  1  0.65105000  0.47344000  0.24053000  1.0
  S  S140  1  0.01590000  0.18478000  0.66656000  1.0
  S  S141  1  0.98411000  0.31522000  0.16656000  1.0
  S  S142  1  0.98412000  0.81522000  0.33344000  1.0
  S  S143  1  0.01588000  0.68478000  0.83344000  1.0
  S  S144  1  0.43719000  0.78738000  0.24310000  1.0
  S  S145  1  0.56281000  0.71262000  0.74310000  1.0
  S  S146  1  0.56282000  0.21262000  0.75690000  1.0
  S  S147  1  0.43718000  0.28738000  0.25689000  1.0
  N  N148  1  0.93308000  0.42303000  0.86341000  1.0
  N  N149  1  0.06691000  0.07697000  0.36340000  1.0
  N  N150  1  0.06691000  0.57697000  0.13660000  1.0
  N  N151  1  0.93309000  0.92303000  0.63660000  1.0
  N  N152  1  0.21410000  0.27429000  0.65266000  1.0
  N  N153  1  0.78591000  0.22571000  0.15265000  1.0
  N  N154  1  0.78591000  0.72572000  0.34735000  1.0
  N  N155  1  0.21409000  0.77428000  0.84735000  1.0
  N  N156  1  0.72305000  0.61003000  0.02150000  1.0
  N  N157  1  0.27695000  0.88998000  0.52150000  1.0
  N  N158  1  0.27694000  0.38997000  0.97850000  1.0
  N  N159  1  0.72306000  0.11003000  0.47850000  1.0
  N  N160  1  0.64789000  0.85043000  0.18906000  1.0
  N  N161  1  0.35211000  0.64957000  0.68905000  1.0
  N  N162  1  0.35212000  0.14957000  0.81095000  1.0
  N  N163  1  0.64788000  0.35043000  0.31094000  1.0
  O  O164  1  0.03456000  0.05573000  0.56215000  1.0
  O  O165  1  0.96544000  0.44427000  0.06214000  1.0
  O  O166  1  0.96546000  0.94427000  0.43785000  1.0
  O  O167  1  0.03453000  0.55573000  0.93786000  1.0
  O  O168  1  0.23410000  0.07946000  0.50032000  1.0
  O  O169  1  0.76587000  0.42054000  0.00032000  1.0
  O  O170  1  0.76590000  0.92054000  0.49968000  1.0
  O  O171  1  0.23410000  0.57946000  0.99968000  1.0
  O  O172  1  0.26756000  0.88320000  0.35980000  1.0
  O  O173  1  0.73244000  0.61680000  0.85979000  1.0
  O  O174  1  0.73243000  0.11680000  0.64020000  1.0
  O  O175  1  0.26756000  0.38322000  0.14020000  1.0
  O  O176  1  0.41005000  0.97660000  0.36981000  1.0
  O  O177  1  0.58996000  0.52339000  0.86980000  1.0
  O  O178  1  0.58996000  0.02339000  0.63020000  1.0
  O  O179  1  0.41005000  0.47661000  0.13020000  1.0
