# generated using pymatgen
data_Mn2H42C34N6O11
_symmetry_space_group_name_H-M   'P 1'
_cell_length_a   12.61480000
_cell_length_b   17.33830000
_cell_length_c   18.33430000
_cell_angle_alpha   90.00020000
_cell_angle_beta   90.00000000
_cell_angle_gamma   98.77300000
_symmetry_Int_Tables_number   1
_chemical_formula_structural   Mn2H42C34N6O11
_chemical_formula_sum   'Mn8 H168 C136 N24 O44'
_cell_volume   3963.14691001
_cell_formula_units_Z   4
loop_
 _symmetry_equiv_pos_site_id
 _symmetry_equiv_pos_as_xyz
  1  'x, y, z'
loop_
 _atom_site_type_symbol
 _atom_site_label
 _atom_site_symmetry_multiplicity
 _atom_site_fract_x
 _atom_site_fract_y
 _atom_site_fract_z
 _atom_site_occupancy
  Mn  Mn0  1  0.95825000  0.80712000  0.78722000  1.0
  Mn  Mn1  1  0.54174000  0.69288000  0.28722000  1.0
  Mn  Mn2  1  0.04175000  0.19288000  0.21278000  1.0
  Mn  Mn3  1  0.45826000  0.30712000  0.71278000  1.0
  Mn  Mn4  1  0.00432000  0.64907000  0.65962000  1.0
  Mn  Mn5  1  0.49569000  0.85093000  0.15962000  1.0
  Mn  Mn6  1  0.99568000  0.35093000  0.34038000  1.0
  Mn  Mn7  1  0.50432000  0.14907000  0.84038000  1.0
  H  H8  1  0.77041000  0.71845000  0.50227000  1.0
  H  H9  1  0.72959000  0.78155000  0.00227000  1.0
  H  H10  1  0.22959000  0.28155000  0.49773000  1.0
  H  H11  1  0.27041000  0.21845000  0.99773000  1.0
  H  H12  1  0.45362000  0.77973000  0.51761000  1.0
  H  H13  1  0.04638000  0.72027000  0.01762000  1.0
  H  H14  1  0.54638000  0.22027000  0.48239000  1.0
  H  H15  1  0.95362000  0.27973000  0.98238000  1.0
  H  H16  1  0.67314000  0.82135000  0.69929000  1.0
  H  H17  1  0.82686000  0.67865000  0.19930000  1.0
  H  H18  1  0.32686000  0.17865000  0.30071000  1.0
  H  H19  1  0.17314000  0.32135000  0.80070000  1.0
  H  H20  1  0.58270000  0.93552000  0.70010000  1.0
  H  H21  1  0.91730000  0.56448000  0.20010000  1.0
  H  H22  1  0.41730000  0.06449000  0.29990000  1.0
  H  H23  1  0.08270000  0.43552000  0.79990000  1.0
  H  H24  1  0.26042000  0.91813000  0.78028000  1.0
  H  H25  1  0.23958000  0.58187000  0.28029000  1.0
  H  H26  1  0.73958000  0.08187000  0.21972000  1.0
  H  H27  1  0.76042000  0.41813000  0.71971000  1.0
  H  H28  1  0.33974000  0.74824000  0.62772000  1.0
  H  H29  1  0.16026000  0.75176000  0.12772000  1.0
  H  H30  1  0.66027000  0.25176000  0.37228000  1.0
  H  H31  1  0.83974000  0.24824000  0.87227000  1.0
  H  H32  1  0.76179000  0.64505000  0.73743000  1.0
  H  H33  1  0.73820000  0.85495000  0.23743000  1.0
  H  H34  1  0.23820000  0.35495000  0.26257000  1.0
  H  H35  1  0.26180000  0.14505000  0.76257000  1.0
  H  H36  1  0.68973000  0.67605000  0.81313000  1.0
  H  H37  1  0.81026000  0.82395000  0.31313000  1.0
  H  H38  1  0.31027000  0.32395000  0.18687000  1.0
  H  H39  1  0.18973000  0.17605000  0.68687000  1.0
  H  H40  1  0.66098000  0.57702000  0.78088000  1.0
  H  H41  1  0.83902000  0.92297000  0.28088000  1.0
  H  H42  1  0.33903000  0.42297000  0.21912000  1.0
  H  H43  1  0.16098000  0.07703000  0.71912000  1.0
  H  H44  1  0.10944000  0.67780000  0.82121000  1.0
  H  H45  1  0.39056000  0.82220000  0.32121000  1.0
  H  H46  1  0.89056000  0.32220000  0.17879000  1.0
  H  H47  1  0.60944000  0.17780000  0.67879000  1.0
  H  H48  1  0.14071000  0.58506000  0.84864000  1.0
  H  H49  1  0.35928000  0.91494000  0.34864000  1.0
  H  H50  1  0.85929000  0.41494000  0.15136000  1.0
  H  H51  1  0.64071000  0.08506000  0.65136000  1.0
  H  H52  1  0.12900000  0.65940000  0.91542000  1.0
  H  H53  1  0.37100000  0.84061000  0.41542000  1.0
  H  H54  1  0.87100000  0.34060000  0.08458000  1.0
  H  H55  1  0.62901000  0.15940000  0.58458000  1.0
  H  H56  1  0.76106000  0.60741000  0.94905000  1.0
  H  H57  1  0.73894000  0.89259000  0.44905000  1.0
  H  H58  1  0.23894000  0.39258000  0.05095000  1.0
  H  H59  1  0.26106000  0.10741000  0.55095000  1.0
  H  H60  1  0.68609000  0.53233000  0.89577000  1.0
  H  H61  1  0.81391000  0.96766000  0.39577000  1.0
  H  H62  1  0.31391000  0.46766000  0.10423000  1.0
  H  H63  1  0.18609000  0.03234000  0.60423000  1.0
  H  H64  1  0.01410000  0.50878000  0.93159000  1.0
  H  H65  1  0.48590000  0.99122000  0.43159000  1.0
  H  H66  1  0.98590000  0.49122000  0.06841000  1.0
  H  H67  1  0.51410000  0.00878000  0.56841000  1.0
  H  H68  1  0.96953000  0.58406000  0.98376000  1.0
  H  H69  1  0.53047000  0.91594000  0.48376000  1.0
  H  H70  1  0.03047000  0.41594000  0.01624000  1.0
  H  H71  1  0.46953000  0.08406000  0.51624000  1.0
  H  H72  1  0.83772000  0.46046000  0.88758000  1.0
  H  H73  1  0.66229000  0.03954000  0.38758000  1.0
  H  H74  1  0.16229000  0.53954000  0.11242000  1.0
  H  H75  1  0.33771000  0.96046000  0.61242000  1.0
  H  H76  1  0.81892000  0.48120000  0.98109000  1.0
  H  H77  1  0.68108000  0.01879000  0.48109000  1.0
  H  H78  1  0.18108000  0.51879000  0.01891000  1.0
  H  H79  1  0.31892000  0.98121000  0.51891000  1.0
  H  H80  1  0.20597000  0.69715000  0.54551000  1.0
  H  H81  1  0.29402000  0.80285000  0.04551000  1.0
  H  H82  1  0.79403000  0.30285000  0.45449000  1.0
  H  H83  1  0.70597000  0.19715000  0.95449000  1.0
  H  H84  1  0.22165000  0.78714000  0.49706000  1.0
  H  H85  1  0.27835000  0.71286000  0.99706000  1.0
  H  H86  1  0.77835000  0.21286000  0.50294000  1.0
  H  H87  1  0.72165000  0.28714000  0.00294000  1.0
  H  H88  1  0.26835000  0.70443000  0.45689000  1.0
  H  H89  1  0.23165000  0.79556000  0.95689000  1.0
  H  H90  1  0.73165000  0.29557000  0.54311000  1.0
  H  H91  1  0.76835000  0.20443000  0.04311000  1.0
  H  H92  1  0.87548000  0.54871000  0.54671000  1.0
  H  H93  1  0.62452000  0.95129000  0.04671000  1.0
  H  H94  1  0.12452000  0.45129000  0.45329000  1.0
  H  H95  1  0.37548000  0.04871000  0.95329000  1.0
  H  H96  1  0.85634000  0.50388000  0.45890000  1.0
  H  H97  1  0.64366000  0.99612000  0.95890000  1.0
  H  H98  1  0.14366000  0.49612000  0.54110000  1.0
  H  H99  1  0.35634000  0.00388000  0.04110000  1.0
  H  H100  1  0.77457000  0.57472000  0.48725000  1.0
  H  H101  1  0.72543000  0.92528000  0.98725000  1.0
  H  H102  1  0.22543000  0.42528000  0.51275000  1.0
  H  H103  1  0.27457000  0.07472000  0.01275000  1.0
  H  H104  1  0.81801000  0.64900000  0.38450000  1.0
  H  H105  1  0.68199000  0.85100000  0.88450000  1.0
  H  H106  1  0.18199000  0.35100000  0.61550000  1.0
  H  H107  1  0.31801000  0.14900000  0.11550000  1.0
  H  H108  1  0.92346000  0.60576000  0.34475000  1.0
  H  H109  1  0.57654000  0.89424000  0.84475000  1.0
  H  H110  1  0.07654000  0.39424000  0.65525000  1.0
  H  H111  1  0.42346000  0.10576000  0.15525000  1.0
  H  H112  1  0.93327000  0.77156000  0.40579000  1.0
  H  H113  1  0.56673000  0.72843000  0.90579000  1.0
  H  H114  1  0.06673000  0.22843000  0.59421000  1.0
  H  H115  1  0.43327000  0.27156000  0.09421000  1.0
  H  H116  1  0.95377000  0.74447000  0.31385000  1.0
  H  H117  1  0.54623000  0.75552000  0.81385000  1.0
  H  H118  1  0.04624000  0.25553000  0.68615000  1.0
  H  H119  1  0.45377000  0.24447000  0.18615000  1.0
  H  H120  1  0.12123000  0.69731000  0.34504000  1.0
  H  H121  1  0.37877000  0.80268000  0.84504000  1.0
  H  H122  1  0.87877000  0.30268000  0.65496000  1.0
  H  H123  1  0.62123000  0.19732000  0.15496000  1.0
  H  H124  1  0.12674000  0.79127000  0.38437000  1.0
  H  H125  1  0.37325000  0.70872000  0.88437000  1.0
  H  H126  1  0.87326000  0.20872000  0.61563000  1.0
  H  H127  1  0.62674000  0.29128000  0.11563000  1.0
  H  H128  1  0.80123000  0.92863000  0.73567000  1.0
  H  H129  1  0.69877000  0.57137000  0.23567000  1.0
  H  H130  1  0.19877000  0.07137000  0.26433000  1.0
  H  H131  1  0.30123000  0.42862000  0.76433000  1.0
  H  H132  1  0.80904000  0.02603000  0.70258000  1.0
  H  H133  1  0.69095000  0.47397000  0.20258000  1.0
  H  H134  1  0.19096000  0.97397000  0.29742000  1.0
  H  H135  1  0.30904000  0.52603000  0.79742000  1.0
  H  H136  1  0.70726000  0.99062000  0.76694000  1.0
  H  H137  1  0.79274000  0.50938000  0.26694000  1.0
  H  H138  1  0.29274000  0.00938000  0.23306000  1.0
  H  H139  1  0.20726000  0.49062000  0.73306000  1.0
  H  H140  1  0.12418000  0.93163000  0.85151000  1.0
  H  H141  1  0.37582000  0.56837000  0.35151000  1.0
  H  H142  1  0.87582000  0.06837000  0.14849000  1.0
  H  H143  1  0.62418000  0.43164000  0.64849000  1.0
  H  H144  1  0.14752000  0.97989000  0.93681000  1.0
  H  H145  1  0.35248000  0.52011000  0.43680000  1.0
  H  H146  1  0.85248000  0.02011000  0.06319000  1.0
  H  H147  1  0.64752000  0.47989000  0.56320000  1.0
  H  H148  1  0.18926000  0.03083000  0.85499000  1.0
  H  H149  1  0.31074000  0.46917000  0.35499000  1.0
  H  H150  1  0.81074000  0.96917000  0.14501000  1.0
  H  H151  1  0.68926000  0.53083000  0.64501000  1.0
  H  H152  1  0.75348000  0.08548000  0.85084000  1.0
  H  H153  1  0.74652000  0.41452000  0.35084000  1.0
  H  H154  1  0.24652000  0.91452000  0.14916000  1.0
  H  H155  1  0.25348000  0.58548000  0.64916000  1.0
  H  H156  1  0.87413000  0.13750000  0.81533000  1.0
  H  H157  1  0.62587000  0.36250000  0.31533000  1.0
  H  H158  1  0.12587000  0.86250000  0.18467000  1.0
  H  H159  1  0.37413000  0.63750000  0.68467000  1.0
  H  H160  1  0.88242000  0.14460000  0.95119000  1.0
  H  H161  1  0.61758000  0.35540000  0.45119000  1.0
  H  H162  1  0.11758000  0.85540000  0.04881000  1.0
  H  H163  1  0.38242000  0.64460000  0.54882000  1.0
  H  H164  1  0.84707000  0.04216000  0.95677000  1.0
  H  H165  1  0.65293000  0.45784000  0.45677000  1.0
  H  H166  1  0.15293000  0.95784000  0.04323000  1.0
  H  H167  1  0.34708000  0.54216000  0.54323000  1.0
  H  H168  1  0.05461000  0.13323000  0.89340000  1.0
  H  H169  1  0.44539000  0.36677000  0.39339000  1.0
  H  H170  1  0.94539000  0.86677000  0.10661000  1.0
  H  H171  1  0.55461000  0.63323000  0.60661000  1.0
  H  H172  1  0.04176000  0.07481000  0.97297000  1.0
  H  H173  1  0.45824000  0.42519000  0.47297000  1.0
  H  H174  1  0.95824000  0.92519000  0.02703000  1.0
  H  H175  1  0.54176000  0.57481000  0.52703000  1.0
  C  C176  1  0.73176000  0.76949000  0.60431000  1.0
  C  C177  1  0.76824000  0.73051000  0.10431000  1.0
  C  C178  1  0.26824000  0.23051000  0.39569000  1.0
  C  C179  1  0.23176000  0.26949000  0.89569000  1.0
  C  C180  1  0.70988000  0.74322000  0.53301000  1.0
  C  C181  1  0.79012000  0.75678000  0.03301000  1.0
  C  C182  1  0.29012000  0.25678000  0.46699000  1.0
  C  C183  1  0.20988000  0.24322000  0.96699000  1.0
  C  C184  1  0.60954000  0.74760000  0.50202000  1.0
  C  C185  1  0.89046000  0.75240000  0.00202000  1.0
  C  C186  1  0.39046000  0.25240000  0.49798000  1.0
  C  C187  1  0.10954000  0.24760000  0.99798000  1.0
  C  C188  1  0.53152000  0.77798000  0.54281000  1.0
  C  C189  1  0.96848000  0.72202000  0.04281000  1.0
  C  C190  1  0.46848000  0.22202000  0.45719000  1.0
  C  C191  1  0.03152000  0.27798000  0.95719000  1.0
  C  C192  1  0.55305000  0.80614000  0.61379000  1.0
  C  C193  1  0.94695000  0.69386000  0.11379000  1.0
  C  C194  1  0.44695000  0.19386000  0.38621000  1.0
  C  C195  1  0.05305000  0.30614000  0.88620000  1.0
  C  C196  1  0.65417000  0.80177000  0.64368000  1.0
  C  C197  1  0.84583000  0.69823000  0.14368000  1.0
  C  C198  1  0.34583000  0.19823000  0.35632000  1.0
  C  C199  1  0.15417000  0.30177000  0.85632000  1.0
  C  C200  1  0.83571000  0.76185000  0.64162000  1.0
  C  C201  1  0.66430000  0.73815000  0.14162000  1.0
  C  C202  1  0.16429000  0.23815000  0.35838000  1.0
  C  C203  1  0.33571000  0.26185000  0.85838000  1.0
  C  C204  1  0.58318000  0.71970000  0.42581000  1.0
  C  C205  1  0.91682000  0.78030000  0.92581000  1.0
  C  C206  1  0.41682000  0.28030000  0.57419000  1.0
  C  C207  1  0.08318000  0.21970000  0.07418000  1.0
  C  C208  1  0.47158000  0.83806000  0.65792000  1.0
  C  C209  1  0.02842000  0.66194000  0.15792000  1.0
  C  C210  1  0.52842000  0.16194000  0.34208000  1.0
  C  C211  1  0.97159000  0.33805000  0.84208000  1.0
  C  C212  1  0.50069000  0.90477000  0.70108000  1.0
  C  C213  1  0.99931000  0.59523000  0.20108000  1.0
  C  C214  1  0.49931000  0.09523000  0.29893000  1.0
  C  C215  1  0.00069000  0.40477000  0.79892000  1.0
  C  C216  1  0.42510000  0.93418000  0.74478000  1.0
  C  C217  1  0.07490000  0.56582000  0.24478000  1.0
  C  C218  1  0.57490000  0.06582000  0.25522000  1.0
  C  C219  1  0.92511000  0.43418000  0.75521000  1.0
  C  C220  1  0.31943000  0.89570000  0.74634000  1.0
  C  C221  1  0.18057000  0.60430000  0.24634000  1.0
  C  C222  1  0.68057000  0.10430000  0.25366000  1.0
  C  C223  1  0.81943000  0.39570000  0.75366000  1.0
  C  C224  1  0.28918000  0.82849000  0.70440000  1.0
  C  C225  1  0.21082000  0.67151000  0.20440000  1.0
  C  C226  1  0.71082000  0.17151000  0.29560000  1.0
  C  C227  1  0.78918000  0.32849000  0.79560000  1.0
  C  C228  1  0.36480000  0.80079000  0.65963000  1.0
  C  C229  1  0.13520000  0.69921000  0.15963000  1.0
  C  C230  1  0.63520000  0.19921000  0.34037000  1.0
  C  C231  1  0.86480000  0.30079000  0.84037000  1.0
  C  C232  1  0.45613000  0.00769000  0.78803000  1.0
  C  C233  1  0.04387000  0.49231000  0.28803000  1.0
  C  C234  1  0.54388000  0.99231000  0.21197000  1.0
  C  C235  1  0.95612000  0.50769000  0.71197000  1.0
  C  C236  1  0.17687000  0.78530000  0.71046000  1.0
  C  C237  1  0.32313000  0.71470000  0.21046000  1.0
  C  C238  1  0.82312000  0.21470000  0.28954000  1.0
  C  C239  1  0.67688000  0.28529000  0.78954000  1.0
  C  C240  1  0.91046000  0.62880000  0.82645000  1.0
  C  C241  1  0.58954000  0.87120000  0.32645000  1.0
  C  C242  1  0.08954000  0.37120000  0.17355000  1.0
  C  C243  1  0.41046000  0.12880000  0.67355000  1.0
  C  C244  1  0.72447000  0.62708000  0.78967000  1.0
  C  C245  1  0.77552000  0.87292000  0.28967000  1.0
  C  C246  1  0.27553000  0.37292000  0.21033000  1.0
  C  C247  1  0.22447000  0.12708000  0.71033000  1.0
  C  C248  1  0.09743000  0.63326000  0.86365000  1.0
  C  C249  1  0.40257000  0.86674000  0.36365000  1.0
  C  C250  1  0.90257000  0.36674000  0.13635000  1.0
  C  C251  1  0.59743000  0.13326000  0.63635000  1.0
  C  C252  1  0.76711000  0.56393000  0.90574000  1.0
  C  C253  1  0.73290000  0.93607000  0.40574000  1.0
  C  C254  1  0.23290000  0.43607000  0.09426000  1.0
  C  C255  1  0.26711000  0.06393000  0.59426000  1.0
  C  C256  1  0.95679000  0.55068000  0.93238000  1.0
  C  C257  1  0.54320000  0.94932000  0.43238000  1.0
  C  C258  1  0.04320000  0.44932000  0.06762000  1.0
  C  C259  1  0.45680000  0.05068000  0.56762000  1.0
  C  C260  1  0.84272000  0.50761000  0.92792000  1.0
  C  C261  1  0.65728000  0.99239000  0.42792000  1.0
  C  C262  1  0.15729000  0.49239000  0.07208000  1.0
  C  C263  1  0.34272000  0.00761000  0.57208000  1.0
  C  C264  1  0.02660000  0.64528000  0.49234000  1.0
  C  C265  1  0.47340000  0.85472000  0.99234000  1.0
  C  C266  1  0.97340000  0.35473000  0.50766000  1.0
  C  C267  1  0.52660000  0.14528000  0.00766000  1.0
  C  C268  1  0.20515000  0.72314000  0.49130000  1.0
  C  C269  1  0.29485000  0.77686000  0.99130000  1.0
  C  C270  1  0.79485000  0.27686000  0.50871000  1.0
  C  C271  1  0.70515000  0.22314000  0.00870000  1.0
  C  C272  1  0.85533000  0.55828000  0.48978000  1.0
  C  C273  1  0.64467000  0.94172000  0.98978000  1.0
  C  C274  1  0.14467000  0.44172000  0.51022000  1.0
  C  C275  1  0.35533000  0.05828000  0.01022000  1.0
  C  C276  1  0.90494000  0.64781000  0.38623000  1.0
  C  C277  1  0.59506000  0.85219000  0.88623000  1.0
  C  C278  1  0.09507000  0.35219000  0.61377000  1.0
  C  C279  1  0.40494000  0.14781000  0.11377000  1.0
  C  C280  1  0.96541000  0.72882000  0.37105000  1.0
  C  C281  1  0.53459000  0.77118000  0.87105000  1.0
  C  C282  1  0.03460000  0.27118000  0.62895000  1.0
  C  C283  1  0.46541000  0.22882000  0.12895000  1.0
  C  C284  1  0.08411000  0.73092000  0.38643000  1.0
  C  C285  1  0.41589000  0.76908000  0.88643000  1.0
  C  C286  1  0.91590000  0.26908000  0.61357000  1.0
  C  C287  1  0.58410000  0.23092000  0.11357000  1.0
  C  C288  1  0.95225000  0.98377000  0.82149000  1.0
  C  C289  1  0.54775000  0.51623000  0.32149000  1.0
  C  C290  1  0.04775000  0.01623000  0.17851000  1.0
  C  C291  1  0.45225000  0.48377000  0.67851000  1.0
  C  C292  1  0.79039000  0.98796000  0.75073000  1.0
  C  C293  1  0.70961000  0.51204000  0.25073000  1.0
  C  C294  1  0.20961000  0.01204000  0.24927000  1.0
  C  C295  1  0.29039000  0.48796000  0.74927000  1.0
  C  C296  1  0.12654000  0.98746000  0.87950000  1.0
  C  C297  1  0.37346000  0.51254000  0.37950000  1.0
  C  C298  1  0.87346000  0.01254000  0.12050000  1.0
  C  C299  1  0.62654000  0.48746000  0.62050000  1.0
  C  C300  1  0.84060000  0.08594000  0.84815000  1.0
  C  C301  1  0.65940000  0.41406000  0.34815000  1.0
  C  C302  1  0.15940000  0.91406000  0.15185000  1.0
  C  C303  1  0.34060000  0.58594000  0.65185000  1.0
  C  C304  1  0.89021000  0.08966000  0.92364000  1.0
  C  C305  1  0.60979000  0.41034000  0.42365000  1.0
  C  C306  1  0.10979000  0.91034000  0.07635000  1.0
  C  C307  1  0.39021000  0.58966000  0.57636000  1.0
  C  C308  1  0.00777000  0.08087000  0.91834000  1.0
  C  C309  1  0.49223000  0.41913000  0.41834000  1.0
  C  C310  1  0.99223000  0.91914000  0.08166000  1.0
  C  C311  1  0.50777000  0.58087000  0.58166000  1.0
  N  N312  1  0.80461000  0.60325000  0.83810000  1.0
  N  N313  1  0.69538000  0.89675000  0.33810000  1.0
  N  N314  1  0.19538000  0.39675000  0.16190000  1.0
  N  N315  1  0.30462000  0.10325000  0.66190000  1.0
  N  N316  1  0.98386000  0.60417000  0.87165000  1.0
  N  N317  1  0.51614000  0.89583000  0.37165000  1.0
  N  N318  1  0.01614000  0.39583000  0.12835000  1.0
  N  N319  1  0.48386000  0.10417000  0.62835000  1.0
  N  N320  1  0.09998000  0.70037000  0.45906000  1.0
  N  N321  1  0.40002000  0.79962000  0.95906000  1.0
  N  N322  1  0.90002000  0.29963000  0.54095000  1.0
  N  N323  1  0.59997000  0.20038000  0.04094000  1.0
  N  N324  1  0.93127000  0.62124000  0.45870000  1.0
  N  N325  1  0.56873000  0.87876000  0.95870000  1.0
  N  N326  1  0.06873000  0.37876000  0.54130000  1.0
  N  N327  1  0.43127000  0.12124000  0.04130000  1.0
  N  N328  1  0.02131000  0.01196000  0.87590000  1.0
  N  N329  1  0.47869000  0.48804000  0.37590000  1.0
  N  N330  1  0.97869000  0.98804000  0.12410000  1.0
  N  N331  1  0.52131000  0.51196000  0.62410000  1.0
  N  N332  1  0.86004000  0.01464000  0.81167000  1.0
  N  N333  1  0.63996000  0.48536000  0.31167000  1.0
  N  N334  1  0.13996000  0.98536000  0.18833000  1.0
  N  N335  1  0.36004000  0.51464000  0.68833000  1.0
  O  O336  1  0.85544000  0.80224000  0.69921000  1.0
  O  O337  1  0.64456000  0.69777000  0.19921000  1.0
  O  O338  1  0.14456000  0.19777000  0.30079000  1.0
  O  O339  1  0.35545000  0.30223000  0.80079000  1.0
  O  O340  1  0.89401000  0.71558000  0.61415000  1.0
  O  O341  1  0.60599000  0.78442000  0.11415000  1.0
  O  O342  1  0.10599000  0.28442000  0.38585000  1.0
  O  O343  1  0.39401000  0.21558000  0.88585000  1.0
  O  O344  1  0.48524000  0.70801000  0.40591000  1.0
  O  O345  1  0.01476000  0.79199000  0.90591000  1.0
  O  O346  1  0.51476000  0.29199000  0.59409000  1.0
  O  O347  1  0.98524000  0.20801000  0.09409000  1.0
  O  O348  1  0.65951000  0.71055000  0.38206000  1.0
  O  O349  1  0.84049000  0.78945000  0.88206000  1.0
  O  O350  1  0.34049000  0.28945000  0.61794000  1.0
  O  O351  1  0.15951000  0.21055000  0.11793000  1.0
  O  O352  1  0.15257000  0.72252000  0.67386000  1.0
  O  O353  1  0.34743000  0.77748000  0.17386000  1.0
  O  O354  1  0.84743000  0.27748000  0.32614000  1.0
  O  O355  1  0.65258000  0.22252000  0.82614000  1.0
  O  O356  1  0.11536000  0.81466000  0.75353000  1.0
  O  O357  1  0.38464000  0.68534000  0.25353000  1.0
  O  O358  1  0.88464000  0.18534000  0.24647000  1.0
  O  O359  1  0.61536000  0.31465000  0.74647000  1.0
  O  O360  1  0.38361000  0.03676000  0.82219000  1.0
  O  O361  1  0.11639000  0.46324000  0.32219000  1.0
  O  O362  1  0.61639000  0.96324000  0.17782000  1.0
  O  O363  1  0.88361000  0.53676000  0.67781000  1.0
  O  O364  1  0.55391000  0.04100000  0.78703000  1.0
  O  O365  1  0.94609000  0.45900000  0.28703000  1.0
  O  O366  1  0.44609000  0.95900000  0.21297000  1.0
  O  O367  1  0.05391000  0.54100000  0.71297000  1.0
  O  O368  1  0.94103000  0.67532000  0.77368000  1.0
  O  O369  1  0.55897000  0.82468000  0.27368000  1.0
  O  O370  1  0.05897000  0.32468000  0.22632000  1.0
  O  O371  1  0.44103000  0.17532000  0.72632000  1.0
  O  O372  1  0.04816000  0.61730000  0.55386000  1.0
  O  O373  1  0.45184000  0.88269000  0.05386000  1.0
  O  O374  1  0.95184000  0.38270000  0.44614000  1.0
  O  O375  1  0.54816000  0.11730000  0.94614000  1.0
  O  O376  1  0.97299000  0.92909000  0.78058000  1.0
  O  O377  1  0.52701000  0.57091000  0.28058000  1.0
  O  O378  1  0.02701000  0.07092000  0.21942000  1.0
  O  O379  1  0.47299000  0.42909000  0.71942000  1.0
