# generated using pymatgen
data_MgH8C13NO5
_symmetry_space_group_name_H-M   'P 1'
_cell_length_a   12.52250000
_cell_length_b   12.52250000
_cell_length_c   13.42450000
_cell_angle_alpha   63.16840000
_cell_angle_beta   63.16820000
_cell_angle_gamma   88.10420000
_symmetry_Int_Tables_number   1
_chemical_formula_structural   MgH8C13NO5
_chemical_formula_sum   'Mg4 H32 C52 N4 O20'
_cell_volume   1637.29452841
_cell_formula_units_Z   4
loop_
 _symmetry_equiv_pos_site_id
 _symmetry_equiv_pos_as_xyz
  1  'x, y, z'
loop_
 _atom_site_type_symbol
 _atom_site_label
 _atom_site_symmetry_multiplicity
 _atom_site_fract_x
 _atom_site_fract_y
 _atom_site_fract_z
 _atom_site_occupancy
  Mg  Mg0  1  0.30779000  0.69221000  0.75000000  1.0
  Mg  Mg1  1  0.69221000  0.30779000  0.25000000  1.0
  Mg  Mg2  1  0.50000000  0.00000000  0.50000000  1.0
  Mg  Mg3  1  0.00000000  0.50000000  0.00000000  1.0
  H  H4  1  0.39763000  0.65409000  0.00800000  1.0
  H  H5  1  0.34591000  0.60237000  0.49200000  1.0
  H  H6  1  0.60237000  0.34592000  0.99200000  1.0
  H  H7  1  0.65409000  0.39763000  0.50800000  1.0
  H  H8  1  0.51889000  0.54104000  0.11363000  1.0
  H  H9  1  0.45896000  0.48111000  0.38637000  1.0
  H  H10  1  0.48111000  0.45896000  0.88637000  1.0
  H  H11  1  0.54104000  0.51889000  0.61363000  1.0
  H  H12  1  0.85248000  0.74460000  0.75963000  1.0
  H  H13  1  0.25540000  0.14752000  0.74037000  1.0
  H  H14  1  0.14752000  0.25540000  0.24037000  1.0
  H  H15  1  0.74460000  0.85248000  0.25963000  1.0
  H  H16  1  0.73043000  0.86231000  0.65638000  1.0
  H  H17  1  0.13769000  0.26957000  0.84362000  1.0
  H  H18  1  0.26957000  0.13769000  0.34362000  1.0
  H  H19  1  0.86231000  0.73043000  0.15638000  1.0
  H  H20  1  0.25531000  0.79338000  0.50757000  1.0
  H  H21  1  0.20662000  0.74469000  0.99243000  1.0
  H  H22  1  0.74469000  0.20662000  0.49243000  1.0
  H  H23  1  0.79338000  0.25531000  0.00757000  1.0
  H  H24  1  0.09228000  0.85002000  0.44691000  1.0
  H  H25  1  0.14998000  0.90772000  0.05309000  1.0
  H  H26  1  0.90772000  0.14998000  0.55309000  1.0
  H  H27  1  0.85002000  0.09228000  0.94691000  1.0
  H  H28  1  0.04471000  0.10561000  0.59176000  1.0
  H  H29  1  0.89439000  0.95529000  0.90824000  1.0
  H  H30  1  0.95529000  0.89439000  0.40824000  1.0
  H  H31  1  0.10561000  0.04471000  0.09176000  1.0
  H  H32  1  0.21502000  0.04020000  0.63956000  1.0
  H  H33  1  0.95980000  0.78498000  0.86044000  1.0
  H  H34  1  0.78498000  0.95980000  0.36044000  1.0
  H  H35  1  0.04020000  0.21502000  0.13956000  1.0
  C  C36  1  0.55751000  0.76743000  0.82621000  1.0
  C  C37  1  0.23258000  0.44249000  0.67379000  1.0
  C  C38  1  0.44249000  0.23258000  0.17379000  1.0
  C  C39  1  0.76743000  0.55751000  0.32621000  1.0
  C  C40  1  0.49745000  0.67681000  0.95547000  1.0
  C  C41  1  0.32319000  0.50255000  0.54453000  1.0
  C  C42  1  0.50255000  0.32319000  0.04453000  1.0
  C  C43  1  0.67681000  0.49745000  0.45547000  1.0
  C  C44  1  0.56436000  0.61336000  0.01392000  1.0
  C  C45  1  0.38664000  0.43564000  0.48608000  1.0
  C  C46  1  0.43564000  0.38664000  0.98608000  1.0
  C  C47  1  0.61336000  0.56436000  0.51392000  1.0
  C  C48  1  0.69266000  0.63746000  0.94353000  1.0
  C  C49  1  0.36254000  0.30734000  0.55647000  1.0
  C  C50  1  0.30734000  0.36254000  0.05647000  1.0
  C  C51  1  0.63746000  0.69266000  0.44353000  1.0
  C  C52  1  0.75294000  0.72864000  0.81444000  1.0
  C  C53  1  0.27136000  0.24706000  0.68556000  1.0
  C  C54  1  0.24706000  0.27136000  0.18556000  1.0
  C  C55  1  0.72864000  0.75294000  0.31444000  1.0
  C  C56  1  0.68571000  0.79347000  0.75702000  1.0
  C  C57  1  0.20653000  0.31429000  0.74298000  1.0
  C  C58  1  0.31429000  0.20653000  0.24298000  1.0
  C  C59  1  0.79348000  0.68571000  0.25702000  1.0
  C  C60  1  0.48607000  0.82751000  0.75863000  1.0
  C  C61  1  0.17249000  0.51393000  0.74137000  1.0
  C  C62  1  0.51393000  0.17249000  0.24137000  1.0
  C  C63  1  0.82751000  0.48607000  0.25863000  1.0
  C  C64  1  0.76246000  0.56060000  0.00569000  1.0
  C  C65  1  0.43940000  0.23754000  0.49431000  1.0
  C  C66  1  0.23754000  0.43940000  0.99431000  1.0
  C  C67  1  0.56060000  0.76246000  0.50569000  1.0
  C  C68  1  0.20454000  0.86188000  0.52178000  1.0
  C  C69  1  0.13812000  0.79546000  0.97821000  1.0
  C  C70  1  0.79546000  0.13812000  0.47822000  1.0
  C  C71  1  0.86188000  0.20454000  0.02178000  1.0
  C  C72  1  0.11263000  0.89473000  0.49134000  1.0
  C  C73  1  0.10527000  0.88737000  0.00867000  1.0
  C  C74  1  0.88737000  0.10527000  0.50867000  1.0
  C  C75  1  0.89473000  0.11263000  0.99133000  1.0
  C  C76  1  0.04886000  0.98209000  0.51628000  1.0
  C  C77  1  0.01791000  0.95114000  0.98373000  1.0
  C  C78  1  0.95114000  0.01791000  0.48373000  1.0
  C  C79  1  0.98209000  0.04886000  0.01627000  1.0
  C  C80  1  0.08594000  0.03486000  0.57175000  1.0
  C  C81  1  0.96514000  0.91406000  0.92826000  1.0
  C  C82  1  0.91406000  0.96514000  0.42826000  1.0
  C  C83  1  0.03486000  0.08594000  0.07174000  1.0
  C  C84  1  0.17830000  0.00046000  0.60117000  1.0
  C  C85  1  0.99954000  0.82170000  0.89883000  1.0
  C  C86  1  0.82170000  0.99954000  0.39883000  1.0
  C  C87  1  0.00046000  0.17830000  0.10117000  1.0
  N  N88  1  0.23469000  0.91301000  0.57836000  1.0
  N  N89  1  0.08699000  0.76531000  0.92164000  1.0
  N  N90  1  0.76531000  0.08699000  0.42164000  1.0
  N  N91  1  0.91301000  0.23469000  0.07836000  1.0
  O  O92  1  0.37278000  0.77717000  0.81682000  1.0
  O  O93  1  0.22283000  0.62722000  0.68318000  1.0
  O  O94  1  0.62722000  0.22283000  0.18318000  1.0
  O  O95  1  0.77717000  0.37278000  0.31682000  1.0
  O  O96  1  0.54207000  0.92010000  0.64757000  1.0
  O  O97  1  0.07990000  0.45793000  0.85243000  1.0
  O  O98  1  0.45793000  0.07990000  0.35243000  1.0
  O  O99  1  0.92010000  0.54207000  0.14757000  1.0
  O  O100  1  0.69943000  0.47601000  0.12041000  1.0
  O  O101  1  0.52399000  0.30057000  0.37959000  1.0
  O  O102  1  0.30057000  0.52399000  0.87959000  1.0
  O  O103  1  0.47601000  0.69943000  0.62041000  1.0
  O  O104  1  0.87911000  0.58470000  0.93910000  1.0
  O  O105  1  0.41530000  0.12088000  0.56090000  1.0
  O  O106  1  0.12088000  0.41530000  0.06090000  1.0
  O  O107  1  0.58470000  0.87912000  0.43910000  1.0
  O  O108  1  0.31993000  0.87852000  0.61101000  1.0
  O  O109  1  0.12148000  0.68007000  0.88899000  1.0
  O  O110  1  0.68007000  0.12148000  0.38899000  1.0
  O  O111  1  0.87852000  0.31993000  0.11101000  1.0
