# generated using pymatgen
data_Gd3H13C10S2O13
_symmetry_space_group_name_H-M   'P 1'
_cell_length_a   7.29604000
_cell_length_b   9.30455000
_cell_length_c   14.38710000
_cell_angle_alpha   76.52760000
_cell_angle_beta   76.75400000
_cell_angle_gamma   79.18540000
_symmetry_Int_Tables_number   1
_chemical_formula_structural   Gd3H13C10S2O13
_chemical_formula_sum   'Gd6 H26 C20 S4 O26'
_cell_volume   915.19727114
_cell_formula_units_Z   2
loop_
 _symmetry_equiv_pos_site_id
 _symmetry_equiv_pos_as_xyz
  1  'x, y, z'
loop_
 _atom_site_type_symbol
 _atom_site_label
 _atom_site_symmetry_multiplicity
 _atom_site_fract_x
 _atom_site_fract_y
 _atom_site_fract_z
 _atom_site_occupancy
  Gd  Gd0  1  0.55752000  0.14743000  0.05837000  1.0
  Gd  Gd1  1  0.44248000  0.85257000  0.94163000  1.0
  Gd  Gd2  1  0.23220000  0.48635000  0.05021000  1.0
  Gd  Gd3  1  0.76780000  0.51365000  0.94979000  1.0
  Gd  Gd4  1  0.07206000  0.14646000  0.05718000  1.0
  Gd  Gd5  1  0.92793000  0.85353000  0.94282000  1.0
  H  H6  1  0.54973000  0.39595000  0.14663000  1.0
  H  H7  1  0.45026000  0.60405000  0.85337000  1.0
  H  H8  1  0.86519000  0.39292000  0.14710000  1.0
  H  H9  1  0.13481000  0.60709000  0.85290000  1.0
  H  H10  1  0.88470000  0.22160000  0.89885000  1.0
  H  H11  1  0.11529000  0.77840000  0.10115000  1.0
  H  H12  1  0.16332000  0.08897000  0.85523000  1.0
  H  H13  1  0.83667000  0.91103000  0.14477000  1.0
  H  H14  1  0.34652000  0.89096000  0.14009000  1.0
  H  H15  1  0.65348000  0.10904000  0.85991000  1.0
  H  H16  1  0.22048000  0.21596000  0.21379000  1.0
  H  H17  1  0.77952000  0.78404000  0.78621000  1.0
  H  H18  1  0.36998000  0.30070000  0.89360000  1.0
  H  H19  1  0.63001000  0.69930000  0.10640000  1.0
  H  H20  1  0.98455000  0.95845000  0.36723000  1.0
  H  H21  1  0.01545000  0.04154000  0.63277000  1.0
  H  H22  1  0.95996000  0.79292000  0.53187000  1.0
  H  H23  1  0.04004000  0.20708000  0.46813000  1.0
  H  H24  1  0.64902000  0.77923000  0.64242000  1.0
  H  H25  1  0.35098000  0.22078000  0.35758000  1.0
  H  H26  1  0.40954000  0.68679000  0.38452000  1.0
  H  H27  1  0.59047000  0.31322000  0.61547000  1.0
  H  H28  1  0.38258000  0.62580000  0.56583000  1.0
  H  H29  1  0.61742000  0.37420000  0.43416000  1.0
  H  H30  1  0.12400000  0.49611000  0.67085000  1.0
  H  H31  1  0.87600000  0.50389000  0.32916000  1.0
  C  C32  1  0.68938000  0.04819000  0.39081000  1.0
  C  C33  1  0.31062000  0.95181000  0.60919000  1.0
  C  C34  1  0.84914000  0.95867000  0.41824000  1.0
  C  C35  1  0.15086000  0.04133000  0.58177000  1.0
  C  C36  1  0.83359000  0.86377000  0.51068000  1.0
  C  C37  1  0.16642000  0.13623000  0.48932000  1.0
  C  C38  1  0.65973000  0.85771000  0.57289000  1.0
  C  C39  1  0.34026000  0.14229000  0.42711000  1.0
  C  C40  1  0.50656000  0.04961000  0.45328000  1.0
  C  C41  1  0.49344000  0.95038000  0.54672000  1.0
  C  C42  1  0.16187000  0.59175000  0.38949000  1.0
  C  C43  1  0.83814000  0.40825000  0.61051000  1.0
  C  C44  1  0.29407000  0.62966000  0.43122000  1.0
  C  C45  1  0.70593000  0.37034000  0.56878000  1.0
  C  C46  1  0.27908000  0.59445000  0.53321000  1.0
  C  C47  1  0.72091000  0.40555000  0.46679000  1.0
  C  C48  1  0.13348000  0.52157000  0.59232000  1.0
  C  C49  1  0.86652000  0.47844000  0.40768000  1.0
  C  C50  1  0.00623000  0.51814000  0.44781000  1.0
  C  C51  1  0.99377000  0.48186000  0.55219000  1.0
  S  S52  1  0.71245000  0.15341000  0.27062000  1.0
  S  S53  1  0.28755000  0.84659000  0.72938000  1.0
  S  S54  1  0.19016000  0.64658000  0.25975000  1.0
  S  S55  1  0.80984000  0.35341000  0.74025000  1.0
  O  O56  1  0.58072000  0.09864000  0.22657000  1.0
  O  O57  1  0.41928000  0.90136000  0.77343000  1.0
  O  O58  1  0.91311000  0.11486000  0.22433000  1.0
  O  O59  1  0.08689000  0.88514000  0.77567000  1.0
  O  O60  1  0.66191000  0.31333000  0.27147000  1.0
  O  O61  1  0.33809000  0.68666000  0.72853000  1.0
  O  O62  1  0.19408000  0.50983000  0.22192000  1.0
  O  O63  1  0.80592000  0.49017000  0.77808000  1.0
  O  O64  1  0.37157000  0.70751000  0.22539000  1.0
  O  O65  1  0.62844000  0.29248000  0.77461000  1.0
  O  O66  1  0.02516000  0.75861000  0.23935000  1.0
  O  O67  1  0.97485000  0.24139000  0.76064000  1.0
  O  O68  1  0.54471000  0.40111000  0.07855000  1.0
  O  O69  1  0.45529000  0.59889000  0.92145000  1.0
  O  O70  1  0.93658000  0.40518000  0.08015000  1.0
  O  O71  1  0.06342000  0.59482000  0.91985000  1.0
  O  O72  1  0.83701000  0.25592000  0.96066000  1.0
  O  O73  1  0.16298000  0.74408000  0.03934000  1.0
  O  O74  1  0.15674000  0.02588000  0.92010000  1.0
  O  O75  1  0.84326000  0.97412000  0.07990000  1.0
  O  O76  1  0.35132000  0.96656000  0.07913000  1.0
  O  O77  1  0.64868000  0.03344000  0.92087000  1.0
  O  O78  1  0.25278000  0.23323000  0.14332000  1.0
  O  O79  1  0.74722000  0.76677000  0.85668000  1.0
  O  O80  1  0.32382000  0.28270000  0.96392000  1.0
  O  O81  1  0.67618000  0.71730000  0.03608000  1.0
