# generated using pymatgen
data_CdP2H12C7(NO5)2
_symmetry_space_group_name_H-M   'P 1'
_cell_length_a   8.68610000
_cell_length_b   9.34858000
_cell_length_c   10.14760000
_cell_angle_alpha   70.02730000
_cell_angle_beta   66.60890000
_cell_angle_gamma   65.19370000
_symmetry_Int_Tables_number   1
_chemical_formula_structural   CdP2H12C7(NO5)2
_chemical_formula_sum   'Cd2 P4 H24 C14 N4 O20'
_cell_volume   671.19290029
_cell_formula_units_Z   2
loop_
 _symmetry_equiv_pos_site_id
 _symmetry_equiv_pos_as_xyz
  1  'x, y, z'
loop_
 _atom_site_type_symbol
 _atom_site_label
 _atom_site_symmetry_multiplicity
 _atom_site_fract_x
 _atom_site_fract_y
 _atom_site_fract_z
 _atom_site_occupancy
  Cd  Cd0  1  0.17439000  0.35790000  0.58260000  1.0
  Cd  Cd1  1  0.82562000  0.64209000  0.41739000  1.0
  P  P2  1  0.99393000  0.76387000  0.60037000  1.0
  P  P3  1  0.00607000  0.23614000  0.39962000  1.0
  P  P4  1  0.24749000  0.53550000  0.79014000  1.0
  P  P5  1  0.75251000  0.46451000  0.20986000  1.0
  H  H6  1  0.42222000  0.10086000  0.44653000  1.0
  H  H7  1  0.57780000  0.89912000  0.55348000  1.0
  H  H8  1  0.53422000  0.21382000  0.41057000  1.0
  H  H9  1  0.46579000  0.78618000  0.58942000  1.0
  H  H10  1  0.28257000  0.63455000  0.39568000  1.0
  H  H11  1  0.71744000  0.36544000  0.60432000  1.0
  H  H12  1  0.22878000  0.58348000  0.28976000  1.0
  H  H13  1  0.77123000  0.41652000  0.71023000  1.0
  H  H14  1  0.83142000  0.02727000  0.57527000  1.0
  H  H15  1  0.16857000  0.97273000  0.42473000  1.0
  H  H16  1  0.50940000  0.55734000  0.70314000  1.0
  H  H17  1  0.49060000  0.44267000  0.29687000  1.0
  H  H18  1  0.76394000  0.72832000  0.02874000  1.0
  H  H19  1  0.23604000  0.27168000  0.97126000  1.0
  H  H20  1  0.10076000  0.90061000  0.76142000  1.0
  H  H21  1  0.89923000  0.09939000  0.23859000  1.0
  H  H22  1  0.52023000  0.86176000  0.19340000  1.0
  H  H23  1  0.47976000  0.13825000  0.80659000  1.0
  H  H24  1  0.45541000  0.15114000  0.19293000  1.0
  H  H25  1  0.54459000  0.84887000  0.80706000  1.0
  H  H26  1  0.67664000  0.28859000  0.00857000  1.0
  H  H27  1  0.32338000  0.71141000  0.99143000  1.0
  H  H28  1  0.93311000  0.63909000  0.85789000  1.0
  H  H29  1  0.06688000  0.36091000  0.14212000  1.0
  C  C30  1  0.60565000  0.93158000  0.11644000  1.0
  C  C31  1  0.39436000  0.06842000  0.88356000  1.0
  C  C32  1  0.57399000  0.08879000  0.11591000  1.0
  C  C33  1  0.42600000  0.91122000  0.88409000  1.0
  C  C34  1  0.69648000  0.16419000  0.01283000  1.0
  C  C35  1  0.30352000  0.83579000  0.98718000  1.0
  C  C36  1  0.84691000  0.08224000  0.91490000  1.0
  C  C37  1  0.15308000  0.91777000  0.08510000  1.0
  C  C38  1  0.87335000  0.91904000  0.91870000  1.0
  C  C39  1  0.12664000  0.08096000  0.08131000  1.0
  C  C40  1  0.97367000  0.16573000  0.80413000  1.0
  C  C41  1  0.02634000  0.83426000  0.19587000  1.0
  C  C42  1  0.03359000  0.69584000  0.78149000  1.0
  C  C43  1  0.96641000  0.30416000  0.21851000  1.0
  N  N44  1  0.74963000  0.85161000  0.01955000  1.0
  N  N45  1  0.25037000  0.14840000  0.98044000  1.0
  N  N46  1  0.01622000  0.83445000  0.82683000  1.0
  N  N47  1  0.98379000  0.16555000  0.17316000  1.0
  O  O48  1  0.44617000  0.16606000  0.48906000  1.0
  O  O49  1  0.55383000  0.83394000  0.51094000  1.0
  O  O50  1  0.12105000  0.08726000  0.72510000  1.0
  O  O51  1  0.87896000  0.91271000  0.27490000  1.0
  O  O52  1  0.30675000  0.54143000  0.35535000  1.0
  O  O53  1  0.69325000  0.45857000  0.64465000  1.0
  O  O54  1  0.92803000  0.31867000  0.79021000  1.0
  O  O55  1  0.07200000  0.68131000  0.20977000  1.0
  O  O56  1  0.95523000  0.62881000  0.58045000  1.0
  O  O57  1  0.04477000  0.37119000  0.41955000  1.0
  O  O58  1  0.81660000  0.91369000  0.61797000  1.0
  O  O59  1  0.18340000  0.08631000  0.38202000  1.0
  O  O60  1  0.15165000  0.80927000  0.48188000  1.0
  O  O61  1  0.84834000  0.19073000  0.51813000  1.0
  O  O62  1  0.37977000  0.63637000  0.73521000  1.0
  O  O63  1  0.62022000  0.36363000  0.26479000  1.0
  O  O64  1  0.30661000  0.42995000  0.68174000  1.0
  O  O65  1  0.69338000  0.57006000  0.31827000  1.0
  O  O66  1  0.23391000  0.44558000  0.94781000  1.0
  O  O67  1  0.76608000  0.55443000  0.05220000  1.0
