# generated using pymatgen
data_H10PbC10(NCl)2
_symmetry_space_group_name_H-M   'P 1'
_cell_length_a   4.13436000
_cell_length_b   9.47409731
_cell_length_c   16.40860000
_cell_angle_alpha   88.51236367
_cell_angle_beta   82.78870000
_cell_angle_gamma   78.11575119
_symmetry_Int_Tables_number   1
_chemical_formula_structural   H10PbC10(NCl)2
_chemical_formula_sum   'H20 Pb2 C20 N4 Cl4'
_cell_volume   623.96276400
_cell_formula_units_Z   2
loop_
 _symmetry_equiv_pos_site_id
 _symmetry_equiv_pos_as_xyz
  1  'x, y, z'
loop_
 _atom_site_type_symbol
 _atom_site_label
 _atom_site_symmetry_multiplicity
 _atom_site_fract_x
 _atom_site_fract_y
 _atom_site_fract_z
 _atom_site_occupancy
  H  H0  1  0.39857000  0.85684000  0.81706000  1.0
  H  H1  1  0.06718000  0.14468000  0.18243000  1.0
  H  H2  1  0.00094000  0.64448000  0.31767000  1.0
  H  H3  1  0.96532000  0.35711000  0.68303000  1.0
  H  H4  1  0.57317000  0.63505000  0.72854000  1.0
  H  H5  1  0.93517000  0.36604000  0.27147000  1.0
  H  H6  1  0.95776000  0.86586000  0.22862000  1.0
  H  H7  1  0.05346000  0.13510000  0.77139000  1.0
  H  H8  1  0.38367000  0.40844000  0.77985000  1.0
  H  H9  1  0.57669000  0.59103000  0.22040000  1.0
  H  H10  1  0.54767000  0.09074000  0.27950000  1.0
  H  H11  1  0.91659000  0.90829000  0.71995000  1.0
  H  H12  1  0.02661000  0.41442000  0.91477000  1.0
  H  H13  1  0.36149000  0.58387000  0.08531000  1.0
  H  H14  1  0.19785000  0.08358000  0.41462000  1.0
  H  H15  1  0.69380000  0.91424000  0.58508000  1.0
  H  H16  1  0.86477000  0.64776000  0.99412000  1.0
  H  H17  1  0.50490000  0.35035000  0.00592000  1.0
  H  H18  1  0.26166000  0.85003000  0.49395000  1.0
  H  H19  1  0.60857000  0.14783000  0.50599000  1.0
  Pb  Pb20  1  0.92357000  0.00045000  0.99982000  1.0
  Pb  Pb21  1  0.67089000  0.50045000  0.50037000  1.0
  C  C22  1  0.31870000  0.75645000  0.83555000  1.0
  C  C23  1  0.90728000  0.24423000  0.16418000  1.0
  C  C24  1  0.82260000  0.74399000  0.33585000  1.0
  C  C25  1  0.90445000  0.25663000  0.66450000  1.0
  C  C26  1  0.41614000  0.63288000  0.78697000  1.0
  C  C27  1  0.83506000  0.36761000  0.21297000  1.0
  C  C28  1  0.79895000  0.86738000  0.28705000  1.0
  C  C29  1  0.95461000  0.13294000  0.71297000  1.0
  C  C30  1  0.31043000  0.50783000  0.81552000  1.0
  C  C31  1  0.63634000  0.49181000  0.18453000  1.0
  C  C32  1  0.57160000  0.99155000  0.31541000  1.0
  C  C33  1  0.87819000  0.00776000  0.68436000  1.0
  C  C34  1  0.11122000  0.51071000  0.89093000  1.0
  C  C35  1  0.51564000  0.48819000  0.10911000  1.0
  C  C36  1  0.37571000  0.98792000  0.39083000  1.0
  C  C37  1  0.75384000  0.01064000  0.60900000  1.0
  C  C38  1  0.02335000  0.63930000  0.93518000  1.0
  C  C39  1  0.59695000  0.35971000  0.06474000  1.0
  C  C40  1  0.41271000  0.85941000  0.43518000  1.0
  C  C41  1  0.70875000  0.13936000  0.56488000  1.0
  N  N42  1  0.12532000  0.75998000  0.90808000  1.0
  N  N43  1  0.78984000  0.23997000  0.09166000  1.0
  N  N44  1  0.63243000  0.73966000  0.40830000  1.0
  N  N45  1  0.78290000  0.26016000  0.59204000  1.0
  Cl  Cl46  1  0.40188000  0.12587000  0.89817000  1.0
  Cl  Cl47  1  0.41680000  0.87768000  0.10247000  1.0
  Cl  Cl48  1  0.26748000  0.37766000  0.39783000  1.0
  Cl  Cl49  1  0.04910000  0.62609000  0.60189000  1.0
