# generated using pymatgen
data_Cu2H12C8S(N2O3)2
_symmetry_space_group_name_H-M   'P 1'
_cell_length_a   8.01654000
_cell_length_b   8.01654000
_cell_length_c   11.20300000
_cell_angle_alpha   105.72000000
_cell_angle_beta   105.72000000
_cell_angle_gamma   94.79350000
_symmetry_Int_Tables_number   1
_chemical_formula_structural   Cu2H12C8S(N2O3)2
_chemical_formula_sum   'Cu4 H24 C16 S2 N8 O12'
_cell_volume   657.46775959
_cell_formula_units_Z   2
loop_
 _symmetry_equiv_pos_site_id
 _symmetry_equiv_pos_as_xyz
  1  'x, y, z'
loop_
 _atom_site_type_symbol
 _atom_site_label
 _atom_site_symmetry_multiplicity
 _atom_site_fract_x
 _atom_site_fract_y
 _atom_site_fract_z
 _atom_site_occupancy
  Cu  Cu0  1  0.52246000  0.90299000  0.19683000  1.0
  Cu  Cu1  1  0.09701000  0.47754000  0.30317000  1.0
  Cu  Cu2  1  0.47754000  0.09701000  0.80317000  1.0
  Cu  Cu3  1  0.90299000  0.52246000  0.69683000  1.0
  H  H4  1  0.34894000  0.71261000  0.91254000  1.0
  H  H5  1  0.28739000  0.65106000  0.58745000  1.0
  H  H6  1  0.65106000  0.28739000  0.08746000  1.0
  H  H7  1  0.71261000  0.34894000  0.41255000  1.0
  H  H8  1  0.77991000  0.96409000  0.45988000  1.0
  H  H9  1  0.03591000  0.22009000  0.04012000  1.0
  H  H10  1  0.22010000  0.03591000  0.54012000  1.0
  H  H11  1  0.96408000  0.77990000  0.95988000  1.0
  H  H12  1  0.66605000  0.59051000  0.23027000  1.0
  H  H13  1  0.40950000  0.33396000  0.26973000  1.0
  H  H14  1  0.33395000  0.40950000  0.76973000  1.0
  H  H15  1  0.59050000  0.66605000  0.73027000  1.0
  H  H16  1  0.24596000  0.98147000  0.31737000  1.0
  H  H17  1  0.01853000  0.75404000  0.18263000  1.0
  H  H18  1  0.75404000  0.01853000  0.68264000  1.0
  H  H19  1  0.98146000  0.24595000  0.81736000  1.0
  H  H20  1  0.22663000  0.04692000  0.12257000  1.0
  H  H21  1  0.95308000  0.77337000  0.37743000  1.0
  H  H22  1  0.77337000  0.95308000  0.87743000  1.0
  H  H23  1  0.04692000  0.22663000  0.62257000  1.0
  H  H24  1  0.30612000  0.01460000  0.00484000  1.0
  H  H25  1  0.98540000  0.69388000  0.49516000  1.0
  H  H26  1  0.69388000  0.98540000  0.99516000  1.0
  H  H27  1  0.01460000  0.30612000  0.50484000  1.0
  C  C28  1  0.59065000  0.55042000  0.12721000  1.0
  C  C29  1  0.44958000  0.40935000  0.37280000  1.0
  C  C30  1  0.40935000  0.44958000  0.87280000  1.0
  C  C31  1  0.55042000  0.59065000  0.62720000  1.0
  C  C32  1  0.41561000  0.61744000  0.95232000  1.0
  C  C33  1  0.38256000  0.58439000  0.54768000  1.0
  C  C34  1  0.58439000  0.38256000  0.04768000  1.0
  C  C35  1  0.61745000  0.41561000  0.45232000  1.0
  C  C36  1  0.65417000  0.97894000  0.47729000  1.0
  C  C37  1  0.02106000  0.34583000  0.02272000  1.0
  C  C38  1  0.34583000  0.02106000  0.52272000  1.0
  C  C39  1  0.97893000  0.65417000  0.97728000  1.0
  C  C40  1  0.36026000  0.98831000  0.39852000  1.0
  C  C41  1  0.01168000  0.63973000  0.10148000  1.0
  C  C42  1  0.63974000  0.01169000  0.60149000  1.0
  C  C43  1  0.98831000  0.36026000  0.89852000  1.0
  S  S44  1  0.91475000  0.08525000  0.25000000  1.0
  S  S45  1  0.08525000  0.91475000  0.75000000  1.0
  N  N46  1  0.50615000  0.67017000  0.08096000  1.0
  N  N47  1  0.32984000  0.49385000  0.41904000  1.0
  N  N48  1  0.49385000  0.32983000  0.91904000  1.0
  N  N49  1  0.67017000  0.50615000  0.58096000  1.0
  N  N50  1  0.51429000  0.96656000  0.37292000  1.0
  N  N51  1  0.03344000  0.48571000  0.12708000  1.0
  N  N52  1  0.48572000  0.03345000  0.62709000  1.0
  N  N53  1  0.96655000  0.51428000  0.87291000  1.0
  O  O54  1  0.72926000  0.05057000  0.15985000  1.0
  O  O55  1  0.94945000  0.27073000  0.34015000  1.0
  O  O56  1  0.27074000  0.94943000  0.84015000  1.0
  O  O57  1  0.05056000  0.72926000  0.65985000  1.0
  O  O58  1  0.33832000  0.04877000  0.10152000  1.0
  O  O59  1  0.95123000  0.66168000  0.39848000  1.0
  O  O60  1  0.66168000  0.95123000  0.89848000  1.0
  O  O61  1  0.04877000  0.33832000  0.60152000  1.0
  O  O62  1  0.03656000  0.06564000  0.17073000  1.0
  O  O63  1  0.93434000  0.96342000  0.32926000  1.0
  O  O64  1  0.96343000  0.93434000  0.82927000  1.0
  O  O65  1  0.06566000  0.03657000  0.67074000  1.0
