# generated using pymatgen
data_AlH12C24(NO4)3
_symmetry_space_group_name_H-M   'P 1'
_cell_length_a   4.16342000
_cell_length_b   28.59850000
_cell_length_c   28.59880000
_cell_angle_alpha   60.00104101
_cell_angle_beta   89.99869999
_cell_angle_gamma   89.99970000
_symmetry_Int_Tables_number   1
_chemical_formula_structural   AlH12C24(NO4)3
_chemical_formula_sum   'Al2 H24 C48 N6 O24'
_cell_volume   2949.01157272
_cell_formula_units_Z   2
loop_
 _symmetry_equiv_pos_site_id
 _symmetry_equiv_pos_as_xyz
  1  'x, y, z'
loop_
 _atom_site_type_symbol
 _atom_site_label
 _atom_site_symmetry_multiplicity
 _atom_site_fract_x
 _atom_site_fract_y
 _atom_site_fract_z
 _atom_site_occupancy
  Al  Al0  1  0.02452000  1.00000000  0.50000000  1.0
  Al  Al1  1  0.02456000  0.66667000  0.16666000  1.0
  H  H2  1  0.84596000  0.51153000  0.29470000  1.0
  H  H3  1  0.83129000  0.41255000  0.33828000  1.0
  H  H4  1  0.17048000  0.42481000  0.21588000  1.0
  H  H5  1  0.18535000  0.52405000  0.17269000  1.0
  H  H6  1  0.17045000  0.24184000  0.45079000  1.0
  H  H7  1  0.83128000  0.25411000  0.32838000  1.0
  H  H8  1  0.84594000  0.15514000  0.37195000  1.0
  H  H9  1  0.18530000  0.14261000  0.49397000  1.0
  H  H10  1  0.84597000  0.79468000  0.19377000  1.0
  H  H11  1  0.83141000  0.83827000  0.24916000  1.0
  H  H12  1  0.17054000  0.71588000  0.35931000  1.0
  H  H13  1  0.18530000  0.67269000  0.30327000  1.0
  H  H14  1  0.17053000  0.95077000  0.30737000  1.0
  H  H15  1  0.83135000  0.82838000  0.41751000  1.0
  H  H16  1  0.84589000  0.87196000  0.47291000  1.0
  H  H17  1  0.18530000  0.99396000  0.36342000  1.0
  H  H18  1  0.84597000  0.69377000  0.01153000  1.0
  H  H19  1  0.83138000  0.74916000  0.91256000  1.0
  H  H20  1  0.17053000  0.85931000  0.92481000  1.0
  H  H21  1  0.18531000  0.80327000  0.02404000  1.0
  H  H22  1  0.17050000  0.80736000  0.74186000  1.0
  H  H23  1  0.83133000  0.91753000  0.75410000  1.0
  H  H24  1  0.84592000  0.97292000  0.65513000  1.0
  H  H25  1  0.18530000  0.86341000  0.64263000  1.0
  C  C26  1  0.52273000  0.95581000  0.58233000  1.0
  C  C27  1  0.52274000  0.08233000  0.46186000  1.0
  C  C28  1  0.52275000  0.96186000  0.45581000  1.0
  C  C29  1  0.52273000  0.58433000  0.20480000  1.0
  C  C30  1  0.52273000  0.70479000  0.21087000  1.0
  C  C31  1  0.52273000  0.71086000  0.08434000  1.0
  C  C32  1  0.51352000  0.52407000  0.23129000  1.0
  C  C33  1  0.69210000  0.49243000  0.27822000  1.0
  C  C34  1  0.68197000  0.43647000  0.30295000  1.0
  C  C35  1  0.49436000  0.41132000  0.28102000  1.0
  C  C36  1  0.32035000  0.44355000  0.23322000  1.0
  C  C37  1  0.32782000  0.49946000  0.20880000  1.0
  C  C38  1  0.47646000  0.35238000  0.30673000  1.0
  C  C39  1  0.47645000  0.31428000  0.35994000  1.0
  C  C40  1  0.32031000  0.22312000  0.43343000  1.0
  C  C41  1  0.49432000  0.25535000  0.38564000  1.0
  C  C42  1  0.68194000  0.23019000  0.36371000  1.0
  C  C43  1  0.69208000  0.17424000  0.38843000  1.0
  C  C44  1  0.51348000  0.14260000  0.43536000  1.0
  C  C45  1  0.32776000  0.16720000  0.45786000  1.0
  C  C46  1  0.51351000  0.73128000  0.24465000  1.0
  C  C47  1  0.69211000  0.77821000  0.22935000  1.0
  C  C48  1  0.68205000  0.80294000  0.26058000  1.0
  C  C49  1  0.49445000  0.78102000  0.30766000  1.0
  C  C50  1  0.32040000  0.73323000  0.32323000  1.0
  C  C51  1  0.32780000  0.70880000  0.29174000  1.0
  C  C52  1  0.47653000  0.80672000  0.34089000  1.0
  C  C53  1  0.47651000  0.85994000  0.32578000  1.0
  C  C54  1  0.32040000  0.93344000  0.34344000  1.0
  C  C55  1  0.49446000  0.88564000  0.35901000  1.0
  C  C56  1  0.68202000  0.86371000  0.40609000  1.0
  C  C57  1  0.69210000  0.88843000  0.43733000  1.0
  C  C58  1  0.51348000  0.93537000  0.42203000  1.0
  C  C59  1  0.32779000  0.95785000  0.37494000  1.0
  C  C60  1  0.51352000  0.74464000  0.02407000  1.0
  C  C61  1  0.69212000  0.72935000  0.99243000  1.0
  C  C62  1  0.68203000  0.76058000  0.93647000  1.0
  C  C63  1  0.49442000  0.80766000  0.91132000  1.0
  C  C64  1  0.32038000  0.82323000  0.94355000  1.0
  C  C65  1  0.32781000  0.79174000  0.99946000  1.0
  C  C66  1  0.47647000  0.84089000  0.85239000  1.0
  C  C67  1  0.47648000  0.82578000  0.81428000  1.0
  C  C68  1  0.32037000  0.84345000  0.72312000  1.0
  C  C69  1  0.49442000  0.85901000  0.75535000  1.0
  C  C70  1  0.68199000  0.90611000  0.73019000  1.0
  C  C71  1  0.69209000  0.93733000  0.67424000  1.0
  C  C72  1  0.51348000  0.92204000  0.64260000  1.0
  C  C73  1  0.32778000  0.87494000  0.66721000  1.0
  N  N74  1  0.46266000  0.33318000  0.26668000  1.0
  N  N75  1  0.46266000  0.33349000  0.39998000  1.0
  N  N76  1  0.46271000  0.76668000  0.40013000  1.0
  N  N77  1  0.46276000  0.89998000  0.26654000  1.0
  N  N78  1  0.46269000  0.90014000  0.83319000  1.0
  N  N79  1  0.46272000  0.76654000  0.83348000  1.0
  O  O80  1  0.76216000  0.99232000  0.44912000  1.0
  O  O81  1  0.76215000  0.94911000  0.55857000  1.0
  O  O82  1  0.76216000  0.05856000  0.49232000  1.0
  O  O83  1  0.29015000  0.95183000  0.48847000  1.0
  O  O84  1  0.29013000  0.05970000  0.45183000  1.0
  O  O85  1  0.29013000  0.98847000  0.55970000  1.0
  O  O86  1  0.76214000  0.71755000  0.10810000  1.0
  O  O87  1  0.76214000  0.60810000  0.17434000  1.0
  O  O88  1  0.76213000  0.67434000  0.21755000  1.0
  O  O89  1  0.29012000  0.67820000  0.10696000  1.0
  O  O90  1  0.29011000  0.71482000  0.17821000  1.0
  O  O91  1  0.29012000  0.60696000  0.21483000  1.0
  O  O92  1  0.65827000  0.35395000  0.22918000  1.0
  O  O93  1  0.25609000  0.29970000  0.27243000  1.0
  O  O94  1  0.65824000  0.31273000  0.43748000  1.0
  O  O95  1  0.25609000  0.36697000  0.39423000  1.0
  O  O96  1  0.65831000  0.72918000  0.41687000  1.0
  O  O97  1  0.25610000  0.77243000  0.42787000  1.0
  O  O98  1  0.65840000  0.93747000  0.24981000  1.0
  O  O99  1  0.25624000  0.89424000  0.23878000  1.0
  O  O100  1  0.65830000  0.91687000  0.85395000  1.0
  O  O101  1  0.25611000  0.92788000  0.79970000  1.0
  O  O102  1  0.65835000  0.74981000  0.81272000  1.0
  O  O103  1  0.25616000  0.73878000  0.86698000  1.0
