# generated using pymatgen
data_Zn2H20C23N2O9
_symmetry_space_group_name_H-M   'P 1'
_cell_length_a   8.97506000
_cell_length_b   9.73627000
_cell_length_c   11.08020000
_cell_angle_alpha   89.70050000
_cell_angle_beta   88.77590000
_cell_angle_gamma   81.09960000
_symmetry_Int_Tables_number   1
_chemical_formula_structural   Zn2H20C23N2O9
_chemical_formula_sum   'Zn2 H20 C23 N2 O9'
_cell_volume   956.34909501
_cell_formula_units_Z   1
loop_
 _symmetry_equiv_pos_site_id
 _symmetry_equiv_pos_as_xyz
  1  'x, y, z'
loop_
 _atom_site_type_symbol
 _atom_site_label
 _atom_site_symmetry_multiplicity
 _atom_site_fract_x
 _atom_site_fract_y
 _atom_site_fract_z
 _atom_site_occupancy
  Zn  Zn0  1  0.49057000  0.36917000  0.49648000  1.0
  Zn  Zn1  1  0.47246000  0.65540000  0.49591000  1.0
  H  H2  1  0.95802000  0.67688000  0.51496000  1.0
  H  H3  1  0.65881000  0.11138000  0.62262000  1.0
  H  H4  1  0.17011000  0.19534000  0.37279000  1.0
  H  H5  1  0.30784000  0.17459000  0.25320000  1.0
  H  H6  1  0.16273000  0.93512000  0.37125000  1.0
  H  H7  1  0.30222000  0.91434000  0.25248000  1.0
  H  H8  1  0.00314000  0.35913000  0.48059000  1.0
  H  H9  1  0.37329000  0.72102000  0.10442000  1.0
  H  H10  1  0.38532000  0.71660000  0.87991000  1.0
  H  H11  1  0.55705000  0.16121000  0.87728000  1.0
  H  H12  1  0.73082000  0.22520000  0.89894000  1.0
  H  H13  1  0.50592000  0.16545000  0.09918000  1.0
  H  H14  1  0.65120000  0.85308000  0.62209000  1.0
  H  H15  1  0.85607000  0.30222000  0.23022000  1.0
  H  H16  1  0.79669000  0.36779000  0.08646000  1.0
  H  H17  1  0.02377000  0.10535000  0.13800000  1.0
  H  H18  1  0.94616000  0.14322000  0.99483000  1.0
  H  H19  1  0.04926000  0.36955000  0.98696000  1.0
  H  H20  1  0.19700000  0.22888000  0.00866000  1.0
  H  H21  1  0.12673000  0.33753000  0.13183000  1.0
  C  C22  1  0.46407000  0.50919000  0.26095000  1.0
  C  C23  1  0.42410000  0.62255000  0.93126000  1.0
  C  C24  1  0.48297000  0.50135000  0.86641000  1.0
  C  C25  1  0.53268000  0.38375000  0.93561000  1.0
  C  C26  1  0.61200000  0.23495000  0.92862000  1.0
  C  C27  1  0.59012000  0.23130000  0.07193000  1.0
  C  C28  1  0.39163000  0.95633000  0.42952000  1.0
  C  C29  1  0.57639000  0.92419000  0.56599000  1.0
  C  C30  1  0.58099000  0.06678000  0.56587000  1.0
  C  C31  1  0.39630000  0.09885000  0.42931000  1.0
  C  C32  1  0.27271000  0.13019000  0.33833000  1.0
  C  C33  1  0.18594000  0.55408000  0.51009000  1.0
  C  C34  1  0.26801000  0.96740000  0.33803000  1.0
  C  C35  1  0.49207000  0.50279000  0.73185000  1.0
  C  C36  1  0.77587000  0.48276000  0.48447000  1.0
  C  C37  1  0.01863000  0.57120000  0.50673000  1.0
  C  C38  1  0.94299000  0.46488000  0.48946000  1.0
  C  C39  1  0.52202000  0.38523000  0.06151000  1.0
  C  C40  1  0.46651000  0.50538000  0.12633000  1.0
  C  C41  1  0.41719000  0.62487000  0.05713000  1.0
  C  C42  1  0.83411000  0.27131000  0.13738000  1.0
  C  C43  1  0.97685000  0.19165000  0.07846000  1.0
  C  C44  1  0.09396000  0.28662000  0.05028000  1.0
  N  N45  1  0.47953000  0.86595000  0.49690000  1.0
  N  N46  1  0.48923000  0.15779000  0.49655000  1.0
  O  O47  1  0.46159000  0.39340000  0.31443000  1.0
  O  O48  1  0.46614000  0.62618000  0.31136000  1.0
  O  O49  1  0.25938000  0.43172000  0.51918000  1.0
  O  O50  1  0.24214000  0.66666667  0.50200000  1.0
  O  O51  1  0.51703000  0.38486000  0.67925000  1.0
  O  O52  1  0.47325000  0.62110000  0.68001000  1.0
  O  O53  1  0.71882000  0.37149000  0.47248000  1.0
  O  O54  1  0.70295000  0.60555000  0.49343000  1.0
  O  O55  1  0.71481000  0.18834000  0.14587000  1.0
