# generated using pymatgen
data_MnH11C9NO10
_symmetry_space_group_name_H-M   'P 1'
_cell_length_a   6.42279000
_cell_length_b   7.11086000
_cell_length_c   13.55546880
_cell_angle_alpha   104.23824352
_cell_angle_beta   102.78819809
_cell_angle_gamma   93.10860000
_symmetry_Int_Tables_number   1
_chemical_formula_structural   MnH11C9NO10
_chemical_formula_sum   'Mn2 H22 C18 N2 O20'
_cell_volume   581.31632600
_cell_formula_units_Z   2
loop_
 _symmetry_equiv_pos_site_id
 _symmetry_equiv_pos_as_xyz
  1  'x, y, z'
loop_
 _atom_site_type_symbol
 _atom_site_label
 _atom_site_symmetry_multiplicity
 _atom_site_fract_x
 _atom_site_fract_y
 _atom_site_fract_z
 _atom_site_occupancy
  Mn  Mn0  1  0.96632000  0.13795000  0.05846000  1.0
  Mn  Mn1  1  0.40804000  0.07961000  0.94136000  1.0
  H  H2  1  0.18899000  0.97618000  0.21703000  1.0
  H  H3  1  0.47322000  0.76035000  0.78216000  1.0
  H  H4  1  0.94002000  0.92348000  0.19527000  1.0
  H  H5  1  0.24623000  0.72996000  0.80436000  1.0
  H  H6  1  0.11285000  0.53474000  0.12324000  1.0
  H  H7  1  0.49092000  0.41302000  0.87692000  1.0
  H  H8  1  0.87110000  0.54900000  0.13192000  1.0
  H  H9  1  0.24098000  0.42007000  0.86857000  1.0
  H  H10  1  0.70933000  0.79653000  0.04591000  1.0
  H  H11  1  0.16371000  0.74944000  0.95391000  1.0
  H  H12  1  0.74867000  0.75235000  0.92884000  1.0
  H  H13  1  0.31857000  0.82120000  0.07115000  1.0
  H  H14  1  0.98955000  0.58083000  0.63985000  1.0
  H  H15  1  0.84862000  0.93881000  0.35958000  1.0
  H  H16  1  0.88855000  0.34511000  0.64107000  1.0
  H  H17  1  0.74629000  0.70250000  0.35940000  1.0
  H  H18  1  0.92561000  0.34286000  0.48876000  1.0
  H  H19  1  0.93833000  0.85496000  0.51151000  1.0
  H  H20  1  0.85811000  0.23576000  0.29741000  1.0
  H  H21  1  0.06311000  0.94167000  0.70299000  1.0
  H  H22  1  0.23577000  0.44434000  0.26929000  1.0
  H  H23  1  0.46883000  0.17851000  0.73090000  1.0
  C  C24  1  0.86666000  0.56959000  0.77410000  1.0
  C  C25  1  0.59099000  0.79400000  0.22600000  1.0
  C  C26  1  0.85860000  0.49923000  0.65787000  1.0
  C  C27  1  0.69976000  0.83972000  0.34210000  1.0
  C  C28  1  0.62242000  0.46129000  0.49083000  1.0
  C  C29  1  0.63270000  0.97072000  0.50944000  1.0
  C  C30  1  0.77447000  0.36775000  0.44137000  1.0
  C  C31  1  0.83488000  0.92782000  0.55888000  1.0
  C  C32  1  0.73517000  0.30467000  0.33294000  1.0
  C  C33  1  0.90456000  0.97474000  0.66735000  1.0
  C  C34  1  0.53947000  0.32774000  0.26868000  1.0
  C  C35  1  0.77318000  0.06261000  0.73150000  1.0
  C  C36  1  0.38805000  0.42135000  0.31613000  1.0
  C  C37  1  0.57411000  0.10841000  0.68408000  1.0
  C  C38  1  0.42809000  0.49096000  0.42482000  1.0
  C  C39  1  0.50488000  0.06740000  0.57535000  1.0
  C  C40  1  0.49254000  0.25562000  0.15252000  1.0
  C  C41  1  0.84173000  0.10583000  0.84757000  1.0
  N  N42  1  0.26463000  0.59877000  0.46484000  1.0
  N  N43  1  0.30050000  0.13327000  0.53475000  1.0
  O  O44  1  0.30648000  0.26495000  0.09686000  1.0
  O  O45  1  0.71119000  0.17113000  0.90314000  1.0
  O  O46  1  0.63557000  0.18184000  0.10791000  1.0
  O  O47  1  0.02873000  0.07497000  0.89220000  1.0
  O  O48  1  0.05487000  0.58080000  0.83356000  1.0
  O  O49  1  0.71945000  0.74599000  0.16625000  1.0
  O  O50  1  0.70015000  0.60978000  0.80582000  1.0
  O  O51  1  0.39269000  0.80210000  0.19457000  1.0
  O  O52  1  0.65431000  0.52221000  0.59568000  1.0
  O  O53  1  0.55818000  0.92506000  0.40464000  1.0
  O  O54  1  0.28046000  0.65033000  0.56109000  1.0
  O  O55  1  0.21604000  0.08114000  0.43893000  1.0
  O  O56  1  0.11473000  0.63734000  0.39957000  1.0
  O  O57  1  0.21905000  0.24302000  0.59917000  1.0
  O  O58  1  0.05125000  0.03045000  0.20010000  1.0
  O  O59  1  0.35288000  0.83189000  0.79945000  1.0
  O  O60  1  0.97226000  0.45964000  0.10705000  1.0
  O  O61  1  0.36635000  0.35448000  0.89333000  1.0
  O  O62  1  0.74950000  0.85733000  0.99335000  1.0
  O  O63  1  0.25636000  0.86204000  0.00635000  1.0
