# generated using pymatgen
data_CdH10(C2O3)4
_symmetry_space_group_name_H-M   'P 1'
_cell_length_a   5.14603000
_cell_length_b   7.57442000
_cell_length_c   9.02707000
_cell_angle_alpha   66.03970000
_cell_angle_beta   77.98920000
_cell_angle_gamma   74.29350000
_symmetry_Int_Tables_number   1
_chemical_formula_structural   CdH10(C2O3)4
_chemical_formula_sum   'Cd1 H10 C8 O12'
_cell_volume   307.59927974
_cell_formula_units_Z   1
loop_
 _symmetry_equiv_pos_site_id
 _symmetry_equiv_pos_as_xyz
  1  'x, y, z'
loop_
 _atom_site_type_symbol
 _atom_site_label
 _atom_site_symmetry_multiplicity
 _atom_site_fract_x
 _atom_site_fract_y
 _atom_site_fract_z
 _atom_site_occupancy
  Cd  Cd0  1  0.49999000  0.50000000  0.00000000  1.0
  H  H1  1  0.50023000  0.49986000  0.49997000  1.0
  H  H2  1  0.50020000  0.99992000  0.50001000  1.0
  H  H3  1  0.41508000  0.10746000  0.13512000  1.0
  H  H4  1  0.58492000  0.89254000  0.86488000  1.0
  H  H5  1  0.31145000  0.19667000  0.96125000  1.0
  H  H6  1  0.68854000  0.80334000  0.03876000  1.0
  H  H7  1  0.02080000  0.73054000  0.85150000  1.0
  H  H8  1  0.97920000  0.26945000  0.14850000  1.0
  H  H9  1  0.24595000  0.67568000  0.71409000  1.0
  H  H10  1  0.75403000  0.32433000  0.28590000  1.0
  C  C11  1  0.09016000  0.67659000  0.28994000  1.0
  C  C12  1  0.90982000  0.32342000  0.71007000  1.0
  C  C13  1  0.12859000  0.69806000  0.43784000  1.0
  C  C14  1  0.87138000  0.30196000  0.56220000  1.0
  C  C15  1  0.86532000  0.83067000  0.43740000  1.0
  C  C16  1  0.13463000  0.16935000  0.56256000  1.0
  C  C17  1  0.82254000  0.81613000  0.28580000  1.0
  C  C18  1  0.17745000  0.18388000  0.71420000  1.0
  O  O19  1  0.21605000  0.57333000  0.20963000  1.0
  O  O20  1  0.78395000  0.42668000  0.79039000  1.0
  O  O21  1  0.31397000  0.62041000  0.53550000  1.0
  O  O22  1  0.68592000  0.37965000  0.46452000  1.0
  O  O23  1  0.72816000  0.91377000  0.53483000  1.0
  O  O24  1  0.27170000  0.08628000  0.46514000  1.0
  O  O25  1  0.63858000  0.88184000  0.19393000  1.0
  O  O26  1  0.36141000  0.11817000  0.80606000  1.0
  O  O27  1  0.30218000  0.22775000  0.06087000  1.0
  O  O28  1  0.69781000  0.77225000  0.93914000  1.0
  O  O29  1  0.21888000  0.70973000  0.81191000  1.0
  O  O30  1  0.78111000  0.29027000  0.18809000  1.0
