# generated using pymatgen
data_TbH9C13N2O7
_symmetry_space_group_name_H-M   'P 1'
_cell_length_a   9.22187000
_cell_length_b   10.53550000
_cell_length_c   14.09870000
_cell_angle_alpha   90.00000000
_cell_angle_beta   90.00010000
_cell_angle_gamma   95.93050000
_symmetry_Int_Tables_number   1
_chemical_formula_structural   TbH9C13N2O7
_chemical_formula_sum   'Tb4 H36 C52 N8 O28'
_cell_volume   1362.45639465
_cell_formula_units_Z   4
loop_
 _symmetry_equiv_pos_site_id
 _symmetry_equiv_pos_as_xyz
  1  'x, y, z'
loop_
 _atom_site_type_symbol
 _atom_site_label
 _atom_site_symmetry_multiplicity
 _atom_site_fract_x
 _atom_site_fract_y
 _atom_site_fract_z
 _atom_site_occupancy
  Tb  Tb0  1  0.87551000  0.52907000  0.86457000  1.0
  Tb  Tb1  1  0.12449000  0.97093000  0.36457000  1.0
  Tb  Tb2  1  0.12449000  0.47093000  0.13543000  1.0
  Tb  Tb3  1  0.87551000  0.02907000  0.63543000  1.0
  H  H4  1  0.66649000  0.12759000  0.90434000  1.0
  H  H5  1  0.33351000  0.37241000  0.40434000  1.0
  H  H6  1  0.33351000  0.87240000  0.09566000  1.0
  H  H7  1  0.66649000  0.62760000  0.59566000  1.0
  H  H8  1  0.57339000  0.89737000  0.93854000  1.0
  H  H9  1  0.42661000  0.60263000  0.43854000  1.0
  H  H10  1  0.42662000  0.10263000  0.06146000  1.0
  H  H11  1  0.57339000  0.39737000  0.56146000  1.0
  H  H12  1  0.69985000  0.78014000  0.06078000  1.0
  H  H13  1  0.30015000  0.71986000  0.56078000  1.0
  H  H14  1  0.30015000  0.21986000  0.93922000  1.0
  H  H15  1  0.69985000  0.28014000  0.43922000  1.0
  H  H16  1  0.97968000  0.10140000  0.12791000  1.0
  H  H17  1  0.02032000  0.39860000  0.62791000  1.0
  H  H18  1  0.02032000  0.89861000  0.87209000  1.0
  H  H19  1  0.97968000  0.60140000  0.37209000  1.0
  H  H20  1  0.45348000  0.22147000  0.66573000  1.0
  H  H21  1  0.54652000  0.27853000  0.16573000  1.0
  H  H22  1  0.54651000  0.77853000  0.33427000  1.0
  H  H23  1  0.45349000  0.72147000  0.83427000  1.0
  H  H24  1  0.22674000  0.29263000  0.74172000  1.0
  H  H25  1  0.77326000  0.20737000  0.24172000  1.0
  H  H26  1  0.77326000  0.70737000  0.25828000  1.0
  H  H27  1  0.22674000  0.79263000  0.75828000  1.0
  H  H28  1  0.51157000  0.53513000  0.92399000  1.0
  H  H29  1  0.48843000  0.96487000  0.42399000  1.0
  H  H30  1  0.48843000  0.46487000  0.07601000  1.0
  H  H31  1  0.51157000  0.03513000  0.57601000  1.0
  H  H32  1  0.96488000  0.73530000  0.72854000  1.0
  H  H33  1  0.03512000  0.76470000  0.22854000  1.0
  H  H34  1  0.03512000  0.26470000  0.27146000  1.0
  H  H35  1  0.96488000  0.23530000  0.77146000  1.0
  H  H36  1  0.05616000  0.62363000  0.68382000  1.0
  H  H37  1  0.94384000  0.87637000  0.18382000  1.0
  H  H38  1  0.94384000  0.37637000  0.31618000  1.0
  H  H39  1  0.05616000  0.12363000  0.81618000  1.0
  C  C40  1  0.88804000  0.26646000  0.99624000  1.0
  C  C41  1  0.11195000  0.23354000  0.49624000  1.0
  C  C42  1  0.11195000  0.73354000  0.00376000  1.0
  C  C43  1  0.88804000  0.76646000  0.50376000  1.0
  C  C44  1  0.82946000  0.13060000  0.01379000  1.0
  C  C45  1  0.17054000  0.36940000  0.51379000  1.0
  C  C46  1  0.17054000  0.86940000  0.98621000  1.0
  C  C47  1  0.82946000  0.63060000  0.48621000  1.0
  C  C48  1  0.71403000  0.07268000  0.95969000  1.0
  C  C49  1  0.28597000  0.42732000  0.45969000  1.0
  C  C50  1  0.28597000  0.92732000  0.04031000  1.0
  C  C51  1  0.71403000  0.57268000  0.54031000  1.0
  C  C52  1  0.66412000  0.94601000  0.97792000  1.0
  C  C53  1  0.33588000  0.55399000  0.47792000  1.0
  C  C54  1  0.33588000  0.05399000  0.02208000  1.0
  C  C55  1  0.66412000  0.44601000  0.52208000  1.0
  C  C56  1  0.73359000  0.88055000  0.04745000  1.0
  C  C57  1  0.26641000  0.61945000  0.54745000  1.0
  C  C58  1  0.26641000  0.11945000  0.95255000  1.0
  C  C59  1  0.73359000  0.38055000  0.45254000  1.0
  C  C60  1  0.89010000  0.05881000  0.08396000  1.0
  C  C61  1  0.10990000  0.44119000  0.58396000  1.0
  C  C62  1  0.10990000  0.94119000  0.91604000  1.0
  C  C63  1  0.89010000  0.55881000  0.41604000  1.0
  C  C64  1  0.59662000  0.34592000  0.75286000  1.0
  C  C65  1  0.40338000  0.15408000  0.25286000  1.0
  C  C66  1  0.40338000  0.65408000  0.24714000  1.0
  C  C67  1  0.59662000  0.84592000  0.74714000  1.0
  C  C68  1  0.73694000  0.30388000  0.71463000  1.0
  C  C69  1  0.26306000  0.19612000  0.21463000  1.0
  C  C70  1  0.26306000  0.69612000  0.28537000  1.0
  C  C71  1  0.73694000  0.80388000  0.78537000  1.0
  C  C72  1  0.45979000  0.29288000  0.72179000  1.0
  C  C73  1  0.54021000  0.20712000  0.22179000  1.0
  C  C74  1  0.54021000  0.70712000  0.27821000  1.0
  C  C75  1  0.45979000  0.79288000  0.77821000  1.0
  C  C76  1  0.33535000  0.33146000  0.76440000  1.0
  C  C77  1  0.66465000  0.16854000  0.26440000  1.0
  C  C78  1  0.66465000  0.66854000  0.23560000  1.0
  C  C79  1  0.33535000  0.83146000  0.73560000  1.0
  C  C80  1  0.35220000  0.41634000  0.84098000  1.0
  C  C81  1  0.64780000  0.08366000  0.34098000  1.0
  C  C82  1  0.64780000  0.58366000  0.15902000  1.0
  C  C83  1  0.35220000  0.91634000  0.65902000  1.0
  C  C84  1  0.49338000  0.46706000  0.86592000  1.0
  C  C85  1  0.50662000  0.03294000  0.36592000  1.0
  C  C86  1  0.50662000  0.53293000  0.13408000  1.0
  C  C87  1  0.49338000  0.96707000  0.63408000  1.0
  C  C88  1  0.22387000  0.44704000  0.89964000  1.0
  C  C89  1  0.77613000  0.05295000  0.39964000  1.0
  C  C90  1  0.77613000  0.55296000  0.10036000  1.0
  C  C91  1  0.22387000  0.94704000  0.60036000  1.0
  N  N92  1  0.84419000  0.93558000  0.10010000  1.0
  N  N93  1  0.15581000  0.56442000  0.60010000  1.0
  N  N94  1  0.15581000  0.06442000  0.89990000  1.0
  N  N95  1  0.84419000  0.43558000  0.39990000  1.0
  N  N96  1  0.61258000  0.43558000  0.82135000  1.0
  N  N97  1  0.38742000  0.06442000  0.32135000  1.0
  N  N98  1  0.38742000  0.56441000  0.17865000  1.0
  N  N99  1  0.61258000  0.93559000  0.67865000  1.0
  O  O100  1  0.83607000  0.32037000  0.92554000  1.0
  O  O101  1  0.16392000  0.17963000  0.42554000  1.0
  O  O102  1  0.16392000  0.67963000  0.07446000  1.0
  O  O103  1  0.83608000  0.82037000  0.57446000  1.0
  O  O104  1  0.98432000  0.31746000  0.05254000  1.0
  O  O105  1  0.01567000  0.18254000  0.55254000  1.0
  O  O106  1  0.01567000  0.68254000  0.94746000  1.0
  O  O107  1  0.98433000  0.81746000  0.44746000  1.0
  O  O108  1  0.85364000  0.37344000  0.73618000  1.0
  O  O109  1  0.14636000  0.12656000  0.23618000  1.0
  O  O110  1  0.14636000  0.62656000  0.26382000  1.0
  O  O111  1  0.85364000  0.87344000  0.76382000  1.0
  O  O112  1  0.72923000  0.20158000  0.66696000  1.0
  O  O113  1  0.27077000  0.29842000  0.16696000  1.0
  O  O114  1  0.27077000  0.79842000  0.33304000  1.0
  O  O115  1  0.72923000  0.70158000  0.83304000  1.0
  O  O116  1  0.24771000  0.46186000  0.98789000  1.0
  O  O117  1  0.75229000  0.03814000  0.48789000  1.0
  O  O118  1  0.75229000  0.53814000  0.01211000  1.0
  O  O119  1  0.24771000  0.96186000  0.51211000  1.0
  O  O120  1  0.10426000  0.45193000  0.85649000  1.0
  O  O121  1  0.89574000  0.04807000  0.35649000  1.0
  O  O122  1  0.89574000  0.54807000  0.14351000  1.0
  O  O123  1  0.10426000  0.95193000  0.64351000  1.0
  O  O124  1  0.98914000  0.64738000  0.73720000  1.0
  O  O125  1  0.01086000  0.85262000  0.23720000  1.0
  O  O126  1  0.01086000  0.35262000  0.26280000  1.0
  O  O127  1  0.98914000  0.14738000  0.76280000  1.0
