# generated using pymatgen
data_HgH14C10(BrN)2
_symmetry_space_group_name_H-M   'P 1'
_cell_length_a   7.57589000
_cell_length_b   11.08590000
_cell_length_c   15.37200000
_cell_angle_alpha   89.99960000
_cell_angle_beta   90.00050000
_cell_angle_gamma   89.99970000
_symmetry_Int_Tables_number   1
_chemical_formula_structural   HgH14C10(BrN)2
_chemical_formula_sum   'Hg4 H56 C40 Br8 N8'
_cell_volume   1291.02601210
_cell_formula_units_Z   4
loop_
 _symmetry_equiv_pos_site_id
 _symmetry_equiv_pos_as_xyz
  1  'x, y, z'
loop_
 _atom_site_type_symbol
 _atom_site_label
 _atom_site_symmetry_multiplicity
 _atom_site_fract_x
 _atom_site_fract_y
 _atom_site_fract_z
 _atom_site_occupancy
  Hg  Hg0  1  0.04413000  0.06435000  0.80456000  1.0
  Hg  Hg1  1  0.45586000  0.93564000  0.30456000  1.0
  Hg  Hg2  1  0.95586000  0.56436000  0.69544000  1.0
  Hg  Hg3  1  0.54414000  0.43564000  0.19544000  1.0
  H  H4  1  0.18264000  0.80573000  0.71642000  1.0
  H  H5  1  0.31735000  0.19427000  0.21642000  1.0
  H  H6  1  0.81734000  0.30574000  0.78358000  1.0
  H  H7  1  0.68266000  0.69426000  0.28358000  1.0
  H  H8  1  0.45739000  0.59164000  0.90816000  1.0
  H  H9  1  0.04261000  0.40836000  0.40816000  1.0
  H  H10  1  0.54261000  0.09164000  0.59184000  1.0
  H  H11  1  0.95739000  0.90836000  0.09184000  1.0
  H  H12  1  0.35902000  0.74324000  0.02064000  1.0
  H  H13  1  0.14099000  0.25675000  0.52064000  1.0
  H  H14  1  0.64098000  0.24324000  0.47936000  1.0
  H  H15  1  0.85902000  0.75676000  0.97936000  1.0
  H  H16  1  0.17418000  0.91753000  0.97287000  1.0
  H  H17  1  0.32584000  0.08246000  0.47287000  1.0
  H  H18  1  0.82582000  0.41753000  0.52713000  1.0
  H  H19  1  0.67417000  0.58247000  0.02713000  1.0
  H  H20  1  0.51059000  0.55514000  0.76037000  1.0
  H  H21  1  0.98941000  0.44486000  0.26037000  1.0
  H  H22  1  0.48941000  0.05514000  0.73963000  1.0
  H  H23  1  0.01059000  0.94486000  0.23963000  1.0
  H  H24  1  0.23164000  0.36843000  0.61937000  1.0
  H  H25  1  0.26836000  0.63158000  0.11937000  1.0
  H  H26  1  0.76836000  0.86843000  0.88063000  1.0
  H  H27  1  0.73164000  0.13158000  0.38062000  1.0
  H  H28  1  0.44823000  0.38068000  0.66215000  1.0
  H  H29  1  0.05177000  0.61932000  0.16215000  1.0
  H  H30  1  0.55177000  0.88068000  0.83785000  1.0
  H  H31  1  0.94823000  0.11931000  0.33785000  1.0
  H  H32  1  0.26272000  0.55876000  0.54065000  1.0
  H  H33  1  0.23727000  0.44124000  0.04065000  1.0
  H  H34  1  0.73727000  0.05876000  0.95935000  1.0
  H  H35  1  0.76273000  0.94124000  0.45935000  1.0
  H  H36  1  0.48603000  0.51197000  0.53888000  1.0
  H  H37  1  0.01396000  0.48803000  0.03887000  1.0
  H  H38  1  0.51396000  0.01197000  0.96113000  1.0
  H  H39  1  0.98604000  0.98803000  0.46112000  1.0
  H  H40  1  0.33725000  0.72047000  0.62669000  1.0
  H  H41  1  0.16274000  0.27953000  0.12669000  1.0
  H  H42  1  0.66274000  0.22048000  0.87332000  1.0
  H  H43  1  0.83726000  0.77952000  0.37332000  1.0
  H  H44  1  0.55814000  0.67165000  0.63585000  1.0
  H  H45  1  0.94184000  0.32835000  0.13585000  1.0
  H  H46  1  0.44184000  0.17165000  0.86415000  1.0
  H  H47  1  0.05816000  0.82835000  0.36415000  1.0
  H  H48  1  0.17278000  0.33213000  0.78038000  1.0
  H  H49  1  0.32722000  0.66787000  0.28038000  1.0
  H  H50  1  0.82721000  0.83213000  0.71962000  1.0
  H  H51  1  0.67278000  0.16787000  0.21961000  1.0
  H  H52  1  0.18879000  0.45582000  0.85319000  1.0
  H  H53  1  0.31121000  0.54418000  0.35319000  1.0
  H  H54  1  0.81120000  0.95582000  0.64681000  1.0
  H  H55  1  0.68879000  0.04417000  0.14681000  1.0
  H  H56  1  0.38551000  0.38106000  0.81643000  1.0
  H  H57  1  0.11449000  0.61894000  0.31642000  1.0
  H  H58  1  0.61448000  0.88107000  0.68358000  1.0
  H  H59  1  0.88551000  0.11893000  0.18357000  1.0
  C  C60  1  0.22194000  0.78505000  0.78315000  1.0
  C  C61  1  0.27806000  0.21495000  0.28315000  1.0
  C  C62  1  0.77805000  0.28505000  0.71685000  1.0
  C  C63  1  0.72195000  0.71494000  0.21685000  1.0
  C  C64  1  0.32527000  0.68414000  0.80308000  1.0
  C  C65  1  0.17472000  0.31587000  0.30308000  1.0
  C  C66  1  0.67471000  0.18414000  0.69692000  1.0
  C  C67  1  0.82528000  0.81586000  0.19692000  1.0
  C  C68  1  0.37358000  0.66774000  0.89032000  1.0
  C  C69  1  0.12643000  0.33226000  0.39032000  1.0
  C  C70  1  0.62642000  0.16774000  0.60969000  1.0
  C  C71  1  0.87357000  0.83226000  0.10968000  1.0
  C  C72  1  0.31885000  0.75040000  0.95285000  1.0
  C  C73  1  0.18116000  0.24960000  0.45285000  1.0
  C  C74  1  0.68114000  0.25040000  0.54715000  1.0
  C  C75  1  0.81885000  0.74960000  0.04715000  1.0
  C  C76  1  0.21614000  0.84800000  0.92694000  1.0
  C  C77  1  0.28387000  0.15200000  0.42694000  1.0
  C  C78  1  0.78386000  0.34800000  0.57306000  1.0
  C  C79  1  0.71614000  0.65200000  0.07306000  1.0
  C  C80  1  0.38684000  0.59541000  0.73520000  1.0
  C  C81  1  0.11316000  0.40460000  0.23521000  1.0
  C  C82  1  0.61315000  0.09541000  0.76480000  1.0
  C  C83  1  0.88684000  0.90459000  0.26480000  1.0
  C  C84  1  0.32962000  0.43268000  0.64382000  1.0
  C  C85  1  0.17038000  0.56733000  0.14382000  1.0
  C  C86  1  0.67038000  0.93268000  0.85618000  1.0
  C  C87  1  0.82962000  0.06732000  0.35618000  1.0
  C  C88  1  0.37599000  0.53556000  0.58188000  1.0
  C  C89  1  0.12401000  0.46445000  0.08188000  1.0
  C  C90  1  0.62401000  0.03556000  0.91812000  1.0
  C  C91  1  0.87600000  0.96444000  0.41812000  1.0
  C  C92  1  0.42044000  0.64264000  0.64260000  1.0
  C  C93  1  0.07955000  0.35736000  0.14260000  1.0
  C  C94  1  0.57955000  0.14265000  0.85740000  1.0
  C  C95  1  0.92046000  0.85735000  0.35740000  1.0
  C  C96  1  0.25199000  0.41134000  0.79764000  1.0
  C  C97  1  0.24801000  0.58866000  0.29764000  1.0
  C  C98  1  0.74801000  0.91134000  0.70237000  1.0
  C  C99  1  0.75199000  0.08866000  0.20236000  1.0
  Br  Br100  1  0.07684000  0.16928000  0.95019000  1.0
  Br  Br101  1  0.42320000  0.83073000  0.45020000  1.0
  Br  Br102  1  0.92316000  0.66928000  0.54980000  1.0
  Br  Br103  1  0.57683000  0.33075000  0.04979000  1.0
  Br  Br104  1  0.16029000  0.07133000  0.64778000  1.0
  Br  Br105  1  0.33972000  0.92867000  0.14778000  1.0
  Br  Br106  1  0.83971000  0.57132000  0.85222000  1.0
  Br  Br107  1  0.66028000  0.42868000  0.35223000  1.0
  N  N108  1  0.16849000  0.86452000  0.84369000  1.0
  N  N109  1  0.33152000  0.13548000  0.34369000  1.0
  N  N110  1  0.83150000  0.36452000  0.65631000  1.0
  N  N111  1  0.66850000  0.63548000  0.15631000  1.0
  N  N112  1  0.26027000  0.49318000  0.72264000  1.0
  N  N113  1  0.23973000  0.50682000  0.22264000  1.0
  N  N114  1  0.73972000  0.99318000  0.77736000  1.0
  N  N115  1  0.76028000  0.00682000  0.27736000  1.0
