# generated using pymatgen
data_CdH11C15(NO)5
_symmetry_space_group_name_H-M   'P 1'
_cell_length_a   10.20190000
_cell_length_b   10.20490000
_cell_length_c   18.61470000
_cell_angle_alpha   101.01700000
_cell_angle_beta   99.84550000
_cell_angle_gamma   109.76100000
_symmetry_Int_Tables_number   1
_chemical_formula_structural   CdH11C15(NO)5
_chemical_formula_sum   'Cd4 H44 C60 N20 O20'
_cell_volume   1731.02323573
_cell_formula_units_Z   4
loop_
 _symmetry_equiv_pos_site_id
 _symmetry_equiv_pos_as_xyz
  1  'x, y, z'
loop_
 _atom_site_type_symbol
 _atom_site_label
 _atom_site_symmetry_multiplicity
 _atom_site_fract_x
 _atom_site_fract_y
 _atom_site_fract_z
 _atom_site_occupancy
  Cd  Cd0  1  0.08001000  0.99048000  0.82967000  1.0
  Cd  Cd1  1  0.16067000  0.74983000  0.67034000  1.0
  Cd  Cd2  1  0.91999000  0.00952000  0.17033000  1.0
  Cd  Cd3  1  0.83932000  0.25017000  0.32966000  1.0
  H  H4  1  0.75890000  0.81093000  0.73446000  1.0
  H  H5  1  0.07577000  0.52422000  0.76572000  1.0
  H  H6  1  0.24110000  0.18907000  0.26554000  1.0
  H  H7  1  0.92422000  0.47578000  0.23428000  1.0
  H  H8  1  0.78314000  0.53718000  0.92350000  1.0
  H  H9  1  0.61314000  0.36020000  0.57689000  1.0
  H  H10  1  0.21687000  0.46282000  0.07650000  1.0
  H  H11  1  0.38686000  0.63980000  0.42311000  1.0
  H  H12  1  0.53960000  0.59718000  0.72610000  1.0
  H  H13  1  0.87037000  0.31330000  0.77409000  1.0
  H  H14  1  0.46040000  0.40282000  0.27390000  1.0
  H  H15  1  0.12962000  0.68670000  0.22591000  1.0
  H  H16  1  0.98752000  0.75235000  0.92466000  1.0
  H  H17  1  0.82716000  0.56341000  0.57571000  1.0
  H  H18  1  0.01248000  0.24766000  0.07534000  1.0
  H  H19  1  0.17284000  0.43659000  0.42429000  1.0
  H  H20  1  0.20796000  0.14122000  0.02162000  1.0
  H  H21  1  0.12007000  0.68585000  0.47838000  1.0
  H  H22  1  0.79206000  0.85878000  0.97838000  1.0
  H  H23  1  0.87992000  0.31415000  0.52162000  1.0
  H  H24  1  0.39723000  0.76209000  0.99075000  1.0
  H  H25  1  0.77201000  0.90650000  0.50917000  1.0
  H  H26  1  0.60278000  0.23791000  0.00925000  1.0
  H  H27  1  0.22799000  0.09350000  0.49083000  1.0
  H  H28  1  0.41732000  0.09794000  0.86351000  1.0
  H  H29  1  0.23382000  0.05331000  0.63651000  1.0
  H  H30  1  0.58268000  0.90206000  0.13648000  1.0
  H  H31  1  0.76617000  0.94669000  0.36349000  1.0
  H  H32  1  0.14768000  0.29169000  0.78109000  1.0
  H  H33  1  0.51037000  0.86625000  0.71864000  1.0
  H  H34  1  0.85233000  0.70831000  0.21891000  1.0
  H  H35  1  0.48962000  0.13375000  0.28136000  1.0
  H  H36  1  0.63456000  0.30006000  0.86584000  1.0
  H  H37  1  0.43352000  0.26856000  0.63439000  1.0
  H  H38  1  0.36544000  0.69993000  0.13415000  1.0
  H  H39  1  0.56648000  0.73144000  0.36561000  1.0
  H  H40  1  0.35597000  0.50513000  0.77822000  1.0
  H  H41  1  0.72654000  0.07773000  0.72171000  1.0
  H  H42  1  0.64404000  0.49488000  0.22178000  1.0
  H  H43  1  0.27345000  0.92227000  0.27829000  1.0
  H  H44  1  0.36144000  0.10805000  0.13390000  1.0
  H  H45  1  0.97525000  0.72774000  0.36609000  1.0
  H  H46  1  0.63857000  0.89196000  0.86610000  1.0
  H  H47  1  0.02475000  0.27226000  0.63391000  1.0
  C  C48  1  0.51456000  0.42267000  0.82303000  1.0
  C  C49  1  0.59906000  0.19149000  0.67708000  1.0
  C  C50  1  0.48545000  0.57733000  0.17697000  1.0
  C  C51  1  0.40094000  0.80851000  0.32292000  1.0
  C  C52  1  0.75859000  0.74677000  0.77525000  1.0
  C  C53  1  0.97083000  0.48331000  0.72498000  1.0
  C  C54  1  0.24142000  0.25323000  0.22475000  1.0
  C  C55  1  0.02916000  0.51669000  0.27502000  1.0
  C  C56  1  0.64179000  0.54822000  0.82456000  1.0
  C  C57  1  0.72303000  0.31739000  0.67569000  1.0
  C  C58  1  0.35821000  0.45178000  0.17544000  1.0
  C  C59  1  0.27696000  0.68261000  0.32431000  1.0
  C  C60  1  0.77161000  0.59299000  0.87986000  1.0
  C  C61  1  0.71257000  0.39215000  0.62047000  1.0
  C  C62  1  0.22839000  0.40701000  0.12014000  1.0
  C  C63  1  0.28743000  0.60785000  0.37953000  1.0
  C  C64  1  0.63697000  0.62778000  0.77102000  1.0
  C  C65  1  0.85605000  0.36596000  0.72924000  1.0
  C  C66  1  0.36303000  0.37222000  0.22898000  1.0
  C  C67  1  0.14395000  0.63404000  0.27076000  1.0
  C  C68  1  0.88790000  0.71391000  0.88048000  1.0
  C  C69  1  0.83287000  0.50784000  0.61986000  1.0
  C  C70  1  0.11210000  0.28609000  0.11952000  1.0
  C  C71  1  0.16712000  0.49216000  0.38014000  1.0
  C  C72  1  0.28153000  0.87313000  0.93595000  1.0
  C  C73  1  0.93765000  0.84537000  0.56397000  1.0
  C  C74  1  0.71847000  0.12687000  0.06406000  1.0
  C  C75  1  0.06234000  0.15462000  0.43603000  1.0
  C  C76  1  0.26043000  0.78470000  0.85637000  1.0
  C  C77  1  0.92883000  0.90404000  0.64356000  1.0
  C  C78  1  0.73957000  0.21530000  0.14363000  1.0
  C  C79  1  0.07117000  0.09595000  0.35644000  1.0
  C  C80  1  0.25378000  0.05890000  0.01535000  1.0
  C  C81  1  0.04404000  0.73801000  0.48461000  1.0
  C  C82  1  0.74623000  0.94110000  0.98465000  1.0
  C  C83  1  0.95596000  0.26198000  0.51540000  1.0
  C  C84  1  0.35785000  0.84952000  0.99882000  1.0
  C  C85  1  0.85132000  0.85896000  0.50109000  1.0
  C  C86  1  0.64216000  0.15049000  0.00118000  1.0
  C  C87  1  0.14867000  0.14103000  0.49891000  1.0
  C  C88  1  0.40686000  0.19067000  0.84616000  1.0
  C  C89  1  0.34395000  0.06034000  0.65388000  1.0
  C  C90  1  0.59315000  0.80933000  0.15384000  1.0
  C  C91  1  0.65604000  0.93966000  0.34612000  1.0
  C  C92  1  0.25792000  0.29870000  0.79893000  1.0
  C  C93  1  0.49942000  0.95871000  0.70094000  1.0
  C  C94  1  0.74208000  0.70130000  0.20107000  1.0
  C  C95  1  0.50057000  0.04129000  0.29906000  1.0
  C  C96  1  0.52953000  0.30554000  0.84753000  1.0
  C  C97  1  0.45738000  0.18180000  0.65261000  1.0
  C  C98  1  0.47047000  0.69446000  0.15247000  1.0
  C  C99  1  0.54261000  0.81820000  0.34739000  1.0
  C  C100  1  0.37464000  0.41690000  0.79717000  1.0
  C  C101  1  0.61929000  0.07734000  0.70278000  1.0
  C  C102  1  0.62537000  0.58310000  0.20283000  1.0
  C  C103  1  0.38070000  0.92267000  0.29722000  1.0
  C  C104  1  0.33612000  0.03820000  0.07702000  1.0
  C  C105  1  0.96201000  0.75907000  0.42294000  1.0
  C  C106  1  0.66389000  0.96181000  0.92298000  1.0
  C  C107  1  0.03800000  0.24093000  0.57706000  1.0
  N  N108  1  0.27303000  0.18742000  0.82339000  1.0
  N  N109  1  0.36363000  0.94927000  0.67655000  1.0
  N  N110  1  0.72697000  0.81258000  0.17661000  1.0
  N  N111  1  0.63637000  0.05073000  0.32345000  1.0
  N  N112  1  0.22839000  0.97740000  0.94509000  1.0
  N  N113  1  0.03260000  0.78283000  0.55485000  1.0
  N  N114  1  0.77161000  0.02260000  0.05491000  1.0
  N  N115  1  0.96739000  0.21717000  0.44515000  1.0
  N  N116  1  0.88216000  0.79052000  0.82950000  1.0
  N  N117  1  0.96044000  0.55280000  0.67077000  1.0
  N  N118  1  0.11784000  0.20948000  0.17050000  1.0
  N  N119  1  0.03955000  0.44720000  0.32923000  1.0
  N  N120  1  0.95744000  0.19948000  0.89179000  1.0
  N  N121  1  0.30785000  0.56536000  0.60817000  1.0
  N  N122  1  0.04256000  0.80051000  0.10821000  1.0
  N  N123  1  0.69215000  0.43463000  0.39183000  1.0
  N  N124  1  0.38723000  0.93291000  0.06901000  1.0
  N  N125  1  0.86474000  0.81825000  0.43092000  1.0
  N  N126  1  0.61278000  0.06709000  0.93099000  1.0
  N  N127  1  0.13526000  0.18175000  0.56908000  1.0
  O  O128  1  0.20277000  0.82729000  0.80287000  1.0
  O  O129  1  0.02508000  0.90021000  0.69710000  1.0
  O  O130  1  0.79723000  0.17271000  0.19714000  1.0
  O  O131  1  0.97492000  0.09979000  0.30290000  1.0
  O  O132  1  0.93929000  0.14190000  0.82081000  1.0
  O  O133  1  0.32117000  0.61852000  0.67912000  1.0
  O  O134  1  0.06071000  0.85810000  0.17919000  1.0
  O  O135  1  0.67883000  0.38148000  0.32088000  1.0
  O  O136  1  0.02641000  0.15662000  0.93973000  1.0
  O  O137  1  0.21694000  0.58599000  0.56011000  1.0
  O  O138  1  0.97359000  0.84337000  0.06026000  1.0
  O  O139  1  0.78306000  0.41401000  0.43989000  1.0
  O  O140  1  0.30002000  0.68119000  0.84923000  1.0
  O  O141  1  0.83231000  0.95060000  0.65065000  1.0
  O  O142  1  0.69998000  0.31880000  0.15077000  1.0
  O  O143  1  0.16769000  0.04940000  0.34935000  1.0
  O  O144  1  0.90806000  0.29290000  0.91169000  1.0
  O  O145  1  0.38159000  0.49619000  0.58846000  1.0
  O  O146  1  0.09195000  0.70710000  0.08831000  1.0
  O  O147  1  0.61840000  0.50380000  0.41154000  1.0
