# generated using pymatgen
data_PuH4(C4O3)2
_symmetry_space_group_name_H-M   'P 1'
_cell_length_a   8.84895000
_cell_length_b   10.41970000
_cell_length_c   10.85790000
_cell_angle_alpha   117.86500000
_cell_angle_beta   89.99760000
_cell_angle_gamma   89.99910000
_symmetry_Int_Tables_number   1
_chemical_formula_structural   PuH4(C4O3)2
_chemical_formula_sum   'Pu4 H16 C32 O24'
_cell_volume   885.05500785
_cell_formula_units_Z   4
loop_
 _symmetry_equiv_pos_site_id
 _symmetry_equiv_pos_as_xyz
  1  'x, y, z'
loop_
 _atom_site_type_symbol
 _atom_site_label
 _atom_site_symmetry_multiplicity
 _atom_site_fract_x
 _atom_site_fract_y
 _atom_site_fract_z
 _atom_site_occupancy
  Pu  Pu0  1  0.40362000  0.24585000  0.69450000  1.0
  Pu  Pu1  1  0.90362000  0.25417000  0.80552000  1.0
  Pu  Pu2  1  0.59637000  0.75415000  0.30549000  1.0
  Pu  Pu3  1  0.09638000  0.74583000  0.19449000  1.0
  H  H4  1  0.69287000  0.49592000  0.46735000  1.0
  H  H5  1  0.19290000  0.00406000  0.03264000  1.0
  H  H6  1  0.30712000  0.50406000  0.53264000  1.0
  H  H7  1  0.80711000  0.99595000  0.96736000  1.0
  H  H8  1  0.10665000  0.33083000  0.23806000  1.0
  H  H9  1  0.60661000  0.16917000  0.26197000  1.0
  H  H10  1  0.89337000  0.66917000  0.76196000  1.0
  H  H11  1  0.39339000  0.83084000  0.73803000  1.0
  H  H12  1  0.10717000  0.12922000  0.30259000  1.0
  H  H13  1  0.60712000  0.37078000  0.19746000  1.0
  H  H14  1  0.89284000  0.87079000  0.69744000  1.0
  H  H15  1  0.39289000  0.62922000  0.80253000  1.0
  H  H16  1  0.90570000  0.11727000  0.45454000  1.0
  H  H17  1  0.40569000  0.38274000  0.04550000  1.0
  H  H18  1  0.09430000  0.88274000  0.54549000  1.0
  H  H19  1  0.59432000  0.61726000  0.95448000  1.0
  C  C20  1  0.66851000  0.29777000  0.56342000  1.0
  C  C21  1  0.16849000  0.20225000  0.93661000  1.0
  C  C22  1  0.33150000  0.70224000  0.43659000  1.0
  C  C23  1  0.83149000  0.79776000  0.06340000  1.0
  C  C24  1  0.78920000  0.30811000  0.47378000  1.0
  C  C25  1  0.28919000  0.19188000  0.02623000  1.0
  C  C26  1  0.21081000  0.69188000  0.52623000  1.0
  C  C27  1  0.71080000  0.80812000  0.97376000  1.0
  C  C28  1  0.78446000  0.41680000  0.43265000  1.0
  C  C29  1  0.28447000  0.08318000  0.06735000  1.0
  C  C30  1  0.21553000  0.58318000  0.56734000  1.0
  C  C31  1  0.71554000  0.91683000  0.93266000  1.0
  C  C32  1  0.90007000  0.42446000  0.34808000  1.0
  C  C33  1  0.40007000  0.07552000  0.15191000  1.0
  C  C34  1  0.09992000  0.57552000  0.65191000  1.0
  C  C35  1  0.59994000  0.92449000  0.84808000  1.0
  C  C36  1  0.01767000  0.32243000  0.30305000  1.0
  C  C37  1  0.51764000  0.17756000  0.19697000  1.0
  C  C38  1  0.98234000  0.67757000  0.69696000  1.0
  C  C39  1  0.48237000  0.82244000  0.80302000  1.0
  C  C40  1  0.01843000  0.21106000  0.33992000  1.0
  C  C41  1  0.51840000  0.28894000  0.16011000  1.0
  C  C42  1  0.98158000  0.78895000  0.66010000  1.0
  C  C43  1  0.48160000  0.71106000  0.83988000  1.0
  C  C44  1  0.90513000  0.20410000  0.42567000  1.0
  C  C45  1  0.40511000  0.29590000  0.07435000  1.0
  C  C46  1  0.09488000  0.79590000  0.57434000  1.0
  C  C47  1  0.59490000  0.70410000  0.92564000  1.0
  C  C48  1  0.89724000  0.54099000  0.30589000  1.0
  C  C49  1  0.39725000  0.95896000  0.19408000  1.0
  C  C50  1  0.10274000  0.45898000  0.69409000  1.0
  C  C51  1  0.60276000  0.04104000  0.80591000  1.0
  O  O52  1  0.33830000  0.09757000  0.53855000  1.0
  O  O53  1  0.83831000  0.40247000  0.96148000  1.0
  O  O54  1  0.66172000  0.90241000  0.46144000  1.0
  O  O55  1  0.16169000  0.59754000  0.03853000  1.0
  O  O56  1  0.47065000  0.39549000  0.84804000  1.0
  O  O57  1  0.97065000  0.10453000  0.65199000  1.0
  O  O58  1  0.52931000  0.60454000  0.15194000  1.0
  O  O59  1  0.02935000  0.89547000  0.34801000  1.0
  O  O60  1  0.69564000  0.24666000  0.64912000  1.0
  O  O61  1  0.19562000  0.25336000  0.85091000  1.0
  O  O62  1  0.30437000  0.75335000  0.35089000  1.0
  O  O63  1  0.80435000  0.74665000  0.14910000  1.0
  O  O64  1  0.53344000  0.33390000  0.55317000  1.0
  O  O65  1  0.03343000  0.16613000  0.94686000  1.0
  O  O66  1  0.46657000  0.66611000  0.44684000  1.0
  O  O67  1  0.96656000  0.83388000  0.05315000  1.0
  O  O68  1  0.01330000  0.56456000  0.25018000  1.0
  O  O69  1  0.51330000  0.93543000  0.24983000  1.0
  O  O70  1  0.98669000  0.43544000  0.74984000  1.0
  O  O71  1  0.48670000  0.06458000  0.75017000  1.0
  O  O72  1  0.77539000  0.61359000  0.32724000  1.0
  O  O73  1  0.27545000  0.88631000  0.17269000  1.0
  O  O74  1  0.22456000  0.38634000  0.67272000  1.0
  O  O75  1  0.72456000  0.11369000  0.82731000  1.0
