# generated using pymatgen
data_ZnH32C40N4O13
_symmetry_space_group_name_H-M   'P 1'
_cell_length_a   13.90090000
_cell_length_b   15.19430000
_cell_length_c   28.05190000
_cell_angle_alpha   89.94440000
_cell_angle_beta   89.35730000
_cell_angle_gamma   89.94300000
_symmetry_Int_Tables_number   1
_chemical_formula_structural   ZnH32C40N4O13
_chemical_formula_sum   'Zn2 H64 C80 N8 O26'
_cell_volume   5924.58807384
_cell_formula_units_Z   2
loop_
 _symmetry_equiv_pos_site_id
 _symmetry_equiv_pos_as_xyz
  1  'x, y, z'
loop_
 _atom_site_type_symbol
 _atom_site_label
 _atom_site_symmetry_multiplicity
 _atom_site_fract_x
 _atom_site_fract_y
 _atom_site_fract_z
 _atom_site_occupancy
  Zn  Zn0  1  0.39933000  0.49982000  0.50038000  1.0
  Zn  Zn1  1  0.60151000  0.49924000  0.50049000  1.0
  H  H2  1  0.37237000  0.57794000  0.65022000  1.0
  H  H3  1  0.63343000  0.42359000  0.34777000  1.0
  H  H4  1  0.57590000  0.71344000  0.87831000  1.0
  H  H5  1  0.31354000  0.34682000  0.12440000  1.0
  H  H6  1  0.37516000  0.57405000  0.25815000  1.0
  H  H7  1  0.62186000  0.42590000  0.74523000  1.0
  H  H8  1  0.66070000  0.65499000  0.11976000  1.0
  H  H9  1  0.37530000  0.31073000  0.87924000  1.0
  H  H10  1  0.63705000  0.67603000  0.03274000  1.0
  H  H11  1  0.35508000  0.31800000  0.96732000  1.0
  H  H12  1  0.35206000  0.94025000  0.52563000  1.0
  H  H13  1  0.64298000  0.05972000  0.52814000  1.0
  H  H14  1  0.35476000  0.05848000  0.47317000  1.0
  H  H15  1  0.64653000  0.93954000  0.47588000  1.0
  H  H16  1  0.35198000  0.77599000  0.52502000  1.0
  H  H17  1  0.64180000  0.22422000  0.52729000  1.0
  H  H18  1  0.35397000  0.22275000  0.47363000  1.0
  H  H19  1  0.64594000  0.77507000  0.47680000  1.0
  H  H20  1  0.75332000  0.60046000  0.55049000  1.0
  H  H21  1  0.24837000  0.36925000  0.52106000  1.0
  H  H22  1  0.75134000  0.39833000  0.45065000  1.0
  H  H23  1  0.24841000  0.62941000  0.47479000  1.0
  H  H24  1  0.02001000  0.64493000  0.61399000  1.0
  H  H25  1  0.01638000  0.53109000  0.59930000  1.0
  H  H26  1  0.84570000  0.63873000  0.63856000  1.0
  H  H27  1  0.84279000  0.52480000  0.62583000  1.0
  H  H28  1  0.97093000  0.49772000  0.68784000  1.0
  H  H29  1  0.86615000  0.54682000  0.71261000  1.0
  H  H30  1  0.97057000  0.61168000  0.70178000  1.0
  H  H31  1  0.97463000  0.27740000  0.56771000  1.0
  H  H32  1  0.97555000  0.39244000  0.57906000  1.0
  H  H33  1  0.14605000  0.26752000  0.59585000  1.0
  H  H34  1  0.14373000  0.38068000  0.61028000  1.0
  H  H35  1  0.00591000  0.35232000  0.66905000  1.0
  H  H36  1  0.11000000  0.29026000  0.68326000  1.0
  H  H37  1  0.01138000  0.23871000  0.65496000  1.0
  H  H38  1  0.01817000  0.35794000  0.38079000  1.0
  H  H39  1  0.03080000  0.46655000  0.40333000  1.0
  H  H40  1  0.85193000  0.39276000  0.35348000  1.0
  H  H41  1  0.86040000  0.50017000  0.37708000  1.0
  H  H42  1  0.99674000  0.53491000  0.31986000  1.0
  H  H43  1  0.89282000  0.49932000  0.28882000  1.0
  H  H44  1  0.99091000  0.42631000  0.29668000  1.0
  H  H45  1  0.97843000  0.61007000  0.41300000  1.0
  H  H46  1  0.10033000  0.63987000  0.39893000  1.0
  H  H47  1  0.94442000  0.76669000  0.43602000  1.0
  H  H48  1  0.06326000  0.79588000  0.41946000  1.0
  H  H49  1  0.03092000  0.74717000  0.33442000  1.0
  H  H50  1  0.94970000  0.83078000  0.35302000  1.0
  H  H51  1  0.91102000  0.71967000  0.35120000  1.0
  H  H52  1  0.54500000  0.83143000  0.01617000  1.0
  H  H53  1  0.45562000  0.74818000  0.01074000  1.0
  H  H54  1  0.50762000  0.88849000  0.93567000  1.0
  H  H55  1  0.42552000  0.80175000  0.92611000  1.0
  H  H56  1  0.31830000  0.85747000  0.99225000  1.0
  H  H57  1  0.33860000  0.94102000  0.94912000  1.0
  H  H58  1  0.40050000  0.94398000  0.00404000  1.0
  H  H59  1  0.16652000  0.34564000  0.99127000  1.0
  H  H60  1  0.22712000  0.44845000  0.99595000  1.0
  H  H61  1  0.10413000  0.35912000  0.07383000  1.0
  H  H62  1  0.17345000  0.45473000  0.08328000  1.0
  H  H63  1  0.07859000  0.53786000  0.02249000  1.0
  H  H64  1  0.00056000  0.49319000  0.06678000  1.0
  H  H65  1  0.00964000  0.44246000  0.01000000  1.0
  C  C66  1  0.49855000  0.66825000  0.50104000  1.0
  C  C67  1  0.49786000  0.33068000  0.49983000  1.0
  C  C68  1  0.50072000  0.49627000  0.59364000  1.0
  C  C69  1  0.50690000  0.50154000  0.40704000  1.0
  C  C70  1  0.52209000  0.58349000  0.82106000  1.0
  C  C71  1  0.43053000  0.43730000  0.18038000  1.0
  C  C72  1  0.44938000  0.43202000  0.82170000  1.0
  C  C73  1  0.56391000  0.54903000  0.17812000  1.0
  C  C74  1  0.56652000  0.45876000  0.72461000  1.0
  C  C75  1  0.43104000  0.53986000  0.27779000  1.0
  C  C76  1  0.56799000  0.45429000  0.67513000  1.0
  C  C77  1  0.43353000  0.54383000  0.32722000  1.0
  C  C78  1  0.42664000  0.54356000  0.67084000  1.0
  C  C79  1  0.57622000  0.45582000  0.32810000  1.0
  C  C80  1  0.42356000  0.54748000  0.72036000  1.0
  C  C81  1  0.57380000  0.45034000  0.27866000  1.0
  C  C82  1  0.49292000  0.50421000  0.74785000  1.0
  C  C83  1  0.50115000  0.49255000  0.25294000  1.0
  C  C84  1  0.47659000  0.51147000  0.89896000  1.0
  C  C85  1  0.48483000  0.50272000  0.10203000  1.0
  C  C86  1  0.51693000  0.58347000  0.87360000  1.0
  C  C87  1  0.42659000  0.44242000  0.12791000  1.0
  C  C88  1  0.54876000  0.65671000  0.89806000  1.0
  C  C89  1  0.36068000  0.39073000  0.10420000  1.0
  C  C90  1  0.44178000  0.43723000  0.87403000  1.0
  C  C91  1  0.55207000  0.55607000  0.12614000  1.0
  C  C92  1  0.49848000  0.49581000  0.64733000  1.0
  C  C93  1  0.50537000  0.50185000  0.35338000  1.0
  C  C94  1  0.52891000  0.57559000  0.02634000  1.0
  C  C95  1  0.42356000  0.44417000  0.97480000  1.0
  C  C96  1  0.41486000  0.44855000  0.02671000  1.0
  C  C97  1  0.51556000  0.58542000  0.97501000  1.0
  C  C98  1  0.47606000  0.50870000  0.05137000  1.0
  C  C99  1  0.47189000  0.51401000  0.94990000  1.0
  C  C100  1  0.59479000  0.62692000  0.05178000  1.0
  C  C101  1  0.38971000  0.37213000  0.94852000  1.0
  C  C102  1  0.60795000  0.61590000  0.10064000  1.0
  C  C103  1  0.40032000  0.36782000  0.89908000  1.0
  C  C104  1  0.54712000  0.65888000  0.94800000  1.0
  C  C105  1  0.35308000  0.39450000  0.05448000  1.0
  C  C106  1  0.41613000  0.90417000  0.51415000  1.0
  C  C107  1  0.58017000  0.09537000  0.51539000  1.0
  C  C108  1  0.41729000  0.09466000  0.48571000  1.0
  C  C109  1  0.58230000  0.90376000  0.48738000  1.0
  C  C110  1  0.41584000  0.81279000  0.51421000  1.0
  C  C111  1  0.57981000  0.18681000  0.51525000  1.0
  C  C112  1  0.41667000  0.18608000  0.48559000  1.0
  C  C113  1  0.58222000  0.81232000  0.48747000  1.0
  C  C114  1  0.49893000  0.76622000  0.50089000  1.0
  C  C115  1  0.49804000  0.23274000  0.50027000  1.0
  C  C116  1  0.49926000  0.95105000  0.50070000  1.0
  C  C117  1  0.49902000  0.04792000  0.50058000  1.0
  C  C118  1  0.89561000  0.55768000  0.52823000  1.0
  C  C119  1  0.10543000  0.42325000  0.51160000  1.0
  C  C120  1  0.89437000  0.44125000  0.46934000  1.0
  C  C121  1  0.10562000  0.57421000  0.48412000  1.0
  C  C122  1  0.79529000  0.55569000  0.52818000  1.0
  C  C123  1  0.20571000  0.42655000  0.51119000  1.0
  C  C124  1  0.79415000  0.44283000  0.47220000  1.0
  C  C125  1  0.20585000  0.57197000  0.48492000  1.0
  C  C126  1  0.94721000  0.49920000  0.49832000  1.0
  C  C127  1  0.05328000  0.49881000  0.49801000  1.0
  C  C128  1  0.97244000  0.59142000  0.60257000  1.0
  C  C129  1  0.88975000  0.57849000  0.63782000  1.0
  C  C130  1  0.92652000  0.55768000  0.68776000  1.0
  C  C131  1  0.02151000  0.33530000  0.57031000  1.0
  C  C132  1  0.09850000  0.32138000  0.60772000  1.0
  C  C133  1  0.05401000  0.29957000  0.65643000  1.0
  C  C134  1  0.97829000  0.41439000  0.39541000  1.0
  C  C135  1  0.90270000  0.44655000  0.36063000  1.0
  C  C136  1  0.94846000  0.47869000  0.31395000  1.0
  C  C137  1  0.03663000  0.65721000  0.42087000  1.0
  C  C138  1  0.00389000  0.75069000  0.41128000  1.0
  C  C139  1  0.97217000  0.76259000  0.35964000  1.0
  C  C140  1  0.50670000  0.78990000  0.99058000  1.0
  C  C141  1  0.45491000  0.84543000  0.95365000  1.0
  C  C142  1  0.37375000  0.89995000  0.97606000  1.0
  C  C143  1  0.20132000  0.39082000  0.01629000  1.0
  C  C144  1  0.13270000  0.41846000  0.05619000  1.0
  C  C145  1  0.05089000  0.47607000  0.03779000  1.0
  N  N146  1  0.49180000  0.50544000  0.79883000  1.0
  N  N147  1  0.49756000  0.49376000  0.20201000  1.0
  N  N148  1  0.74688000  0.49895000  0.50086000  1.0
  N  N149  1  0.25364000  0.49957000  0.49842000  1.0
  N  N150  1  0.34440000  0.59879000  0.74233000  1.0
  N  N151  1  0.65015000  0.39889000  0.25464000  1.0
  N  N152  1  0.35864000  0.59907000  0.35052000  1.0
  N  N153  1  0.64467000  0.40051000  0.65273000  1.0
  O  O154  1  0.41906000  0.63014000  0.51105000  1.0
  O  O155  1  0.57707000  0.36926000  0.50850000  1.0
  O  O156  1  0.41843000  0.36906000  0.49065000  1.0
  O  O157  1  0.57763000  0.62927000  0.49126000  1.0
  O  O158  1  0.42136000  0.48032000  0.57382000  1.0
  O  O159  1  0.58605000  0.48141000  0.42613000  1.0
  O  O160  1  0.42781000  0.52007000  0.42759000  1.0
  O  O161  1  0.58093000  0.51536000  0.57444000  1.0
  O  O162  1  0.55069000  0.64618000  0.79699000  1.0
  O  O163  1  0.37894000  0.38912000  0.20485000  1.0
  O  O164  1  0.62550000  0.58883000  0.20073000  1.0
  O  O165  1  0.42185000  0.36889000  0.79809000  1.0
  O  O166  1  0.94151000  0.61886000  0.55553000  1.0
  O  O167  1  0.06128000  0.34534000  0.52257000  1.0
  O  O168  1  0.93676000  0.38103000  0.43969000  1.0
  O  O169  1  0.06077000  0.65051000  0.47097000  1.0
  O  O170  1  0.30974000  0.65903000  0.71822000  1.0
  O  O171  1  0.31662000  0.57780000  0.78296000  1.0
  O  O172  1  0.72792000  0.39203000  0.27551000  1.0
  O  O173  1  0.63167000  0.36492000  0.21565000  1.0
  O  O174  1  0.38497000  0.67092000  0.36604000  1.0
  O  O175  1  0.27507000  0.57117000  0.34978000  1.0
  O  O176  1  0.61983000  0.34536000  0.62310000  1.0
  O  O177  1  0.72800000  0.41340000  0.66657000  1.0
  O  O178  1  0.58066000  0.73481000  0.96866000  1.0
  O  O179  1  0.28338000  0.34221000  0.03467000  1.0
