# generated using pymatgen
data_CuAgH12C12N3O7
_symmetry_space_group_name_H-M   'P 1'
_cell_length_a   7.72305000
_cell_length_b   8.41138000
_cell_length_c   13.45220000
_cell_angle_alpha   91.32330000
_cell_angle_beta   97.73840000
_cell_angle_gamma   117.24400000
_symmetry_Int_Tables_number   1
_chemical_formula_structural   CuAgH12C12N3O7
_chemical_formula_sum   'Cu2 Ag2 H24 C24 N6 O14'
_cell_volume   766.28723753
_cell_formula_units_Z   2
loop_
 _symmetry_equiv_pos_site_id
 _symmetry_equiv_pos_as_xyz
  1  'x, y, z'
loop_
 _atom_site_type_symbol
 _atom_site_label
 _atom_site_symmetry_multiplicity
 _atom_site_fract_x
 _atom_site_fract_y
 _atom_site_fract_z
 _atom_site_occupancy
  Cu  Cu0  1  0.39755000  0.94072000  0.66716000  1.0
  Cu  Cu1  1  0.60245000  0.05928000  0.33283000  1.0
  Ag  Ag2  1  0.41752000  0.40039000  0.18215000  1.0
  Ag  Ag3  1  0.58249000  0.59962000  0.81785000  1.0
  H  H4  1  0.89756000  0.99805000  0.74923000  1.0
  H  H5  1  0.10243000  0.00195000  0.25078000  1.0
  H  H6  1  0.96588000  0.96630000  0.87664000  1.0
  H  H7  1  0.03412000  0.03369000  0.12337000  1.0
  H  H8  1  0.03541000  0.18693000  0.84159000  1.0
  H  H9  1  0.96459000  0.81306000  0.15841000  1.0
  H  H10  1  0.87604000  0.33015000  0.90404000  1.0
  H  H11  1  0.12396000  0.66985000  0.09596000  1.0
  H  H12  1  0.72621000  0.37223000  0.98033000  1.0
  H  H13  1  0.27379000  0.62777000  0.01967000  1.0
  H  H14  1  0.75227000  0.17416000  0.98928000  1.0
  H  H15  1  0.24772000  0.82583000  0.01072000  1.0
  H  H16  1  0.95101000  0.67116000  0.39530000  1.0
  H  H17  1  0.04898000  0.32884000  0.60470000  1.0
  H  H18  1  0.12535000  0.69580000  0.31393000  1.0
  H  H19  1  0.87465000  0.30420000  0.68607000  1.0
  H  H20  1  0.02085000  0.49827000  0.37613000  1.0
  H  H21  1  0.97915000  0.50173000  0.62388000  1.0
  H  H22  1  0.88280000  0.83655000  0.59416000  1.0
  H  H23  1  0.11720000  0.16345000  0.40585000  1.0
  H  H24  1  0.73482000  0.65264000  0.49961000  1.0
  H  H25  1  0.26518000  0.34736000  0.50039000  1.0
  H  H26  1  0.83510000  0.87545000  0.46574000  1.0
  H  H27  1  0.16490000  0.12455000  0.53426000  1.0
  C  C28  1  0.01343000  0.05334000  0.81546000  1.0
  C  C29  1  0.98657000  0.94665000  0.18455000  1.0
  C  C30  1  0.20224000  0.06444000  0.79216000  1.0
  C  C31  1  0.79776000  0.93555000  0.20784000  1.0
  C  C32  1  0.37429000  0.14167000  0.86895000  1.0
  C  C33  1  0.62571000  0.85833000  0.13105000  1.0
  C  C34  1  0.56587000  0.16624000  0.85535000  1.0
  C  C35  1  0.43413000  0.83376000  0.14465000  1.0
  C  C36  1  0.73988000  0.26817000  0.93652000  1.0
  C  C37  1  0.26012000  0.73183000  0.06348000  1.0
  C  C38  1  0.35685000  0.20806000  0.96190000  1.0
  C  C39  1  0.64315000  0.79194000  0.03809000  1.0
  C  C40  1  0.07307000  0.64420000  0.38431000  1.0
  C  C41  1  0.92694000  0.35580000  0.61569000  1.0
  C  C42  1  0.23845000  0.73129000  0.47132000  1.0
  C  C43  1  0.76155000  0.26871000  0.52868000  1.0
  C  C44  1  0.41699000  0.71871000  0.46832000  1.0
  C  C45  1  0.58301000  0.28130000  0.53167000  1.0
  C  C46  1  0.59153000  0.80408000  0.54311000  1.0
  C  C47  1  0.40847000  0.19593000  0.45689000  1.0
  C  C48  1  0.77214000  0.79076000  0.52579000  1.0
  C  C49  1  0.22786000  0.20925000  0.47421000  1.0
  C  C50  1  0.42244000  0.62138000  0.38347000  1.0
  C  C51  1  0.57757000  0.37863000  0.61653000  1.0
  N  N52  1  0.34393000  0.26309000  0.03975000  1.0
  N  N53  1  0.65608000  0.73692000  0.96025000  1.0
  N  N54  1  0.42176000  0.53772000  0.31271000  1.0
  N  N55  1  0.57824000  0.46228000  0.68728000  1.0
  N  N56  1  0.81373000  0.38691000  0.18882000  1.0
  N  N57  1  0.18628000  0.61310000  0.81119000  1.0
  O  O58  1  0.20214000  0.00728000  0.70393000  1.0
  O  O59  1  0.79786000  0.99272000  0.29606000  1.0
  O  O60  1  0.59786000  0.10437000  0.77666000  1.0
  O  O61  1  0.40213000  0.89563000  0.22333000  1.0
  O  O62  1  0.21268000  0.81347000  0.54354000  1.0
  O  O63  1  0.78732000  0.18653000  0.45646000  1.0
  O  O64  1  0.60431000  0.89610000  0.62229000  1.0
  O  O65  1  0.39568000  0.10390000  0.37771000  1.0
  O  O66  1  0.67675000  0.30188000  0.24209000  1.0
  O  O67  1  0.32326000  0.69813000  0.75792000  1.0
  O  O68  1  0.94543000  0.34183000  0.18254000  1.0
  O  O69  1  0.05458000  0.65817000  0.81747000  1.0
  O  O70  1  0.80759000  0.51586000  0.14435000  1.0
  O  O71  1  0.19241000  0.48414000  0.85565000  1.0
