# generated using pymatgen
data_CoH12C19N2O5
_symmetry_space_group_name_H-M   'P 1'
_cell_length_a   5.84880000
_cell_length_b   15.64830000
_cell_length_c   22.57110000
_cell_angle_alpha   96.18910000
_cell_angle_beta   89.99920000
_cell_angle_gamma   89.99810000
_symmetry_Int_Tables_number   1
_chemical_formula_structural   CoH12C19N2O5
_chemical_formula_sum   'Co4 H48 C76 N8 O20'
_cell_volume   2053.75183516
_cell_formula_units_Z   4
loop_
 _symmetry_equiv_pos_site_id
 _symmetry_equiv_pos_as_xyz
  1  'x, y, z'
loop_
 _atom_site_type_symbol
 _atom_site_label
 _atom_site_symmetry_multiplicity
 _atom_site_fract_x
 _atom_site_fract_y
 _atom_site_fract_z
 _atom_site_occupancy
  Co  Co0  1  0.37119000  0.23851000  0.15347000  1.0
  Co  Co1  1  0.87117000  0.26148000  0.34653000  1.0
  Co  Co2  1  0.62883000  0.76148000  0.84653000  1.0
  Co  Co3  1  0.12884000  0.73851000  0.65347000  1.0
  H  H4  1  0.40232000  0.03627000  0.31203000  1.0
  H  H5  1  0.90229000  0.46372000  0.18798000  1.0
  H  H6  1  0.59766000  0.96374000  0.68797000  1.0
  H  H7  1  0.09775000  0.53627000  0.81203000  1.0
  H  H8  1  0.05554000  0.94442000  0.28096000  1.0
  H  H9  1  0.55546000  0.55556000  0.21903000  1.0
  H  H10  1  0.94446000  0.05558000  0.71903000  1.0
  H  H11  1  0.44457000  0.44444000  0.78097000  1.0
  H  H12  1  0.95215000  0.10370000  0.13829000  1.0
  H  H13  1  0.45210000  0.39629000  0.36171000  1.0
  H  H14  1  0.04788000  0.89632000  0.86171000  1.0
  H  H15  1  0.54791000  0.60369000  0.63829000  1.0
  H  H16  1  0.09868000  0.88649000  0.12189000  1.0
  H  H17  1  0.59854000  0.61352000  0.37807000  1.0
  H  H18  1  0.90139000  0.11353000  0.87808000  1.0
  H  H19  1  0.40150000  0.38648000  0.62193000  1.0
  H  H20  1  0.41695000  0.99069000  0.13098000  1.0
  H  H21  1  0.91684000  0.50930000  0.36903000  1.0
  H  H22  1  0.58308000  0.00931000  0.86902000  1.0
  H  H23  1  0.08319000  0.49069000  0.63097000  1.0
  H  H24  1  0.29301000  0.42357000  0.12834000  1.0
  H  H25  1  0.79296000  0.07643000  0.37167000  1.0
  H  H26  1  0.70702000  0.57642000  0.87168000  1.0
  H  H27  1  0.20698000  0.92357000  0.62832000  1.0
  H  H28  1  0.49265000  0.52994000  0.07116000  1.0
  H  H29  1  0.99259000  0.97005000  0.42884000  1.0
  H  H30  1  0.50733000  0.47007000  0.92885000  1.0
  H  H31  1  0.00725000  0.02992000  0.57115000  1.0
  H  H32  1  0.81809000  0.57012000  0.01593000  1.0
  H  H33  1  0.31804000  0.92987000  0.48408000  1.0
  H  H34  1  0.18188000  0.42990000  0.98407000  1.0
  H  H35  1  0.68178000  0.07009000  0.51594000  1.0
  H  H36  1  0.04048000  0.34308000  0.04030000  1.0
  H  H37  1  0.54042000  0.15690000  0.45971000  1.0
  H  H38  1  0.95952000  0.65694000  0.95969000  1.0
  H  H39  1  0.45945000  0.84306000  0.54033000  1.0
  H  H40  1  0.82235000  0.24848000  0.09784000  1.0
  H  H41  1  0.32231000  0.25150000  0.40215000  1.0
  H  H42  1  0.17768000  0.75153000  0.90214000  1.0
  H  H43  1  0.67766000  0.74847000  0.59788000  1.0
  H  H44  1  0.35289000  0.93273000  0.02402000  1.0
  H  H45  1  0.85283000  0.56728000  0.47598000  1.0
  H  H46  1  0.64715000  0.06729000  0.97597000  1.0
  H  H47  1  0.14720000  0.43271000  0.52402000  1.0
  H  H48  1  0.03471000  0.83028000  0.01507000  1.0
  H  H49  1  0.53463000  0.66975000  0.48489000  1.0
  H  H50  1  0.96534000  0.16977000  0.98490000  1.0
  H  H51  1  0.46541000  0.33025000  0.51512000  1.0
  C  C52  1  0.55570000  0.17342000  0.25499000  1.0
  C  C53  1  0.05569000  0.32657000  0.24502000  1.0
  C  C54  1  0.44430000  0.82658000  0.74502000  1.0
  C  C55  1  0.94432000  0.67342000  0.75499000  1.0
  C  C56  1  0.35598000  0.11521000  0.24092000  1.0
  C  C57  1  0.85594000  0.38478000  0.25908000  1.0
  C  C58  1  0.64403000  0.88480000  0.75908000  1.0
  C  C59  1  0.14408000  0.61521000  0.74092000  1.0
  C  C60  1  0.29820000  0.04809000  0.27377000  1.0
  C  C61  1  0.79815000  0.45190000  0.22623000  1.0
  C  C62  1  0.70180000  0.95192000  0.72623000  1.0
  C  C63  1  0.20188000  0.54809000  0.77377000  1.0
  C  C64  1  0.10801000  0.99782000  0.25685000  1.0
  C  C65  1  0.60794000  0.50217000  0.24315000  1.0
  C  C66  1  0.89200000  0.00219000  0.74314000  1.0
  C  C67  1  0.39210000  0.49782000  0.75686000  1.0
  C  C68  1  0.98255000  0.01718000  0.20745000  1.0
  C  C69  1  0.48246000  0.48281000  0.29255000  1.0
  C  C70  1  0.01747000  0.98283000  0.79254000  1.0
  C  C71  1  0.51755000  0.51718000  0.70746000  1.0
  C  C72  1  0.04912000  0.08620000  0.17650000  1.0
  C  C73  1  0.54907000  0.41379000  0.32351000  1.0
  C  C74  1  0.95091000  0.91381000  0.82350000  1.0
  C  C75  1  0.45095000  0.58620000  0.67650000  1.0
  C  C76  1  0.75924000  0.94099000  0.13188000  1.0
  C  C77  1  0.25911000  0.55902000  0.36811000  1.0
  C  C78  1  0.24081000  0.05903000  0.86810000  1.0
  C  C79  1  0.74092000  0.44098000  0.63189000  1.0
  C  C80  1  0.93579000  0.89641000  0.10020000  1.0
  C  C81  1  0.43566000  0.60360000  0.39977000  1.0
  C  C82  1  0.06427000  0.10362000  0.89977000  1.0
  C  C83  1  0.56438000  0.39639000  0.60023000  1.0
  C  C84  1  0.54830000  0.95375000  0.10552000  1.0
  C  C85  1  0.04820000  0.54626000  0.39447000  1.0
  C  C86  1  0.45176000  0.04627000  0.89446000  1.0
  C  C87  1  0.95184000  0.45374000  0.60553000  1.0
  C  C88  1  0.45860000  0.40925000  0.10740000  1.0
  C  C89  1  0.95853000  0.09074000  0.39260000  1.0
  C  C90  1  0.54143000  0.59075000  0.89261000  1.0
  C  C91  1  0.04136000  0.90925000  0.60740000  1.0
  C  C92  1  0.57138000  0.46780000  0.07578000  1.0
  C  C93  1  0.07131000  0.03219000  0.42422000  1.0
  C  C94  1  0.42864000  0.53222000  0.92422000  1.0
  C  C95  1  0.92856000  0.96778000  0.57578000  1.0
  C  C96  1  0.78555000  0.44666000  0.04933000  1.0
  C  C97  1  0.28549000  0.05333000  0.45067000  1.0
  C  C98  1  0.21445000  0.55336000  0.95067000  1.0
  C  C99  1  0.71438000  0.94663000  0.54934000  1.0
  C  C100  1  0.90149000  0.50756000  0.01558000  1.0
  C  C101  1  0.40141000  0.99243000  0.48442000  1.0
  C  C102  1  0.09848000  0.49246000  0.98442000  1.0
  C  C103  1  0.59838000  0.00754000  0.51559000  1.0
  C  C104  1  0.87512000  0.36534000  0.05798000  1.0
  C  C105  1  0.37506000  0.13464000  0.44202000  1.0
  C  C106  1  0.12488000  0.63468000  0.94201000  1.0
  C  C107  1  0.62482000  0.86532000  0.55801000  1.0
  C  C108  1  0.75361000  0.31102000  0.09083000  1.0
  C  C109  1  0.25357000  0.18896000  0.40917000  1.0
  C  C110  1  0.24642000  0.68899000  0.90916000  1.0
  C  C111  1  0.74639000  0.81102000  0.59085000  1.0
  C  C112  1  0.51431000  0.92199000  0.04615000  1.0
  C  C113  1  0.01421000  0.57803000  0.45384000  1.0
  C  C114  1  0.48575000  0.07804000  0.95383000  1.0
  C  C115  1  0.98582000  0.42197000  0.54616000  1.0
  C  C116  1  0.68919000  0.87761000  0.01339000  1.0
  C  C117  1  0.18912000  0.62242000  0.48659000  1.0
  C  C118  1  0.31085000  0.12243000  0.98659000  1.0
  C  C119  1  0.81091000  0.37758000  0.51341000  1.0
  C  C120  1  0.89979000  0.86496000  0.04092000  1.0
  C  C121  1  0.39971000  0.63506000  0.45905000  1.0
  C  C122  1  0.10025000  0.13507000  0.95905000  1.0
  C  C123  1  0.60030000  0.36493000  0.54095000  1.0
  C  C124  1  0.65222000  0.84335000  0.95006000  1.0
  C  C125  1  0.15221000  0.65666000  0.54993000  1.0
  C  C126  1  0.34777000  0.15667000  0.04992000  1.0
  C  C127  1  0.84781000  0.34333000  0.45007000  1.0
  N  N128  1  0.54645000  0.33139000  0.11496000  1.0
  N  N129  1  0.04642000  0.16860000  0.38504000  1.0
  N  N130  1  0.45358000  0.66861000  0.88504000  1.0
  N  N131  1  0.95354000  0.83139000  0.61497000  1.0
  N  N132  1  0.23294000  0.13356000  0.19320000  1.0
  N  N133  1  0.73290000  0.36643000  0.30680000  1.0
  N  N134  1  0.76707000  0.86645000  0.80680000  1.0
  N  N135  1  0.26712000  0.63356000  0.69320000  1.0
  O  O136  1  0.61373000  0.22080000  0.21488000  1.0
  O  O137  1  0.11370000  0.27918000  0.28511000  1.0
  O  O138  1  0.38631000  0.77920000  0.78512000  1.0
  O  O139  1  0.88632000  0.72081000  0.71489000  1.0
  O  O140  1  0.78746000  0.97062000  0.19204000  1.0
  O  O141  1  0.28735000  0.52934000  0.30795000  1.0
  O  O142  1  0.21259000  0.02938000  0.80795000  1.0
  O  O143  1  0.71269000  0.47064000  0.69205000  1.0
  O  O144  1  0.81474000  0.79930000  0.92263000  1.0
  O  O145  1  0.31474000  0.70071000  0.57735000  1.0
  O  O146  1  0.18523000  0.20072000  0.07736000  1.0
  O  O147  1  0.68526000  0.29929000  0.42265000  1.0
  O  O148  1  0.46584000  0.85512000  0.92347000  1.0
  O  O149  1  0.96587000  0.64487000  0.57654000  1.0
  O  O150  1  0.53414000  0.14489000  0.07652000  1.0
  O  O151  1  0.03417000  0.35511000  0.42347000  1.0
  O  O152  1  0.65553000  0.17192000  0.30487000  1.0
  O  O153  1  0.15552000  0.32807000  0.19514000  1.0
  O  O154  1  0.34446000  0.82808000  0.69513000  1.0
  O  O155  1  0.84447000  0.67192000  0.80487000  1.0
