# generated using pymatgen
data_Cd2H29C32S(NO3)3
_symmetry_space_group_name_H-M   'P 1'
_cell_length_a   11.03410000
_cell_length_b   17.31130000
_cell_length_c   19.85390000
_cell_angle_alpha   89.99990000
_cell_angle_beta   82.51060000
_cell_angle_gamma   89.99980000
_symmetry_Int_Tables_number   1
_chemical_formula_structural   Cd2H29C32S(NO3)3
_chemical_formula_sum   'Cd8 H116 C128 S4 N12 O36'
_cell_volume   3760.03220538
_cell_formula_units_Z   4
loop_
 _symmetry_equiv_pos_site_id
 _symmetry_equiv_pos_as_xyz
  1  'x, y, z'
loop_
 _atom_site_type_symbol
 _atom_site_label
 _atom_site_symmetry_multiplicity
 _atom_site_fract_x
 _atom_site_fract_y
 _atom_site_fract_z
 _atom_site_occupancy
  Cd  Cd0  1  0.60217000  0.61403000  0.43821000  1.0
  Cd  Cd1  1  0.39783000  0.11403000  0.06179000  1.0
  Cd  Cd2  1  0.39783000  0.38597000  0.56179000  1.0
  Cd  Cd3  1  0.60217000  0.88597000  0.93821000  1.0
  Cd  Cd4  1  0.56328000  0.56195000  0.62150000  1.0
  Cd  Cd5  1  0.43671000  0.06195000  0.87850000  1.0
  Cd  Cd6  1  0.43672000  0.43805000  0.37849000  1.0
  Cd  Cd7  1  0.56328000  0.93806000  0.12150000  1.0
  H  H8  1  0.35758000  0.73098000  0.55753000  1.0
  H  H9  1  0.64242000  0.23098000  0.94247000  1.0
  H  H10  1  0.64242000  0.26902000  0.44248000  1.0
  H  H11  1  0.35758000  0.76902000  0.05752000  1.0
  H  H12  1  0.15155000  0.75114000  0.61804000  1.0
  H  H13  1  0.84845000  0.25114000  0.88196000  1.0
  H  H14  1  0.84845000  0.24886000  0.38197000  1.0
  H  H15  1  0.15155000  0.74887000  0.11803000  1.0
  H  H16  1  0.12159000  0.82515000  0.72744000  1.0
  H  H17  1  0.87841000  0.32515000  0.77256000  1.0
  H  H18  1  0.87841000  0.17485000  0.27256000  1.0
  H  H19  1  0.12159000  0.67485000  0.22744000  1.0
  H  H20  1  0.29929000  0.88048000  0.77431000  1.0
  H  H21  1  0.70071000  0.38048000  0.72569000  1.0
  H  H22  1  0.70071000  0.11952000  0.22569000  1.0
  H  H23  1  0.29929000  0.61952000  0.27431000  1.0
  H  H24  1  0.75370000  0.92016000  0.75507000  1.0
  H  H25  1  0.24630000  0.42016000  0.74493000  1.0
  H  H26  1  0.24629000  0.07984000  0.24493000  1.0
  H  H27  1  0.75371000  0.57984000  0.25507000  1.0
  H  H28  1  0.95702000  0.90523000  0.68846000  1.0
  H  H29  1  0.04298000  0.40523000  0.81154000  1.0
  H  H30  1  0.04298000  0.09477000  0.31155000  1.0
  H  H31  1  0.95702000  0.59476000  0.18845000  1.0
  H  H32  1  0.98183000  0.83212000  0.57914000  1.0
  H  H33  1  0.01816000  0.33212000  0.92085000  1.0
  H  H34  1  0.01817000  0.16788000  0.42086000  1.0
  H  H35  1  0.98184000  0.66788000  0.07914000  1.0
  H  H36  1  0.80143000  0.77512000  0.53615000  1.0
  H  H37  1  0.19857000  0.27512000  0.96385000  1.0
  H  H38  1  0.19857000  0.22488000  0.46386000  1.0
  H  H39  1  0.80143000  0.72488000  0.03615000  1.0
  H  H40  1  0.84966000  0.57857000  0.50207000  1.0
  H  H41  1  0.15034000  0.07857000  0.99793000  1.0
  H  H42  1  0.15034000  0.42143000  0.49793000  1.0
  H  H43  1  0.84966000  0.92142000  0.00207000  1.0
  H  H44  1  0.06908000  0.62156000  0.49222000  1.0
  H  H45  1  0.93092000  0.12156000  0.00778000  1.0
  H  H46  1  0.93092000  0.37844000  0.50778000  1.0
  H  H47  1  0.06908000  0.87844000  0.99222000  1.0
  H  H48  1  0.00181000  0.75717000  0.31819000  1.0
  H  H49  1  0.99819000  0.25717000  0.18182000  1.0
  H  H50  1  0.99819000  0.24283000  0.68182000  1.0
  H  H51  1  0.00181000  0.74284000  0.81818000  1.0
  H  H52  1  0.78707000  0.70685000  0.33430000  1.0
  H  H53  1  0.21294000  0.20685000  0.16570000  1.0
  H  H54  1  0.21293000  0.29315000  0.66570000  1.0
  H  H55  1  0.78706000  0.79315000  0.83430000  1.0
  H  H56  1  0.24257000  0.68327000  0.41892000  1.0
  H  H57  1  0.75743000  0.18327000  0.08108000  1.0
  H  H58  1  0.75743000  0.31673000  0.58108000  1.0
  H  H59  1  0.24257000  0.81673000  0.91892000  1.0
  H  H60  1  0.21600000  0.73298000  0.34396000  1.0
  H  H61  1  0.78400000  0.23298000  0.15604000  1.0
  H  H62  1  0.78400000  0.26702000  0.65604000  1.0
  H  H63  1  0.21600000  0.76702000  0.84396000  1.0
  H  H64  1  0.15742000  0.79354000  0.48995000  1.0
  H  H65  1  0.84259000  0.29354000  0.01005000  1.0
  H  H66  1  0.84259000  0.20646000  0.51005000  1.0
  H  H67  1  0.15741000  0.70646000  0.98995000  1.0
  H  H68  1  0.11910000  0.84219000  0.41757000  1.0
  H  H69  1  0.88091000  0.34219000  0.08243000  1.0
  H  H70  1  0.88091000  0.15781000  0.58243000  1.0
  H  H71  1  0.11909000  0.65781000  0.91757000  1.0
  H  H72  1  0.37860000  0.80080000  0.44799000  1.0
  H  H73  1  0.62141000  0.30081000  0.05201000  1.0
  H  H74  1  0.62141000  0.19920000  0.55201000  1.0
  H  H75  1  0.37859000  0.69920000  0.94799000  1.0
  H  H76  1  0.31161000  0.89346000  0.45248000  1.0
  H  H77  1  0.68840000  0.39346000  0.04751000  1.0
  H  H78  1  0.68840000  0.10654000  0.54752000  1.0
  H  H79  1  0.31160000  0.60654000  0.95249000  1.0
  H  H80  1  0.29950000  0.93983000  0.20628000  1.0
  H  H81  1  0.70050000  0.43983000  0.29372000  1.0
  H  H82  1  0.70051000  0.06016000  0.79372000  1.0
  H  H83  1  0.29949000  0.56017000  0.70628000  1.0
  H  H84  1  0.20890000  0.91964000  0.32685000  1.0
  H  H85  1  0.79110000  0.41965000  0.17315000  1.0
  H  H86  1  0.79110000  0.08035000  0.67315000  1.0
  H  H87  1  0.20889000  0.58035000  0.82685000  1.0
  H  H88  1  0.52918000  0.78603000  0.35456000  1.0
  H  H89  1  0.47083000  0.28603000  0.14544000  1.0
  H  H90  1  0.47083000  0.21397000  0.64544000  1.0
  H  H91  1  0.52917000  0.71397000  0.85456000  1.0
  H  H92  1  0.60886000  0.81456000  0.23336000  1.0
  H  H93  1  0.39115000  0.31456000  0.26664000  1.0
  H  H94  1  0.39115000  0.18543000  0.76664000  1.0
  H  H95  1  0.60885000  0.68543000  0.73336000  1.0
  H  H96  1  0.80924000  0.48061000  0.66155000  1.0
  H  H97  1  0.19073000  0.98060000  0.83846000  1.0
  H  H98  1  0.19076000  0.51939000  0.33844000  1.0
  H  H99  1  0.80926000  0.01940000  0.16155000  1.0
  H  H100  1  0.99306000  0.44372000  0.67582000  1.0
  H  H101  1  0.00692000  0.94371000  0.82418000  1.0
  H  H102  1  0.00694000  0.55629000  0.32417000  1.0
  H  H103  1  0.99307000  0.05629000  0.17583000  1.0
  H  H104  1  0.11014000  0.51031000  0.64241000  1.0
  H  H105  1  0.88984000  0.01031000  0.85759000  1.0
  H  H106  1  0.88986000  0.48969000  0.35759000  1.0
  H  H107  1  0.11016000  0.98969000  0.14241000  1.0
  H  H108  1  0.06491000  0.50368000  0.73236000  1.0
  H  H109  1  0.93508000  0.00368000  0.76764000  1.0
  H  H110  1  0.93509000  0.49632000  0.26764000  1.0
  H  H111  1  0.06492000  0.99632000  0.23236000  1.0
  H  H112  1  0.90598000  0.67847000  0.67261000  1.0
  H  H113  1  0.09400000  0.17847000  0.82739000  1.0
  H  H114  1  0.09401000  0.32153000  0.32738000  1.0
  H  H115  1  0.90599000  0.82153000  0.17261000  1.0
  H  H116  1  0.00605000  0.65117000  0.73304000  1.0
  H  H117  1  0.99393000  0.15116000  0.76696000  1.0
  H  H118  1  0.99394000  0.34884000  0.26695000  1.0
  H  H119  1  0.00607000  0.84883000  0.23304000  1.0
  H  H120  1  0.06099000  0.64905000  0.64447000  1.0
  H  H121  1  0.93899000  0.14905000  0.85553000  1.0
  H  H122  1  0.93900000  0.35095000  0.35553000  1.0
  H  H123  1  0.06101000  0.85095000  0.14447000  1.0
  C  C124  1  0.58569000  0.73375000  0.53437000  1.0
  C  C125  1  0.41431000  0.23376000  0.96563000  1.0
  C  C126  1  0.41431000  0.26625000  0.46563000  1.0
  C  C127  1  0.58569000  0.76624000  0.03436000  1.0
  C  C128  1  0.56801000  0.78474000  0.59578000  1.0
  C  C129  1  0.43199000  0.28475000  0.90422000  1.0
  C  C130  1  0.43199000  0.21525000  0.40422000  1.0
  C  C131  1  0.56801000  0.71525000  0.09578000  1.0
  C  C132  1  0.44951000  0.79672000  0.62962000  1.0
  C  C133  1  0.55049000  0.29673000  0.87038000  1.0
  C  C134  1  0.55049000  0.20327000  0.37039000  1.0
  C  C135  1  0.44952000  0.70327000  0.12961000  1.0
  C  C136  1  0.34498000  0.76509000  0.60412000  1.0
  C  C137  1  0.65502000  0.26509000  0.89588000  1.0
  C  C138  1  0.65502000  0.23491000  0.39589000  1.0
  C  C139  1  0.34499000  0.73491000  0.10411000  1.0
  C  C140  1  0.23002000  0.77585000  0.63830000  1.0
  C  C141  1  0.76998000  0.27585000  0.86170000  1.0
  C  C142  1  0.76998000  0.22415000  0.36171000  1.0
  C  C143  1  0.23003000  0.72415000  0.13829000  1.0
  C  C144  1  0.21345000  0.81781000  0.70031000  1.0
  C  C145  1  0.78655000  0.31782000  0.79968000  1.0
  C  C146  1  0.78655000  0.18219000  0.29969000  1.0
  C  C147  1  0.21345000  0.68219000  0.20031000  1.0
  C  C148  1  0.31195000  0.84831000  0.72686000  1.0
  C  C149  1  0.68805000  0.34831000  0.77314000  1.0
  C  C150  1  0.68805000  0.15169000  0.27314000  1.0
  C  C151  1  0.31195000  0.65169000  0.22686000  1.0
  C  C152  1  0.43350000  0.83937000  0.69275000  1.0
  C  C153  1  0.56650000  0.33937000  0.80725000  1.0
  C  C154  1  0.56650000  0.16063000  0.30725000  1.0
  C  C155  1  0.43350000  0.66063000  0.19275000  1.0
  C  C156  1  0.53755000  0.86659000  0.72004000  1.0
  C  C157  1  0.46245000  0.36659000  0.77996000  1.0
  C  C158  1  0.46245000  0.13341000  0.27996000  1.0
  C  C159  1  0.53755000  0.63341000  0.22004000  1.0
  C  C160  1  0.65609000  0.85767000  0.68391000  1.0
  C  C161  1  0.34390000  0.35767000  0.81609000  1.0
  C  C162  1  0.34390000  0.14233000  0.31610000  1.0
  C  C163  1  0.65610000  0.64233000  0.18391000  1.0
  C  C164  1  0.76333000  0.88882000  0.70714000  1.0
  C  C165  1  0.23667000  0.38883000  0.79287000  1.0
  C  C166  1  0.23667000  0.11118000  0.29287000  1.0
  C  C167  1  0.76333000  0.61117000  0.20713000  1.0
  C  C168  1  0.87678000  0.88000000  0.67019000  1.0
  C  C169  1  0.12322000  0.38000000  0.82981000  1.0
  C  C170  1  0.12321000  0.12000000  0.32981000  1.0
  C  C171  1  0.87679000  0.62000000  0.17019000  1.0
  C  C172  1  0.89122000  0.83841000  0.60793000  1.0
  C  C173  1  0.10878000  0.33841000  0.89207000  1.0
  C  C174  1  0.10878000  0.16159000  0.39207000  1.0
  C  C175  1  0.89122000  0.66159000  0.10793000  1.0
  C  C176  1  0.79101000  0.80696000  0.58396000  1.0
  C  C177  1  0.20899000  0.30697000  0.91604000  1.0
  C  C178  1  0.20898000  0.19304000  0.41604000  1.0
  C  C179  1  0.79102000  0.69303000  0.08396000  1.0
  C  C180  1  0.67132000  0.81617000  0.62030000  1.0
  C  C181  1  0.32869000  0.31617000  0.87970000  1.0
  C  C182  1  0.32868000  0.18383000  0.37970000  1.0
  C  C183  1  0.67132000  0.68383000  0.12030000  1.0
  C  C184  1  0.52438000  0.89866000  0.79114000  1.0
  C  C185  1  0.47561000  0.39867000  0.70886000  1.0
  C  C186  1  0.47561000  0.10134000  0.20886000  1.0
  C  C187  1  0.52439000  0.60134000  0.29114000  1.0
  C  C188  1  0.88814000  0.61826000  0.46226000  1.0
  C  C189  1  0.11186000  0.11826000  0.03774000  1.0
  C  C190  1  0.11186000  0.38174000  0.53774000  1.0
  C  C191  1  0.88814000  0.88174000  0.96226000  1.0
  C  C192  1  0.00916000  0.64261000  0.45653000  1.0
  C  C193  1  0.99084000  0.14261000  0.04347000  1.0
  C  C194  1  0.99084000  0.35739000  0.54347000  1.0
  C  C195  1  0.00916000  0.85739000  0.95653000  1.0
  C  C196  1  0.05367000  0.69371000  0.40434000  1.0
  C  C197  1  0.94633000  0.19371000  0.09566000  1.0
  C  C198  1  0.94633000  0.30629000  0.59566000  1.0
  C  C199  1  0.05367000  0.80629000  0.90434000  1.0
  C  C200  1  0.97210000  0.71749000  0.35978000  1.0
  C  C201  1  0.02790000  0.21749000  0.14022000  1.0
  C  C202  1  0.02790000  0.28251000  0.64022000  1.0
  C  C203  1  0.97210000  0.78251000  0.85978000  1.0
  C  C204  1  0.85259000  0.69021000  0.36838000  1.0
  C  C205  1  0.14741000  0.19021000  0.13163000  1.0
  C  C206  1  0.14741000  0.30979000  0.63163000  1.0
  C  C207  1  0.85259000  0.80980000  0.86837000  1.0
  C  C208  1  0.18151000  0.72451000  0.39799000  1.0
  C  C209  1  0.81850000  0.22451000  0.10201000  1.0
  C  C210  1  0.81850000  0.27549000  0.60201000  1.0
  C  C211  1  0.18150000  0.77549000  0.89799000  1.0
  C  C212  1  0.18593000  0.80215000  0.43526000  1.0
  C  C213  1  0.81408000  0.30216000  0.06474000  1.0
  C  C214  1  0.81407000  0.19785000  0.56475000  1.0
  C  C215  1  0.18593000  0.69785000  0.93525000  1.0
  C  C216  1  0.31422000  0.83791000  0.42518000  1.0
  C  C217  1  0.68579000  0.33791000  0.07482000  1.0
  C  C218  1  0.68579000  0.16209000  0.57482000  1.0
  C  C219  1  0.31421000  0.66209000  0.92518000  1.0
  C  C220  1  0.34743000  0.90641000  0.24124000  1.0
  C  C221  1  0.65257000  0.40641000  0.25876000  1.0
  C  C222  1  0.65258000  0.09358000  0.75876000  1.0
  C  C223  1  0.34742000  0.59359000  0.74124000  1.0
  C  C224  1  0.29760000  0.89440000  0.30830000  1.0
  C  C225  1  0.70240000  0.39440000  0.19170000  1.0
  C  C226  1  0.70240000  0.10560000  0.69170000  1.0
  C  C227  1  0.29760000  0.60560000  0.80830000  1.0
  C  C228  1  0.36283000  0.85153000  0.35170000  1.0
  C  C229  1  0.63717000  0.35153000  0.14830000  1.0
  C  C230  1  0.63717000  0.14847000  0.64830000  1.0
  C  C231  1  0.36282000  0.64847000  0.85170000  1.0
  C  C232  1  0.47569000  0.82102000  0.32363000  1.0
  C  C233  1  0.52432000  0.32102000  0.17637000  1.0
  C  C234  1  0.52432000  0.17898000  0.67637000  1.0
  C  C235  1  0.47568000  0.67897000  0.82363000  1.0
  C  C236  1  0.52006000  0.83614000  0.25610000  1.0
  C  C237  1  0.47994000  0.33614000  0.24389000  1.0
  C  C238  1  0.47994000  0.16386000  0.74390000  1.0
  C  C239  1  0.52005000  0.66386000  0.75610000  1.0
  C  C240  1  0.82662000  0.54293000  0.66702000  1.0
  C  C241  1  0.17335000  0.04293000  0.83298000  1.0
  C  C242  1  0.17338000  0.45707000  0.33298000  1.0
  C  C243  1  0.82665000  0.95708000  0.16702000  1.0
  C  C244  1  0.03256000  0.50091000  0.68224000  1.0
  C  C245  1  0.96742000  0.00091000  0.81776000  1.0
  C  C246  1  0.96744000  0.49909000  0.31776000  1.0
  C  C247  1  0.03258000  0.99909000  0.18224000  1.0
  C  C248  1  0.98036000  0.63982000  0.68218000  1.0
  C  C249  1  0.01962000  0.13982000  0.81782000  1.0
  C  C250  1  0.01963000  0.36018000  0.31781000  1.0
  C  C251  1  0.98038000  0.86018000  0.18218000  1.0
  S  S252  1  0.32358000  0.55842000  0.51567000  1.0
  S  S253  1  0.67641000  0.05842000  0.98433000  1.0
  S  S254  1  0.67642000  0.44158000  0.48433000  1.0
  S  S255  1  0.32358000  0.94159000  0.01567000  1.0
  N  N256  1  0.81100000  0.64133000  0.41889000  1.0
  N  N257  1  0.18901000  0.14133000  0.08112000  1.0
  N  N258  1  0.18901000  0.35867000  0.58112000  1.0
  N  N259  1  0.81099000  0.85867000  0.91888000  1.0
  N  N260  1  0.45788000  0.87877000  0.21545000  1.0
  N  N261  1  0.54212000  0.37877000  0.28455000  1.0
  N  N262  1  0.54212000  0.12123000  0.78455000  1.0
  N  N263  1  0.45787000  0.62123000  0.71545000  1.0
  N  N264  1  0.94080000  0.56015000  0.67751000  1.0
  N  N265  1  0.05918000  0.06015000  0.82249000  1.0
  N  N266  1  0.05919000  0.43985000  0.32249000  1.0
  N  N267  1  0.94082000  0.93985000  0.17751000  1.0
  O  O268  1  0.60915000  0.66191000  0.54601000  1.0
  O  O269  1  0.39084000  0.16192000  0.95400000  1.0
  O  O270  1  0.39085000  0.33808000  0.45400000  1.0
  O  O271  1  0.60916000  0.83808000  0.04601000  1.0
  O  O272  1  0.57954000  0.75909000  0.47590000  1.0
  O  O273  1  0.42047000  0.25909000  0.02410000  1.0
  O  O274  1  0.42046000  0.24091000  0.52410000  1.0
  O  O275  1  0.57953000  0.74091000  0.97590000  1.0
  O  O276  1  0.45302000  0.95485000  0.80691000  1.0
  O  O277  1  0.54697000  0.45485000  0.69309000  1.0
  O  O278  1  0.54697000  0.04515000  0.19309000  1.0
  O  O279  1  0.45303000  0.54515000  0.30691000  1.0
  O  O280  1  0.58860000  0.86297000  0.83035000  1.0
  O  O281  1  0.41139000  0.36298000  0.66965000  1.0
  O  O282  1  0.41139000  0.13703000  0.16965000  1.0
  O  O283  1  0.58862000  0.63702000  0.33035000  1.0
  O  O284  1  0.74522000  0.59258000  0.66314000  1.0
  O  O285  1  0.25476000  0.09258000  0.83687000  1.0
  O  O286  1  0.25477000  0.40742000  0.33686000  1.0
  O  O287  1  0.74523000  0.90742000  0.16314000  1.0
  O  O288  1  0.39467000  0.62375000  0.48166000  1.0
  O  O289  1  0.60533000  0.12375000  0.01834000  1.0
  O  O290  1  0.60533000  0.37625000  0.51834000  1.0
  O  O291  1  0.39467000  0.87625000  0.98166000  1.0
  O  O292  1  0.40087000  0.51972000  0.56565000  1.0
  O  O293  1  0.59913000  0.01972000  0.93435000  1.0
  O  O294  1  0.59914000  0.48028000  0.43434000  1.0
  O  O295  1  0.40086000  0.98028000  0.06565000  1.0
  O  O296  1  0.20811000  0.58465000  0.55317000  1.0
  O  O297  1  0.79188000  0.08465000  0.94683000  1.0
  O  O298  1  0.79189000  0.41535000  0.44683000  1.0
  O  O299  1  0.20811000  0.91535000  0.05317000  1.0
  O  O300  1  0.30264000  0.49797000  0.46444000  1.0
  O  O301  1  0.69737000  0.99798000  0.03556000  1.0
  O  O302  1  0.69736000  0.50203000  0.53556000  1.0
  O  O303  1  0.30263000  0.00202000  0.96444000  1.0
