# generated using pymatgen
data_CdH10C14N4O3
_symmetry_space_group_name_H-M   'P 1'
_cell_length_a   7.28667000
_cell_length_b   10.79580000
_cell_length_c   16.36260000
_cell_angle_alpha   98.32090000
_cell_angle_beta   89.99940000
_cell_angle_gamma   89.99940000
_symmetry_Int_Tables_number   1
_chemical_formula_structural   CdH10C14N4O3
_chemical_formula_sum   'Cd4 H40 C56 N16 O12'
_cell_volume   1273.62103295
_cell_formula_units_Z   4
loop_
 _symmetry_equiv_pos_site_id
 _symmetry_equiv_pos_as_xyz
  1  'x, y, z'
loop_
 _atom_site_type_symbol
 _atom_site_label
 _atom_site_symmetry_multiplicity
 _atom_site_fract_x
 _atom_site_fract_y
 _atom_site_fract_z
 _atom_site_occupancy
  Cd  Cd0  1  0.46703000  0.10381000  0.11727000  1.0
  Cd  Cd1  1  0.96703000  0.39620000  0.88273000  1.0
  Cd  Cd2  1  0.53296000  0.89620000  0.88273000  1.0
  Cd  Cd3  1  0.03296000  0.60380000  0.11727000  1.0
  H  H4  1  0.16241000  0.44050000  0.33493000  1.0
  H  H5  1  0.66240000  0.05950000  0.66507000  1.0
  H  H6  1  0.83761000  0.55950000  0.66507000  1.0
  H  H7  1  0.33759000  0.94049000  0.33493000  1.0
  H  H8  1  0.53913000  0.16448000  0.39875000  1.0
  H  H9  1  0.03912000  0.33552000  0.60125000  1.0
  H  H10  1  0.46088000  0.83552000  0.60125000  1.0
  H  H11  1  0.96087000  0.66448000  0.39876000  1.0
  H  H12  1  0.53748000  0.26345000  0.54333000  1.0
  H  H13  1  0.03748000  0.23654000  0.45667000  1.0
  H  H14  1  0.46252000  0.73655000  0.45667000  1.0
  H  H15  1  0.96252000  0.76346000  0.54334000  1.0
  H  H16  1  0.15239000  0.53859000  0.47932000  1.0
  H  H17  1  0.65239000  0.96141000  0.52068000  1.0
  H  H18  1  0.84762000  0.46141000  0.52068000  1.0
  H  H19  1  0.34761000  0.03859000  0.47932000  1.0
  H  H20  1  0.51616000  0.33256000  0.65783000  1.0
  H  H21  1  0.01617000  0.16743000  0.34217000  1.0
  H  H22  1  0.48384000  0.66743000  0.34217000  1.0
  H  H23  1  0.98386000  0.83256000  0.65784000  1.0
  H  H24  1  0.15376000  0.61950000  0.59325000  1.0
  H  H25  1  0.65376000  0.88050000  0.40675000  1.0
  H  H26  1  0.84625000  0.38050000  0.40675000  1.0
  H  H27  1  0.34624000  0.11950000  0.59325000  1.0
  H  H28  1  0.49088000  0.42060000  0.80358000  1.0
  H  H29  1  0.99089000  0.07940000  0.19642000  1.0
  H  H30  1  0.50910000  0.57940000  0.19642000  1.0
  H  H31  1  0.00912000  0.92061000  0.80358000  1.0
  H  H32  1  0.25388000  0.87999000  0.06456000  1.0
  H  H33  1  0.75388000  0.62000000  0.93544000  1.0
  H  H34  1  0.74611000  0.12000000  0.93544000  1.0
  H  H35  1  0.24611000  0.38000000  0.06456000  1.0
  H  H36  1  0.24800000  0.89748000  0.16078000  1.0
  H  H37  1  0.74799000  0.60252000  0.83922000  1.0
  H  H38  1  0.75200000  0.10252000  0.83922000  1.0
  H  H39  1  0.25201000  0.39749000  0.16078000  1.0
  H  H40  1  0.12685000  0.70545000  0.73946000  1.0
  H  H41  1  0.62684000  0.79455000  0.26053000  1.0
  H  H42  1  0.87314000  0.29455000  0.26053000  1.0
  H  H43  1  0.37314000  0.20546000  0.73947000  1.0
  C  C44  1  0.36027000  0.23102000  0.27015000  1.0
  C  C45  1  0.86026000  0.26899000  0.72985000  1.0
  C  C46  1  0.63974000  0.76899000  0.72985000  1.0
  C  C47  1  0.13974000  0.73101000  0.27015000  1.0
  C  C48  1  0.24090000  0.39981000  0.38115000  1.0
  C  C49  1  0.74089000  0.10019000  0.61885000  1.0
  C  C50  1  0.75912000  0.60020000  0.61885000  1.0
  C  C51  1  0.25911000  0.89980000  0.38115000  1.0
  C  C52  1  0.45224000  0.24535000  0.41787000  1.0
  C  C53  1  0.95223000  0.25465000  0.58213000  1.0
  C  C54  1  0.54777000  0.75465000  0.58212000  1.0
  C  C55  1  0.04777000  0.74535000  0.41788000  1.0
  C  C56  1  0.44955000  0.30205000  0.49950000  1.0
  C  C57  1  0.94954000  0.19794000  0.50050000  1.0
  C  C58  1  0.55046000  0.69795000  0.50050000  1.0
  C  C59  1  0.05045000  0.80206000  0.49950000  1.0
  C  C60  1  0.34742000  0.29258000  0.35752000  1.0
  C  C61  1  0.84740000  0.20742000  0.64247000  1.0
  C  C62  1  0.65260000  0.70742000  0.64248000  1.0
  C  C63  1  0.15259000  0.79257000  0.35753000  1.0
  C  C64  1  0.23663000  0.45543000  0.46346000  1.0
  C  C65  1  0.73663000  0.04457000  0.53654000  1.0
  C  C66  1  0.76338000  0.54457000  0.53654000  1.0
  C  C67  1  0.26337000  0.95543000  0.46346000  1.0
  C  C68  1  0.34005000  0.40810000  0.52490000  1.0
  C  C69  1  0.84004000  0.09189000  0.47509000  1.0
  C  C70  1  0.65996000  0.59190000  0.47509000  1.0
  C  C71  1  0.15996000  0.90810000  0.52491000  1.0
  C  C72  1  0.33307000  0.46600000  0.61270000  1.0
  C  C73  1  0.83307000  0.03399000  0.38730000  1.0
  C  C74  1  0.66694000  0.53399000  0.38730000  1.0
  C  C75  1  0.16694000  0.96601000  0.61270000  1.0
  C  C76  1  0.42846000  0.41388000  0.67439000  1.0
  C  C77  1  0.92846000  0.08611000  0.32561000  1.0
  C  C78  1  0.57153000  0.58612000  0.32561000  1.0
  C  C79  1  0.07154000  0.91389000  0.67439000  1.0
  C  C80  1  0.22753000  0.57361000  0.63825000  1.0
  C  C81  1  0.72753000  0.92639000  0.36175000  1.0
  C  C82  1  0.77247000  0.42639000  0.36175000  1.0
  C  C83  1  0.27247000  0.07361000  0.63825000  1.0
  C  C84  1  0.41472000  0.46320000  0.75751000  1.0
  C  C85  1  0.91472000  0.03680000  0.24248000  1.0
  C  C86  1  0.58527000  0.53679000  0.24248000  1.0
  C  C87  1  0.08528000  0.96321000  0.75752000  1.0
  C  C88  1  0.30526000  0.56888000  0.78158000  1.0
  C  C89  1  0.80526000  0.93112000  0.21842000  1.0
  C  C90  1  0.69473000  0.43112000  0.21842000  1.0
  C  C91  1  0.19474000  0.06888000  0.78157000  1.0
  C  C92  1  0.27511000  0.61956000  0.86873000  1.0
  C  C93  1  0.77511000  0.88044000  0.13126000  1.0
  C  C94  1  0.72489000  0.38044000  0.13126000  1.0
  C  C95  1  0.22489000  0.11957000  0.86874000  1.0
  C  C96  1  0.21323000  0.62411000  0.72101000  1.0
  C  C97  1  0.71323000  0.87589000  0.27899000  1.0
  C  C98  1  0.78677000  0.37589000  0.27898000  1.0
  C  C99  1  0.28677000  0.12412000  0.72102000  1.0
  N  N100  1  0.18080000  0.55935000  0.92198000  1.0
  N  N101  1  0.68080000  0.94066000  0.07802000  1.0
  N  N102  1  0.81919000  0.44066000  0.07802000  1.0
  N  N103  1  0.31918000  0.05934000  0.92198000  1.0
  N  N104  1  0.32278000  0.73443000  0.90685000  1.0
  N  N105  1  0.82279000  0.76558000  0.09315000  1.0
  N  N106  1  0.67722000  0.26558000  0.09315000  1.0
  N  N107  1  0.17721000  0.23442000  0.90685000  1.0
  N  N108  1  0.25680000  0.74383000  0.98400000  1.0
  N  N109  1  0.75681000  0.75617000  0.01600000  1.0
  N  N110  1  0.74319000  0.25618000  0.01600000  1.0
  N  N111  1  0.24319000  0.24383000  0.98400000  1.0
  N  N112  1  0.17194000  0.63960000  0.99281000  1.0
  N  N113  1  0.67195000  0.86040000  0.00719000  1.0
  N  N114  1  0.82805000  0.36041000  0.00719000  1.0
  N  N115  1  0.32804000  0.13960000  0.99281000  1.0
  O  O116  1  0.26805000  0.27110000  0.21312000  1.0
  O  O117  1  0.76803000  0.22890000  0.78688000  1.0
  O  O118  1  0.73197000  0.72891000  0.78688000  1.0
  O  O119  1  0.23195000  0.77110000  0.21312000  1.0
  O  O120  1  0.46872000  0.13663000  0.25538000  1.0
  O  O121  1  0.96870000  0.36337000  0.74462000  1.0
  O  O122  1  0.53129000  0.86337000  0.74462000  1.0
  O  O123  1  0.03130000  0.63662000  0.25539000  1.0
  O  O124  1  0.24746000  0.94618000  0.11354000  1.0
  O  O125  1  0.74745000  0.55382000  0.88646000  1.0
  O  O126  1  0.75254000  0.05381000  0.88646000  1.0
  O  O127  1  0.25254000  0.44619000  0.11353000  1.0
