# generated using pymatgen
data_YH6C5O7
_symmetry_space_group_name_H-M   'P 1'
_cell_length_a   6.59531000
_cell_length_b   7.74730000
_cell_length_c   7.95353000
_cell_angle_alpha   100.46800000
_cell_angle_beta   100.81200000
_cell_angle_gamma   102.93400000
_symmetry_Int_Tables_number   1
_chemical_formula_structural   YH6C5O7
_chemical_formula_sum   'Y2 H12 C10 O14'
_cell_volume   378.28227436
_cell_formula_units_Z   2
loop_
 _symmetry_equiv_pos_site_id
 _symmetry_equiv_pos_as_xyz
  1  'x, y, z'
loop_
 _atom_site_type_symbol
 _atom_site_label
 _atom_site_symmetry_multiplicity
 _atom_site_fract_x
 _atom_site_fract_y
 _atom_site_fract_z
 _atom_site_occupancy
  Y  Y0  1  0.54848000  0.62884000  0.80644000  1.0
  Y  Y1  1  0.45152000  0.37117000  0.19356000  1.0
  H  H2  1  0.90801000  0.21884000  0.86677000  1.0
  H  H3  1  0.09199000  0.78115000  0.13323000  1.0
  H  H4  1  0.03353000  0.07081000  0.76411000  1.0
  H  H5  1  0.96648000  0.92919000  0.23588000  1.0
  H  H6  1  0.85480000  0.13715000  0.46420000  1.0
  H  H7  1  0.14521000  0.86285000  0.53580000  1.0
  H  H8  1  0.69232000  0.00478000  0.57119000  1.0
  H  H9  1  0.30768000  0.99522000  0.42881000  1.0
  H  H10  1  0.87184000  0.66195000  0.59164000  1.0
  H  H11  1  0.12816000  0.33805000  0.40835000  1.0
  H  H12  1  0.02567000  0.73336000  0.78668000  1.0
  H  H13  1  0.97433000  0.26664000  0.21331000  1.0
  C  C14  1  0.15952000  0.34639000  0.76640000  1.0
  C  C15  1  0.84048000  0.65361000  0.23360000  1.0
  C  C16  1  0.97148000  0.18907000  0.74992000  1.0
  C  C17  1  0.02852000  0.81093000  0.25008000  1.0
  C  C18  1  0.79398000  0.14240000  0.58380000  1.0
  C  C19  1  0.20602000  0.85761000  0.41620000  1.0
  C  C20  1  0.64929000  0.26921000  0.58472000  1.0
  C  C21  1  0.35072000  0.73080000  0.41529000  1.0
  C  C22  1  0.37720000  0.96230000  0.97962000  1.0
  C  C23  1  0.62279000  0.03768000  0.02038000  1.0
  O  O24  1  0.29904000  0.40862000  0.91556000  1.0
  O  O25  1  0.70096000  0.59138000  0.08444000  1.0
  O  O26  1  0.19111000  0.42093000  0.64049000  1.0
  O  O27  1  0.80890000  0.57907000  0.35951000  1.0
  O  O28  1  0.63845000  0.35890000  0.73105000  1.0
  O  O29  1  0.36156000  0.64110000  0.26894000  1.0
  O  O30  1  0.53859000  0.27599000  0.43738000  1.0
  O  O31  1  0.46140000  0.72400000  0.56262000  1.0
  O  O32  1  0.30023000  0.79702000  0.89355000  1.0
  O  O33  1  0.69976000  0.20299000  0.10646000  1.0
  O  O34  1  0.27324000  0.06935000  0.03431000  1.0
  O  O35  1  0.72674000  0.93066000  0.96570000  1.0
  O  O36  1  0.87636000  0.70970000  0.71720000  1.0
  O  O37  1  0.12363000  0.29030000  0.28280000  1.0
