# generated using pymatgen
data_LiH6C6NO3
_symmetry_space_group_name_H-M   'P 1'
_cell_length_a   6.20240000
_cell_length_b   6.62347247
_cell_length_c   9.88970804
_cell_angle_alpha   101.63368902
_cell_angle_beta   99.87566261
_cell_angle_gamma   115.09035054
_symmetry_Int_Tables_number   1
_chemical_formula_structural   LiH6C6NO3
_chemical_formula_sum   'Li2 H12 C12 N2 O6'
_cell_volume   344.92760020
_cell_formula_units_Z   2
loop_
 _symmetry_equiv_pos_site_id
 _symmetry_equiv_pos_as_xyz
  1  'x, y, z'
loop_
 _atom_site_type_symbol
 _atom_site_label
 _atom_site_symmetry_multiplicity
 _atom_site_fract_x
 _atom_site_fract_y
 _atom_site_fract_z
 _atom_site_occupancy
  Li  Li0  1  0.23906000  0.56302000  0.02029000  1.0
  Li  Li1  1  0.71874000  0.54272000  0.97958000  1.0
  H  H2  1  0.91426000  0.38722000  0.15284000  1.0
  H  H3  1  0.26114000  0.23444000  0.84714000  1.0
  H  H4  1  0.83515000  0.19676000  0.00108000  1.0
  H  H5  1  0.33426000  0.19597000  0.99889000  1.0
  H  H6  1  0.53710000  0.92325000  0.46440000  1.0
  H  H7  1  0.57307000  0.45890000  0.53557000  1.0
  H  H8  1  0.19806000  0.98531000  0.35542000  1.0
  H  H9  1  0.34331000  0.63064000  0.64468000  1.0
  H  H10  1  0.78194000  0.07625000  0.72710000  1.0
  H  H11  1  0.55531000  0.34883000  0.27287000  1.0
  H  H12  1  0.42284000  0.14922000  0.62433000  1.0
  H  H13  1  0.29925000  0.52542000  0.37575000  1.0
  C  C14  1  0.73304000  0.97088000  0.49696000  1.0
  C  C15  1  0.73647000  0.47394000  0.50303000  1.0
  C  C16  1  0.85019000  0.94332000  0.39109000  1.0
  C  C17  1  0.95956000  0.55264000  0.60892000  1.0
  C  C18  1  0.10280000  0.00700000  0.43587000  1.0
  C  C19  1  0.16753000  0.57171000  0.56417000  1.0
  C  C20  1  0.70211000  0.83566000  0.23244000  1.0
  C  C21  1  0.96994000  0.60380000  0.76754000  1.0
  C  C22  1  0.86836000  0.05555000  0.64151000  1.0
  C  C23  1  0.72733000  0.41396000  0.35850000  1.0
  C  C24  1  0.22517000  0.09321000  0.58308000  1.0
  C  C25  1  0.14274000  0.51059000  0.41695000  1.0
  N  N26  1  0.11059000  0.11632000  0.68408000  1.0
  N  N27  1  0.92708000  0.43233000  0.31593000  1.0
  O  O28  1  0.47060000  0.77080000  0.20432000  1.0
  O  O29  1  0.76652000  0.56698000  0.79563000  1.0
  O  O30  1  0.81912000  0.81261000  0.14214000  1.0
  O  O31  1  0.17718000  0.67104000  0.85790000  1.0
  O  O32  1  0.90195000  0.36482000  0.04349000  1.0
  O  O33  1  0.35844000  0.32152000  0.95639000  1.0
