# generated using pymatgen
data_ZnH14C14(NO)4
_symmetry_space_group_name_H-M   'P 1'
_cell_length_a   7.17663000
_cell_length_b   9.94667000
_cell_length_c   10.51555521
_cell_angle_alpha   89.99952227
_cell_angle_beta   72.45331506
_cell_angle_gamma   89.99930000
_symmetry_Int_Tables_number   1
_chemical_formula_structural   ZnH14C14(NO)4
_chemical_formula_sum   'Zn2 H28 C28 N8 O8'
_cell_volume   715.71190863
_cell_formula_units_Z   2
loop_
 _symmetry_equiv_pos_site_id
 _symmetry_equiv_pos_as_xyz
  1  'x, y, z'
loop_
 _atom_site_type_symbol
 _atom_site_label
 _atom_site_symmetry_multiplicity
 _atom_site_fract_x
 _atom_site_fract_y
 _atom_site_fract_z
 _atom_site_occupancy
  Zn  Zn0  1  0.71714000  0.38364000  0.76308000  1.0
  Zn  Zn1  1  0.28286000  0.88365000  0.23692000  1.0
  H  H2  1  0.56694000  0.12696000  0.90005000  1.0
  H  H3  1  0.43306000  0.62697000  0.09995000  1.0
  H  H4  1  0.57822000  0.88206000  0.85608000  1.0
  H  H5  1  0.42178000  0.38206000  0.14392000  1.0
  H  H6  1  0.92475000  0.18907000  0.38377000  1.0
  H  H7  1  0.07524000  0.68906000  0.61623000  1.0
  H  H8  1  0.73575000  0.80228000  0.61876000  1.0
  H  H9  1  0.26425000  0.30228000  0.38124000  1.0
  H  H10  1  0.85427000  0.97322000  0.43834000  1.0
  H  H11  1  0.14574000  0.47323000  0.56165000  1.0
  H  H12  1  0.85343000  0.26607000  0.95049000  1.0
  H  H13  1  0.14658000  0.76607000  0.04952000  1.0
  H  H14  1  0.03109000  0.30771000  0.81480000  1.0
  H  H15  1  0.96892000  0.80771000  0.18520000  1.0
  H  H16  1  0.87363000  0.35321000  0.25084000  1.0
  H  H17  1  0.12637000  0.85320000  0.74916000  1.0
  H  H18  1  0.77747000  0.59507000  0.22845000  1.0
  H  H19  1  0.22253000  0.09507000  0.77155000  1.0
  H  H20  1  0.61979000  0.72696000  0.43380000  1.0
  H  H21  1  0.38020000  0.22695000  0.56620000  1.0
  H  H22  1  0.57961000  0.61577000  0.65729000  1.0
  H  H23  1  0.42039000  0.11577000  0.34271000  1.0
  H  H24  1  0.14868000  0.52800000  0.04676000  1.0
  H  H25  1  0.85132000  0.02801000  0.95324000  1.0
  H  H26  1  0.09898000  0.35389000  0.05948000  1.0
  H  H27  1  0.90102000  0.85389000  0.94053000  1.0
  H  H28  1  0.81998000  0.48570000  0.02783000  1.0
  H  H29  1  0.18002000  0.98570000  0.97217000  1.0
  C  C30  1  0.63002000  0.08849000  0.79890000  1.0
  C  C31  1  0.36998000  0.58849000  0.20110000  1.0
  C  C32  1  0.63573000  0.95177000  0.77390000  1.0
  C  C33  1  0.36426000  0.45178000  0.22610000  1.0
  C  C34  1  0.72211000  0.90892000  0.64249000  1.0
  C  C35  1  0.27788000  0.40892000  0.35751000  1.0
  C  C36  1  0.79163000  0.00261000  0.54229000  1.0
  C  C37  1  0.20837000  0.50261000  0.45771000  1.0
  C  C38  1  0.77911000  0.14034000  0.57573000  1.0
  C  C39  1  0.22089000  0.64034000  0.42427000  1.0
  C  C40  1  0.78938000  0.36456000  0.46492000  1.0
  C  C41  1  0.21063000  0.86456000  0.53508000  1.0
  C  C42  1  0.81479000  0.41867000  0.33692000  1.0
  C  C43  1  0.18520000  0.91867000  0.66309000  1.0
  C  C44  1  0.75875000  0.55004000  0.32598000  1.0
  C  C45  1  0.24124000  0.05004000  0.67403000  1.0
  C  C46  1  0.67018000  0.62495000  0.44132000  1.0
  C  C47  1  0.32982000  0.12494000  0.55868000  1.0
  C  C48  1  0.64899000  0.56450000  0.56328000  1.0
  C  C49  1  0.35100000  0.06450000  0.43672000  1.0
  C  C50  1  0.31069000  0.41073000  0.87755000  1.0
  C  C51  1  0.68931000  0.91073000  0.12245000  1.0
  C  C52  1  0.12599000  0.44013000  0.99075000  1.0
  C  C53  1  0.87401000  0.94013000  0.00925000  1.0
  C  C54  1  0.97963000  0.58194000  0.84649000  1.0
  C  C55  1  0.02037000  0.08194000  0.15351000  1.0
  C  C56  1  0.94785000  0.46098000  0.94224000  1.0
  C  C57  1  0.05214000  0.96099000  0.05777000  1.0
  N  N58  1  0.70349000  0.18147000  0.70316000  1.0
  N  N59  1  0.29652000  0.68148000  0.29684000  1.0
  N  N60  1  0.84691000  0.23269000  0.47355000  1.0
  N  N61  1  0.15309000  0.73269000  0.52645000  1.0
  N  N62  1  0.71354000  0.43892000  0.57574000  1.0
  N  N63  1  0.28646000  0.93891000  0.42426000  1.0
  N  N64  1  0.89811000  0.33902000  0.87846000  1.0
  N  N65  1  0.10189000  0.83903000  0.12154000  1.0
  O  O66  1  0.29927000  0.36025000  0.77062000  1.0
  O  O67  1  0.70074000  0.86025000  0.22938000  1.0
  O  O68  1  0.47359000  0.43692000  0.90199000  1.0
  O  O69  1  0.52641000  0.93693000  0.09801000  1.0
  O  O70  1  0.90286000  0.57598000  0.75086000  1.0
  O  O71  1  0.09714000  0.07599000  0.24914000  1.0
  O  O72  1  0.07753000  0.67899000  0.86887000  1.0
  O  O73  1  0.92247000  0.17900000  0.13113000  1.0
