# generated using pymatgen
data_CuH17C21N3O5
_symmetry_space_group_name_H-M   'P 1'
_cell_length_a   7.30071000
_cell_length_b   11.55690000
_cell_length_c   23.60070000
_cell_angle_alpha   89.99950000
_cell_angle_beta   90.00000000
_cell_angle_gamma   95.60250000
_symmetry_Int_Tables_number   1
_chemical_formula_structural   CuH17C21N3O5
_chemical_formula_sum   'Cu4 H68 C84 N12 O20'
_cell_volume   1981.76339918
_cell_formula_units_Z   4
loop_
 _symmetry_equiv_pos_site_id
 _symmetry_equiv_pos_as_xyz
  1  'x, y, z'
loop_
 _atom_site_type_symbol
 _atom_site_label
 _atom_site_symmetry_multiplicity
 _atom_site_fract_x
 _atom_site_fract_y
 _atom_site_fract_z
 _atom_site_occupancy
  Cu  Cu0  1  0.67763000  0.96814000  0.11159000  1.0
  Cu  Cu1  1  0.82233000  0.03187000  0.61159000  1.0
  Cu  Cu2  1  0.32235000  0.03188000  0.88841000  1.0
  Cu  Cu3  1  0.17765000  0.96813000  0.38841000  1.0
  H  H4  1  0.69319000  0.95568000  0.95259000  1.0
  H  H5  1  0.80683000  0.04433000  0.45259000  1.0
  H  H6  1  0.30680000  0.04433000  0.04741000  1.0
  H  H7  1  0.19317000  0.95568000  0.54741000  1.0
  H  H8  1  0.97685000  0.28377000  0.04358000  1.0
  H  H9  1  0.52309000  0.71629000  0.54359000  1.0
  H  H10  1  0.02307000  0.71627000  0.95641000  1.0
  H  H11  1  0.47690000  0.28374000  0.45641000  1.0
  H  H12  1  0.12069000  0.43831000  0.97931000  1.0
  H  H13  1  0.37921000  0.56174000  0.47933000  1.0
  H  H14  1  0.87920000  0.56173000  0.02068000  1.0
  H  H15  1  0.62073000  0.43828000  0.52068000  1.0
  H  H16  1  0.13753000  0.40194000  0.87619000  1.0
  H  H17  1  0.36242000  0.59808000  0.37621000  1.0
  H  H18  1  0.86241000  0.59809000  0.12380000  1.0
  H  H19  1  0.63754000  0.40192000  0.62380000  1.0
  H  H20  1  0.01003000  0.21038000  0.83632000  1.0
  H  H21  1  0.48997000  0.78962000  0.33632000  1.0
  H  H22  1  0.98996000  0.78962000  0.16368000  1.0
  H  H23  1  0.51003000  0.21037000  0.66369000  1.0
  H  H24  1  0.86490000  0.05797000  0.89962000  1.0
  H  H25  1  0.63510000  0.94204000  0.39962000  1.0
  H  H26  1  0.13511000  0.94203000  0.10038000  1.0
  H  H27  1  0.36487000  0.05797000  0.60038000  1.0
  H  H28  1  0.57560000  0.77885000  0.97591000  1.0
  H  H29  1  0.92438000  0.22118000  0.47592000  1.0
  H  H30  1  0.42435000  0.22118000  0.02408000  1.0
  H  H31  1  0.07560000  0.77884000  0.52409000  1.0
  H  H32  1  0.29295000  0.46284000  0.15755000  1.0
  H  H33  1  0.20705000  0.53712000  0.65757000  1.0
  H  H34  1  0.70710000  0.53714000  0.84244000  1.0
  H  H35  1  0.79297000  0.46285000  0.34244000  1.0
  H  H36  1  0.30454000  0.43335000  0.05561000  1.0
  H  H37  1  0.19537000  0.56668000  0.55563000  1.0
  H  H38  1  0.69539000  0.56668000  0.94438000  1.0
  H  H39  1  0.80456000  0.43333000  0.44438000  1.0
  H  H40  1  0.42326000  0.59647000  0.99140000  1.0
  H  H41  1  0.07666000  0.40356000  0.49142000  1.0
  H  H42  1  0.57667000  0.40355000  0.00859000  1.0
  H  H43  1  0.92326000  0.59647000  0.50859000  1.0
  H  H44  1  0.15861000  0.56002000  0.22848000  1.0
  H  H45  1  0.34155000  0.43985000  0.72846000  1.0
  H  H46  1  0.84159000  0.43990000  0.77155000  1.0
  H  H47  1  0.65860000  0.56006000  0.27152000  1.0
  H  H48  1  0.28406000  0.62522000  0.28731000  1.0
  H  H49  1  0.21619000  0.37463000  0.78731000  1.0
  H  H50  1  0.71622000  0.37469000  0.71270000  1.0
  H  H51  1  0.78404000  0.62528000  0.21269000  1.0
  H  H52  1  0.36961000  0.50591000  0.24985000  1.0
  H  H53  1  0.13063000  0.49399000  0.74989000  1.0
  H  H54  1  0.63064000  0.49403000  0.75013000  1.0
  H  H55  1  0.86959000  0.50594000  0.25013000  1.0
  H  H56  1  0.80300000  0.19989000  0.15994000  1.0
  H  H57  1  0.69691000  0.80014000  0.65994000  1.0
  H  H58  1  0.19693000  0.80012000  0.84006000  1.0
  H  H59  1  0.30303000  0.19987000  0.34005000  1.0
  H  H60  1  0.85759000  0.28081000  0.25861000  1.0
  H  H61  1  0.64234000  0.71921000  0.75861000  1.0
  H  H62  1  0.14231000  0.71920000  0.74139000  1.0
  H  H63  1  0.35758000  0.28080000  0.24138000  1.0
  H  H64  1  0.79577000  0.92877000  0.32017000  1.0
  H  H65  1  0.70425000  0.07124000  0.82019000  1.0
  H  H66  1  0.20427000  0.07124000  0.67982000  1.0
  H  H67  1  0.29573000  0.92877000  0.17982000  1.0
  H  H68  1  0.71538000  0.86352000  0.22134000  1.0
  H  H69  1  0.78464000  0.13649000  0.72134000  1.0
  H  H70  1  0.28466000  0.13648000  0.77866000  1.0
  H  H71  1  0.21539000  0.86351000  0.27866000  1.0
  C  C72  1  0.81841000  0.07630000  0.01548000  1.0
  C  C73  1  0.68157000  0.92373000  0.51547000  1.0
  C  C74  1  0.18157000  0.92372000  0.98453000  1.0
  C  C75  1  0.31842000  0.07629000  0.48453000  1.0
  C  C76  1  0.90955000  0.16188000  0.97585000  1.0
  C  C77  1  0.59042000  0.83815000  0.47585000  1.0
  C  C78  1  0.09042000  0.83814000  0.02415000  1.0
  C  C79  1  0.40956000  0.16186000  0.52415000  1.0
  C  C80  1  0.98423000  0.26912000  0.99809000  1.0
  C  C81  1  0.51572000  0.73092000  0.49809000  1.0
  C  C82  1  0.01572000  0.73091000  0.00191000  1.0
  C  C83  1  0.48426000  0.26910000  0.50191000  1.0
  C  C84  1  0.06481000  0.35476000  0.96211000  1.0
  C  C85  1  0.43512000  0.64528000  0.46211000  1.0
  C  C86  1  0.93512000  0.64528000  0.03789000  1.0
  C  C87  1  0.56484000  0.35474000  0.53789000  1.0
  C  C88  1  0.07393000  0.33409000  0.90393000  1.0
  C  C89  1  0.42603000  0.66593000  0.40393000  1.0
  C  C90  1  0.92602000  0.66593000  0.09607000  1.0
  C  C91  1  0.57394000  0.33408000  0.59607000  1.0
  C  C92  1  0.00329000  0.22691000  0.88173000  1.0
  C  C93  1  0.49669000  0.77310000  0.38174000  1.0
  C  C94  1  0.99669000  0.77310000  0.11826000  1.0
  C  C95  1  0.50329000  0.22690000  0.61827000  1.0
  C  C96  1  0.92152000  0.14070000  0.91745000  1.0
  C  C97  1  0.57846000  0.85931000  0.41744000  1.0
  C  C98  1  0.07847000  0.85931000  0.08255000  1.0
  C  C99  1  0.42152000  0.14069000  0.58255000  1.0
  C  C100  1  0.57264000  0.80159000  0.02109000  1.0
  C  C101  1  0.92734000  0.19843000  0.52110000  1.0
  C  C102  1  0.42733000  0.19843000  0.97891000  1.0
  C  C103  1  0.07264000  0.80158000  0.47891000  1.0
  C  C104  1  0.49069000  0.71721000  0.05984000  1.0
  C  C105  1  0.00930000  0.28279000  0.55986000  1.0
  C  C106  1  0.50929000  0.28280000  0.94015000  1.0
  C  C107  1  0.99069000  0.71721000  0.44015000  1.0
  C  C108  1  0.48584000  0.73659000  0.11968000  1.0
  C  C109  1  0.01416000  0.26339000  0.61969000  1.0
  C  C110  1  0.51416000  0.26341000  0.88032000  1.0
  C  C111  1  0.98586000  0.73659000  0.38032000  1.0
  C  C112  1  0.40604000  0.64295000  0.15445000  1.0
  C  C113  1  0.09398000  0.35702000  0.65446000  1.0
  C  C114  1  0.59402000  0.35703000  0.84555000  1.0
  C  C115  1  0.90607000  0.64296000  0.34554000  1.0
  C  C116  1  0.34587000  0.53590000  0.13124000  1.0
  C  C117  1  0.15413000  0.46408000  0.63127000  1.0
  C  C118  1  0.65417000  0.46409000  0.86875000  1.0
  C  C119  1  0.84589000  0.53591000  0.36874000  1.0
  C  C120  1  0.35264000  0.51868000  0.07223000  1.0
  C  C121  1  0.14732000  0.48132000  0.57226000  1.0
  C  C122  1  0.64734000  0.48133000  0.92776000  1.0
  C  C123  1  0.85265000  0.51868000  0.42776000  1.0
  C  C124  1  0.41979000  0.60814000  0.03722000  1.0
  C  C125  1  0.08017000  0.39187000  0.53723000  1.0
  C  C126  1  0.58017000  0.39188000  0.96278000  1.0
  C  C127  1  0.91980000  0.60814000  0.46278000  1.0
  C  C128  1  0.29671000  0.58480000  0.24576000  1.0
  C  C129  1  0.20348000  0.41508000  0.74577000  1.0
  C  C130  1  0.70351000  0.41513000  0.75424000  1.0
  C  C131  1  0.79670000  0.58484000  0.25423000  1.0
  C  C132  1  0.79781000  0.14386000  0.19716000  1.0
  C  C133  1  0.70212000  0.85615000  0.69717000  1.0
  C  C134  1  0.20215000  0.85616000  0.80283000  1.0
  C  C135  1  0.29782000  0.14385000  0.30283000  1.0
  C  C136  1  0.82965000  0.18758000  0.25154000  1.0
  C  C137  1  0.67029000  0.81244000  0.75154000  1.0
  C  C138  1  0.17029000  0.81243000  0.74846000  1.0
  C  C139  1  0.32964000  0.18758000  0.24846000  1.0
  C  C140  1  0.82548000  0.11091000  0.29752000  1.0
  C  C141  1  0.67449000  0.88910000  0.79752000  1.0
  C  C142  1  0.17450000  0.88909000  0.70248000  1.0
  C  C143  1  0.32545000  0.11091000  0.20247000  1.0
  C  C144  1  0.79039000  0.99209000  0.28633000  1.0
  C  C145  1  0.70961000  0.00791000  0.78634000  1.0
  C  C146  1  0.20963000  0.00792000  0.71366000  1.0
  C  C147  1  0.29036000  0.99208000  0.21366000  1.0
  C  C148  1  0.75298000  0.95470000  0.23136000  1.0
  C  C149  1  0.74702000  0.04532000  0.73136000  1.0
  C  C150  1  0.24704000  0.04530000  0.76863000  1.0
  C  C151  1  0.25297000  0.95470000  0.26864000  1.0
  C  C152  1  0.85371000  0.15320000  0.35826000  1.0
  C  C153  1  0.64629000  0.84680000  0.85826000  1.0
  C  C154  1  0.14628000  0.84680000  0.64174000  1.0
  C  C155  1  0.35367000  0.15320000  0.14173000  1.0
  N  N156  1  0.72813000  0.97719000  0.99573000  1.0
  N  N157  1  0.77186000  0.02284000  0.49573000  1.0
  N  N158  1  0.27185000  0.02283000  0.00427000  1.0
  N  N159  1  0.22813000  0.97718000  0.50428000  1.0
  N  N160  1  0.64821000  0.90409000  0.03648000  1.0
  N  N161  1  0.85176000  0.09592000  0.53648000  1.0
  N  N162  1  0.35177000  0.09593000  0.96352000  1.0
  N  N163  1  0.14822000  0.90408000  0.46353000  1.0
  N  N164  1  0.75600000  0.02917000  0.18738000  1.0
  N  N165  1  0.74396000  0.97085000  0.68738000  1.0
  N  N166  1  0.24398000  0.97083000  0.81262000  1.0
  N  N167  1  0.25602000  0.02916000  0.31262000  1.0
  O  O168  1  0.82368000  0.09551000  0.06880000  1.0
  O  O169  1  0.67628000  0.90452000  0.56880000  1.0
  O  O170  1  0.17630000  0.90451000  0.93120000  1.0
  O  O171  1  0.32369000  0.09550000  0.43120000  1.0
  O  O172  1  0.54707000  0.83279000  0.14543000  1.0
  O  O173  1  0.95294000  0.16719000  0.64544000  1.0
  O  O174  1  0.45293000  0.16721000  0.85457000  1.0
  O  O175  1  0.04708000  0.83279000  0.35456000  1.0
  O  O176  1  0.39542000  0.67017000  0.21097000  1.0
  O  O177  1  0.10466000  0.32977000  0.71098000  1.0
  O  O178  1  0.60472000  0.32979000  0.78903000  1.0
  O  O179  1  0.89545000  0.67018000  0.28902000  1.0
  O  O180  1  0.83014000  0.25617000  0.36962000  1.0
  O  O181  1  0.66989000  0.74383000  0.86961000  1.0
  O  O182  1  0.16984000  0.74383000  0.63039000  1.0
  O  O183  1  0.33006000  0.25616000  0.13037000  1.0
  O  O184  1  0.89784000  0.07466000  0.39347000  1.0
  O  O185  1  0.60216000  0.92533000  0.89347000  1.0
  O  O186  1  0.10214000  0.92533000  0.60653000  1.0
  O  O187  1  0.39784000  0.07467000  0.10653000  1.0
