# generated using pymatgen
data_Cu3H10C14S2I3N4
_symmetry_space_group_name_H-M   'P 1'
_cell_length_a   8.21794000
_cell_length_b   10.72170000
_cell_length_c   21.86990000
_cell_angle_alpha   89.99920000
_cell_angle_beta   90.00010000
_cell_angle_gamma   90.00000000
_symmetry_Int_Tables_number   1
_chemical_formula_structural   Cu3H10C14S2I3N4
_chemical_formula_sum   'Cu12 H40 C56 S8 I12 N16'
_cell_volume   1926.96317199
_cell_formula_units_Z   4
loop_
 _symmetry_equiv_pos_site_id
 _symmetry_equiv_pos_as_xyz
  1  'x, y, z'
loop_
 _atom_site_type_symbol
 _atom_site_label
 _atom_site_symmetry_multiplicity
 _atom_site_fract_x
 _atom_site_fract_y
 _atom_site_fract_z
 _atom_site_occupancy
  Cu  Cu0  1  0.14592000  0.56930000  0.31929000  1.0
  Cu  Cu1  1  0.35407000  0.06931000  0.68071000  1.0
  Cu  Cu2  1  0.64593000  0.93069000  0.18071000  1.0
  Cu  Cu3  1  0.85407000  0.43069000  0.81929000  1.0
  Cu  Cu4  1  0.85407000  0.43069000  0.68071000  1.0
  Cu  Cu5  1  0.64593000  0.93069000  0.31929000  1.0
  Cu  Cu6  1  0.35408000  0.06931000  0.81929000  1.0
  Cu  Cu7  1  0.14592000  0.56930000  0.18071000  1.0
  Cu  Cu8  1  0.40117000  0.57933000  0.25000000  1.0
  Cu  Cu9  1  0.09883000  0.07933000  0.75000000  1.0
  Cu  Cu10  1  0.90117000  0.92068000  0.25000000  1.0
  Cu  Cu11  1  0.59883000  0.42068000  0.75000000  1.0
  H  H12  1  0.09439000  0.79359000  0.39453000  1.0
  H  H13  1  0.40559000  0.29360000  0.60547000  1.0
  H  H14  1  0.59440000  0.70640000  0.10548000  1.0
  H  H15  1  0.90560000  0.20640000  0.89453000  1.0
  H  H16  1  0.90559000  0.20641000  0.60547000  1.0
  H  H17  1  0.59440000  0.70641000  0.39453000  1.0
  H  H18  1  0.40561000  0.29360000  0.89453000  1.0
  H  H19  1  0.09440000  0.79359000  0.10547000  1.0
  H  H20  1  0.95611000  0.84986000  0.49231000  1.0
  H  H21  1  0.54388000  0.34987000  0.50769000  1.0
  H  H22  1  0.45613000  0.65013000  0.00769000  1.0
  H  H23  1  0.04389000  0.15013000  0.99231000  1.0
  H  H24  1  0.04387000  0.15014000  0.50769000  1.0
  H  H25  1  0.45611000  0.65013000  0.49231000  1.0
  H  H26  1  0.54389000  0.34987000  0.99231000  1.0
  H  H27  1  0.95611000  0.84987000  0.00769000  1.0
  H  H28  1  0.77445000  0.68938000  0.54281000  1.0
  H  H29  1  0.72556000  0.18940000  0.45719000  1.0
  H  H30  1  0.27445000  0.81061000  0.95719000  1.0
  H  H31  1  0.22557000  0.31060000  0.04281000  1.0
  H  H32  1  0.22555000  0.31061000  0.45719000  1.0
  H  H33  1  0.27443000  0.81060000  0.54281000  1.0
  H  H34  1  0.72555000  0.18938000  0.04282000  1.0
  H  H35  1  0.77444000  0.68940000  0.95718000  1.0
  H  H36  1  0.73970000  0.48284000  0.49178000  1.0
  H  H37  1  0.76031000  0.98285000  0.50822000  1.0
  H  H38  1  0.23970000  0.01715000  0.00823000  1.0
  H  H39  1  0.26032000  0.51715000  0.99177000  1.0
  H  H40  1  0.26031000  0.51716000  0.50822000  1.0
  H  H41  1  0.23967000  0.01715000  0.49177000  1.0
  H  H42  1  0.76031000  0.98284000  0.99178000  1.0
  H  H43  1  0.73969000  0.48285000  0.00822000  1.0
  H  H44  1  0.66666667  0.26264000  0.30819000  1.0
  H  H45  1  0.83335000  0.76264000  0.69181000  1.0
  H  H46  1  0.16666000  0.23736000  0.19180000  1.0
  H  H47  1  0.33333333  0.73736000  0.80820000  1.0
  H  H48  1  0.33333333  0.73736000  0.69180000  1.0
  H  H49  1  0.16666000  0.23737000  0.30819000  1.0
  H  H50  1  0.83335000  0.76263000  0.80819000  1.0
  H  H51  1  0.66666667  0.26264000  0.19180000  1.0
  C  C52  1  0.01739000  0.72680000  0.41848000  1.0
  C  C53  1  0.48261000  0.22680000  0.58152000  1.0
  C  C54  1  0.51740000  0.77320000  0.08152000  1.0
  C  C55  1  0.98261000  0.27319000  0.91848000  1.0
  C  C56  1  0.98260000  0.27320000  0.58152000  1.0
  C  C57  1  0.51739000  0.77319000  0.41848000  1.0
  C  C58  1  0.48261000  0.22680000  0.91848000  1.0
  C  C59  1  0.01739000  0.72680000  0.08152000  1.0
  C  C60  1  0.93780000  0.75785000  0.47242000  1.0
  C  C61  1  0.56218000  0.25785000  0.52757000  1.0
  C  C62  1  0.43782000  0.74215000  0.02758000  1.0
  C  C63  1  0.06219000  0.24215000  0.97242000  1.0
  C  C64  1  0.06218000  0.24216000  0.52757000  1.0
  C  C65  1  0.43780000  0.74216000  0.47242000  1.0
  C  C66  1  0.56219000  0.25784000  0.97242000  1.0
  C  C67  1  0.93781000  0.75784000  0.02758000  1.0
  C  C68  1  0.83801000  0.66923000  0.50022000  1.0
  C  C69  1  0.66200000  0.16924000  0.49979000  1.0
  C  C70  1  0.33802000  0.83076000  0.99979000  1.0
  C  C71  1  0.16200000  0.33075000  0.00021000  1.0
  C  C72  1  0.16199000  0.33076000  0.49979000  1.0
  C  C73  1  0.33800000  0.83075000  0.50021000  1.0
  C  C74  1  0.66199000  0.16924000  0.00021000  1.0
  C  C75  1  0.83801000  0.66925000  0.99979000  1.0
  C  C76  1  0.81913000  0.55359000  0.47218000  1.0
  C  C77  1  0.68088000  0.05360000  0.52782000  1.0
  C  C78  1  0.31913000  0.94640000  0.02782000  1.0
  C  C79  1  0.18087000  0.44640000  0.97218000  1.0
  C  C80  1  0.18087000  0.44640000  0.52782000  1.0
  C  C81  1  0.31911000  0.94640000  0.47218000  1.0
  C  C82  1  0.68088000  0.05359000  0.97218000  1.0
  C  C83  1  0.81912000  0.55360000  0.02782000  1.0
  C  C84  1  0.90628000  0.52861000  0.41863000  1.0
  C  C85  1  0.59371000  0.02861000  0.58136000  1.0
  C  C86  1  0.40629000  0.97139000  0.08136000  1.0
  C  C87  1  0.09372000  0.47139000  0.91864000  1.0
  C  C88  1  0.09371000  0.47140000  0.58136000  1.0
  C  C89  1  0.40627000  0.97140000  0.41864000  1.0
  C  C90  1  0.59372000  0.02861000  0.91864000  1.0
  C  C91  1  0.90629000  0.52860000  0.08136000  1.0
  C  C92  1  0.87594000  0.38472000  0.31134000  1.0
  C  C93  1  0.62406000  0.88472000  0.68866000  1.0
  C  C94  1  0.37595000  0.11529000  0.18866000  1.0
  C  C95  1  0.12407000  0.61528000  0.81134000  1.0
  C  C96  1  0.12406000  0.61529000  0.68866000  1.0
  C  C97  1  0.37595000  0.11529000  0.31134000  1.0
  C  C98  1  0.62406000  0.88471000  0.81134000  1.0
  C  C99  1  0.87594000  0.38471000  0.18866000  1.0
  C  C100  1  0.75577000  0.31414000  0.28161000  1.0
  C  C101  1  0.74423000  0.81414000  0.71839000  1.0
  C  C102  1  0.25579000  0.18586000  0.21839000  1.0
  C  C103  1  0.24422000  0.68585000  0.78160000  1.0
  C  C104  1  0.24422000  0.68585000  0.71840000  1.0
  C  C105  1  0.25579000  0.18586000  0.28160000  1.0
  C  C106  1  0.74423000  0.81414000  0.78161000  1.0
  C  C107  1  0.75577000  0.31414000  0.21839000  1.0
  S  S108  1  0.89225000  0.37296000  0.39132000  1.0
  S  S109  1  0.60775000  0.87297000  0.60867000  1.0
  S  S110  1  0.39226000  0.12704000  0.10868000  1.0
  S  S111  1  0.10775000  0.62703000  0.89132000  1.0
  S  S112  1  0.10774000  0.62703000  0.60867000  1.0
  S  S113  1  0.39225000  0.12704000  0.39132000  1.0
  S  S114  1  0.60775000  0.87296000  0.89133000  1.0
  S  S115  1  0.89225000  0.37296000  0.10867000  1.0
  I  I116  1  0.41465000  0.46588000  0.35551000  1.0
  I  I117  1  0.08534000  0.96589000  0.64449000  1.0
  I  I118  1  0.91465000  0.03413000  0.14449000  1.0
  I  I119  1  0.58535000  0.53413000  0.85551000  1.0
  I  I120  1  0.58535000  0.53413000  0.64449000  1.0
  I  I121  1  0.91465000  0.03413000  0.35551000  1.0
  I  I122  1  0.08535000  0.96588000  0.85551000  1.0
  I  I123  1  0.41466000  0.46588000  0.14449000  1.0
  I  I124  1  0.67598000  0.72513000  0.25000000  1.0
  I  I125  1  0.82402000  0.22513000  0.75000000  1.0
  I  I126  1  0.17598000  0.77487000  0.25000000  1.0
  I  I127  1  0.32402000  0.27487000  0.75000000  1.0
  N  N128  1  0.00644000  0.61285000  0.39270000  1.0
  N  N129  1  0.49356000  0.11285000  0.60729000  1.0
  N  N130  1  0.50644000  0.88715000  0.10729000  1.0
  N  N131  1  0.99356000  0.38715000  0.89270000  1.0
  N  N132  1  0.99356000  0.38716000  0.60729000  1.0
  N  N133  1  0.50643000  0.88716000  0.39271000  1.0
  N  N134  1  0.49357000  0.11285000  0.89271000  1.0
  N  N135  1  0.00643000  0.61285000  0.10729000  1.0
  N  N136  1  0.98849000  0.45055000  0.28083000  1.0
  N  N137  1  0.51152000  0.95056000  0.71917000  1.0
  N  N138  1  0.48850000  0.04944000  0.21917000  1.0
  N  N139  1  0.01151000  0.54944000  0.78083000  1.0
  N  N140  1  0.01151000  0.54944000  0.71917000  1.0
  N  N141  1  0.48850000  0.04945000  0.28083000  1.0
  N  N142  1  0.51152000  0.95056000  0.78083000  1.0
  N  N143  1  0.98849000  0.45055000  0.21917000  1.0
