# generated using pymatgen
data_CuH16C13SN4(OF)3
_symmetry_space_group_name_H-M   'P 1'
_cell_length_a   8.96550000
_cell_length_b   9.36376000
_cell_length_c   11.92030000
_cell_angle_alpha   80.32700000
_cell_angle_beta   69.16050000
_cell_angle_gamma   62.50390000
_symmetry_Int_Tables_number   1
_chemical_formula_structural   CuH16C13SN4(OF)3
_chemical_formula_sum   'Cu2 H32 C26 S2 N8 O6 F6'
_cell_volume   829.59964093
_cell_formula_units_Z   2
loop_
 _symmetry_equiv_pos_site_id
 _symmetry_equiv_pos_as_xyz
  1  'x, y, z'
loop_
 _atom_site_type_symbol
 _atom_site_label
 _atom_site_symmetry_multiplicity
 _atom_site_fract_x
 _atom_site_fract_y
 _atom_site_fract_z
 _atom_site_occupancy
  Cu  Cu0  1  0.15762000  0.67376000  0.74489000  1.0
  Cu  Cu1  1  0.84238000  0.32623000  0.25511000  1.0
  H  H2  1  0.81826000  0.67326000  0.87772000  1.0
  H  H3  1  0.18173000  0.32674000  0.12229000  1.0
  H  H4  1  0.37811000  0.55177000  0.91890000  1.0
  H  H5  1  0.62187000  0.44824000  0.08111000  1.0
  H  H6  1  0.43073000  0.35489000  0.98501000  1.0
  H  H7  1  0.56927000  0.64512000  0.01499000  1.0
  H  H8  1  0.43110000  0.38939000  0.83266000  1.0
  H  H9  1  0.56889000  0.61062000  0.16735000  1.0
  H  H10  1  0.44051000  0.74841000  0.58056000  1.0
  H  H11  1  0.55949000  0.25158000  0.41944000  1.0
  H  H12  1  0.33550000  0.22173000  0.58904000  1.0
  H  H13  1  0.66448000  0.77827000  0.41097000  1.0
  H  H14  1  0.30060000  0.30888000  0.72240000  1.0
  H  H15  1  0.69939000  0.69112000  0.27760000  1.0
  H  H16  1  0.14838000  0.40998000  0.64170000  1.0
  H  H17  1  0.85163000  0.59002000  0.35829000  1.0
  H  H18  1  0.68859000  0.04852000  0.55068000  1.0
  H  H19  1  0.31141000  0.95149000  0.44932000  1.0
  H  H20  1  0.03210000  0.01091000  0.79810000  1.0
  H  H21  1  0.96791000  0.98908000  0.20191000  1.0
  H  H22  1  0.88414000  0.66040000  0.65920000  1.0
  H  H23  1  0.11587000  0.33959000  0.34079000  1.0
  H  H24  1  0.05729000  0.67385000  0.53026000  1.0
  H  H25  1  0.94271000  0.32616000  0.46973000  1.0
  H  H26  1  0.83283000  0.76466000  0.52975000  1.0
  H  H27  1  0.16717000  0.23535000  0.47024000  1.0
  H  H28  1  0.70047000  0.42780000  0.73582000  1.0
  H  H29  1  0.29954000  0.57219000  0.26419000  1.0
  H  H30  1  0.79469000  0.31886000  0.85070000  1.0
  H  H31  1  0.20533000  0.68112000  0.14931000  1.0
  H  H32  1  0.93305000  0.34389000  0.70821000  1.0
  H  H33  1  0.06697000  0.65610000  0.29180000  1.0
  C  C34  1  0.32066000  0.01935000  0.89936000  1.0
  C  C35  1  0.67933000  0.98067000  0.10064000  1.0
  C  C36  1  0.90061000  0.59472000  0.93226000  1.0
  C  C37  1  0.09938000  0.40529000  0.06774000  1.0
  C  C38  1  0.17387000  0.47401000  0.96337000  1.0
  C  C39  1  0.82612000  0.52599000  0.03663000  1.0
  C  C40  1  0.36449000  0.44008000  0.92373000  1.0
  C  C41  1  0.63550000  0.55993000  0.07628000  1.0
  C  C42  1  0.46790000  0.63611000  0.54469000  1.0
  C  C43  1  0.53211000  0.36388000  0.45530000  1.0
  C  C44  1  0.39648000  0.42415000  0.56243000  1.0
  C  C45  1  0.60352000  0.57584000  0.43757000  1.0
  C  C46  1  0.28964000  0.33597000  0.63165000  1.0
  C  C47  1  0.71036000  0.66402000  0.36835000  1.0
  C  C48  1  0.88785000  0.89077000  0.63189000  1.0
  C  C49  1  0.11215000  0.10923000  0.36811000  1.0
  C  C50  1  0.76741000  0.04170000  0.60495000  1.0
  C  C51  1  0.23259000  0.95831000  0.39505000  1.0
  C  C52  1  0.83660000  0.17133000  0.71142000  1.0
  C  C53  1  0.16341000  0.82866000  0.28858000  1.0
  C  C54  1  0.95567000  0.02143000  0.74127000  1.0
  C  C55  1  0.04434000  0.97855000  0.25873000  1.0
  C  C56  1  0.91772000  0.73852000  0.58482000  1.0
  C  C57  1  0.08228000  0.26148000  0.41517000  1.0
  C  C58  1  0.81380000  0.32411000  0.75411000  1.0
  C  C59  1  0.18621000  0.67589000  0.24590000  1.0
  S  S60  1  0.41519000  0.85565000  0.78913000  1.0
  S  S61  1  0.58481000  0.14436000  0.21086000  1.0
  N  N62  1  0.07131000  0.57074000  0.89482000  1.0
  N  N63  1  0.92869000  0.42925000  0.10519000  1.0
  N  N64  1  0.36352000  0.56350000  0.60735000  1.0
  N  N65  1  0.63649000  0.43649000  0.39264000  1.0
  N  N66  1  0.98188000  0.88217000  0.70246000  1.0
  N  N67  1  0.01812000  0.11782000  0.29754000  1.0
  N  N68  1  0.74089000  0.18066000  0.64316000  1.0
  N  N69  1  0.25912000  0.81933000  0.35684000  1.0
  O  O70  1  0.27664000  0.79897000  0.82678000  1.0
  O  O71  1  0.72337000  0.20102000  0.17322000  1.0
  O  O72  1  0.58030000  0.74144000  0.81083000  1.0
  O  O73  1  0.41971000  0.25858000  0.18916000  1.0
  O  O74  1  0.43311000  0.93792000  0.67324000  1.0
  O  O75  1  0.56688000  0.06209000  0.32676000  1.0
  F  F76  1  0.43112000  0.08936000  0.87917000  1.0
  F  F77  1  0.56884000  0.91068000  0.12082000  1.0
  F  F78  1  0.16126000  0.13664000  0.89191000  1.0
  F  F79  1  0.83871000  0.86336000  0.10809000  1.0
  F  F80  1  0.29392000  0.96140000  0.01342000  1.0
  F  F81  1  0.70608000  0.03861000  0.98658000  1.0
