# generated using pymatgen
data_MnH5C10N3O4
_symmetry_space_group_name_H-M   'P 1'
_cell_length_a   12.58090000
_cell_length_b   14.15800000
_cell_length_c   20.99980000
_cell_angle_alpha   89.99920000
_cell_angle_beta   89.99950000
_cell_angle_gamma   89.99970000
_symmetry_Int_Tables_number   1
_chemical_formula_structural   MnH5C10N3O4
_chemical_formula_sum   'Mn8 H40 C80 N24 O32'
_cell_volume   3740.49240157
_cell_formula_units_Z   8
loop_
 _symmetry_equiv_pos_site_id
 _symmetry_equiv_pos_as_xyz
  1  'x, y, z'
loop_
 _atom_site_type_symbol
 _atom_site_label
 _atom_site_symmetry_multiplicity
 _atom_site_fract_x
 _atom_site_fract_y
 _atom_site_fract_z
 _atom_site_occupancy
  Mn  Mn0  1  0.91388000  0.62298000  0.30392000  1.0
  Mn  Mn1  1  0.58617000  0.87703000  0.80391000  1.0
  Mn  Mn2  1  0.08615000  0.62299000  0.19609000  1.0
  Mn  Mn3  1  0.41383000  0.87701000  0.69608000  1.0
  Mn  Mn4  1  0.08614000  0.37703000  0.69608000  1.0
  Mn  Mn5  1  0.41385000  0.12300000  0.19609000  1.0
  Mn  Mn6  1  0.91386000  0.37703000  0.80392000  1.0
  Mn  Mn7  1  0.58616000  0.12296000  0.30392000  1.0
  H  H8  1  0.58266000  0.62327000  0.45603000  1.0
  H  H9  1  0.91875000  0.62654000  0.45837000  1.0
  H  H10  1  0.87749000  0.52340000  0.55717000  1.0
  H  H11  1  0.74782000  0.62730000  0.73305000  1.0
  H  H12  1  0.62038000  0.72744000  0.55547000  1.0
  H  H13  1  0.91733000  0.87674000  0.95605000  1.0
  H  H14  1  0.58126000  0.87347000  0.95839000  1.0
  H  H15  1  0.62253000  0.97660000  0.05716000  1.0
  H  H16  1  0.75218000  0.87270000  0.23306000  1.0
  H  H17  1  0.87959000  0.77255000  0.05548000  1.0
  H  H18  1  0.41734000  0.62326000  0.04395000  1.0
  H  H19  1  0.08126000  0.62652000  0.04160000  1.0
  H  H20  1  0.12253000  0.52339000  0.94283000  1.0
  H  H21  1  0.25216000  0.62729000  0.76694000  1.0
  H  H22  1  0.37960000  0.72745000  0.94452000  1.0
  H  H23  1  0.08266000  0.87674000  0.54397000  1.0
  H  H24  1  0.41875000  0.87346000  0.54163000  1.0
  H  H25  1  0.37747000  0.97661000  0.44285000  1.0
  H  H26  1  0.24784000  0.87268000  0.26695000  1.0
  H  H27  1  0.12040000  0.77255000  0.44453000  1.0
  H  H28  1  0.41734000  0.37673000  0.54397000  1.0
  H  H29  1  0.08125000  0.37346000  0.54162000  1.0
  H  H30  1  0.12252000  0.47659000  0.44284000  1.0
  H  H31  1  0.25216000  0.37271000  0.26694000  1.0
  H  H32  1  0.37960000  0.27255000  0.44453000  1.0
  H  H33  1  0.08266000  0.12326000  0.04395000  1.0
  H  H34  1  0.41873000  0.12652000  0.04161000  1.0
  H  H35  1  0.37745000  0.02337000  0.94284000  1.0
  H  H36  1  0.24783000  0.12731000  0.76694000  1.0
  H  H37  1  0.12039000  0.22745000  0.94452000  1.0
  H  H38  1  0.58267000  0.37675000  0.95604000  1.0
  H  H39  1  0.91875000  0.37348000  0.95839000  1.0
  H  H40  1  0.87746000  0.47663000  0.05716000  1.0
  H  H41  1  0.74783000  0.37270000  0.23305000  1.0
  H  H42  1  0.62039000  0.27255000  0.05547000  1.0
  H  H43  1  0.91734000  0.12327000  0.45604000  1.0
  H  H44  1  0.58126000  0.12652000  0.45837000  1.0
  H  H45  1  0.62251000  0.02341000  0.55716000  1.0
  H  H46  1  0.75217000  0.12731000  0.73306000  1.0
  H  H47  1  0.87959000  0.22746000  0.55547000  1.0
  C  C48  1  0.66454000  0.62427000  0.43988000  1.0
  C  C49  1  0.83700000  0.62457000  0.44210000  1.0
  C  C50  1  0.74912000  0.62549000  0.54886000  1.0
  C  C51  1  0.82123000  0.56896000  0.58193000  1.0
  C  C52  1  0.81970000  0.56882000  0.64852000  1.0
  C  C53  1  0.74811000  0.62672000  0.68121000  1.0
  C  C54  1  0.67687000  0.68381000  0.64758000  1.0
  C  C55  1  0.60238000  0.74906000  0.68218000  1.0
  C  C56  1  0.67629000  0.68244000  0.58100000  1.0
  C  C57  1  0.89385000  0.50432000  0.68405000  1.0
  C  C58  1  0.83545000  0.87573000  0.93990000  1.0
  C  C59  1  0.66298000  0.87543000  0.94212000  1.0
  C  C60  1  0.75089000  0.87450000  0.04888000  1.0
  C  C61  1  0.67879000  0.93104000  0.08194000  1.0
  C  C62  1  0.68032000  0.93121000  0.14852000  1.0
  C  C63  1  0.75189000  0.87330000  0.18123000  1.0
  C  C64  1  0.82311000  0.81618000  0.14761000  1.0
  C  C65  1  0.89760000  0.75095000  0.18220000  1.0
  C  C66  1  0.82372000  0.81756000  0.08102000  1.0
  C  C67  1  0.60615000  0.99570000  0.18405000  1.0
  C  C68  1  0.33545000  0.62426000  0.06010000  1.0
  C  C69  1  0.16299000  0.62456000  0.05788000  1.0
  C  C70  1  0.25089000  0.62549000  0.95112000  1.0
  C  C71  1  0.17879000  0.56895000  0.91806000  1.0
  C  C72  1  0.18032000  0.56879000  0.85147000  1.0
  C  C73  1  0.25188000  0.62670000  0.81877000  1.0
  C  C74  1  0.32313000  0.68381000  0.85240000  1.0
  C  C75  1  0.39761000  0.74905000  0.81781000  1.0
  C  C76  1  0.32371000  0.68243000  0.91898000  1.0
  C  C77  1  0.10617000  0.50429000  0.81594000  1.0
  C  C78  1  0.16454000  0.87573000  0.56011000  1.0
  C  C79  1  0.33700000  0.87543000  0.55790000  1.0
  C  C80  1  0.24912000  0.87449000  0.45114000  1.0
  C  C81  1  0.32123000  0.93103000  0.41807000  1.0
  C  C82  1  0.31970000  0.93118000  0.35148000  1.0
  C  C83  1  0.24813000  0.87327000  0.31879000  1.0
  C  C84  1  0.17690000  0.81618000  0.35241000  1.0
  C  C85  1  0.10241000  0.75094000  0.31781000  1.0
  C  C86  1  0.17630000  0.81755000  0.41900000  1.0
  C  C87  1  0.39386000  0.99570000  0.31594000  1.0
  C  C88  1  0.33546000  0.37573000  0.56011000  1.0
  C  C89  1  0.16299000  0.37543000  0.55789000  1.0
  C  C90  1  0.25088000  0.37449000  0.45113000  1.0
  C  C91  1  0.17877000  0.43103000  0.41807000  1.0
  C  C92  1  0.18032000  0.43120000  0.35148000  1.0
  C  C93  1  0.25188000  0.37328000  0.31878000  1.0
  C  C94  1  0.32309000  0.31617000  0.35240000  1.0
  C  C95  1  0.39760000  0.25093000  0.31781000  1.0
  C  C96  1  0.32371000  0.31755000  0.41899000  1.0
  C  C97  1  0.10617000  0.49571000  0.31594000  1.0
  C  C98  1  0.16454000  0.12426000  0.06011000  1.0
  C  C99  1  0.33701000  0.12456000  0.05789000  1.0
  C  C100  1  0.24910000  0.12548000  0.95113000  1.0
  C  C101  1  0.32121000  0.06895000  0.91806000  1.0
  C  C102  1  0.31969000  0.06881000  0.85148000  1.0
  C  C103  1  0.24811000  0.12671000  0.81878000  1.0
  C  C104  1  0.17686000  0.18380000  0.85241000  1.0
  C  C105  1  0.10239000  0.24904000  0.81781000  1.0
  C  C106  1  0.17629000  0.18244000  0.91899000  1.0
  C  C107  1  0.39385000  0.00430000  0.81595000  1.0
  C  C108  1  0.66454000  0.37574000  0.93989000  1.0
  C  C109  1  0.83700000  0.37544000  0.94211000  1.0
  C  C110  1  0.74911000  0.37452000  0.04887000  1.0
  C  C111  1  0.82122000  0.43106000  0.08194000  1.0
  C  C112  1  0.81970000  0.43121000  0.14852000  1.0
  C  C113  1  0.74812000  0.37330000  0.18122000  1.0
  C  C114  1  0.67688000  0.31620000  0.14759000  1.0
  C  C115  1  0.60240000  0.25095000  0.18219000  1.0
  C  C116  1  0.67630000  0.31757000  0.08101000  1.0
  C  C117  1  0.89386000  0.49571000  0.18405000  1.0
  C  C118  1  0.83546000  0.12426000  0.43989000  1.0
  C  C119  1  0.66299000  0.12456000  0.44211000  1.0
  C  C120  1  0.75088000  0.12551000  0.54888000  1.0
  C  C121  1  0.67877000  0.06897000  0.58194000  1.0
  C  C122  1  0.68031000  0.06881000  0.64852000  1.0
  C  C123  1  0.75188000  0.12672000  0.68122000  1.0
  C  C124  1  0.82310000  0.18382000  0.64760000  1.0
  C  C125  1  0.89760000  0.24907000  0.68219000  1.0
  C  C126  1  0.82371000  0.18245000  0.58101000  1.0
  C  C127  1  0.60615000  0.00430000  0.68406000  1.0
  N  N128  1  0.75012000  0.62512000  0.48080000  1.0
  N  N129  1  0.80571000  0.62348000  0.38197000  1.0
  N  N130  1  0.69618000  0.62306000  0.38019000  1.0
  N  N131  1  0.74987000  0.87489000  0.98082000  1.0
  N  N132  1  0.69429000  0.87653000  0.88199000  1.0
  N  N133  1  0.80382000  0.87695000  0.88021000  1.0
  N  N134  1  0.24988000  0.62510000  0.01918000  1.0
  N  N135  1  0.19428000  0.62346000  0.11802000  1.0
  N  N136  1  0.30382000  0.62304000  0.11980000  1.0
  N  N137  1  0.25012000  0.87488000  0.51920000  1.0
  N  N138  1  0.30570000  0.87652000  0.61802000  1.0
  N  N139  1  0.19617000  0.87695000  0.61981000  1.0
  N  N140  1  0.24988000  0.37488000  0.51919000  1.0
  N  N141  1  0.19429000  0.37654000  0.61802000  1.0
  N  N142  1  0.30382000  0.37696000  0.61980000  1.0
  N  N143  1  0.25013000  0.12511000  0.01920000  1.0
  N  N144  1  0.30571000  0.12348000  0.11802000  1.0
  N  N145  1  0.19618000  0.12306000  0.11980000  1.0
  N  N146  1  0.75012000  0.37489000  0.98081000  1.0
  N  N147  1  0.80572000  0.37653000  0.88198000  1.0
  N  N148  1  0.69618000  0.37695000  0.88019000  1.0
  N  N149  1  0.74987000  0.12511000  0.48081000  1.0
  N  N150  1  0.69430000  0.12346000  0.38198000  1.0
  N  N151  1  0.80382000  0.12304000  0.38020000  1.0
  O  O152  1  0.62946000  0.77310000  0.73828000  1.0
  O  O153  1  0.51967000  0.77603000  0.65256000  1.0
  O  O154  1  0.86874000  0.48452000  0.74121000  1.0
  O  O155  1  0.97457000  0.47369000  0.65402000  1.0
  O  O156  1  0.87056000  0.72693000  0.23831000  1.0
  O  O157  1  0.98031000  0.72396000  0.15259000  1.0
  O  O158  1  0.63125000  0.01549000  0.24120000  1.0
  O  O159  1  0.52541000  0.02632000  0.15402000  1.0
  O  O160  1  0.37054000  0.77307000  0.76170000  1.0
  O  O161  1  0.48032000  0.77603000  0.84742000  1.0
  O  O162  1  0.13125000  0.48452000  0.75879000  1.0
  O  O163  1  0.02545000  0.47366000  0.84598000  1.0
  O  O164  1  0.12948000  0.72691000  0.26172000  1.0
  O  O165  1  0.01967000  0.72399000  0.34743000  1.0
  O  O166  1  0.36874000  0.01549000  0.25880000  1.0
  O  O167  1  0.47459000  0.02631000  0.34599000  1.0
  O  O168  1  0.37054000  0.22693000  0.26170000  1.0
  O  O169  1  0.48032000  0.22396000  0.34743000  1.0
  O  O170  1  0.13125000  0.51548000  0.25879000  1.0
  O  O171  1  0.02543000  0.52633000  0.34598000  1.0
  O  O172  1  0.12946000  0.27310000  0.76171000  1.0
  O  O173  1  0.01967000  0.27601000  0.84742000  1.0
  O  O174  1  0.36874000  0.98451000  0.75880000  1.0
  O  O175  1  0.47458000  0.97368000  0.84599000  1.0
  O  O176  1  0.62947000  0.22692000  0.23830000  1.0
  O  O177  1  0.51969000  0.22397000  0.15257000  1.0
  O  O178  1  0.86875000  0.51550000  0.24120000  1.0
  O  O179  1  0.97460000  0.52632000  0.15402000  1.0
  O  O180  1  0.87054000  0.27310000  0.73830000  1.0
  O  O181  1  0.98031000  0.27604000  0.65258000  1.0
  O  O182  1  0.63126000  0.98452000  0.74121000  1.0
  O  O183  1  0.52541000  0.97368000  0.65402000  1.0
