# generated using pymatgen
data_ZnH2C2N3F
_symmetry_space_group_name_H-M   'P 1'
_cell_length_a   9.81182000
_cell_length_b   11.29500000
_cell_length_c   11.29500000
_cell_angle_alpha   111.96400000
_cell_angle_beta   106.82800000
_cell_angle_gamma   106.82800000
_symmetry_Int_Tables_number   1
_chemical_formula_structural   ZnH2C2N3F
_chemical_formula_sum   'Zn6 H12 C12 N18 F6'
_cell_volume   993.39200803
_cell_formula_units_Z   6
loop_
 _symmetry_equiv_pos_site_id
 _symmetry_equiv_pos_as_xyz
  1  'x, y, z'
loop_
 _atom_site_type_symbol
 _atom_site_label
 _atom_site_symmetry_multiplicity
 _atom_site_fract_x
 _atom_site_fract_y
 _atom_site_fract_z
 _atom_site_occupancy
  Zn  Zn0  1  0.62661000  0.37657000  0.75327000  1.0
  Zn  Zn1  1  0.87339000  0.24673000  0.62343000  1.0
  Zn  Zn2  1  0.25000000  0.37660000  0.62340000  1.0
  Zn  Zn3  1  0.37339000  0.62343000  0.24673000  1.0
  Zn  Zn4  1  0.12661000  0.75327000  0.37657000  1.0
  Zn  Zn5  1  0.75000000  0.62340000  0.37660000  1.0
  H  H6  1  0.63734000  0.59085000  0.61688000  1.0
  H  H7  1  0.02044000  0.38314000  0.97409000  1.0
  H  H8  1  0.04660000  0.02609000  0.40918000  1.0
  H  H9  1  0.47956000  0.02592000  0.61686000  1.0
  H  H10  1  0.45340000  0.59082000  0.97391000  1.0
  H  H11  1  0.86266000  0.38312000  0.40915000  1.0
  H  H12  1  0.36266000  0.40915000  0.38312000  1.0
  H  H13  1  0.97956000  0.61686000  0.02591000  1.0
  H  H14  1  0.95340000  0.97391000  0.59082000  1.0
  H  H15  1  0.52044000  0.97408000  0.38314000  1.0
  H  H16  1  0.54660000  0.40918000  0.02609000  1.0
  H  H17  1  0.13734000  0.61688000  0.59085000  1.0
  C  C18  1  0.69350000  0.52390000  0.58181000  1.0
  C  C19  1  0.11163000  0.41823000  0.94215000  1.0
  C  C20  1  0.16969000  0.05792000  0.47612000  1.0
  C  C21  1  0.38837000  0.05785000  0.58177000  1.0
  C  C22  1  0.33032000  0.52389000  0.94208000  1.0
  C  C23  1  0.80650000  0.41819000  0.47610000  1.0
  C  C24  1  0.30650000  0.47610000  0.41819000  1.0
  C  C25  1  0.88837000  0.58177000  0.05785000  1.0
  C  C26  1  0.83032000  0.94208000  0.52388000  1.0
  C  C27  1  0.61163000  0.94215000  0.41823000  1.0
  C  C28  1  0.66969000  0.47612000  0.05792000  1.0
  C  C29  1  0.19350000  0.58181000  0.52390000  1.0
  N  N30  1  0.71385000  0.43696000  0.63104000  1.0
  N  N31  1  0.08277000  0.36899000  0.80601000  1.0
  N  N32  1  0.27694000  0.19404000  0.56306000  1.0
  N  N33  1  0.41723000  0.19399000  0.63101000  1.0
  N  N34  1  0.22306000  0.43694000  0.80596000  1.0
  N  N35  1  0.78615000  0.36896000  0.56304000  1.0
  N  N36  1  0.28615000  0.56304000  0.36896000  1.0
  N  N37  1  0.91723000  0.63102000  0.19399000  1.0
  N  N38  1  0.72306000  0.80596000  0.43694000  1.0
  N  N39  1  0.58277000  0.80601000  0.36899000  1.0
  N  N40  1  0.77694000  0.56306000  0.19404000  1.0
  N  N41  1  0.21384000  0.63103000  0.43695000  1.0
  N  N42  1  0.75000000  0.51560000  0.48440000  1.0
  N  N43  1  0.26551000  0.51562000  0.03120000  1.0
  N  N44  1  0.23449000  0.96880000  0.48439000  1.0
  N  N45  1  0.25000000  0.48440000  0.51560000  1.0
  N  N46  1  0.73449000  0.48439000  0.96880000  1.0
  N  N47  1  0.76551000  0.03120000  0.51561000  1.0
  F  F48  1  0.75000000  0.25402000  0.74598000  1.0
  F  F49  1  0.00409000  0.25404000  0.50819000  1.0
  F  F50  1  0.49591000  0.49181000  0.74596000  1.0
  F  F51  1  0.25000000  0.74598000  0.25403000  1.0
  F  F52  1  0.99591000  0.74596000  0.49181000  1.0
  F  F53  1  0.50409000  0.50819000  0.25404000  1.0
