# generated using pymatgen
data_CdH12(C8N3)2
_symmetry_space_group_name_H-M   'P 1'
_cell_length_a   8.35850000
_cell_length_b   9.42724000
_cell_length_c   10.59460000
_cell_angle_alpha   77.16910000
_cell_angle_beta   84.42800000
_cell_angle_gamma   71.93590000
_symmetry_Int_Tables_number   1
_chemical_formula_structural   CdH12(C8N3)2
_chemical_formula_sum   'Cd2 H24 C32 N12'
_cell_volume   773.50286048
_cell_formula_units_Z   2
loop_
 _symmetry_equiv_pos_site_id
 _symmetry_equiv_pos_as_xyz
  1  'x, y, z'
loop_
 _atom_site_type_symbol
 _atom_site_label
 _atom_site_symmetry_multiplicity
 _atom_site_fract_x
 _atom_site_fract_y
 _atom_site_fract_z
 _atom_site_occupancy
  Cd  Cd0  1  0.73927000  0.50351000  0.56689000  1.0
  Cd  Cd1  1  0.26073000  0.49649000  0.43311000  1.0
  H  H2  1  0.43957000  0.46270000  0.80793000  1.0
  H  H3  1  0.56044000  0.53728000  0.19207000  1.0
  H  H4  1  0.41320000  0.31123000  0.03227000  1.0
  H  H5  1  0.58681000  0.68876000  0.96773000  1.0
  H  H6  1  0.67886000  0.13321000  0.13934000  1.0
  H  H7  1  0.32115000  0.86678000  0.86067000  1.0
  H  H8  1  0.95477000  0.12198000  0.02188000  1.0
  H  H9  1  0.04524000  0.87803000  0.97813000  1.0
  H  H10  1  0.20993000  0.17146000  0.92447000  1.0
  H  H11  1  0.79008000  0.82854000  0.07552000  1.0
  H  H12  1  0.39575000  0.27584000  0.71457000  1.0
  H  H13  1  0.60425000  0.72416000  0.28542000  1.0
  H  H14  1  0.98684000  0.64020000  0.70922000  1.0
  H  H15  1  0.01316000  0.35980000  0.29077000  1.0
  H  H16  1  0.97663000  0.86973000  0.79442000  1.0
  H  H17  1  0.02337000  0.13027000  0.20559000  1.0
  H  H18  1  0.69697000  0.07415000  0.79956000  1.0
  H  H19  1  0.30303000  0.92586000  0.20044000  1.0
  H  H20  1  0.44685000  0.04103000  0.71200000  1.0
  H  H21  1  0.55315000  0.95897000  0.28800000  1.0
  H  H22  1  0.22171000  0.00920000  0.61394000  1.0
  H  H23  1  0.77828000  0.99080000  0.38607000  1.0
  H  H24  1  0.07444000  0.84827000  0.49798000  1.0
  H  H25  1  0.92555000  0.15173000  0.50203000  1.0
  C  C26  1  0.55039000  0.38492000  0.85940000  1.0
  C  C27  1  0.44961000  0.61507000  0.14060000  1.0
  C  C28  1  0.53601000  0.30035000  0.98362000  1.0
  C  C29  1  0.46399000  0.69964000  0.01638000  1.0
  C  C30  1  0.68350000  0.20261000  0.04291000  1.0
  C  C31  1  0.31650000  0.79739000  0.95710000  1.0
  C  C32  1  0.83748000  0.19595000  0.97790000  1.0
  C  C33  1  0.16252000  0.80406000  0.02210000  1.0
  C  C34  1  0.84226000  0.28696000  0.85394000  1.0
  C  C35  1  0.15775000  0.71305000  0.14607000  1.0
  C  C36  1  0.00045000  0.29261000  0.78494000  1.0
  C  C37  1  0.99955000  0.70739000  0.21506000  1.0
  C  C38  1  0.16638000  0.23660000  0.82966000  1.0
  C  C39  1  0.83362000  0.76340000  0.17034000  1.0
  C  C40  1  0.26176000  0.28940000  0.72472000  1.0
  C  C41  1  0.73824000  0.71060000  0.27527000  1.0
  C  C42  1  0.86942000  0.73194000  0.71245000  1.0
  C  C43  1  0.13058000  0.26806000  0.28754000  1.0
  C  C44  1  0.86241000  0.85921000  0.76149000  1.0
  C  C45  1  0.13759000  0.14079000  0.23851000  1.0
  C  C46  1  0.70797000  0.97218000  0.76276000  1.0
  C  C47  1  0.29203000  0.02783000  0.23723000  1.0
  C  C48  1  0.56853000  0.95438000  0.71401000  1.0
  C  C49  1  0.43147000  0.04562000  0.28599000  1.0
  C  C50  1  0.58567000  0.82440000  0.66393000  1.0
  C  C51  1  0.41433000  0.17561000  0.33607000  1.0
  C  C52  1  0.44449000  0.80188000  0.60847000  1.0
  C  C53  1  0.55551000  0.19812000  0.39153000  1.0
  C  C54  1  0.27758000  0.89736000  0.59046000  1.0
  C  C55  1  0.72242000  0.10263000  0.40955000  1.0
  C  C56  1  0.20205000  0.81758000  0.53093000  1.0
  C  C57  1  0.79794000  0.18242000  0.46907000  1.0
  N  N58  1  0.69815000  0.37754000  0.79551000  1.0
  N  N59  1  0.30185000  0.62246000  0.20449000  1.0
  N  N60  1  0.00106000  0.37159000  0.66084000  1.0
  N  N61  1  0.99894000  0.62841000  0.33917000  1.0
  N  N62  1  0.16075000  0.36975000  0.62444000  1.0
  N  N63  1  0.83925000  0.63025000  0.37556000  1.0
  N  N64  1  0.73546000  0.71487000  0.66495000  1.0
  N  N65  1  0.26455000  0.28514000  0.33505000  1.0
  N  N66  1  0.46380000  0.67352000  0.56266000  1.0
  N  N67  1  0.53620000  0.32648000  0.43734000  1.0
  N  N68  1  0.31540000  0.68360000  0.51507000  1.0
  N  N69  1  0.68460000  0.31640000  0.48493000  1.0
