# generated using pymatgen
data_CuH10C9NO4
_symmetry_space_group_name_H-M   'P 1'
_cell_length_a   7.23738000
_cell_length_b   8.02120000
_cell_length_c   10.98210000
_cell_angle_alpha   77.84450000
_cell_angle_beta   81.27210000
_cell_angle_gamma   65.82140000
_symmetry_Int_Tables_number   1
_chemical_formula_structural   CuH10C9NO4
_chemical_formula_sum   'Cu2 H20 C18 N2 O8'
_cell_volume   567.03354860
_cell_formula_units_Z   2
loop_
 _symmetry_equiv_pos_site_id
 _symmetry_equiv_pos_as_xyz
  1  'x, y, z'
loop_
 _atom_site_type_symbol
 _atom_site_label
 _atom_site_symmetry_multiplicity
 _atom_site_fract_x
 _atom_site_fract_y
 _atom_site_fract_z
 _atom_site_occupancy
  Cu  Cu0  1  0.97723000  0.43800000  0.41298000  1.0
  Cu  Cu1  1  0.13986000  0.43389000  0.60711000  1.0
  H  H2  1  0.76999000  0.28160000  0.84785000  1.0
  H  H3  1  0.34779000  0.54020000  0.18933000  1.0
  H  H4  1  0.49301000  0.75034000  0.75290000  1.0
  H  H5  1  0.38909000  0.76817000  0.60947000  1.0
  H  H6  1  0.49943000  0.92412000  0.62493000  1.0
  H  H7  1  0.57064000  0.29144000  0.67893000  1.0
  H  H8  1  0.54559000  0.53675000  0.35645000  1.0
  H  H9  1  0.91668000  0.34736000  0.96327000  1.0
  H  H10  1  0.08835000  0.34166000  0.14494000  1.0
  H  H11  1  0.02866000  0.60076000  0.85355000  1.0
  H  H12  1  0.20049000  0.61491000  0.02887000  1.0
  H  H13  1  0.72884000  0.09179000  0.41939000  1.0
  H  H14  1  0.62817000  0.11170000  0.27409000  1.0
  H  H15  1  0.61313000  0.94050000  0.40154000  1.0
  H  H16  1  0.26370000  0.92209000  0.37822000  1.0
  H  H17  1  0.02954000  0.00819000  0.30839000  1.0
  H  H18  1  0.25274000  0.86253000  0.23167000  1.0
  H  H19  1  0.98724000  0.94093000  0.78549000  1.0
  H  H20  1  0.03895000  0.86525000  0.63695000  1.0
  H  H21  1  0.78857000  0.00435000  0.68337000  1.0
  C  C22  1  0.61401000  0.44562000  0.05887000  1.0
  C  C23  1  0.50316000  0.44574000  0.95616000  1.0
  C  C24  1  0.60557000  0.35399000  0.85510000  1.0
  C  C25  1  0.51129000  0.50001000  0.17203000  1.0
  C  C26  1  0.51045000  0.78049000  0.65087000  1.0
  C  C27  1  0.49607000  0.35696000  0.76048000  1.0
  C  C28  1  0.62044000  0.49676000  0.26703000  1.0
  C  C29  1  0.98785000  0.14989000  0.62561000  1.0
  C  C30  1  0.71462000  0.65176000  0.60202000  1.0
  C  C31  1  0.82632000  0.38918000  0.04862000  1.0
  C  C32  1  0.92355000  0.38789000  0.14897000  1.0
  C  C33  1  0.19315000  0.53126000  0.85731000  1.0
  C  C34  1  0.29084000  0.53760000  0.95502000  1.0
  C  C35  1  0.60728000  0.08260000  0.37609000  1.0
  C  C36  1  0.40387000  0.21591000  0.42215000  1.0
  C  C37  1  0.17355000  0.88836000  0.32348000  1.0
  C  C38  1  0.94809000  0.97988000  0.68826000  1.0
  C  C39  1  0.12993000  0.72162000  0.39004000  1.0
  N  N40  1  0.29286000  0.44216000  0.76140000  1.0
  N  N41  1  0.82339000  0.44123000  0.25662000  1.0
  O  O42  1  0.25526000  0.26839000  0.35452000  1.0
  O  O43  1  0.86346000  0.59666000  0.67005000  1.0
  O  O44  1  0.72320000  0.60988000  0.49490000  1.0
  O  O45  1  0.39573000  0.26420000  0.52714000  1.0
  O  O46  1  0.93095000  0.21779000  0.51521000  1.0
  O  O47  1  0.17939000  0.65896000  0.50231000  1.0
  O  O48  1  0.04711000  0.65566000  0.32851000  1.0
  O  O49  1  0.07525000  0.21166000  0.68707000  1.0
