# generated using pymatgen
data_FeH4C8O5
_symmetry_space_group_name_H-M   'P 1'
_cell_length_a   6.36895000
_cell_length_b   6.98862000
_cell_length_c   10.33098992
_cell_angle_alpha   109.43888789
_cell_angle_beta   101.46793471
_cell_angle_gamma   90.35260000
_symmetry_Int_Tables_number   1
_chemical_formula_structural   FeH4C8O5
_chemical_formula_sum   'Fe2 H8 C16 O10'
_cell_volume   423.66220355
_cell_formula_units_Z   2
loop_
 _symmetry_equiv_pos_site_id
 _symmetry_equiv_pos_as_xyz
  1  'x, y, z'
loop_
 _atom_site_type_symbol
 _atom_site_label
 _atom_site_symmetry_multiplicity
 _atom_site_fract_x
 _atom_site_fract_y
 _atom_site_fract_z
 _atom_site_occupancy
  Fe  Fe0  1  0.99999000  0.00002000  0.00001000  1.0
  Fe  Fe1  1  0.50000000  0.00001000  0.00000000  1.0
  H  H2  1  0.79157000  0.50479000  0.68095000  1.0
  H  H3  1  0.37373000  0.66166000  0.57471000  1.0
  H  H4  1  0.70563000  0.82236000  0.31880000  1.0
  H  H5  1  0.12719000  0.08628000  0.42552000  1.0
  H  H6  1  0.20841000  0.49519000  0.31906000  1.0
  H  H7  1  0.62627000  0.33833000  0.42530000  1.0
  H  H8  1  0.29438000  0.17762000  0.68119000  1.0
  H  H9  1  0.87283000  0.91370000  0.57447000  1.0
  C  C10  1  0.09303000  0.59014000  0.64262000  1.0
  C  C11  1  0.88167000  0.50024000  0.60082000  1.0
  C  C12  1  0.21102000  0.58928000  0.54118000  1.0
  C  C13  1  0.18084000  0.70838000  0.79403000  1.0
  C  C14  1  0.40582000  0.94621000  0.35734000  1.0
  C  C15  1  0.61675000  0.89863000  0.39903000  1.0
  C  C16  1  0.28950000  0.04764000  0.45892000  1.0
  C  C17  1  0.31660000  0.91231000  0.20578000  1.0
  C  C18  1  0.90697000  0.40987000  0.35740000  1.0
  C  C19  1  0.11831000  0.49974000  0.39918000  1.0
  C  C20  1  0.78897000  0.41069000  0.45881000  1.0
  C  C21  1  0.81917000  0.29164000  0.20598000  1.0
  C  C22  1  0.59419000  0.05378000  0.64264000  1.0
  C  C23  1  0.38325000  0.10134000  0.60096000  1.0
  C  C24  1  0.71051000  0.95234000  0.54108000  1.0
  C  C25  1  0.68340000  0.08770000  0.79421000  1.0
  O  O26  1  0.05029000  0.73407000  0.87651000  1.0
  O  O27  1  0.37601000  0.78154000  0.82652000  1.0
  O  O28  1  0.44628000  0.85537000  0.12253000  1.0
  O  O29  1  0.12208000  0.95215000  0.17343000  1.0
  O  O30  1  0.94970000  0.26596000  0.12349000  1.0
  O  O31  1  0.62398000  0.21849000  0.17349000  1.0
  O  O32  1  0.55372000  0.14465000  0.87747000  1.0
  O  O33  1  0.87792000  0.04786000  0.82657000  1.0
  O  O34  1  0.75022000  0.89479000  0.99982000  1.0
  O  O35  1  0.24977000  0.10524000  0.00018000  1.0
