# generated using pymatgen
data_Zn5H31C36N9O13
_symmetry_space_group_name_H-M   'P 1'
_cell_length_a   15.46070000
_cell_length_b   19.38040000
_cell_length_c   25.27230000
_cell_angle_alpha   89.99990000
_cell_angle_beta   90.00000000
_cell_angle_gamma   89.99990000
_symmetry_Int_Tables_number   1
_chemical_formula_structural   Zn5H31C36N9O13
_chemical_formula_sum   'Zn20 H124 C144 N36 O52'
_cell_volume   7572.45424502
_cell_formula_units_Z   4
loop_
 _symmetry_equiv_pos_site_id
 _symmetry_equiv_pos_as_xyz
  1  'x, y, z'
loop_
 _atom_site_type_symbol
 _atom_site_label
 _atom_site_symmetry_multiplicity
 _atom_site_fract_x
 _atom_site_fract_y
 _atom_site_fract_z
 _atom_site_occupancy
  Zn  Zn0  1  0.95257000  0.15941000  0.76980000  1.0
  Zn  Zn1  1  0.54743000  0.84059000  0.26980000  1.0
  Zn  Zn2  1  0.45257000  0.34059000  0.73020000  1.0
  Zn  Zn3  1  0.04743000  0.65941000  0.23020000  1.0
  Zn  Zn4  1  0.04743000  0.84059000  0.23020000  1.0
  Zn  Zn5  1  0.45257000  0.15941000  0.73020000  1.0
  Zn  Zn6  1  0.54743000  0.65941000  0.26980000  1.0
  Zn  Zn7  1  0.95257000  0.34059000  0.76980000  1.0
  Zn  Zn8  1  0.97512000  0.03473000  0.54744000  1.0
  Zn  Zn9  1  0.52488000  0.96527000  0.04743000  1.0
  Zn  Zn10  1  0.47512000  0.46527000  0.95256000  1.0
  Zn  Zn11  1  0.02488000  0.53474000  0.45256000  1.0
  Zn  Zn12  1  0.02488000  0.96527000  0.45257000  1.0
  Zn  Zn13  1  0.47512000  0.03473000  0.95256000  1.0
  Zn  Zn14  1  0.52488000  0.53474000  0.04743000  1.0
  Zn  Zn15  1  0.97512000  0.46527000  0.54744000  1.0
  Zn  Zn16  1  0.82297000  0.25000000  0.69396000  1.0
  Zn  Zn17  1  0.67703000  0.75000000  0.19396000  1.0
  Zn  Zn18  1  0.32297000  0.25000000  0.80604000  1.0
  Zn  Zn19  1  0.17703000  0.75000000  0.30604000  1.0
  H  H20  1  0.83811000  0.25000000  0.79381000  1.0
  H  H21  1  0.66188000  0.75000000  0.29381000  1.0
  H  H22  1  0.33811000  0.25000000  0.70619000  1.0
  H  H23  1  0.16188000  0.75000000  0.20619000  1.0
  H  H24  1  0.10273000  0.05198000  0.67504000  1.0
  H  H25  1  0.39727000  0.94801000  0.17503000  1.0
  H  H26  1  0.60273000  0.44801000  0.82497000  1.0
  H  H27  1  0.89727000  0.55199000  0.32497000  1.0
  H  H28  1  0.89727000  0.94801000  0.32497000  1.0
  H  H29  1  0.60273000  0.05199000  0.82497000  1.0
  H  H30  1  0.39727000  0.55199000  0.17503000  1.0
  H  H31  1  0.10273000  0.44801000  0.67504000  1.0
  H  H32  1  0.03198000  0.98394000  0.65760000  1.0
  H  H33  1  0.46802000  0.01606000  0.15760000  1.0
  H  H34  1  0.53198000  0.51606000  0.84240000  1.0
  H  H35  1  0.96802000  0.48394000  0.34240000  1.0
  H  H36  1  0.96801000  0.01606000  0.34240000  1.0
  H  H37  1  0.53198000  0.98394000  0.84240000  1.0
  H  H38  1  0.46802000  0.48393000  0.15760000  1.0
  H  H39  1  0.03198000  0.51606000  0.65760000  1.0
  H  H40  1  0.02877000  0.01923000  0.72329000  1.0
  H  H41  1  0.47123000  0.98076000  0.22328000  1.0
  H  H42  1  0.52877000  0.48077000  0.77671000  1.0
  H  H43  1  0.97123000  0.51924000  0.27672000  1.0
  H  H44  1  0.97123000  0.98076000  0.27672000  1.0
  H  H45  1  0.52877000  0.01924000  0.77671000  1.0
  H  H46  1  0.47123000  0.51923000  0.22329000  1.0
  H  H47  1  0.02877000  0.48076000  0.72329000  1.0
  H  H48  1  0.76967000  0.19233000  0.58549000  1.0
  H  H49  1  0.73033000  0.80767000  0.08549000  1.0
  H  H50  1  0.26967000  0.30767000  0.91451000  1.0
  H  H51  1  0.23033000  0.69233000  0.41451000  1.0
  H  H52  1  0.23033000  0.80767000  0.41451000  1.0
  H  H53  1  0.26967000  0.19233000  0.91451000  1.0
  H  H54  1  0.73033000  0.69233000  0.08549000  1.0
  H  H55  1  0.76967000  0.30767000  0.58549000  1.0
  H  H56  1  0.79534000  0.11308000  0.55214000  1.0
  H  H57  1  0.70466000  0.88693000  0.05214000  1.0
  H  H58  1  0.29534000  0.38692000  0.94786000  1.0
  H  H59  1  0.20465000  0.61307000  0.44786000  1.0
  H  H60  1  0.20466000  0.88693000  0.44786000  1.0
  H  H61  1  0.29534000  0.11307000  0.94786000  1.0
  H  H62  1  0.70465000  0.61307000  0.05214000  1.0
  H  H63  1  0.79535000  0.38692000  0.55214000  1.0
  H  H64  1  0.86013000  0.18602000  0.54120000  1.0
  H  H65  1  0.63987000  0.81398000  0.04120000  1.0
  H  H66  1  0.36014000  0.31397000  0.95880000  1.0
  H  H67  1  0.13987000  0.68602000  0.45880000  1.0
  H  H68  1  0.13987000  0.81398000  0.45880000  1.0
  H  H69  1  0.36014000  0.18602000  0.95880000  1.0
  H  H70  1  0.63986000  0.68602000  0.04120000  1.0
  H  H71  1  0.86014000  0.31398000  0.54120000  1.0
  H  H72  1  0.03570000  0.13851000  0.34583000  1.0
  H  H73  1  0.46430000  0.86149000  0.84582000  1.0
  H  H74  1  0.53570000  0.36149000  0.15417000  1.0
  H  H75  1  0.96430000  0.63850000  0.65418000  1.0
  H  H76  1  0.96430000  0.86149000  0.65417000  1.0
  H  H77  1  0.53570000  0.13851000  0.15417000  1.0
  H  H78  1  0.46430000  0.63850000  0.84582000  1.0
  H  H79  1  0.03570000  0.36150000  0.34583000  1.0
  H  H80  1  0.04810000  0.25000000  0.29658000  1.0
  H  H81  1  0.45190000  0.75000000  0.79658000  1.0
  H  H82  1  0.54810000  0.25000000  0.20342000  1.0
  H  H83  1  0.95190000  0.75000000  0.70342000  1.0
  H  H84  1  0.99435000  0.25000000  0.49058000  1.0
  H  H85  1  0.50565000  0.75000000  0.99057000  1.0
  H  H86  1  0.49435000  0.25000000  0.00942000  1.0
  H  H87  1  0.00565000  0.75000000  0.50943000  1.0
  H  H88  1  0.99287000  0.00520000  0.90142000  1.0
  H  H89  1  0.50713000  0.99480000  0.40142000  1.0
  H  H90  1  0.49287000  0.49480000  0.59858000  1.0
  H  H91  1  0.00713000  0.50520000  0.09858000  1.0
  H  H92  1  0.00713000  0.99480000  0.09858000  1.0
  H  H93  1  0.49287000  0.00520000  0.59858000  1.0
  H  H94  1  0.50713000  0.50520000  0.40142000  1.0
  H  H95  1  0.99287000  0.49480000  0.90142000  1.0
  H  H96  1  0.95252000  0.94265000  0.98445000  1.0
  H  H97  1  0.54748000  0.05735000  0.48445000  1.0
  H  H98  1  0.45253000  0.55735000  0.51555000  1.0
  H  H99  1  0.04748000  0.44265000  0.01555000  1.0
  H  H100  1  0.04748000  0.05735000  0.01555000  1.0
  H  H101  1  0.45252000  0.94265000  0.51555000  1.0
  H  H102  1  0.54748000  0.44265000  0.48445000  1.0
  H  H103  1  0.95252000  0.55735000  0.98445000  1.0
  H  H104  1  0.80065000  0.94844000  0.01754000  1.0
  H  H105  1  0.69936000  0.05156000  0.51754000  1.0
  H  H106  1  0.30065000  0.55156000  0.48246000  1.0
  H  H107  1  0.19936000  0.44844000  0.98246000  1.0
  H  H108  1  0.19936000  0.05156000  0.98246000  1.0
  H  H109  1  0.30065000  0.94844000  0.48246000  1.0
  H  H110  1  0.69936000  0.44844000  0.51754000  1.0
  H  H111  1  0.80064000  0.55156000  0.01754000  1.0
  H  H112  1  0.72979000  0.07397000  0.88450000  1.0
  H  H113  1  0.77021000  0.92603000  0.38450000  1.0
  H  H114  1  0.22979000  0.42603000  0.61550000  1.0
  H  H115  1  0.27021000  0.57397000  0.11550000  1.0
  H  H116  1  0.27021000  0.92603000  0.11550000  1.0
  H  H117  1  0.22979000  0.07397000  0.61550000  1.0
  H  H118  1  0.77021000  0.57397000  0.38450000  1.0
  H  H119  1  0.72979000  0.42603000  0.88450000  1.0
  H  H120  1  0.72095000  0.10996000  0.73844000  1.0
  H  H121  1  0.77904000  0.89004000  0.23844000  1.0
  H  H122  1  0.22095000  0.39004000  0.76156000  1.0
  H  H123  1  0.27904000  0.60996000  0.26156000  1.0
  H  H124  1  0.27904000  0.89004000  0.26156000  1.0
  H  H125  1  0.22096000  0.10996000  0.76156000  1.0
  H  H126  1  0.77904000  0.60996000  0.23844000  1.0
  H  H127  1  0.72095000  0.39004000  0.73844000  1.0
  H  H128  1  0.61774000  0.08635000  0.71148000  1.0
  H  H129  1  0.88226000  0.91365000  0.21148000  1.0
  H  H130  1  0.11774000  0.41365000  0.78852000  1.0
  H  H131  1  0.38226000  0.58635000  0.28852000  1.0
  H  H132  1  0.38226000  0.91365000  0.28852000  1.0
  H  H133  1  0.11774000  0.08635000  0.78852000  1.0
  H  H134  1  0.88226000  0.58635000  0.21148000  1.0
  H  H135  1  0.61774000  0.41365000  0.71148000  1.0
  H  H136  1  0.70376000  0.11013000  0.66887000  1.0
  H  H137  1  0.79624000  0.88987000  0.16887000  1.0
  H  H138  1  0.20376000  0.38987000  0.83113000  1.0
  H  H139  1  0.29624000  0.61014000  0.33113000  1.0
  H  H140  1  0.29624000  0.88987000  0.33113000  1.0
  H  H141  1  0.20376000  0.11013000  0.83113000  1.0
  H  H142  1  0.79624000  0.61013000  0.16887000  1.0
  H  H143  1  0.70376000  0.38987000  0.66887000  1.0
  C  C144  1  0.03732000  0.03125000  0.68117000  1.0
  C  C145  1  0.46268000  0.96875000  0.18117000  1.0
  C  C146  1  0.53732000  0.46875000  0.81883000  1.0
  C  C147  1  0.96268000  0.53125000  0.31883000  1.0
  C  C148  1  0.96268000  0.96875000  0.31883000  1.0
  C  C149  1  0.53732000  0.03125000  0.81883000  1.0
  C  C150  1  0.46268000  0.53125000  0.18117000  1.0
  C  C151  1  0.03732000  0.46875000  0.68117000  1.0
  C  C152  1  0.97092000  0.08163000  0.66360000  1.0
  C  C153  1  0.52908000  0.91837000  0.16360000  1.0
  C  C154  1  0.47092000  0.41837000  0.83640000  1.0
  C  C155  1  0.02908000  0.58163000  0.33640000  1.0
  C  C156  1  0.02908000  0.91837000  0.33640000  1.0
  C  C157  1  0.47092000  0.08163000  0.83640000  1.0
  C  C158  1  0.52908000  0.58163000  0.16360000  1.0
  C  C159  1  0.97092000  0.41837000  0.66360000  1.0
  C  C160  1  0.87823000  0.13727000  0.61603000  1.0
  C  C161  1  0.62177000  0.86273000  0.11603000  1.0
  C  C162  1  0.37823000  0.36273000  0.88397000  1.0
  C  C163  1  0.12177000  0.63727000  0.38397000  1.0
  C  C164  1  0.12177000  0.86273000  0.38397000  1.0
  C  C165  1  0.37823000  0.13727000  0.88397000  1.0
  C  C166  1  0.62177000  0.63727000  0.11603000  1.0
  C  C167  1  0.87823000  0.36273000  0.61603000  1.0
  C  C168  1  0.82213000  0.15899000  0.57150000  1.0
  C  C169  1  0.67787000  0.84101000  0.07150000  1.0
  C  C170  1  0.32213000  0.34101000  0.92850000  1.0
  C  C171  1  0.17787000  0.65899000  0.42850000  1.0
  C  C172  1  0.17787000  0.84101000  0.42850000  1.0
  C  C173  1  0.32213000  0.15899000  0.92850000  1.0
  C  C174  1  0.67787000  0.65899000  0.07150000  1.0
  C  C175  1  0.82213000  0.34101000  0.57150000  1.0
  C  C176  1  0.00654000  0.11969000  0.45014000  1.0
  C  C177  1  0.49346000  0.88031000  0.95013000  1.0
  C  C178  1  0.50654000  0.38031000  0.04986000  1.0
  C  C179  1  0.99346000  0.61969000  0.54986000  1.0
  C  C180  1  0.99346000  0.88031000  0.54987000  1.0
  C  C181  1  0.50654000  0.11969000  0.04986000  1.0
  C  C182  1  0.49346000  0.61969000  0.95014000  1.0
  C  C183  1  0.00654000  0.38032000  0.45013000  1.0
  C  C184  1  0.01335000  0.18720000  0.42105000  1.0
  C  C185  1  0.48665000  0.81280000  0.92104000  1.0
  C  C186  1  0.51335000  0.31280000  0.07895000  1.0
  C  C187  1  0.98665000  0.68720000  0.57896000  1.0
  C  C188  1  0.98665000  0.81280000  0.57896000  1.0
  C  C189  1  0.51335000  0.18720000  0.07895000  1.0
  C  C190  1  0.48665000  0.68720000  0.92104000  1.0
  C  C191  1  0.01335000  0.31280000  0.42104000  1.0
  C  C192  1  0.02889000  0.18764000  0.36635000  1.0
  C  C193  1  0.47110000  0.81236000  0.86634000  1.0
  C  C194  1  0.52889000  0.31236000  0.13365000  1.0
  C  C195  1  0.97110000  0.68764000  0.63366000  1.0
  C  C196  1  0.97110000  0.81236000  0.63366000  1.0
  C  C197  1  0.52889000  0.18764000  0.13365000  1.0
  C  C198  1  0.47111000  0.68764000  0.86634000  1.0
  C  C199  1  0.02889000  0.31236000  0.36634000  1.0
  C  C200  1  0.03611000  0.25000000  0.33913000  1.0
  C  C201  1  0.46389000  0.75000000  0.83913000  1.0
  C  C202  1  0.53611000  0.25000000  0.16087000  1.0
  C  C203  1  0.96389000  0.75000000  0.66087000  1.0
  C  C204  1  0.00534000  0.25000000  0.44803000  1.0
  C  C205  1  0.49466000  0.75000000  0.94802000  1.0
  C  C206  1  0.50533000  0.25000000  0.05197000  1.0
  C  C207  1  0.99466000  0.75000000  0.55198000  1.0
  C  C208  1  0.88763000  0.08474000  0.84054000  1.0
  C  C209  1  0.61237000  0.91526000  0.34054000  1.0
  C  C210  1  0.38763000  0.41526000  0.65946000  1.0
  C  C211  1  0.11237000  0.58474000  0.15946000  1.0
  C  C212  1  0.11237000  0.91526000  0.15946000  1.0
  C  C213  1  0.38763000  0.08474000  0.65946000  1.0
  C  C214  1  0.61237000  0.58474000  0.34054000  1.0
  C  C215  1  0.88763000  0.41526000  0.84054000  1.0
  C  C216  1  0.86388000  0.04364000  0.88813000  1.0
  C  C217  1  0.63612000  0.95636000  0.38813000  1.0
  C  C218  1  0.36388000  0.45637000  0.61187000  1.0
  C  C219  1  0.13611000  0.54364000  0.11187000  1.0
  C  C220  1  0.13612000  0.95636000  0.11187000  1.0
  C  C221  1  0.36388000  0.04364000  0.61187000  1.0
  C  C222  1  0.63612000  0.54363000  0.38813000  1.0
  C  C223  1  0.86388000  0.45637000  0.88813000  1.0
  C  C224  1  0.92664000  0.00610000  0.91612000  1.0
  C  C225  1  0.57336000  0.99390000  0.41612000  1.0
  C  C226  1  0.42664000  0.49390000  0.58388000  1.0
  C  C227  1  0.07336000  0.50610000  0.08388000  1.0
  C  C228  1  0.07336000  0.99390000  0.08388000  1.0
  C  C229  1  0.42664000  0.00610000  0.58388000  1.0
  C  C230  1  0.57336000  0.50610000  0.41612000  1.0
  C  C231  1  0.92664000  0.49390000  0.91612000  1.0
  C  C232  1  0.90375000  0.97141000  0.96240000  1.0
  C  C233  1  0.59625000  0.02859000  0.46240000  1.0
  C  C234  1  0.40375000  0.52859000  0.53760000  1.0
  C  C235  1  0.09625000  0.47141000  0.03760000  1.0
  C  C236  1  0.09625000  0.02859000  0.03760000  1.0
  C  C237  1  0.40375000  0.97141000  0.53760000  1.0
  C  C238  1  0.59625000  0.47141000  0.46240000  1.0
  C  C239  1  0.90375000  0.52859000  0.96240000  1.0
  C  C240  1  0.81873000  0.97417000  0.98086000  1.0
  C  C241  1  0.68128000  0.02583000  0.48086000  1.0
  C  C242  1  0.31873000  0.52584000  0.51914000  1.0
  C  C243  1  0.18127000  0.47417000  0.01914000  1.0
  C  C244  1  0.18128000  0.02583000  0.01914000  1.0
  C  C245  1  0.31873000  0.97417000  0.51914000  1.0
  C  C246  1  0.68128000  0.47417000  0.48086000  1.0
  C  C247  1  0.81872000  0.52583000  0.98086000  1.0
  C  C248  1  0.75515000  0.01027000  0.95258000  1.0
  C  C249  1  0.74486000  0.98973000  0.45258000  1.0
  C  C250  1  0.25515000  0.48973000  0.54742000  1.0
  C  C251  1  0.24485000  0.51027000  0.04742000  1.0
  C  C252  1  0.24485000  0.98973000  0.04742000  1.0
  C  C253  1  0.25515000  0.01027000  0.54742000  1.0
  C  C254  1  0.74485000  0.51027000  0.45258000  1.0
  C  C255  1  0.75515000  0.48973000  0.95258000  1.0
  C  C256  1  0.77840000  0.04495000  0.90627000  1.0
  C  C257  1  0.72160000  0.95505000  0.40627000  1.0
  C  C258  1  0.27840000  0.45505000  0.59372000  1.0
  C  C259  1  0.22160000  0.54495000  0.09373000  1.0
  C  C260  1  0.22160000  0.95505000  0.09373000  1.0
  C  C261  1  0.27840000  0.04495000  0.59373000  1.0
  C  C262  1  0.72160000  0.54495000  0.40627000  1.0
  C  C263  1  0.77840000  0.45505000  0.90627000  1.0
  C  C264  1  0.66270000  0.01104000  0.97100000  1.0
  C  C265  1  0.83731000  0.98895000  0.47100000  1.0
  C  C266  1  0.16270000  0.48896000  0.52900000  1.0
  C  C267  1  0.33730000  0.51105000  0.02901000  1.0
  C  C268  1  0.33731000  0.98895000  0.02901000  1.0
  C  C269  1  0.16270000  0.01104000  0.52900000  1.0
  C  C270  1  0.83731000  0.51105000  0.47099000  1.0
  C  C271  1  0.66270000  0.48896000  0.97100000  1.0
  C  C272  1  0.67324000  0.12095000  0.70723000  1.0
  C  C273  1  0.82675000  0.87905000  0.20723000  1.0
  C  C274  1  0.17324000  0.37905000  0.79277000  1.0
  C  C275  1  0.32675000  0.62095000  0.29277000  1.0
  C  C276  1  0.32675000  0.87905000  0.29277000  1.0
  C  C277  1  0.17325000  0.12095000  0.79277000  1.0
  C  C278  1  0.82675000  0.62095000  0.20723000  1.0
  C  C279  1  0.67324000  0.37905000  0.70723000  1.0
  C  C280  1  0.64457000  0.19395000  0.71000000  1.0
  C  C281  1  0.85543000  0.80605000  0.21000000  1.0
  C  C282  1  0.14457000  0.30605000  0.79000000  1.0
  C  C283  1  0.35543000  0.69395000  0.29000000  1.0
  C  C284  1  0.35543000  0.80605000  0.29000000  1.0
  C  C285  1  0.14457000  0.19395000  0.79000000  1.0
  C  C286  1  0.85543000  0.69395000  0.21000000  1.0
  C  C287  1  0.64457000  0.30605000  0.71000000  1.0
  N  N288  1  0.93591000  0.12997000  0.69466000  1.0
  N  N289  1  0.56409000  0.87003000  0.19465000  1.0
  N  N290  1  0.43591000  0.37003000  0.80534000  1.0
  N  N291  1  0.06409000  0.62997000  0.30535000  1.0
  N  N292  1  0.06409000  0.87003000  0.30535000  1.0
  N  N293  1  0.43591000  0.12997000  0.80534000  1.0
  N  N294  1  0.56409000  0.62997000  0.19465000  1.0
  N  N295  1  0.93591000  0.37003000  0.69465000  1.0
  N  N296  1  0.87690000  0.16544000  0.66426000  1.0
  N  N297  1  0.62309000  0.83456000  0.16426000  1.0
  N  N298  1  0.37690000  0.33456000  0.83574000  1.0
  N  N299  1  0.12309000  0.66545000  0.33574000  1.0
  N  N300  1  0.12310000  0.83456000  0.33574000  1.0
  N  N301  1  0.37691000  0.16544000  0.83574000  1.0
  N  N302  1  0.62310000  0.66544000  0.16426000  1.0
  N  N303  1  0.87691000  0.33455000  0.66426000  1.0
  N  N304  1  0.93641000  0.08504000  0.61430000  1.0
  N  N305  1  0.56359000  0.91496000  0.11430000  1.0
  N  N306  1  0.43641000  0.41496000  0.88570000  1.0
  N  N307  1  0.06359000  0.58504000  0.38570000  1.0
  N  N308  1  0.06359000  0.91496000  0.38570000  1.0
  N  N309  1  0.43641000  0.08504000  0.88570000  1.0
  N  N310  1  0.56359000  0.58504000  0.11430000  1.0
  N  N311  1  0.93641000  0.41496000  0.61430000  1.0
  N  N312  1  0.56411000  0.21449000  0.72001000  1.0
  N  N313  1  0.93589000  0.78551000  0.22001000  1.0
  N  N314  1  0.06411000  0.28551000  0.77999000  1.0
  N  N315  1  0.43589000  0.71449000  0.27999000  1.0
  N  N316  1  0.43589000  0.78551000  0.27999000  1.0
  N  N317  1  0.06411000  0.21449000  0.77999000  1.0
  N  N318  1  0.93589000  0.71449000  0.22001000  1.0
  N  N319  1  0.56411000  0.28550000  0.72001000  1.0
  N  N320  1  0.69688000  0.25000000  0.70337000  1.0
  N  N321  1  0.80312000  0.75000000  0.20337000  1.0
  N  N322  1  0.19687000  0.25000000  0.79663000  1.0
  N  N323  1  0.30312000  0.75000000  0.29663000  1.0
  O  O324  1  0.98528000  0.12158000  0.49881000  1.0
  O  O325  1  0.51473000  0.87842000  0.99880000  1.0
  O  O326  1  0.48528000  0.37842000  0.00119000  1.0
  O  O327  1  0.01472000  0.62158000  0.50120000  1.0
  O  O328  1  0.01473000  0.87842000  0.50120000  1.0
  O  O329  1  0.48528000  0.12158000  0.00119000  1.0
  O  O330  1  0.51473000  0.62158000  0.99880000  1.0
  O  O331  1  0.98527000  0.37842000  0.49881000  1.0
  O  O332  1  0.02266000  0.06515000  0.42366000  1.0
  O  O333  1  0.47733000  0.93485000  0.92366000  1.0
  O  O334  1  0.52266000  0.43485000  0.07634000  1.0
  O  O335  1  0.97733000  0.56515000  0.57634000  1.0
  O  O336  1  0.97733000  0.93485000  0.57634000  1.0
  O  O337  1  0.52266000  0.06515000  0.07634000  1.0
  O  O338  1  0.47733000  0.56515000  0.92366000  1.0
  O  O339  1  0.02267000  0.43485000  0.42366000  1.0
  O  O340  1  0.60744000  0.03887000  0.94045000  1.0
  O  O341  1  0.89256000  0.96112000  0.44045000  1.0
  O  O342  1  0.10744000  0.46113000  0.55955000  1.0
  O  O343  1  0.39256000  0.53888000  0.05955000  1.0
  O  O344  1  0.39256000  0.96112000  0.05955000  1.0
  O  O345  1  0.10744000  0.03887000  0.55955000  1.0
  O  O346  1  0.89256000  0.53887000  0.44045000  1.0
  O  O347  1  0.60744000  0.46113000  0.94044000  1.0
  O  O348  1  0.64665000  0.98287000  0.01547000  1.0
  O  O349  1  0.85335000  0.01713000  0.51547000  1.0
  O  O350  1  0.14666000  0.51713000  0.48453000  1.0
  O  O351  1  0.35335000  0.48287000  0.98453000  1.0
  O  O352  1  0.35335000  0.01713000  0.98453000  1.0
  O  O353  1  0.14666000  0.98287000  0.48453000  1.0
  O  O354  1  0.85335000  0.48287000  0.51547000  1.0
  O  O355  1  0.64665000  0.51713000  0.01547000  1.0
  O  O356  1  0.83142000  0.12022000  0.81601000  1.0
  O  O357  1  0.66858000  0.87979000  0.31601000  1.0
  O  O358  1  0.33142000  0.37979000  0.68399000  1.0
  O  O359  1  0.16858000  0.62021000  0.18399000  1.0
  O  O360  1  0.16858000  0.87979000  0.18399000  1.0
  O  O361  1  0.33142000  0.12021000  0.68399000  1.0
  O  O362  1  0.66858000  0.62021000  0.31601000  1.0
  O  O363  1  0.83142000  0.37979000  0.81601000  1.0
  O  O364  1  0.96798000  0.08557000  0.82567000  1.0
  O  O365  1  0.53202000  0.91443000  0.32567000  1.0
  O  O366  1  0.46798000  0.41443000  0.67433000  1.0
  O  O367  1  0.03202000  0.58557000  0.17433000  1.0
  O  O368  1  0.03202000  0.91443000  0.17432000  1.0
  O  O369  1  0.46798000  0.08557000  0.67433000  1.0
  O  O370  1  0.53202000  0.58557000  0.32567000  1.0
  O  O371  1  0.96798000  0.41443000  0.82567000  1.0
  O  O372  1  0.88100000  0.25000000  0.76554000  1.0
  O  O373  1  0.61900000  0.75000000  0.26554000  1.0
  O  O374  1  0.38100000  0.25000000  0.73446000  1.0
  O  O375  1  0.11900000  0.75000000  0.23446000  1.0
