# generated using pymatgen
data_CuH24C12(NO2)2
_symmetry_space_group_name_H-M   'P 1'
_cell_length_a   5.09776000
_cell_length_b   8.47542133
_cell_length_c   18.63660000
_cell_angle_alpha   90.05439798
_cell_angle_beta   90.03140000
_cell_angle_gamma   95.59353964
_symmetry_Int_Tables_number   1
_chemical_formula_structural   CuH24C12(NO2)2
_chemical_formula_sum   'Cu2 H48 C24 N4 O8'
_cell_volume   801.37207224
_cell_formula_units_Z   2
loop_
 _symmetry_equiv_pos_site_id
 _symmetry_equiv_pos_as_xyz
  1  'x, y, z'
loop_
 _atom_site_type_symbol
 _atom_site_label
 _atom_site_symmetry_multiplicity
 _atom_site_fract_x
 _atom_site_fract_y
 _atom_site_fract_z
 _atom_site_occupancy
  Cu  Cu0  1  0.99998000  0.99998000  1.00000000  1.0
  Cu  Cu1  1  0.00001000  0.50002000  0.50000000  1.0
  H  H2  1  0.20734000  0.84445000  0.30301000  1.0
  H  H3  1  0.79273000  0.65546000  0.80307000  1.0
  H  H4  1  0.79264000  0.15556000  0.69700000  1.0
  H  H5  1  0.20728000  0.34452000  0.19693000  1.0
  H  H6  1  0.59066000  0.68946000  0.30980000  1.0
  H  H7  1  0.40923000  0.81031000  0.80986000  1.0
  H  H8  1  0.40936000  0.31055000  0.69020000  1.0
  H  H9  1  0.59076000  0.18967000  0.19013000  1.0
  H  H10  1  0.80620000  0.85602000  0.28658000  1.0
  H  H11  1  0.19384000  0.64365000  0.78649000  1.0
  H  H12  1  0.19379000  0.14401000  0.71342000  1.0
  H  H13  1  0.80616000  0.35631000  0.21351000  1.0
  H  H14  1  0.74244000  0.98460000  0.40250000  1.0
  H  H15  1  0.25774000  0.51530000  0.90235000  1.0
  H  H16  1  0.25749000  0.01543000  0.59750000  1.0
  H  H17  1  0.74234000  0.48467000  0.09765000  1.0
  H  H18  1  0.46509000  0.84790000  0.42220000  1.0
  H  H19  1  0.53516000  0.65202000  0.92219000  1.0
  H  H20  1  0.53487000  0.15210000  0.57780000  1.0
  H  H21  1  0.46488000  0.34800000  0.07780000  1.0
  H  H22  1  0.41799000  0.99325000  0.06896000  1.0
  H  H23  1  0.58214000  0.50668000  0.56887000  1.0
  H  H24  1  0.58197000  0.00670000  0.93104000  1.0
  H  H25  1  0.41790000  0.49336000  0.43113000  1.0
  H  H26  1  0.25166000  0.81551000  0.06467000  1.0
  H  H27  1  0.74839000  0.68442000  0.56477000  1.0
  H  H28  1  0.74828000  0.18444000  0.93534000  1.0
  H  H29  1  0.25164000  0.31562000  0.43524000  1.0
  H  H30  1  0.17036000  0.06554000  0.16980000  1.0
  H  H31  1  0.82989000  0.43444000  0.66970000  1.0
  H  H32  1  0.82965000  0.93446000  0.83019000  1.0
  H  H33  1  0.17017000  0.56559000  0.33029000  1.0
  H  H34  1  0.98694000  0.87767000  0.16693000  1.0
  H  H35  1  0.01325000  0.62227000  0.66705000  1.0
  H  H36  1  0.01302000  0.12234000  0.83308000  1.0
  H  H37  1  0.98679000  0.37777000  0.33294000  1.0
  H  H38  1  0.38866000  0.74211000  0.18602000  1.0
  H  H39  1  0.61159000  0.75783000  0.68612000  1.0
  H  H40  1  0.61126000  0.25787000  0.81399000  1.0
  H  H41  1  0.38845000  0.24219000  0.31389000  1.0
  H  H42  1  0.58896000  0.92231000  0.17729000  1.0
  H  H43  1  0.41126000  0.57764000  0.67711000  1.0
  H  H44  1  0.41101000  0.07765000  0.82270000  1.0
  H  H45  1  0.58879000  0.42237000  0.32288000  1.0
  H  H46  1  0.41172000  0.02189000  0.29147000  1.0
  H  H47  1  0.58853000  0.47796000  0.79128000  1.0
  H  H48  1  0.58825000  0.97811000  0.70852000  1.0
  H  H49  1  0.41148000  0.52203000  0.20871000  1.0
  C  C50  1  0.18143000  0.94036000  0.15590000  1.0
  C  C51  1  0.81880000  0.55958000  0.65588000  1.0
  C  C52  1  0.81854000  0.05963000  0.84411000  1.0
  C  C53  1  0.18125000  0.44045000  0.34411000  1.0
  C  C54  1  0.39827000  0.86983000  0.19836000  1.0
  C  C55  1  0.60195000  0.63009000  0.69833000  1.0
  C  C56  1  0.60168000  0.13015000  0.80164000  1.0
  C  C57  1  0.39811000  0.36992000  0.30167000  1.0
  C  C58  1  0.39569000  0.89400000  0.27953000  1.0
  C  C59  1  0.60439000  0.60585000  0.77949000  1.0
  C  C60  1  0.60430000  0.10600000  0.72047000  1.0
  C  C61  1  0.39562000  0.39414000  0.22051000  1.0
  C  C62  1  0.62249000  0.81904000  0.31566000  1.0
  C  C63  1  0.37758000  0.68074000  0.81564000  1.0
  C  C64  1  0.37751000  0.18098000  0.68434000  1.0
  C  C65  1  0.62243000  0.31923000  0.18436000  1.0
  C  C66  1  0.65875000  0.86121000  0.39532000  1.0
  C  C67  1  0.34150000  0.63867000  0.89526000  1.0
  C  C68  1  0.34122000  0.13882000  0.60467000  1.0
  C  C69  1  0.65854000  0.36132000  0.10474000  1.0
  C  C70  1  0.83626000  0.75469000  0.43394000  1.0
  C  C71  1  0.16405000  0.74522000  0.93388000  1.0
  C  C72  1  0.16376000  0.24534000  0.56606000  1.0
  C  C73  1  0.83591000  0.25472000  0.06612000  1.0
  N  N74  1  0.23537000  0.93137000  0.07821000  1.0
  N  N75  1  0.76483000  0.56860000  0.57819000  1.0
  N  N76  1  0.76458000  0.06859000  0.92179000  1.0
  N  N77  1  0.23522667  0.43144000  0.42180000  1.0
  O  O78  1  0.75491000  0.60285000  0.43326000  1.0
  O  O79  1  0.24504000  0.89712000  0.93323000  1.0
  O  O80  1  0.24509000  0.39720000  0.56674000  1.0
  O  O81  1  0.75490000  0.10285000  0.06677000  1.0
  O  O82  1  0.04203000  0.30772000  0.03456000  1.0
  O  O83  1  0.95735000  0.19233000  0.53449000  1.0
  O  O84  1  0.95799000  0.69222000  0.96543000  1.0
  O  O85  1  0.04268000  0.80771000  0.46549000  1.0
