# generated using pymatgen
data_CuH14C18(NO)4
_symmetry_space_group_name_H-M   'P 1'
_cell_length_a   5.37539000
_cell_length_b   15.04570000
_cell_length_c   24.20760000
_cell_angle_alpha   89.99990000
_cell_angle_beta   85.41570000
_cell_angle_gamma   89.99980000
_symmetry_Int_Tables_number   1
_chemical_formula_structural   CuH14C18(NO)4
_chemical_formula_sum   'Cu4 H56 C72 N16 O16'
_cell_volume   1951.56264606
_cell_formula_units_Z   4
loop_
 _symmetry_equiv_pos_site_id
 _symmetry_equiv_pos_as_xyz
  1  'x, y, z'
loop_
 _atom_site_type_symbol
 _atom_site_label
 _atom_site_symmetry_multiplicity
 _atom_site_fract_x
 _atom_site_fract_y
 _atom_site_fract_z
 _atom_site_occupancy
  Cu  Cu0  1  0.76534000  0.91410000  0.73591000  1.0
  Cu  Cu1  1  0.23467000  0.41410000  0.76409000  1.0
  Cu  Cu2  1  0.23461000  0.08590000  0.26410000  1.0
  Cu  Cu3  1  0.76537000  0.58590000  0.23590000  1.0
  H  H4  1  0.33428000  0.05246000  0.72880000  1.0
  H  H5  1  0.66571000  0.55247000  0.77119000  1.0
  H  H6  1  0.66568000  0.94754000  0.27119000  1.0
  H  H7  1  0.33429000  0.44754000  0.22881000  1.0
  H  H8  1  0.97197000  0.60697000  0.55504000  1.0
  H  H9  1  0.02796000  0.10696000  0.94496000  1.0
  H  H10  1  0.02794000  0.39304000  0.44497000  1.0
  H  H11  1  0.97212000  0.89304000  0.05504000  1.0
  H  H12  1  0.65289000  0.22350000  0.55842000  1.0
  H  H13  1  0.34710000  0.72350000  0.94157000  1.0
  H  H14  1  0.34713000  0.77650000  0.44157000  1.0
  H  H15  1  0.65290000  0.27649000  0.05844000  1.0
  H  H16  1  0.20053000  0.77419000  0.72497000  1.0
  H  H17  1  0.79947000  0.27418000  0.77503000  1.0
  H  H18  1  0.79941000  0.22581000  0.27504000  1.0
  H  H19  1  0.20057000  0.72580000  0.22497000  1.0
  H  H20  1  0.25459000  0.03410000  0.53021000  1.0
  H  H21  1  0.74540000  0.53409000  0.96979000  1.0
  H  H22  1  0.74542000  0.96590000  0.46980000  1.0
  H  H23  1  0.25459000  0.46590000  0.03020000  1.0
  H  H24  1  0.50157000  0.88450000  0.61686000  1.0
  H  H25  1  0.49842000  0.38449000  0.88313000  1.0
  H  H26  1  0.49839000  0.11550000  0.38315000  1.0
  H  H27  1  0.50163000  0.61551000  0.11685000  1.0
  H  H28  1  0.10756000  0.94936000  0.61560000  1.0
  H  H29  1  0.89243000  0.44936000  0.88439000  1.0
  H  H30  1  0.89242000  0.05063000  0.38440000  1.0
  H  H31  1  0.10757000  0.55064000  0.11560000  1.0
  H  H32  1  0.46405000  0.65476000  0.66650000  1.0
  H  H33  1  0.53593000  0.15475000  0.83350000  1.0
  H  H34  1  0.53593000  0.34526000  0.33350000  1.0
  H  H35  1  0.46410000  0.84524000  0.16650000  1.0
  H  H36  1  0.31261000  0.59756000  0.61494000  1.0
  H  H37  1  0.68737000  0.09756000  0.88506000  1.0
  H  H38  1  0.68737000  0.40246000  0.38505000  1.0
  H  H39  1  0.31266000  0.90245000  0.11495000  1.0
  H  H40  1  0.62350000  0.66435000  0.50293000  1.0
  H  H41  1  0.37639000  0.16435000  0.99709000  1.0
  H  H42  1  0.37638000  0.33565000  0.49709000  1.0
  H  H43  1  0.62367000  0.83567000  0.00291000  1.0
  H  H44  1  0.39131000  0.80048000  0.53363000  1.0
  H  H45  1  0.60859000  0.30049000  0.96638000  1.0
  H  H46  1  0.60859000  0.19952000  0.46639000  1.0
  H  H47  1  0.39146000  0.69954000  0.03361000  1.0
  H  H48  1  0.03284000  0.16809000  0.50237000  1.0
  H  H49  1  0.96715000  0.66809000  0.99763000  1.0
  H  H50  1  0.96719000  0.83190000  0.49763000  1.0
  H  H51  1  0.03285000  0.33190000  0.00238000  1.0
  H  H52  1  0.09395000  0.16796000  0.66963000  1.0
  H  H53  1  0.90605000  0.66796000  0.83036000  1.0
  H  H54  1  0.90606000  0.83205000  0.33036000  1.0
  H  H55  1  0.09395000  0.33204000  0.16963000  1.0
  H  H56  1  0.27616000  0.22692000  0.61791000  1.0
  H  H57  1  0.72388000  0.72691000  0.88208000  1.0
  H  H58  1  0.72387000  0.77309000  0.38207000  1.0
  H  H59  1  0.27618000  0.27308000  0.11792000  1.0
  C  C60  1  0.80044000  0.79367000  0.63234000  1.0
  C  C61  1  0.19951000  0.29367000  0.86765000  1.0
  C  C62  1  0.19950000  0.20633000  0.36767000  1.0
  C  C63  1  0.80051000  0.70634000  0.13234000  1.0
  C  C64  1  0.79274000  0.03738000  0.63358000  1.0
  C  C65  1  0.20729000  0.53738000  0.86642000  1.0
  C  C66  1  0.20726000  0.96262000  0.36642000  1.0
  C  C67  1  0.79275000  0.46262000  0.13358000  1.0
  C  C68  1  0.47210000  0.05854000  0.69353000  1.0
  C  C69  1  0.52789000  0.55855000  0.80646000  1.0
  C  C70  1  0.52786000  0.94146000  0.30646000  1.0
  C  C71  1  0.47213000  0.44146000  0.19354000  1.0
  C  C72  1  0.87257000  0.66751000  0.56813000  1.0
  C  C73  1  0.12736000  0.16751000  0.93187000  1.0
  C  C74  1  0.12736000  0.33249000  0.43188000  1.0
  C  C75  1  0.87269000  0.83250000  0.06813000  1.0
  C  C76  1  0.74822000  0.16319000  0.57007000  1.0
  C  C77  1  0.25180000  0.66319000  0.92993000  1.0
  C  C78  1  0.25181000  0.83680000  0.42993000  1.0
  C  C79  1  0.74822000  0.33680000  0.07008000  1.0
  C  C80  1  0.93272000  0.71563000  0.61462000  1.0
  C  C81  1  0.06723000  0.21562000  0.88539000  1.0
  C  C82  1  0.06720000  0.28437000  0.38539000  1.0
  C  C83  1  0.93281000  0.78438000  0.11461000  1.0
  C  C84  1  0.66485000  0.11420000  0.61690000  1.0
  C  C85  1  0.33518000  0.61419000  0.88310000  1.0
  C  C86  1  0.33517000  0.88580000  0.38310000  1.0
  C  C87  1  0.66486000  0.38580000  0.11691000  1.0
  C  C88  1  0.08371000  0.76955000  0.69033000  1.0
  C  C89  1  0.91629000  0.26955000  0.80967000  1.0
  C  C90  1  0.91625000  0.23045000  0.30968000  1.0
  C  C91  1  0.08373000  0.73044000  0.19032000  1.0
  C  C92  1  0.08878000  0.05579000  0.55543000  1.0
  C  C93  1  0.91124000  0.55580000  0.94456000  1.0
  C  C94  1  0.91125000  0.94420000  0.44457000  1.0
  C  C95  1  0.08877000  0.44419000  0.05543000  1.0
  C  C96  1  0.60399000  0.82504000  0.60320000  1.0
  C  C97  1  0.39598000  0.32504000  0.89679000  1.0
  C  C98  1  0.39595000  0.17496000  0.39681000  1.0
  C  C99  1  0.60407000  0.67497000  0.10319000  1.0
  C  C100  1  0.00801000  0.00778000  0.60266000  1.0
  C  C101  1  0.99201000  0.50778000  0.89734000  1.0
  C  C102  1  0.99200000  0.99221000  0.39734000  1.0
  C  C103  1  0.00802000  0.49222000  0.10266000  1.0
  C  C104  1  0.28268000  0.62960000  0.65559000  1.0
  C  C105  1  0.71729000  0.12959000  0.84441000  1.0
  C  C106  1  0.71730000  0.37042000  0.34441000  1.0
  C  C107  1  0.28274000  0.87041000  0.15560000  1.0
  C  C108  1  0.67589000  0.69984000  0.53956000  1.0
  C  C109  1  0.32402000  0.19984000  0.96045000  1.0
  C  C110  1  0.32400000  0.30015000  0.46045000  1.0
  C  C111  1  0.67604000  0.80017000  0.03955000  1.0
  C  C112  1  0.54392000  0.77724000  0.55687000  1.0
  C  C113  1  0.45601000  0.27724000  0.94314000  1.0
  C  C114  1  0.45600000  0.22276000  0.44314000  1.0
  C  C115  1  0.54401000  0.72277000  0.05686000  1.0
  C  C116  1  0.96126000  0.13223000  0.53938000  1.0
  C  C117  1  0.03877000  0.63223000  0.96061000  1.0
  C  C118  1  0.03877000  0.86777000  0.46062000  1.0
  C  C119  1  0.96125000  0.36776000  0.03939000  1.0
  C  C120  1  0.28017000  0.19576000  0.65876000  1.0
  C  C121  1  0.71984000  0.69575000  0.84124000  1.0
  C  C122  1  0.71984000  0.80425000  0.34123000  1.0
  C  C123  1  0.28017000  0.30424000  0.15877000  1.0
  C  C124  1  0.18942000  0.56074000  0.69957000  1.0
  C  C125  1  0.81056000  0.06074000  0.80043000  1.0
  C  C126  1  0.81059000  0.43926000  0.30042000  1.0
  C  C127  1  0.18943000  0.93926000  0.19958000  1.0
  C  C128  1  0.33218000  0.26618000  0.70240000  1.0
  C  C129  1  0.66785000  0.76619000  0.79760000  1.0
  C  C130  1  0.66785000  0.73382000  0.29759000  1.0
  C  C131  1  0.33212000  0.23381000  0.20241000  1.0
  N  N132  1  0.90103000  0.82542000  0.67977000  1.0
  N  N133  1  0.09897000  0.32541000  0.82023000  1.0
  N  N134  1  0.09891000  0.17458000  0.32024000  1.0
  N  N135  1  0.90107000  0.67458000  0.17976000  1.0
  N  N136  1  0.66612000  0.00461000  0.68180000  1.0
  N  N137  1  0.33389000  0.50461000  0.81820000  1.0
  N  N138  1  0.33385000  0.99539000  0.31820000  1.0
  N  N139  1  0.66613000  0.49539000  0.18180000  1.0
  N  N140  1  0.46190000  0.12444000  0.65552000  1.0
  N  N141  1  0.53811000  0.62444000  0.84448000  1.0
  N  N142  1  0.53810000  0.87556000  0.34447000  1.0
  N  N143  1  0.46191000  0.37555000  0.15553000  1.0
  N  N144  1  0.11189000  0.70353000  0.65211000  1.0
  N  N145  1  0.88808000  0.20353000  0.84788000  1.0
  N  N146  1  0.88805000  0.29648000  0.34790000  1.0
  N  N147  1  0.11197000  0.79647000  0.15211000  1.0
  O  O148  1  0.34572000  0.49659000  0.70345000  1.0
  O  O149  1  0.65428000  0.99659000  0.79655000  1.0
  O  O150  1  0.65433000  0.50343000  0.29655000  1.0
  O  O151  1  0.34572000  0.00343000  0.20345000  1.0
  O  O152  1  0.98716000  0.57176000  0.72746000  1.0
  O  O153  1  0.01284000  0.07175000  0.77254000  1.0
  O  O154  1  0.01282000  0.42822000  0.27253000  1.0
  O  O155  1  0.98718000  0.92822000  0.22746000  1.0
  O  O156  1  0.16794000  0.32876000  0.70514000  1.0
  O  O157  1  0.83210000  0.82876000  0.79485000  1.0
  O  O158  1  0.83212000  0.67125000  0.29485000  1.0
  O  O159  1  0.16783000  0.17125000  0.20516000  1.0
  O  O160  1  0.51239000  0.25813000  0.73125000  1.0
  O  O161  1  0.48763000  0.75815000  0.76875000  1.0
  O  O162  1  0.48759000  0.74186000  0.26875000  1.0
  O  O163  1  0.51238000  0.24184000  0.23125000  1.0
