# generated using pymatgen
data_Zn4H8C28S2Cl4O13F2
_symmetry_space_group_name_H-M   'P 1'
_cell_length_a   18.45780000
_cell_length_b   19.60961885
_cell_length_c   32.80073629
_cell_angle_alpha   86.05636002
_cell_angle_beta   73.79391670
_cell_angle_gamma   62.11366780
_symmetry_Int_Tables_number   1
_chemical_formula_structural   Zn4H8C28S2Cl4O13F2
_chemical_formula_sum   'Zn16 H32 C112 S8 Cl16 O52 F8'
_cell_volume   10049.91577399
_cell_formula_units_Z   4
loop_
 _symmetry_equiv_pos_site_id
 _symmetry_equiv_pos_as_xyz
  1  'x, y, z'
loop_
 _atom_site_type_symbol
 _atom_site_label
 _atom_site_symmetry_multiplicity
 _atom_site_fract_x
 _atom_site_fract_y
 _atom_site_fract_z
 _atom_site_occupancy
  Zn  Zn0  1  0.94254000  0.44813000  0.48124000  1.0
  Zn  Zn1  1  0.96331000  0.51782000  0.56115000  1.0
  Zn  Zn2  1  0.97325000  0.59886000  0.47430000  1.0
  Zn  Zn3  1  0.12403000  0.43432000  0.48425000  1.0
  Zn  Zn4  1  0.54882000  0.81285000  0.26351000  1.0
  Zn  Zn5  1  0.54882000  0.64855000  0.27293000  1.0
  Zn  Zn6  1  0.53061000  0.73426000  0.18724000  1.0
  Zn  Zn7  1  0.37632000  0.80041000  0.27376000  1.0
  Zn  Zn8  1  0.53623000  0.24424000  0.68559000  1.0
  Zn  Zn9  1  0.37909000  0.31092000  0.77041000  1.0
  Zn  Zn10  1  0.55693000  0.29854000  0.77078000  1.0
  Zn  Zn11  1  0.53249000  0.14737000  0.77055000  1.0
  Zn  Zn12  1  0.95642000  0.09853000  0.97381000  1.0
  Zn  Zn13  1  0.12972000  0.94966000  0.98326000  1.0
  Zn  Zn14  1  0.96711000  0.93290000  0.97855000  1.0
  Zn  Zn15  1  0.95549000  0.01327000  0.06138000  1.0
  H  H16  1  0.64767000  0.52958000  0.37530000  1.0
  H  H17  1  0.73920000  0.49007000  0.33046000  1.0
  H  H18  1  0.83445000  0.44105000  0.37962000  1.0
  H  H19  1  0.74274000  0.48054000  0.42442000  1.0
  H  H20  1  0.44946000  0.33486000  0.57488000  1.0
  H  H21  1  0.45041000  0.24363000  0.57523000  1.0
  H  H22  1  0.35512000  0.28942000  0.52630000  1.0
  H  H23  1  0.35492000  0.38043000  0.52554000  1.0
  H  H24  1  0.74124000  0.23862000  0.57627000  1.0
  H  H25  1  0.65057000  0.32650000  0.57261000  1.0
  H  H26  1  0.74741000  0.37425000  0.52414000  1.0
  H  H27  1  0.83824000  0.28661000  0.52773000  1.0
  H  H28  1  0.16046000  0.80545000  0.36856000  1.0
  H  H29  1  0.15655000  0.76207000  0.32382000  1.0
  H  H30  1  0.06061000  0.71370000  0.37298000  1.0
  H  H31  1  0.06434000  0.75756000  0.41763000  1.0
  H  H32  1  0.85832000  0.91055000  0.17227000  1.0
  H  H33  1  0.76862000  0.00229000  0.17308000  1.0
  H  H34  1  0.67095000  0.95469000  0.22065000  1.0
  H  H35  1  0.76045000  0.86262000  0.21975000  1.0
  H  H36  1  0.34397000  0.79162000  0.02993000  1.0
  H  H37  1  0.34999000  0.87977000  0.02843000  1.0
  H  H38  1  0.44586000  0.82923000  0.07711000  1.0
  H  H39  1  0.43956000  0.74113000  0.07885000  1.0
  H  H40  1  0.35062000  0.98145000  0.92802000  1.0
  H  H41  1  0.34800000  0.93664000  0.88341000  1.0
  H  H42  1  0.44539000  0.98311000  0.83431000  1.0
  H  H43  1  0.44924000  0.02673000  0.87900000  1.0
  H  H44  1  0.76613000  0.25835000  0.91467000  1.0
  H  H45  1  0.85624000  0.21242000  0.86950000  1.0
  H  H46  1  0.75869000  0.25984000  0.82161000  1.0
  H  H47  1  0.66888000  0.30592000  0.86678000  1.0
  C  C48  1  0.86662000  0.43173000  0.57013000  1.0
  C  C49  1  0.87590000  0.68532000  0.55849000  1.0
  C  C50  1  0.86408000  0.57657000  0.43026000  1.0
  C  C51  1  0.15212000  0.55801000  0.43561000  1.0
  C  C52  1  0.11090000  0.31771000  0.43822000  1.0
  C  C53  1  0.13584000  0.43089000  0.56963000  1.0
  C  C54  1  0.64184000  0.69089000  0.31578000  1.0
  C  C55  1  0.62475000  0.56479000  0.18860000  1.0
  C  C56  1  0.63053000  0.82043000  0.17478000  1.0
  C  C57  1  0.35221000  0.81765000  0.18669000  1.0
  C  C58  1  0.37778000  0.93236000  0.31139000  1.0
  C  C59  1  0.37640000  0.66896000  0.32024000  1.0
  C  C60  1  0.35772000  0.31865000  0.68385000  1.0
  C  C61  1  0.39147000  0.43511000  0.80790000  1.0
  C  C62  1  0.64177000  0.31929000  0.68330000  1.0
  C  C63  1  0.63136000  0.16950000  0.82175000  1.0
  C  C64  1  0.62123000  0.07284000  0.68283000  1.0
  C  C65  1  0.35949000  0.18591000  0.81812000  1.0
  C  C66  1  0.13109000  0.07456000  0.92903000  1.0
  C  C67  1  0.14528000  0.81536000  0.93898000  1.0
  C  C68  1  0.86046000  0.05703000  0.93256000  1.0
  C  C69  1  0.86065000  0.92932000  0.06351000  1.0
  C  C70  1  0.88157000  0.18265000  0.05885000  1.0
  C  C71  1  0.12867000  0.93355000  0.07285000  1.0
  C  C72  1  0.13516000  0.19492000  0.39915000  1.0
  C  C73  1  0.35160000  0.05586000  0.34980000  1.0
  C  C74  1  0.16103000  0.24292000  0.41304000  1.0
  C  C75  1  0.32594000  0.00754000  0.33605000  1.0
  C  C76  1  0.28267000  0.12416000  0.37287000  1.0
  C  C77  1  0.20402000  0.12643000  0.37611000  1.0
  C  C78  1  0.79219000  0.77793000  0.62613000  1.0
  C  C79  1  0.70506000  0.98143000  0.61394000  1.0
  C  C80  1  0.82593000  0.76103000  0.58242000  1.0
  C  C81  1  0.67141000  0.99806000  0.65764000  1.0
  C  C82  1  0.74963000  0.90131000  0.60196000  1.0
  C  C83  1  0.74845000  0.85800000  0.63788000  1.0
  C  C84  1  0.69511000  0.66880000  0.34619000  1.0
  C  C85  1  0.80440000  0.61231000  0.40303000  1.0
  C  C86  1  0.72004000  0.59600000  0.36227000  1.0
  C  C87  1  0.77730000  0.68819000  0.38856000  1.0
  C  C88  1  0.77230000  0.56901000  0.38939000  1.0
  C  C89  1  0.72421000  0.71564000  0.36074000  1.0
  C  C90  1  0.71256000  0.52237000  0.36165000  1.0
  C  C91  1  0.77204000  0.49167000  0.39238000  1.0
  C  C92  1  0.29622000  0.34770000  0.65749000  1.0
  C  C93  1  0.18717000  0.40123000  0.60080000  1.0
  C  C94  1  0.32807000  0.33814000  0.61321000  1.0
  C  C95  1  0.15242000  0.41059000  0.64572000  1.0
  C  C96  1  0.27588000  0.36334000  0.58608000  1.0
  C  C97  1  0.20548000  0.38506000  0.67353000  1.0
  C  C98  1  0.40964000  0.30648000  0.57686000  1.0
  C  C99  1  0.35024000  0.33516000  0.54608000  1.0
  C  C100  1  0.69553000  0.35338000  0.65701000  1.0
  C  C101  1  0.80690000  0.40860000  0.60113000  1.0
  C  C102  1  0.72180000  0.34001000  0.61285000  1.0
  C  C103  1  0.77839000  0.42609000  0.64596000  1.0
  C  C104  1  0.77513000  0.36639000  0.58614000  1.0
  C  C105  1  0.72400000  0.39906000  0.67323000  1.0
  C  C106  1  0.71518000  0.30175000  0.57639000  1.0
  C  C107  1  0.77580000  0.33175000  0.54606000  1.0
  C  C108  1  0.32545000  0.63540000  0.34966000  1.0
  C  C109  1  0.21480000  0.58019000  0.40649000  1.0
  C  C110  1  0.23665000  0.67794000  0.36174000  1.0
  C  C111  1  0.30527000  0.53508000  0.39467000  1.0
  C  C112  1  0.18378000  0.65150000  0.38880000  1.0
  C  C113  1  0.35926000  0.56218000  0.36704000  1.0
  C  C114  1  0.16278000  0.75352000  0.35636000  1.0
  C  C115  1  0.10269000  0.72347000  0.38708000  1.0
  C  C116  1  0.71049000  0.41610000  0.17714000  1.0
  C  C117  1  0.79728000  0.33156000  0.07013000  1.0
  C  C118  1  0.67465000  0.49015000  0.16346000  1.0
  C  C119  1  0.83250000  0.25746000  0.08385000  1.0
  C  C120  1  0.75210000  0.38979000  0.10389000  1.0
  C  C121  1  0.75471000  0.35779000  0.14346000  1.0
  C  C122  1  0.79855000  0.90326000  0.08916000  1.0
  C  C123  1  0.68494000  0.84925000  0.14399000  1.0
  C  C124  1  0.77708000  0.91075000  0.13341000  1.0
  C  C125  1  0.70327000  0.84324000  0.09889000  1.0
  C  C126  1  0.72291000  0.88472000  0.15963000  1.0
  C  C127  1  0.75877000  0.86958000  0.07215000  1.0
  C  C128  1  0.79212000  0.93953000  0.17040000  1.0
  C  C129  1  0.73080000  0.90976000  0.20018000  1.0
  C  C130  1  0.18001000  0.90913000  0.10425000  1.0
  C  C131  1  0.29022000  0.85138000  0.16059000  1.0
  C  C132  1  0.26871000  0.86813000  0.08942000  1.0
  C  C133  1  0.19986000  0.89507000  0.17675000  1.0
  C  C134  1  0.32138000  0.84045000  0.11632000  1.0
  C  C135  1  0.14617000  0.92335000  0.14921000  1.0
  C  C136  1  0.34257000  0.83589000  0.04935000  1.0
  C  C137  1  0.40246000  0.80437000  0.07985000  1.0
  C  C138  1  0.25766000  0.55678000  0.84728000  1.0
  C  C139  1  0.28449000  0.69430000  0.89951000  1.0
  C  C140  1  0.34517000  0.50945000  0.83312000  1.0
  C  C141  1  0.19687000  0.74102000  0.91353000  1.0
  C  C142  1  0.30787000  0.62656000  0.87533000  1.0
  C  C143  1  0.23526000  0.62390000  0.87150000  1.0
  C  C144  1  0.18362000  0.10777000  0.90054000  1.0
  C  C145  1  0.29679000  0.16152000  0.84488000  1.0
  C  C146  1  0.27241000  0.06466000  0.88926000  1.0
  C  C147  1  0.20651000  0.20676000  0.85536000  1.0
  C  C148  1  0.32653000  0.09007000  0.86239000  1.0
  C  C149  1  0.15119000  0.18091000  0.88285000  1.0
  C  C150  1  0.34549000  0.98893000  0.89529000  1.0
  C  C151  1  0.40689000  0.01777000  0.86467000  1.0
  C  C152  1  0.79942000  0.08141000  0.90614000  1.0
  C  C153  1  0.68641000  0.13657000  0.85127000  1.0
  C  C154  1  0.77693000  0.15231000  0.88806000  1.0
  C  C155  1  0.70662000  0.06459000  0.87000000  1.0
  C  C156  1  0.72314000  0.17853000  0.86173000  1.0
  C  C157  1  0.76185000  0.03766000  0.89675000  1.0
  C  C158  1  0.79030000  0.22330000  0.88459000  1.0
  C  C159  1  0.72932000  0.25300000  0.85465000  1.0
  S  S160  1  0.27191000  0.20414000  0.39775000  1.0
  S  S161  1  0.21512000  0.04601000  0.35140000  1.0
  S  S162  1  0.80426000  0.84442000  0.55484000  1.0
  S  S163  1  0.69440000  0.91444000  0.68507000  1.0
  S  S164  1  0.69503000  0.48918000  0.10827000  1.0
  S  S165  1  0.81051000  0.25831000  0.13911000  1.0
  S  S166  1  0.40180000  0.54733000  0.84971000  1.0
  S  S167  1  0.14104000  0.70212000  0.89710000  1.0
  Cl  Cl168  1  0.80545000  0.75139000  0.40533000  1.0
  Cl  Cl169  1  0.69379000  0.80894000  0.34614000  1.0
  Cl  Cl170  1  0.04383000  0.45002000  0.66791000  1.0
  Cl  Cl171  1  0.15537000  0.40207000  0.72725000  1.0
  Cl  Cl172  1  0.80573000  0.48374000  0.66886000  1.0
  Cl  Cl173  1  0.69038000  0.42632000  0.72675000  1.0
  Cl  Cl174  1  0.35382000  0.44512000  0.41318000  1.0
  Cl  Cl175  1  0.46773000  0.50371000  0.35606000  1.0
  Cl  Cl176  1  0.65631000  0.80604000  0.07477000  1.0
  Cl  Cl177  1  0.77341000  0.86330000  0.01818000  1.0
  Cl  Cl178  1  0.15133000  0.91714000  0.23056000  1.0
  Cl  Cl179  1  0.03819000  0.97846000  0.17205000  1.0
  Cl  Cl180  1  0.16089000  0.29340000  0.83321000  1.0
  Cl  Cl181  1  0.04327000  0.24252000  0.89492000  1.0
  Cl  Cl182  1  0.66422000  0.00697000  0.86146000  1.0
  Cl  Cl183  1  0.77959000  0.95104000  0.91870000  1.0
  O  O184  1  0.99977000  0.49904000  0.49893000  1.0
  O  O185  1  0.86621000  0.42973000  0.53128000  1.0
  O  O186  1  0.88502000  0.62640000  0.57987000  1.0
  O  O187  1  0.90762000  0.60872000  0.43447000  1.0
  O  O188  1  0.91396000  0.44949000  0.58396000  1.0
  O  O189  1  0.86752000  0.51406000  0.44632000  1.0
  O  O190  1  0.90561000  0.68584000  0.51826000  1.0
  O  O191  1  0.07376000  0.60759000  0.44056000  1.0
  O  O192  1  0.15612000  0.34542000  0.44660000  1.0
  O  O193  1  0.17921000  0.49438000  0.45305000  1.0
  O  O194  1  0.02967000  0.34768000  0.44914000  1.0
  O  O195  1  0.06392000  0.49139000  0.58069000  1.0
  O  O196  1  0.17069000  0.39387000  0.53295000  1.0
  O  O197  1  0.50066000  0.74998000  0.24944000  1.0
  O  O198  1  0.63288000  0.74941000  0.29437000  1.0
  O  O199  1  0.62130000  0.56428000  0.22798000  1.0
  O  O200  1  0.61444000  0.77117000  0.16141000  1.0
  O  O201  1  0.61030000  0.64581000  0.31342000  1.0
  O  O202  1  0.60597000  0.84775000  0.21337000  1.0
  O  O203  1  0.58965000  0.62367000  0.16810000  1.0
  O  O204  1  0.43096000  0.78902000  0.16524000  1.0
  O  O205  1  0.33543000  0.90097000  0.30352000  1.0
  O  O206  1  0.32421000  0.81833000  0.22675000  1.0
  O  O207  1  0.45860000  0.90571000  0.30023000  1.0
  O  O208  1  0.45518000  0.62579000  0.30279000  1.0
  O  O209  1  0.33387000  0.74072000  0.31464000  1.0
  O  O210  1  0.50347000  0.24951000  0.74813000  1.0
  O  O211  1  0.43630000  0.29355000  0.66292000  1.0
  O  O212  1  0.34641000  0.41218000  0.79543000  1.0
  O  O213  1  0.63990000  0.31048000  0.72224000  1.0
  O  O214  1  0.32910000  0.32000000  0.72397000  1.0
  O  O215  1  0.60353000  0.29940000  0.66316000  1.0
  O  O216  1  0.47275000  0.40044000  0.80089000  1.0
  O  O217  1  0.61845000  0.23744000  0.81113000  1.0
  O  O218  1  0.60001000  0.06767000  0.72310000  1.0
  O  O219  1  0.60262000  0.12959000  0.80931000  1.0
  O  O220  1  0.60364000  0.13434000  0.66301000  1.0
  O  O221  1  0.33686000  0.25779000  0.81630000  1.0
  O  O222  1  0.43357000  0.13096000  0.80003000  1.0
  O  O223  1  0.00418000  0.99913000  0.99932000  1.0
  O  O224  1  0.05190000  0.10495000  0.93195000  1.0
  O  O225  1  0.18260000  0.84761000  0.95107000  1.0
  O  O226  1  0.89871000  0.98599000  0.93939000  1.0
  O  O227  1  0.17245000  0.01560000  0.94786000  1.0
  O  O228  1  0.87050000  0.11129000  0.94553000  1.0
  O  O229  1  0.06477000  0.84065000  0.94632000  1.0
  O  O230  1  0.90412000  0.89794000  0.02616000  1.0
  O  O231  1  0.90283000  0.12305000  0.08066000  1.0
  O  O232  1  0.86647000  0.98072000  0.08247000  1.0
  O  O233  1  0.89808000  0.18385000  0.01850000  1.0
  O  O234  1  0.17035000  0.93378000  0.03450000  1.0
  O  O235  1  0.05036000  0.94979000  0.08577000  1.0
  F  F236  1  0.05332000  0.21047000  0.40659000  1.0
  F  F237  1  0.43317000  0.04083000  0.34242000  1.0
  F  F238  1  0.79974000  0.72507000  0.65511000  1.0
  F  F239  1  0.69705000  0.03499000  0.58526000  1.0
  F  F240  1  0.70410000  0.39976000  0.21804000  1.0
  F  F241  1  0.80385000  0.34793000  0.02925000  1.0
  F  F242  1  0.19859000  0.54198000  0.83950000  1.0
  F  F243  1  0.34239000  0.71047000  0.90781000  1.0
