# generated using pymatgen
data_CoH20C19(NO)4
_symmetry_space_group_name_H-M   'P 1'
_cell_length_a   9.76447000
_cell_length_b   9.94880000
_cell_length_c   12.15500000
_cell_angle_alpha   82.75270000
_cell_angle_beta   76.51030000
_cell_angle_gamma   61.85750000
_symmetry_Int_Tables_number   1
_chemical_formula_structural   CoH20C19(NO)4
_chemical_formula_sum   'Co2 H40 C38 N8 O8'
_cell_volume   1012.29398172
_cell_formula_units_Z   2
loop_
 _symmetry_equiv_pos_site_id
 _symmetry_equiv_pos_as_xyz
  1  'x, y, z'
loop_
 _atom_site_type_symbol
 _atom_site_label
 _atom_site_symmetry_multiplicity
 _atom_site_fract_x
 _atom_site_fract_y
 _atom_site_fract_z
 _atom_site_occupancy
  Co  Co0  1  0.40715000  0.97395000  0.19000000  1.0
  Co  Co1  1  0.59285000  0.02605000  0.81000000  1.0
  H  H2  1  0.08502000  0.17528000  0.95547000  1.0
  H  H3  1  0.91498000  0.82472000  0.04453000  1.0
  H  H4  1  0.86226000  0.50320000  0.21930000  1.0
  H  H5  1  0.13774000  0.49680000  0.78070000  1.0
  H  H6  1  0.13693000  0.15401000  0.36017000  1.0
  H  H7  1  0.86307000  0.84599000  0.63983000  1.0
  H  H8  1  0.64649000  0.57979000  0.93253000  1.0
  H  H9  1  0.35351000  0.42021000  0.06747000  1.0
  H  H10  1  0.47794000  0.71805000  0.39970000  1.0
  H  H11  1  0.52206000  0.28195000  0.60030000  1.0
  H  H12  1  0.02107000  0.07045000  0.84742000  1.0
  H  H13  1  0.97893000  0.92955000  0.15258000  1.0
  H  H14  1  0.89486000  0.10566000  0.75204000  1.0
  H  H15  1  0.10514000  0.89434000  0.24796000  1.0
  H  H16  1  0.81639000  0.12550000  0.89884000  1.0
  H  H17  1  0.18361000  0.87450000  0.10116000  1.0
  H  H18  1  0.36117000  0.64912000  0.62020000  1.0
  H  H19  1  0.63883000  0.35088000  0.37980000  1.0
  H  H20  1  0.16767000  0.77679000  0.68254000  1.0
  H  H21  1  0.83233000  0.22321000  0.31746000  1.0
  H  H22  1  0.67804000  0.52459000  0.76079000  1.0
  H  H23  1  0.32197000  0.47541000  0.23921000  1.0
  H  H24  1  0.60583000  0.40388000  0.84754000  1.0
  H  H25  1  0.39417000  0.59612000  0.15246000  1.0
  H  H26  1  0.70544000  0.35506000  0.70561000  1.0
  H  H27  1  0.29456000  0.64494000  0.29439000  1.0
  H  H28  1  0.05357000  0.08986000  0.57554000  1.0
  H  H29  1  0.94643000  0.91014000  0.42446000  1.0
  H  H30  1  0.96693000  0.45390000  0.71798000  1.0
  H  H31  1  0.03307000  0.54610000  0.28202000  1.0
  H  H32  1  0.99175000  0.29905000  0.64385000  1.0
  H  H33  1  0.00826000  0.70095000  0.35615000  1.0
  H  H34  1  0.11101000  0.26537000  0.74515000  1.0
  H  H35  1  0.88899000  0.73463000  0.25485000  1.0
  H  H36  1  0.45235000  0.82190000  0.95486000  1.0
  H  H37  1  0.54765000  0.17810000  0.04514000  1.0
  H  H38  1  0.30251000  0.70240000  0.88995000  1.0
  H  H39  1  0.69749000  0.29760000  0.11005000  1.0
  H  H40  1  0.44859000  0.96915000  0.62342000  1.0
  H  H41  1  0.55141000  0.03085000  0.37658000  1.0
  C  C42  1  0.98646000  0.28226000  0.98932000  1.0
  C  C43  1  0.01354000  0.71774000  0.01068000  1.0
  C  C44  1  0.74278000  0.55816000  0.07970000  1.0
  C  C45  1  0.25722000  0.44184000  0.92030000  1.0
  C  C46  1  0.86323000  0.46642000  0.13864000  1.0
  C  C47  1  0.13678000  0.53358000  0.86136000  1.0
  C  C48  1  0.62222000  0.70752000  0.12976000  1.0
  C  C49  1  0.37778000  0.29248000  0.87024000  1.0
  C  C50  1  0.98598000  0.32891000  0.09340000  1.0
  C  C51  1  0.01402000  0.67109000  0.90660000  1.0
  C  C52  1  0.74226000  0.50837000  0.97687000  1.0
  C  C53  1  0.25775000  0.49163000  0.02313000  1.0
  C  C54  1  0.86293000  0.36942000  0.93051000  1.0
  C  C55  1  0.13707000  0.63058000  0.06949000  1.0
  C  C56  1  0.86407000  0.31363000  0.81828000  1.0
  C  C57  1  0.13593000  0.68637000  0.18172000  1.0
  C  C58  1  0.26943000  0.86296000  0.53294000  1.0
  C  C59  1  0.73057000  0.13704000  0.46706000  1.0
  C  C60  1  0.37101000  0.82235000  0.42635000  1.0
  C  C61  1  0.62899000  0.17765000  0.57365000  1.0
  C  C62  1  0.90173000  0.14429000  0.83050000  1.0
  C  C63  1  0.09827000  0.85571000  0.16950000  1.0
  C  C64  1  0.28347000  0.77018000  0.64074000  1.0
  C  C65  1  0.71653000  0.22982000  0.35926000  1.0
  C  C66  1  0.70357000  0.40543000  0.78169000  1.0
  C  C67  1  0.29643000  0.59457000  0.21831000  1.0
  C  C68  1  0.15503000  0.01213000  0.51705000  1.0
  C  C69  1  0.84497000  0.98787000  0.48295000  1.0
  C  C70  1  0.99189000  0.33366000  0.72623000  1.0
  C  C71  1  0.00811000  0.66634000  0.27377000  1.0
  C  C72  1  0.11182000  0.23460000  0.16083000  1.0
  C  C73  1  0.88819000  0.76540000  0.83917000  1.0
  C  C74  1  0.34894000  0.77290000  0.83571000  1.0
  C  C75  1  0.65105000  0.22710000  0.16429000  1.0
  C  C76  1  0.34790000  0.81678000  0.72201000  1.0
  C  C77  1  0.65210000  0.18322000  0.27799000  1.0
  C  C78  1  0.42518000  0.90885000  0.70043000  1.0
  C  C79  1  0.57482000  0.09115000  0.29957000  1.0
  N  N80  1  0.32067000  0.93838000  0.35107000  1.0
  N  N81  1  0.67933000  0.06162000  0.64893000  1.0
  N  N82  1  0.18933000  0.05269000  0.40819000  1.0
  N  N83  1  0.81067000  0.94731000  0.59181000  1.0
  N  N84  1  0.42362000  0.83565000  0.87530000  1.0
  N  N85  1  0.57638000  0.16435000  0.12470000  1.0
  N  N86  1  0.47140000  0.91889000  0.79400000  1.0
  N  N87  1  0.52860000  0.08111000  0.20600000  1.0
  O  O88  1  0.63207000  0.74832000  0.22027000  1.0
  O  O89  1  0.36793000  0.25168000  0.77973000  1.0
  O  O90  1  0.50387000  0.79994000  0.08105000  1.0
  O  O91  1  0.49613000  0.20006000  0.91895000  1.0
  O  O92  1  0.23404000  0.11687000  0.11299000  1.0
  O  O93  1  0.76596000  0.88313000  0.88701000  1.0
  O  O94  1  0.08920000  0.27517000  0.26077000  1.0
  O  O95  1  0.91080000  0.72483000  0.73923000  1.0
