# generated using pymatgen
data_Co3H8C14(NO5)2
_symmetry_space_group_name_H-M   'P 1'
_cell_length_a   10.83250000
_cell_length_b   11.03838402
_cell_length_c   11.04524465
_cell_angle_alpha   71.22687745
_cell_angle_beta   78.85697461
_cell_angle_gamma   78.83939212
_symmetry_Int_Tables_number   1
_chemical_formula_structural   Co3H8C14(NO5)2
_chemical_formula_sum   'Co6 H16 C28 N4 O20'
_cell_volume   1214.55165478
_cell_formula_units_Z   2
loop_
 _symmetry_equiv_pos_site_id
 _symmetry_equiv_pos_as_xyz
  1  'x, y, z'
loop_
 _atom_site_type_symbol
 _atom_site_label
 _atom_site_symmetry_multiplicity
 _atom_site_fract_x
 _atom_site_fract_y
 _atom_site_fract_z
 _atom_site_occupancy
  C  C0  1  0.22496000  0.70365000  0.92132000  1.0
  C  C1  1  0.27505000  0.07925500  0.29555500  1.0
  C  C2  1  0.77535500  0.29673500  0.07894500  1.0
  C  C3  1  0.72497000  0.92083500  0.70356500  1.0
  C  C4  1  0.27917000  0.57574000  0.93485000  1.0
  C  C5  1  0.22039500  0.06592000  0.42321000  1.0
  C  C6  1  0.72101000  0.42446500  0.06621500  1.0
  C  C7  1  0.77928000  0.93415000  0.57580000  1.0
  C  C8  1  0.21356000  0.49442000  0.90464000  1.0
  C  C9  1  0.28534000  0.09681500  0.50457500  1.0
  C  C10  1  0.78643500  0.50541000  0.09714000  1.0
  C  C11  1  0.71385500  0.90365000  0.49457000  1.0
  C  C12  1  0.09601000  0.54589500  0.86063500  1.0
  C  C13  1  0.40270000  0.14133500  0.45334500  1.0
  C  C14  1  0.90404500  0.45366500  0.14099500  1.0
  C  C15  1  0.59636000  0.85948000  0.54614000  1.0
  C  C16  1  0.04639500  0.67366500  0.85323500  1.0
  C  C17  1  0.45278500  0.14856500  0.32581500  1.0
  C  C18  1  0.95377000  0.32605500  0.14763500  1.0
  C  C19  1  0.54676000  0.85202500  0.67386500  1.0
  C  C20  1  0.29148000  0.79898500  0.94462500  1.0
  C  C21  1  0.20922000  0.05508000  0.20022000  1.0
  C  C22  1  0.70887000  0.20200500  0.05476500  1.0
  C  C23  1  0.79126500  0.94490000  0.79850000  1.0
  C  C24  1  0.26702000  0.35458000  0.92161000  1.0
  C  C25  1  0.23174500  0.07959000  0.64427000  1.0
  C  C26  1  0.73257500  0.64504000  0.08099000  1.0
  C  C27  1  0.76745000  0.92026000  0.35482000  1.0
  Co  Co28  1  0.45334000  0.12616000  0.05579000  1.0
  Co  Co29  1  0.04707500  0.94415500  0.87384500  1.0
  Co  Co30  1  0.54731000  0.87375000  0.94424000  1.0
  Co  Co31  1  0.95286000  0.05573500  0.12533500  1.0
  Co  Co32  1  0.25184500  0.09831000  0.90043000  1.0
  Co  Co33  1  0.74978500  0.90317000  0.09721000  1.0
  H  H34  1  0.37130500  0.54012000  0.96837000  1.0
  H  H35  1  0.12844000  0.03196500  0.45848500  1.0
  H  H36  1  0.62886500  0.46010000  0.03273000  1.0
  H  H37  1  0.87143500  0.96766500  0.54036500  1.0
  H  H38  1  0.04379000  0.48526000  0.83453000  1.0
  H  H39  1  0.45437000  0.16799000  0.51408000  1.0
  H  H40  1  0.95621500  0.51404500  0.16754500  1.0
  H  H41  1  0.54437000  0.83291500  0.48561500  1.0
  H  H42  1  0.95399500  0.71627000  0.82213000  1.0
  H  H43  1  0.54509500  0.18005000  0.28348000  1.0
  H  H44  1  0.04620000  0.28330500  0.17865500  1.0
  H  H45  1  0.45455500  0.82043000  0.71659000  1.0
  H  H46  1  0.48712500  0.11397000  0.80659000  1.0
  H  H47  1  0.01527500  0.19236500  0.88506500  1.0
  H  H48  1  0.51616500  0.88483500  0.19371500  1.0
  H  H49  1  0.98294500  0.80587500  0.11503500  1.0
  N  N50  1  0.10857000  0.75177500  0.88351500  1.0
  N  N51  1  0.39122500  0.11758000  0.24770000  1.0
  N  N52  1  0.89171000  0.24828000  0.11671000  1.0
  N  N53  1  0.60875500  0.88270000  0.75184000  1.0
  O  O54  1  0.22491000  0.91013000  0.93599000  1.0
  O  O55  1  0.27615000  0.06369000  0.08943000  1.0
  O  O56  1  0.77518000  0.09083500  0.06323500  1.0
  O  O57  1  0.72477000  0.93633500  0.90952500  1.0
  O  O58  1  0.40481500  0.76827000  0.96736000  1.0
  O  O59  1  0.09620000  0.03126000  0.23087000  1.0
  O  O60  1  0.59590500  0.23307000  0.03093000  1.0
  O  O61  1  0.90418500  0.96889000  0.76748000  1.0
  O  O62  1  0.36009000  0.31066500  0.98495500  1.0
  O  O63  1  0.14061000  0.01357000  0.68869000  1.0
  O  O64  1  0.64004000  0.68922000  0.01665000  1.0
  O  O65  1  0.86009500  0.98440500  0.31057500  1.0
  O  O66  1  0.21343500  0.29292500  0.87174500  1.0
  O  O67  1  0.28357000  0.13156000  0.70537000  1.0
  O  O68  1  0.78499500  0.70607500  0.13232500  1.0
  O  O69  1  0.71446500  0.86932000  0.29386000  1.0
  O  O70  1  0.45100500  0.06455500  0.89172500  1.0
  O  O71  1  0.04995000  0.10700500  0.93549500  1.0
  O  O72  1  0.55031000  0.93620000  0.10863000  1.0
  O  O73  1  0.94887000  0.89109500  0.06376500  1.0
