# generated using pymatgen
data_Ni2H28C36N4O11
_symmetry_space_group_name_H-M   'P 1'
_cell_length_a   12.50228038
_cell_length_b   12.50160000
_cell_length_c   16.17510000
_cell_angle_alpha   78.19100000
_cell_angle_beta   78.19165191
_cell_angle_gamma   62.83510481
_symmetry_Int_Tables_number   1
_chemical_formula_structural   Ni2H28C36N4O11
_chemical_formula_sum   'Ni4 H56 C72 N8 O22'
_cell_volume   2183.65080376
_cell_formula_units_Z   2
loop_
 _symmetry_equiv_pos_site_id
 _symmetry_equiv_pos_as_xyz
  1  'x, y, z'
loop_
 _atom_site_type_symbol
 _atom_site_label
 _atom_site_symmetry_multiplicity
 _atom_site_fract_x
 _atom_site_fract_y
 _atom_site_fract_z
 _atom_site_occupancy
  Ni  Ni0  1  0.30369000  0.52899000  0.76502000  1.0
  Ni  Ni1  1  0.47107000  0.69636000  0.73495000  1.0
  Ni  Ni2  1  0.69632000  0.47101000  0.23497000  1.0
  Ni  Ni3  1  0.52894000  0.30363000  0.26504000  1.0
  H  H4  1  0.50273000  0.46678000  0.80414000  1.0
  H  H5  1  0.53328000  0.49730000  0.69583000  1.0
  H  H6  1  0.49728000  0.53321000  0.19585000  1.0
  H  H7  1  0.46673000  0.50270000  0.30417000  1.0
  H  H8  1  0.06781000  0.55080000  0.84380000  1.0
  H  H9  1  0.44922000  0.93225000  0.65617000  1.0
  H  H10  1  0.93219000  0.44920000  0.15619000  1.0
  H  H11  1  0.55077000  0.06774000  0.34384000  1.0
  H  H12  1  0.08539000  0.63522000  0.76023000  1.0
  H  H13  1  0.36482000  0.91466000  0.73975000  1.0
  H  H14  1  0.91460000  0.36479000  0.23977000  1.0
  H  H15  1  0.63518000  0.08532000  0.26027000  1.0
  H  H16  1  0.22900000  0.93928000  0.90799000  1.0
  H  H17  1  0.06080000  0.77099000  0.59200000  1.0
  H  H18  1  0.77098000  0.06072000  0.09200000  1.0
  H  H19  1  0.93921000  0.22903000  0.40801000  1.0
  H  H20  1  0.38301000  0.16481000  0.86656000  1.0
  H  H21  1  0.83523000  0.61696000  0.63344000  1.0
  H  H22  1  0.61696000  0.83521000  0.13345000  1.0
  H  H23  1  0.16480000  0.38301000  0.36656000  1.0
  H  H24  1  0.02509000  0.73457000  0.92688000  1.0
  H  H25  1  0.26540000  0.97502000  0.57309000  1.0
  H  H26  1  0.97490000  0.26542000  0.07311000  1.0
  H  H27  1  0.73462000  0.02500000  0.42690000  1.0
  H  H28  1  0.58077000  0.23474000  0.02063000  1.0
  H  H29  1  0.76529000  0.41925000  0.47935000  1.0
  H  H30  1  0.41920000  0.76528000  0.97939000  1.0
  H  H31  1  0.23474000  0.58073000  0.52065000  1.0
  H  H32  1  0.44923000  0.48661000  0.59155000  1.0
  H  H33  1  0.51341000  0.55083000  0.90844000  1.0
  H  H34  1  0.55076000  0.51340000  0.40845000  1.0
  H  H35  1  0.48656000  0.44920000  0.09156000  1.0
  H  H36  1  0.61934000  0.03671000  0.11127000  1.0
  H  H37  1  0.96334000  0.38063000  0.38874000  1.0
  H  H38  1  0.38064000  0.96330000  0.88876000  1.0
  H  H39  1  0.03667000  0.61938000  0.61126000  1.0
  H  H40  1  0.52960000  0.15845000  0.45526000  1.0
  H  H41  1  0.84155000  0.47038000  0.04478000  1.0
  H  H42  1  0.47040000  0.84157000  0.54473000  1.0
  H  H43  1  0.15845000  0.52959000  0.95523000  1.0
  H  H44  1  0.32081000  0.15752000  0.66811000  1.0
  H  H45  1  0.84254000  0.67920000  0.83187000  1.0
  H  H46  1  0.67921000  0.84246000  0.33188000  1.0
  H  H47  1  0.15746000  0.32078000  0.16814000  1.0
  H  H48  1  0.52821000  0.32688000  0.49517000  1.0
  H  H49  1  0.67310000  0.47185000  0.00485000  1.0
  H  H50  1  0.47180000  0.67313000  0.50483000  1.0
  H  H51  1  0.32688000  0.52815000  0.99515000  1.0
  H  H52  1  0.85484000  0.87925000  0.01585000  1.0
  H  H53  1  0.12065000  0.14526000  0.48416000  1.0
  H  H54  1  0.14515000  0.12073000  0.98414000  1.0
  H  H55  1  0.87937000  0.85477000  0.51584000  1.0
  H  H56  1  0.25038000  0.32471000  0.75759000  1.0
  H  H57  1  0.67530000  0.74967000  0.74242000  1.0
  H  H58  1  0.74962000  0.67527000  0.24240000  1.0
  H  H59  1  0.32470000  0.25032000  0.25758000  1.0
  C  C60  1  0.46608000  0.01800000  0.96477000  1.0
  C  C61  1  0.98201000  0.53390000  0.53523000  1.0
  C  C62  1  0.53387000  0.98202000  0.03526000  1.0
  C  C63  1  0.01801000  0.46608000  0.46477000  1.0
  C  C64  1  0.43321000  0.22730000  0.57462000  1.0
  C  C65  1  0.77276000  0.56677000  0.92538000  1.0
  C  C66  1  0.56681000  0.77269000  0.42537000  1.0
  C  C67  1  0.22723000  0.43322000  0.07462000  1.0
  C  C68  1  0.13821000  0.82875000  0.91262000  1.0
  C  C69  1  0.17131000  0.86182000  0.58735000  1.0
  C  C70  1  0.86178000  0.17124000  0.08737000  1.0
  C  C71  1  0.82872000  0.13820000  0.41265000  1.0
  C  C72  1  0.14730000  0.92664000  0.93234000  1.0
  C  C73  1  0.07340000  0.85274000  0.56767000  1.0
  C  C74  1  0.85269000  0.07335000  0.06766000  1.0
  C  C75  1  0.92662000  0.14729000  0.43232000  1.0
  C  C76  1  0.24120000  0.74185000  0.85902000  1.0
  C  C77  1  0.25821000  0.75883000  0.64095000  1.0
  C  C78  1  0.75879000  0.25814000  0.14097000  1.0
  C  C79  1  0.74181000  0.24119000  0.35905000  1.0
  C  C80  1  0.05363000  0.00908000  0.98436000  1.0
  C  C81  1  0.99094000  0.94638000  0.51565000  1.0
  C  C82  1  0.94636000  0.99092000  0.01564000  1.0
  C  C83  1  0.00907000  0.05365000  0.48434000  1.0
  C  C84  1  0.43695000  0.13467000  0.91908000  1.0
  C  C85  1  0.86538000  0.56302000  0.58093000  1.0
  C  C86  1  0.56301000  0.86535000  0.08095000  1.0
  C  C87  1  0.13466000  0.43696000  0.41907000  1.0
  C  C88  1  0.03170000  0.81126000  0.94361000  1.0
  C  C89  1  0.18876000  0.96835000  0.55634000  1.0
  C  C90  1  0.96829000  0.18873000  0.05639000  1.0
  C  C91  1  0.81126000  0.03167000  0.44366000  1.0
  C  C92  1  0.54787000  0.17394000  0.00715000  1.0
  C  C93  1  0.82613000  0.45208000  0.49284000  1.0
  C  C94  1  0.45208000  0.82609000  0.99287000  1.0
  C  C95  1  0.17390000  0.54789000  0.50716000  1.0
  C  C96  1  0.42287000  0.41238000  0.60646000  1.0
  C  C97  1  0.58765000  0.57718000  0.89353000  1.0
  C  C98  1  0.57713000  0.58762000  0.39355000  1.0
  C  C99  1  0.41233000  0.42282000  0.10648000  1.0
  C  C100  1  0.47778000  0.21087000  0.93910000  1.0
  C  C101  1  0.78923000  0.52219000  0.56089000  1.0
  C  C102  1  0.52219000  0.78916000  0.06092000  1.0
  C  C103  1  0.21081000  0.47780000  0.43911000  1.0
  C  C104  1  0.44986000  0.33122000  0.88703000  1.0
  C  C105  1  0.66889000  0.55011000  0.61296000  1.0
  C  C106  1  0.55013000  0.66879000  0.11297000  1.0
  C  C107  1  0.33112000  0.44988000  0.38704000  1.0
  C  C108  1  0.57158000  0.06353000  0.05571000  1.0
  C  C109  1  0.93655000  0.42833000  0.44430000  1.0
  C  C110  1  0.42837000  0.93648000  0.94431000  1.0
  C  C111  1  0.06347000  0.57166000  0.55569000  1.0
  C  C112  1  0.48202000  0.13647000  0.51641000  1.0
  C  C113  1  0.86359000  0.51790000  0.98359000  1.0
  C  C114  1  0.51798000  0.86355000  0.48358000  1.0
  C  C115  1  0.13641000  0.48208000  0.01641000  1.0
  C  C116  1  0.35255000  0.22798000  0.64938000  1.0
  C  C117  1  0.77208000  0.64745000  0.85063000  1.0
  C  C118  1  0.64746000  0.77202000  0.35061000  1.0
  C  C119  1  0.22792000  0.35254000  0.14937000  1.0
  C  C120  1  0.46753000  0.32289000  0.55334000  1.0
  C  C121  1  0.67711000  0.53256000  0.94667000  1.0
  C  C122  1  0.53247000  0.67712000  0.44665000  1.0
  C  C123  1  0.32287000  0.46744000  0.05334000  1.0
  C  C124  1  0.93770000  0.89114000  0.99328000  1.0
  C  C125  1  0.10884000  0.06233000  0.50668000  1.0
  C  C126  1  0.06228000  0.10886000  0.00671000  1.0
  C  C127  1  0.89117000  0.93769000  0.49332000  1.0
  C  C128  1  0.31264000  0.32055000  0.69914000  1.0
  C  C129  1  0.67947000  0.68740000  0.80088000  1.0
  C  C130  1  0.68736000  0.67944000  0.30086000  1.0
  C  C131  1  0.32053000  0.31259000  0.19912000  1.0
  N  N132  1  0.34796000  0.41106000  0.67895000  1.0
  N  N133  1  0.58896000  0.65209000  0.82104000  1.0
  N  N134  1  0.65203000  0.58893000  0.32105000  1.0
  N  N135  1  0.41102000  0.34792000  0.17896000  1.0
  N  N136  1  0.47316000  0.03456000  0.53391000  1.0
  N  N137  1  0.96546000  0.52680000  0.96609000  1.0
  N  N138  1  0.52684000  0.96545000  0.46608000  1.0
  N  N139  1  0.03452000  0.47319000  0.03391000  1.0
  O  O140  1  0.47129000  0.52877000  0.74999000  1.0
  O  O141  1  0.52872000  0.47123000  0.25001000  1.0
  O  O142  1  0.11101000  0.55053000  0.78534000  1.0
  O  O143  1  0.44949000  0.88903000  0.71463000  1.0
  O  O144  1  0.88899000  0.44947000  0.21465000  1.0
  O  O145  1  0.55050000  0.11097000  0.28539000  1.0
  O  O146  1  0.35055000  0.38138000  0.85423000  1.0
  O  O147  1  0.61877000  0.64939000  0.64579000  1.0
  O  O148  1  0.64944000  0.61863000  0.14577000  1.0
  O  O149  1  0.38126000  0.35059000  0.35421000  1.0
  O  O150  1  0.32130000  0.77656000  0.81835000  1.0
  O  O151  1  0.22351000  0.67872000  0.68160000  1.0
  O  O152  1  0.67868000  0.22344000  0.18164000  1.0
  O  O153  1  0.77652000  0.32129000  0.31838000  1.0
  O  O154  1  0.24168000  0.63963000  0.85920000  1.0
  O  O155  1  0.36044000  0.75834000  0.64077000  1.0
  O  O156  1  0.75831000  0.36037000  0.14079000  1.0
  O  O157  1  0.63958000  0.24168000  0.35923000  1.0
  O  O158  1  0.52660000  0.37458000  0.87809000  1.0
  O  O159  1  0.62552000  0.47337000  0.62191000  1.0
  O  O160  1  0.47340000  0.62541000  0.12192000  1.0
  O  O161  1  0.37449000  0.52662000  0.37809000  1.0
