# generated using pymatgen
data_MnH11C3N(ClO2)2
_symmetry_space_group_name_H-M   'P 1'
_cell_length_a   5.71719000
_cell_length_b   8.15264000
_cell_length_c   18.50090000
_cell_angle_alpha   83.49350000
_cell_angle_beta   89.99990000
_cell_angle_gamma   89.99970000
_symmetry_Int_Tables_number   1
_chemical_formula_structural   MnH11C3N(ClO2)2
_chemical_formula_sum   'Mn4 H44 C12 N4 Cl8 O16'
_cell_volume   856.77623408
_cell_formula_units_Z   4
loop_
 _symmetry_equiv_pos_site_id
 _symmetry_equiv_pos_as_xyz
  1  'x, y, z'
loop_
 _atom_site_type_symbol
 _atom_site_label
 _atom_site_symmetry_multiplicity
 _atom_site_fract_x
 _atom_site_fract_y
 _atom_site_fract_z
 _atom_site_occupancy
  Mn  Mn0  1  0.07602000  0.73926000  0.67342000  1.0
  Mn  Mn1  1  0.57602000  0.26074000  0.82658000  1.0
  Mn  Mn2  1  0.92399000  0.26074000  0.32658000  1.0
  Mn  Mn3  1  0.42398000  0.73926000  0.17342000  1.0
  H  H4  1  0.42289000  0.53900000  0.69271000  1.0
  H  H5  1  0.92289000  0.46100000  0.80728000  1.0
  H  H6  1  0.57711000  0.46099000  0.30728000  1.0
  H  H7  1  0.07711000  0.53901000  0.19272000  1.0
  H  H8  1  0.51837000  0.64769000  0.62154000  1.0
  H  H9  1  0.01837000  0.35231000  0.87846000  1.0
  H  H10  1  0.48162000  0.35231000  0.37846000  1.0
  H  H11  1  0.98162000  0.64769000  0.12154000  1.0
  H  H12  1  0.63525000  0.89609000  0.69506000  1.0
  H  H13  1  0.13525000  0.10391000  0.80494000  1.0
  H  H14  1  0.36475000  0.10391000  0.30494000  1.0
  H  H15  1  0.86475000  0.89609000  0.19506000  1.0
  H  H16  1  0.79188000  0.91709000  0.76530000  1.0
  H  H17  1  0.29188000  0.08291000  0.73471000  1.0
  H  H18  1  0.20812000  0.08291000  0.23470000  1.0
  H  H19  1  0.70812000  0.91709000  0.26529000  1.0
  H  H20  1  0.48216000  0.54862000  0.92270000  1.0
  H  H21  1  0.98215000  0.45137000  0.57730000  1.0
  H  H22  1  0.51784000  0.45138000  0.07730000  1.0
  H  H23  1  0.01785000  0.54862000  0.42270000  1.0
  H  H24  1  0.66506000  0.70042000  0.87393000  1.0
  H  H25  1  0.16506000  0.29958000  0.62607000  1.0
  H  H26  1  0.33494000  0.29959000  0.12607000  1.0
  H  H27  1  0.83494000  0.70041000  0.37393000  1.0
  H  H28  1  0.48044000  0.84493000  0.95324000  1.0
  H  H29  1  0.98044000  0.15507000  0.54676000  1.0
  H  H30  1  0.51957000  0.15508000  0.04676000  1.0
  H  H31  1  0.01956000  0.84493000  0.45324000  1.0
  H  H32  1  0.31157000  0.88622000  0.87875000  1.0
  H  H33  1  0.81157000  0.11378000  0.62125000  1.0
  H  H34  1  0.68843000  0.11379000  0.12125000  1.0
  H  H35  1  0.18842000  0.88621000  0.37875000  1.0
  H  H36  1  0.03232000  0.67752000  0.92830000  1.0
  H  H37  1  0.53232000  0.32248000  0.57170000  1.0
  H  H38  1  0.96768000  0.32249000  0.07170000  1.0
  H  H39  1  0.46769000  0.67752000  0.42830000  1.0
  H  H40  1  0.07313000  0.83904000  0.98542000  1.0
  H  H41  1  0.57313000  0.16096000  0.51458000  1.0
  H  H42  1  0.92688000  0.16097000  0.01458000  1.0
  H  H43  1  0.42687000  0.83904000  0.48542000  1.0
  H  H44  1  0.21653000  0.64449000  0.00745000  1.0
  H  H45  1  0.71653000  0.35551000  0.49255000  1.0
  H  H46  1  0.78347000  0.35552000  0.99255000  1.0
  H  H47  1  0.28347000  0.64449000  0.50745000  1.0
  C  C48  1  0.48328000  0.66211000  0.88478000  1.0
  C  C49  1  0.98326000  0.33788000  0.61523000  1.0
  C  C50  1  0.51673000  0.33788000  0.11522000  1.0
  C  C51  1  0.01674000  0.66211000  0.38478000  1.0
  C  C52  1  0.15510000  0.73459000  0.96325000  1.0
  C  C53  1  0.65509000  0.26541000  0.53675000  1.0
  C  C54  1  0.84490000  0.26542000  0.03675000  1.0
  C  C55  1  0.34490000  0.73459000  0.46325000  1.0
  C  C56  1  0.37124000  0.63251000  0.81299000  1.0
  C  C57  1  0.87123000  0.36750000  0.68701000  1.0
  C  C58  1  0.62877000  0.36749000  0.18701000  1.0
  C  C59  1  0.12877000  0.63250000  0.31299000  1.0
  N  N60  1  0.36201000  0.79493000  0.91916000  1.0
  N  N61  1  0.86202000  0.20507000  0.58084000  1.0
  N  N62  1  0.63798000  0.20507000  0.08084000  1.0
  N  N63  1  0.13798000  0.79493000  0.41916000  1.0
  Cl  Cl64  1  0.32449000  0.98482000  0.63640000  1.0
  Cl  Cl65  1  0.82450000  0.01518000  0.86360000  1.0
  Cl  Cl66  1  0.67551000  0.01518000  0.36360000  1.0
  Cl  Cl67  1  0.17551000  0.98482000  0.13640000  1.0
  Cl  Cl68  1  0.83635000  0.76109000  0.56186000  1.0
  Cl  Cl69  1  0.33636000  0.23891000  0.93814000  1.0
  Cl  Cl70  1  0.16365000  0.23891000  0.43814000  1.0
  Cl  Cl71  1  0.66364000  0.76109000  0.06186000  1.0
  O  O72  1  0.38115000  0.58498000  0.64188000  1.0
  O  O73  1  0.88115000  0.41502000  0.85812000  1.0
  O  O74  1  0.61885000  0.41502000  0.35812000  1.0
  O  O75  1  0.11885000  0.58498000  0.14188000  1.0
  O  O76  1  0.22922000  0.73949000  0.78427000  1.0
  O  O77  1  0.72921000  0.26052000  0.71573000  1.0
  O  O78  1  0.77078000  0.26051000  0.21573000  1.0
  O  O79  1  0.27078000  0.73948000  0.28427000  1.0
  O  O80  1  0.43575000  0.50343000  0.78537000  1.0
  O  O81  1  0.93575000  0.49656000  0.71463000  1.0
  O  O82  1  0.56426000  0.49657000  0.21463000  1.0
  O  O83  1  0.06425000  0.50343000  0.28537000  1.0
  O  O84  1  0.78342000  0.86225000  0.72007000  1.0
  O  O85  1  0.28343000  0.13774000  0.77993000  1.0
  O  O86  1  0.21659000  0.13775000  0.27993000  1.0
  O  O87  1  0.71658000  0.86226000  0.22007000  1.0
