# generated using pymatgen
data_NiH6(C2N7)2
_symmetry_space_group_name_H-M   'P 1'
_cell_length_a   6.43305000
_cell_length_b   9.18242433
_cell_length_c   9.81459000
_cell_angle_alpha   106.75009470
_cell_angle_beta   98.90710000
_cell_angle_gamma   107.31027790
_symmetry_Int_Tables_number   1
_chemical_formula_structural   NiH6(C2N7)2
_chemical_formula_sum   'Ni2 H12 C8 N28'
_cell_volume   511.33193486
_cell_formula_units_Z   2
loop_
 _symmetry_equiv_pos_site_id
 _symmetry_equiv_pos_as_xyz
  1  'x, y, z'
loop_
 _atom_site_type_symbol
 _atom_site_label
 _atom_site_symmetry_multiplicity
 _atom_site_fract_x
 _atom_site_fract_y
 _atom_site_fract_z
 _atom_site_occupancy
  Ni  Ni0  1  0.00000000  0.00000000  0.00000000  1.0
  Ni  Ni1  1  0.50000000  0.00000000  0.50000000  1.0
  H  H2  1  0.58777000  0.12585000  0.06398000  1.0
  H  H3  1  0.41222000  0.87415000  0.93603000  1.0
  H  H4  1  0.47044000  0.38189000  0.09944000  1.0
  H  H5  1  0.52955000  0.61811000  0.90056000  1.0
  H  H6  1  0.68838000  0.56655000  0.11883000  1.0
  H  H7  1  0.31162000  0.43345000  0.88118000  1.0
  H  H8  1  0.99770000  0.78542000  0.28061000  1.0
  H  H9  1  0.00231000  0.21458000  0.71939000  1.0
  H  H10  1  0.61454000  0.42687000  0.36662000  1.0
  H  H11  1  0.38546000  0.57313000  0.63338000  1.0
  H  H12  1  0.52431000  0.58402000  0.33614000  1.0
  H  H13  1  0.47569000  0.41598000  0.66387000  1.0
  C  C14  1  0.75144000  0.21611000  0.08039000  1.0
  C  C15  1  0.24856000  0.78390000  0.91962000  1.0
  C  C16  1  0.64350000  0.46515000  0.16001000  1.0
  C  C17  1  0.35651000  0.53485000  0.83998000  1.0
  C  C18  1  0.02260000  0.76011000  0.38205000  1.0
  C  C19  1  0.97740000  0.23989000  0.61795000  1.0
  C  C20  1  0.65127000  0.52662000  0.32333000  1.0
  C  C21  1  0.34872000  0.47338000  0.67667000  1.0
  N  N22  1  0.59918000  0.84815000  0.22359000  1.0
  N  N23  1  0.40082000  0.15185000  0.77642000  1.0
  N  N24  1  0.70992000  0.89657000  0.72284000  1.0
  N  N25  1  0.29008000  0.10343000  0.27716000  1.0
  N  N26  1  0.79488000  0.37699000  0.12695000  1.0
  N  N27  1  0.20512000  0.62301000  0.87306000  1.0
  N  N28  1  0.20061000  0.83690000  0.49802000  1.0
  N  N29  1  0.79938000  0.16309000  0.50198000  1.0
  N  N30  1  0.94313000  0.19526000  0.06416000  1.0
  N  N31  1  0.05688000  0.80475000  0.93584000  1.0
  N  N32  1  0.45843000  0.84247000  0.29010000  1.0
  N  N33  1  0.54158000  0.15753000  0.70990000  1.0
  N  N34  1  0.87289000  0.64590000  0.41357000  1.0
  N  N35  1  0.12711000  0.35410000  0.58643000  1.0
  N  N36  1  0.95918000  0.65311000  0.55139000  1.0
  N  N37  1  0.04082000  0.34689000  0.44861000  1.0
  N  N38  1  0.15692000  0.76846000  0.60122000  1.0
  N  N39  1  0.84307000  0.23153000  0.39879000  1.0
  N  N40  1  0.67436000  0.87767000  0.59650000  1.0
  N  N41  1  0.32565000  0.12233000  0.40350000  1.0
  N  N42  1  0.01601000  0.45636000  0.14047000  1.0
  N  N43  1  0.98399000  0.54364000  0.85953000  1.0
  N  N44  1  0.10433000  0.34647000  0.10295000  1.0
  N  N45  1  0.89567000  0.65353000  0.89705000  1.0
  N  N46  1  0.72671000  0.90584000  0.84841000  1.0
  N  N47  1  0.27329000  0.09416000  0.15159000  1.0
  N  N48  1  0.73213000  0.84650000  0.15292000  1.0
  N  N49  1  0.26787000  0.15350000  0.84708000  1.0
