# generated using pymatgen
data_ZnH13C17N4Cl
_symmetry_space_group_name_H-M   'P 1'
_cell_length_a   14.82450000
_cell_length_b   14.98270000
_cell_length_c   16.81190000
_cell_angle_alpha   107.38300000
_cell_angle_beta   106.65400000
_cell_angle_gamma   109.25100000
_symmetry_Int_Tables_number   1
_chemical_formula_structural   ZnH13C17N4Cl
_chemical_formula_sum   'Zn4 H52 C68 N16 Cl4'
_cell_volume   3041.50524460
_cell_formula_units_Z   4
loop_
 _symmetry_equiv_pos_site_id
 _symmetry_equiv_pos_as_xyz
  1  'x, y, z'
loop_
 _atom_site_type_symbol
 _atom_site_label
 _atom_site_symmetry_multiplicity
 _atom_site_fract_x
 _atom_site_fract_y
 _atom_site_fract_z
 _atom_site_occupancy
  Zn  Zn0  1  0.37031000  0.99006000  0.87920000  1.0
  Zn  Zn1  1  0.61110000  0.96686000  0.10255000  1.0
  Zn  Zn2  1  0.35266000  0.84351000  0.98901000  1.0
  Zn  Zn3  1  0.62213000  0.12074000  0.99530000  1.0
  H  H4  1  0.12094000  0.95296000  0.79665000  1.0
  H  H5  1  0.64981000  0.79073000  0.17134000  1.0
  H  H6  1  0.31561000  0.62829000  0.82276000  1.0
  H  H7  1  0.67932000  0.00130000  0.83926000  1.0
  H  H8  1  0.64719000  0.79343000  0.97302000  1.0
  H  H9  1  0.38341000  0.84929000  0.70457000  1.0
  H  H10  1  0.30789000  0.63140000  0.03280000  1.0
  H  H11  1  0.30801000  0.33228000  0.07776000  1.0
  H  H12  1  0.31106000  0.49744000  0.08404000  1.0
  H  H13  1  0.73674000  0.69018000  0.25647000  1.0
  H  H14  1  0.71078000  0.47869000  0.13262000  1.0
  H  H15  1  0.73351000  0.52001000  0.25131000  1.0
  H  H16  1  0.29953000  0.50549000  0.69861000  1.0
  H  H17  1  0.16449000  0.58757000  0.37174000  1.0
  H  H18  1  0.02130000  0.42850000  0.23895000  1.0
  H  H19  1  0.03523000  0.25201000  0.39856000  1.0
  H  H20  1  0.60511000  0.21269000  0.41766000  1.0
  H  H21  1  0.29169000  0.98943000  0.12412000  1.0
  H  H22  1  0.69688000  0.27088000  0.58306000  1.0
  H  H23  1  0.25911000  0.06996000  0.42614000  1.0
  H  H24  1  0.69083000  0.25602000  0.72214000  1.0
  H  H25  1  0.34938000  0.10171000  0.58914000  1.0
  H  H26  1  0.89579000  0.70021000  0.86864000  1.0
  H  H27  1  0.79908000  0.01262000  0.76093000  1.0
  H  H28  1  0.87128000  0.08494000  0.88341000  1.0
  H  H29  1  0.96091000  0.00387000  0.74984000  1.0
  H  H30  1  0.64479000  0.31347000  0.16041000  1.0
  H  H31  1  0.03272000  0.07769000  0.87211000  1.0
  H  H32  1  0.30820000  0.16327000  0.98707000  1.0
  H  H33  1  0.85927000  0.32131000  0.14958000  1.0
  H  H34  1  0.09463000  0.76759000  0.95066000  1.0
  H  H35  1  0.34651000  0.03231000  0.69224000  1.0
  H  H36  1  0.72738000  0.33623000  0.01656000  1.0
  H  H37  1  0.78318000  0.24734000  0.99419000  1.0
  H  H38  1  0.84835000  0.37531000  0.00536000  1.0
  H  H39  1  0.75354000  0.24084000  0.84017000  1.0
  H  H40  1  0.71139000  0.33877000  0.86086000  1.0
  H  H41  1  0.32788000  0.34906000  0.66348000  1.0
  H  H42  1  0.23104000  0.35097000  0.70576000  1.0
  H  H43  1  0.22310000  0.22973000  0.63884000  1.0
  H  H44  1  0.09135000  0.26641000  0.54216000  1.0
  H  H45  1  0.18542000  0.25960000  0.50007000  1.0
  H  H46  1  0.11509000  0.97338000  0.30103000  1.0
  H  H47  1  0.15027000  0.10497000  0.31625000  1.0
  H  H48  1  0.06887000  0.99878000  0.20502000  1.0
  H  H49  1  0.24555000  0.08041000  0.21334000  1.0
  H  H50  1  0.21858000  0.95495000  0.20783000  1.0
  H  H51  1  0.80628000  0.27643000  0.38856000  1.0
  H  H52  1  0.72728000  0.25529000  0.27652000  1.0
  H  H53  1  0.69043000  0.29490000  0.36728000  1.0
  H  H54  1  0.66014000  0.11866000  0.37494000  1.0
  H  H55  1  0.69842000  0.08528000  0.28572000  1.0
  C  C56  1  0.13181000  0.91035000  0.83776000  1.0
  C  C57  1  0.91214000  0.24350000  0.23636000  1.0
  C  C58  1  0.45215000  0.07759000  0.24768000  1.0
  C  C59  1  0.47471000  0.28140000  0.09347000  1.0
  C  C60  1  0.42676000  0.08076000  0.74583000  1.0
  C  C61  1  0.56606000  0.76588000  0.13536000  1.0
  C  C62  1  0.33656000  0.69518000  0.80668000  1.0
  C  C63  1  0.66486000  0.95892000  0.88011000  1.0
  C  C64  1  0.64705000  0.85171000  0.94736000  1.0
  C  C65  1  0.36954000  0.80736000  0.74559000  1.0
  C  C66  1  0.59713000  0.18989000  0.83292000  1.0
  C  C67  1  0.84946000  0.14058000  0.22138000  1.0
  C  C68  1  0.39177000  0.68478000  0.06464000  1.0
  C  C69  1  0.51520000  0.15292000  0.74475000  1.0
  C  C70  1  0.47852000  0.67300000  0.11300000  1.0
  C  C71  1  0.33395000  0.69934000  0.72296000  1.0
  C  C72  1  0.68817000  0.87658000  0.88652000  1.0
  C  C73  1  0.56932000  0.47566000  0.15539000  1.0
  C  C74  1  0.47626000  0.38388000  0.12205000  1.0
  C  C75  1  0.38421000  0.39864000  0.10093000  1.0
  C  C76  1  0.38591000  0.49331000  0.10386000  1.0
  C  C77  1  0.47940000  0.58235000  0.12741000  1.0
  C  C78  1  0.37583000  0.01429000  0.15502000  1.0
  C  C79  1  0.57086000  0.56976000  0.15718000  1.0
  C  C80  1  0.68949000  0.62245000  0.18861000  1.0
  C  C81  1  0.68739000  0.51569000  0.18483000  1.0
  C  C82  1  0.28647000  0.60798000  0.63391000  1.0
  C  C83  1  0.01255000  0.32869000  0.31070000  1.0
  C  C84  1  0.13604000  0.51452000  0.37841000  1.0
  C  C85  1  0.05506000  0.42481000  0.30391000  1.0
  C  C86  1  0.06399000  0.32516000  0.39223000  1.0
  C  C87  1  0.14815000  0.41594000  0.47021000  1.0
  C  C88  1  0.18078000  0.51475000  0.46535000  1.0
  C  C89  1  0.56314000  0.26164000  0.11089000  1.0
  C  C90  1  0.25090000  0.60874000  0.54780000  1.0
  C  C91  1  0.26342000  0.50690000  0.63303000  1.0
  C  C92  1  0.19803000  0.41311000  0.55558000  1.0
  C  C93  1  0.43843000  0.11483000  0.33306000  1.0
  C  C94  1  0.51881000  0.17474000  0.66609000  1.0
  C  C95  1  0.62063000  0.23389000  0.58435000  1.0
  C  C96  1  0.61685000  0.22579000  0.66283000  1.0
  C  C97  1  0.42601000  0.13857000  0.58848000  1.0
  C  C98  1  0.42755000  0.14180000  0.50574000  1.0
  C  C99  1  0.52668000  0.18794000  0.50258000  1.0
  C  C100  1  0.54789000  0.08105000  0.24244000  1.0
  C  C101  1  0.52816000  0.17629000  0.41675000  1.0
  C  C102  1  0.33732000  0.08248000  0.33805000  1.0
  C  C103  1  0.33512000  0.09695000  0.42260000  1.0
  C  C104  1  0.92093000  0.91162000  0.82806000  1.0
  C  C105  1  0.95391000  0.83987000  0.84673000  1.0
  C  C106  1  0.88029000  0.76342000  0.85906000  1.0
  C  C107  1  0.78837000  0.76704000  0.86262000  1.0
  C  C108  1  0.76189000  0.84844000  0.85636000  1.0
  C  C109  1  0.83013000  0.91533000  0.83322000  1.0
  C  C110  1  0.85559000  0.01718000  0.82286000  1.0
  C  C111  1  0.39113000  0.18461000  0.02312000  1.0
  C  C112  1  0.95788000  0.01219000  0.81615000  1.0
  C  C113  1  0.84523000  0.25395000  0.16491000  1.0
  C  C114  1  0.11793000  0.81469000  0.91527000  1.0
  C  C115  1  0.05927000  0.85038000  0.86240000  1.0
  C  C116  1  0.71023000  0.27144000  0.87518000  1.0
  C  C117  1  0.76991000  0.30947000  0.97861000  1.0
  C  C118  1  0.17569000  0.30800000  0.55777000  1.0
  C  C119  1  0.24332000  0.31023000  0.64664000  1.0
  C  C120  1  0.23452000  0.03428000  0.25305000  1.0
  C  C121  1  0.13715000  0.02758000  0.27023000  1.0
  C  C122  1  0.65961000  0.12973000  0.31310000  1.0
  C  C123  1  0.72461000  0.24587000  0.33821000  1.0
  N  N124  1  0.22520000  0.90978000  0.87275000  1.0
  N  N125  1  0.53385000  0.82673000  0.10267000  1.0
  N  N126  1  0.36818000  0.79152000  0.87109000  1.0
  N  N127  1  0.61728000  0.98223000  0.93473000  1.0
  N  N128  1  0.60634000  0.91649000  0.97610000  1.0
  N  N129  1  0.38828000  0.86029000  0.83345000  1.0
  N  N130  1  0.55829000  0.14186000  0.88064000  1.0
  N  N131  1  0.42521000  0.77666000  0.05872000  1.0
  N  N132  1  0.75445000  0.09569000  0.14923000  1.0
  N  N133  1  0.42119000  0.98263000  0.10064000  1.0
  N  N134  1  0.53412000  0.16207000  0.05388000  1.0
  N  N135  1  0.52620000  0.02455000  0.15429000  1.0
  N  N136  1  0.42850000  0.11498000  0.99994000  1.0
  N  N137  1  0.75262000  0.16668000  0.11370000  1.0
  N  N138  1  0.21686000  0.85066000  0.92139000  1.0
  N  N139  1  0.45273000  0.07462000  0.82665000  1.0
  Cl  Cl140  1  0.73624000  0.66260000  0.11088000  1.0
  Cl  Cl141  1  0.87681000  0.06912000  0.27905000  1.0
  Cl  Cl142  1  0.28342000  0.72589000  0.53695000  1.0
  Cl  Cl143  1  0.70739000  0.66687000  0.87956000  1.0
