# generated using pymatgen
data_AgH7C6BrN
_symmetry_space_group_name_H-M   'P 1'
_cell_length_a   6.62735000
_cell_length_b   14.24740000
_cell_length_c   15.68650000
_cell_angle_alpha   90.00340000
_cell_angle_beta   89.99960000
_cell_angle_gamma   89.99740000
_symmetry_Int_Tables_number   1
_chemical_formula_structural   AgH7C6BrN
_chemical_formula_sum   'Ag8 H56 C48 Br8 N8'
_cell_volume   1481.15864232
_cell_formula_units_Z   8
loop_
 _symmetry_equiv_pos_site_id
 _symmetry_equiv_pos_as_xyz
  1  'x, y, z'
loop_
 _atom_site_type_symbol
 _atom_site_label
 _atom_site_symmetry_multiplicity
 _atom_site_fract_x
 _atom_site_fract_y
 _atom_site_fract_z
 _atom_site_occupancy
  Ag  Ag0  1  0.92650000  0.80570000  0.66658000  1.0
  Ag  Ag1  1  0.92642000  0.69431000  0.83342000  1.0
  Ag  Ag2  1  0.57350000  0.19432000  0.16658000  1.0
  Ag  Ag3  1  0.57357000  0.30568000  0.33341000  1.0
  Ag  Ag4  1  0.07355000  0.19433000  0.33341000  1.0
  Ag  Ag5  1  0.07360000  0.30565000  0.16660000  1.0
  Ag  Ag6  1  0.42642000  0.80565000  0.83338000  1.0
  Ag  Ag7  1  0.42637000  0.69438000  0.66666667  1.0
  H  H8  1  0.25660000  0.79613000  0.51583000  1.0
  H  H9  1  0.25657000  0.70388000  0.98417000  1.0
  H  H10  1  0.24341000  0.20389000  0.01582000  1.0
  H  H11  1  0.24341000  0.29612000  0.48416000  1.0
  H  H12  1  0.74344000  0.20390000  0.48415000  1.0
  H  H13  1  0.74344000  0.29610000  0.01584000  1.0
  H  H14  1  0.75656000  0.79609000  0.98414000  1.0
  H  H15  1  0.75657000  0.70391000  0.51588000  1.0
  H  H16  1  0.46920000  0.80910000  0.39124000  1.0
  H  H17  1  0.46919000  0.69088000  0.10876000  1.0
  H  H18  1  0.03084000  0.19088000  0.89122000  1.0
  H  H19  1  0.03084000  0.30910000  0.60878000  1.0
  H  H20  1  0.53080000  0.19091000  0.60873000  1.0
  H  H21  1  0.53081000  0.30910000  0.89126000  1.0
  H  H22  1  0.96917000  0.80909000  0.10873000  1.0
  H  H23  1  0.96921000  0.69089000  0.39129000  1.0
  H  H24  1  0.32376000  0.80423000  0.29624000  1.0
  H  H25  1  0.32377000  0.69573000  0.20376000  1.0
  H  H26  1  0.17626000  0.19573000  0.79622000  1.0
  H  H27  1  0.17629000  0.30426000  0.70378000  1.0
  H  H28  1  0.67619000  0.19578000  0.70373000  1.0
  H  H29  1  0.67623000  0.30424000  0.79625000  1.0
  H  H30  1  0.82374000  0.80423000  0.20374000  1.0
  H  H31  1  0.82379000  0.69578000  0.29629000  1.0
  H  H32  1  0.43177000  0.91199000  0.32844000  1.0
  H  H33  1  0.43177000  0.58798000  0.17156000  1.0
  H  H34  1  0.06827000  0.08798000  0.82842000  1.0
  H  H35  1  0.06824000  0.41201000  0.67158000  1.0
  H  H36  1  0.56821000  0.08802000  0.67154000  1.0
  H  H37  1  0.56825000  0.41200000  0.82846000  1.0
  H  H38  1  0.93172000  0.91199000  0.17154000  1.0
  H  H39  1  0.93174000  0.58801000  0.32846000  1.0
  H  H40  1  0.04058000  0.95847000  0.30240000  1.0
  H  H41  1  0.04059000  0.54150000  0.19759000  1.0
  H  H42  1  0.45949000  0.04149000  0.80239000  1.0
  H  H43  1  0.45944000  0.45850000  0.69761000  1.0
  H  H44  1  0.95940000  0.04153000  0.69758000  1.0
  H  H45  1  0.95943000  0.45847000  0.80242000  1.0
  H  H46  1  0.54052000  0.95847000  0.19758000  1.0
  H  H47  1  0.54057000  0.54153000  0.30242000  1.0
  H  H48  1  0.72625000  0.98954000  0.38554000  1.0
  H  H49  1  0.72624000  0.51045000  0.11446000  1.0
  H  H50  1  0.77380000  0.01044000  0.88554000  1.0
  H  H51  1  0.77376000  0.48957000  0.61447000  1.0
  H  H52  1  0.27375000  0.01046000  0.61445000  1.0
  H  H53  1  0.27377000  0.48952000  0.88556000  1.0
  H  H54  1  0.22619000  0.98953000  0.11444000  1.0
  H  H55  1  0.22622000  0.51048000  0.38555000  1.0
  H  H56  1  0.69074000  0.91820000  0.53132000  1.0
  H  H57  1  0.69071000  0.58183000  0.96870000  1.0
  H  H58  1  0.80927000  0.08181000  0.03132000  1.0
  H  H59  1  0.80925000  0.41820000  0.46869000  1.0
  H  H60  1  0.30930000  0.08182000  0.46869000  1.0
  H  H61  1  0.30930000  0.41815000  0.03132000  1.0
  H  H62  1  0.19070000  0.91817000  0.96866000  1.0
  H  H63  1  0.19070000  0.58185000  0.53133000  1.0
  C  C64  1  0.14075000  0.83767000  0.48382000  1.0
  C  C65  1  0.14072000  0.66234000  0.01618000  1.0
  C  C66  1  0.35929000  0.16234000  0.98381000  1.0
  C  C67  1  0.35927000  0.33768000  0.51618000  1.0
  C  C68  1  0.85929000  0.16235000  0.51617000  1.0
  C  C69  1  0.85929000  0.33765000  0.98384000  1.0
  C  C70  1  0.64070000  0.83765000  0.01615000  1.0
  C  C71  1  0.64071000  0.66236000  0.48386000  1.0
  C  C72  1  0.17187000  0.87094000  0.40093000  1.0
  C  C73  1  0.17185000  0.62904000  0.09906000  1.0
  C  C74  1  0.32818000  0.12904000  0.90093000  1.0
  C  C75  1  0.32815000  0.37096000  0.59907000  1.0
  C  C76  1  0.82814000  0.12908000  0.59905000  1.0
  C  C77  1  0.82816000  0.37093000  0.90095000  1.0
  C  C78  1  0.67181000  0.87092000  0.09904000  1.0
  C  C79  1  0.67184000  0.62908000  0.40097000  1.0
  C  C80  1  0.35990000  0.84763000  0.35222000  1.0
  C  C81  1  0.35988000  0.65233000  0.14777000  1.0
  C  C82  1  0.14016000  0.15233000  0.85221000  1.0
  C  C83  1  0.14015000  0.34766000  0.64779000  1.0
  C  C84  1  0.64010000  0.15238000  0.64775000  1.0
  C  C85  1  0.64013000  0.34764000  0.85224000  1.0
  C  C86  1  0.85984000  0.84763000  0.14775000  1.0
  C  C87  1  0.85987000  0.65237000  0.35227000  1.0
  C  C88  1  0.02026000  0.92712000  0.36530000  1.0
  C  C89  1  0.02025000  0.57287000  0.13470000  1.0
  C  C90  1  0.47980000  0.07286000  0.86528000  1.0
  C  C91  1  0.47975000  0.42714000  0.63471000  1.0
  C  C92  1  0.97974000  0.07289000  0.63469000  1.0
  C  C93  1  0.97975000  0.42711000  0.86531000  1.0
  C  C94  1  0.52021000  0.92711000  0.13468000  1.0
  C  C95  1  0.52024000  0.57290000  0.36532000  1.0
  C  C96  1  0.84489000  0.94470000  0.41131000  1.0
  C  C97  1  0.84487000  0.55530000  0.08868000  1.0
  C  C98  1  0.65515000  0.05529000  0.91132000  1.0
  C  C99  1  0.65511000  0.44472000  0.58869000  1.0
  C  C100  1  0.15511000  0.05531000  0.58868000  1.0
  C  C101  1  0.15514000  0.44468000  0.91133000  1.0
  C  C102  1  0.34484000  0.94468000  0.08866000  1.0
  C  C103  1  0.34486000  0.55533000  0.41134000  1.0
  C  C104  1  0.82531000  0.90658000  0.49256000  1.0
  C  C105  1  0.82529000  0.59343000  0.00744000  1.0
  C  C106  1  0.67470000  0.09342000  0.99256000  1.0
  C  C107  1  0.67469000  0.40659000  0.50744000  1.0
  C  C108  1  0.17471000  0.09343000  0.50743000  1.0
  C  C109  1  0.17472000  0.40655000  0.99257000  1.0
  C  C110  1  0.32527000  0.90656000  0.00742000  1.0
  C  C111  1  0.32528000  0.59345000  0.49258000  1.0
  Br  Br112  1  0.52857000  0.87982000  0.68036000  1.0
  Br  Br113  1  0.52854000  0.62018000  0.81964000  1.0
  Br  Br114  1  0.97145000  0.12019000  0.18036000  1.0
  Br  Br115  1  0.97147000  0.37980000  0.31965000  1.0
  Br  Br116  1  0.47149000  0.12021000  0.31965000  1.0
  Br  Br117  1  0.47148000  0.37980000  0.18037000  1.0
  Br  Br118  1  0.02853000  0.87978000  0.81964000  1.0
  Br  Br119  1  0.02851000  0.62021000  0.68036000  1.0
  N  N120  1  0.97165000  0.85473000  0.52886000  1.0
  N  N121  1  0.97161000  0.64528000  0.97114000  1.0
  N  N122  1  0.52837000  0.14528000  0.02886000  1.0
  N  N123  1  0.52836000  0.35473000  0.47114000  1.0
  N  N124  1  0.02839000  0.14529000  0.47113000  1.0
  N  N125  1  0.02840000  0.35470000  0.02887000  1.0
  N  N126  1  0.47160000  0.85470000  0.97111000  1.0
  N  N127  1  0.47161000  0.64531000  0.52889000  1.0
