# generated using pymatgen
data_AgH8C6S(NO)3
_symmetry_space_group_name_H-M   'P 1'
_cell_length_a   6.90179000
_cell_length_b   10.53240000
_cell_length_c   13.39890000
_cell_angle_alpha   89.99980000
_cell_angle_beta   100.37900000
_cell_angle_gamma   90.00000000
_symmetry_Int_Tables_number   1
_chemical_formula_structural   AgH8C6S(NO)3
_chemical_formula_sum   'Ag4 H32 C24 S4 N12 O12'
_cell_volume   958.06139081
_cell_formula_units_Z   4
loop_
 _symmetry_equiv_pos_site_id
 _symmetry_equiv_pos_as_xyz
  1  'x, y, z'
loop_
 _atom_site_type_symbol
 _atom_site_label
 _atom_site_symmetry_multiplicity
 _atom_site_fract_x
 _atom_site_fract_y
 _atom_site_fract_z
 _atom_site_occupancy
  Ag  Ag0  1  0.17240000  0.45085000  0.38665000  1.0
  Ag  Ag1  1  0.67240000  0.04915000  0.88666000  1.0
  Ag  Ag2  1  0.82760000  0.54915000  0.61335000  1.0
  Ag  Ag3  1  0.32761000  0.95085000  0.11334000  1.0
  H  H4  1  0.36011000  0.14037000  0.39382000  1.0
  H  H5  1  0.86011000  0.35963000  0.89382000  1.0
  H  H6  1  0.63989000  0.85963000  0.60618000  1.0
  H  H7  1  0.13989000  0.64037000  0.10618000  1.0
  H  H8  1  0.42014000  0.24402000  0.29974000  1.0
  H  H9  1  0.92013000  0.25598000  0.79974000  1.0
  H  H10  1  0.57986000  0.75598000  0.70026000  1.0
  H  H11  1  0.07987000  0.74402000  0.20025000  1.0
  H  H12  1  0.72018000  0.09758000  0.46012000  1.0
  H  H13  1  0.22017000  0.40242000  0.96012000  1.0
  H  H14  1  0.27983000  0.90242000  0.53988000  1.0
  H  H15  1  0.77983000  0.59758000  0.03989000  1.0
  H  H16  1  0.65271000  0.05909000  0.32969000  1.0
  H  H17  1  0.15271000  0.44091000  0.82969000  1.0
  H  H18  1  0.34729000  0.94091000  0.67031000  1.0
  H  H19  1  0.84730000  0.55909000  0.17031000  1.0
  H  H20  1  0.58113000  0.19999000  0.59691000  1.0
  H  H21  1  0.08114000  0.30001000  0.09691000  1.0
  H  H22  1  0.41886000  0.80001000  0.40309000  1.0
  H  H23  1  0.91885000  0.69999000  0.90309000  1.0
  H  H24  1  0.50110000  0.34936000  0.63558000  1.0
  H  H25  1  0.00111000  0.15065000  0.13558000  1.0
  H  H26  1  0.49890000  0.65064000  0.36442000  1.0
  H  H27  1  0.99889000  0.84935000  0.86442000  1.0
  H  H28  1  0.21224000  0.14707000  0.52438000  1.0
  H  H29  1  0.71225000  0.35294000  0.02438000  1.0
  H  H30  1  0.78776000  0.85293000  0.47562000  1.0
  H  H31  1  0.28775000  0.64706000  0.97562000  1.0
  H  H32  1  0.28631000  0.15278000  0.65764000  1.0
  H  H33  1  0.78632000  0.34723000  0.15764000  1.0
  H  H34  1  0.71368000  0.84722000  0.34236000  1.0
  H  H35  1  0.21368000  0.65278000  0.84236000  1.0
  C  C36  1  0.47094000  0.20730000  0.37651000  1.0
  C  C37  1  0.97094000  0.29270000  0.87651000  1.0
  C  C38  1  0.52906000  0.79270000  0.62349000  1.0
  C  C39  1  0.02907000  0.70730000  0.12349000  1.0
  C  C40  1  0.66857000  0.13837000  0.38408000  1.0
  C  C41  1  0.16857000  0.36163000  0.88407000  1.0
  C  C42  1  0.33143000  0.86163000  0.61593000  1.0
  C  C43  1  0.83144000  0.63837000  0.11593000  1.0
  C  C44  1  0.82282000  0.22042000  0.36107000  1.0
  C  C45  1  0.32282000  0.27958000  0.86107000  1.0
  C  C46  1  0.17717000  0.77958000  0.63893000  1.0
  C  C47  1  0.67718000  0.72042000  0.13893000  1.0
  C  C48  1  0.46566000  0.27258000  0.57971000  1.0
  C  C49  1  0.96567000  0.22742000  0.07972000  1.0
  C  C50  1  0.53433000  0.72742000  0.42028000  1.0
  C  C51  1  0.03433000  0.77258000  0.92028000  1.0
  C  C52  1  0.26758000  0.21104000  0.58821000  1.0
  C  C53  1  0.76758000  0.28897000  0.08821000  1.0
  C  C54  1  0.73242000  0.78896000  0.41179000  1.0
  C  C55  1  0.23241000  0.71103000  0.91179000  1.0
  C  C56  1  0.11654000  0.30341000  0.59704000  1.0
  C  C57  1  0.61654000  0.19659000  0.09704000  1.0
  C  C58  1  0.88345000  0.69659000  0.40295000  1.0
  C  C59  1  0.38345000  0.80341000  0.90296000  1.0
  S  S60  1  0.48229000  0.34518000  0.45886000  1.0
  S  S61  1  0.98228000  0.15481000  0.95886000  1.0
  S  S62  1  0.51771000  0.65482000  0.54114000  1.0
  S  S63  1  0.01772000  0.84518000  0.04114000  1.0
  N  N64  1  0.94393000  0.28856000  0.34211000  1.0
  N  N65  1  0.44393000  0.21144000  0.84211000  1.0
  N  N66  1  0.05607000  0.71144000  0.65789000  1.0
  N  N67  1  0.55607000  0.78856000  0.15789000  1.0
  N  N68  1  0.99851000  0.37859000  0.60773000  1.0
  N  N69  1  0.49852000  0.12142000  0.10773000  1.0
  N  N70  1  0.00149000  0.62141000  0.39227000  1.0
  N  N71  1  0.50148000  0.87858000  0.89228000  1.0
  N  N72  1  0.39235000  0.46873000  0.18405000  1.0
  N  N73  1  0.89235000  0.03127000  0.68406000  1.0
  N  N74  1  0.60764000  0.53127000  0.81595000  1.0
  N  N75  1  0.10766000  0.96873000  0.31595000  1.0
  O  O76  1  0.22117000  0.44795000  0.20531000  1.0
  O  O77  1  0.72116000  0.05206000  0.70531000  1.0
  O  O78  1  0.77883000  0.55205000  0.79469000  1.0
  O  O79  1  0.27884000  0.94794000  0.29469000  1.0
  O  O80  1  0.40793000  0.48601000  0.09228000  1.0
  O  O81  1  0.90793000  0.01399000  0.59228000  1.0
  O  O82  1  0.59207000  0.51399000  0.90772000  1.0
  O  O83  1  0.09207000  0.98601000  0.40772000  1.0
  O  O84  1  0.54226000  0.47134000  0.25371000  1.0
  O  O85  1  0.04224000  0.02867000  0.75371000  1.0
  O  O86  1  0.45775000  0.52866000  0.74629000  1.0
  O  O87  1  0.95775000  0.97133000  0.24629000  1.0
