# generated using pymatgen
data_V2CdH8C13(N2O3)2
_symmetry_space_group_name_H-M   'P 1'
_cell_length_a   7.84974000
_cell_length_b   12.54540000
_cell_length_c   16.15800000
_cell_angle_alpha   108.37500000
_cell_angle_beta   90.00000000
_cell_angle_gamma   90.00000000
_symmetry_Int_Tables_number   1
_chemical_formula_structural   V2CdH8C13(N2O3)2
_chemical_formula_sum   'V8 Cd4 H32 C52 N16 O24'
_cell_volume   1510.07962475
_cell_formula_units_Z   4
loop_
 _symmetry_equiv_pos_site_id
 _symmetry_equiv_pos_as_xyz
  1  'x, y, z'
loop_
 _atom_site_type_symbol
 _atom_site_label
 _atom_site_symmetry_multiplicity
 _atom_site_fract_x
 _atom_site_fract_y
 _atom_site_fract_z
 _atom_site_occupancy
  V  V0  1  0.11100000  0.39231000  0.80560000  1.0
  V  V1  1  0.61100000  0.60769000  0.69440000  1.0
  V  V2  1  0.88900000  0.60769000  0.19440000  1.0
  V  V3  1  0.38900000  0.39231000  0.30560000  1.0
  V  V4  1  0.48411000  0.47232000  0.84292000  1.0
  V  V5  1  0.98411000  0.52768000  0.65708000  1.0
  V  V6  1  0.51589000  0.52768000  0.15708000  1.0
  V  V7  1  0.01589000  0.47232000  0.34293000  1.0
  Cd  Cd8  1  0.83435000  0.38793000  0.98565000  1.0
  Cd  Cd9  1  0.33436000  0.61207000  0.51435000  1.0
  Cd  Cd10  1  0.16565000  0.61207000  0.01435000  1.0
  Cd  Cd11  1  0.66564000  0.38793000  0.48565000  1.0
  H  H12  1  0.94170000  0.76476000  0.78467000  1.0
  H  H13  1  0.44170000  0.23524000  0.71533000  1.0
  H  H14  1  0.05830000  0.23524000  0.21533000  1.0
  H  H15  1  0.55830000  0.76476000  0.28467000  1.0
  H  H16  1  0.19263000  0.40089000  0.09214000  1.0
  H  H17  1  0.69263000  0.59911000  0.40786000  1.0
  H  H18  1  0.80737000  0.59911000  0.90786000  1.0
  H  H19  1  0.30737000  0.40089000  0.59214000  1.0
  H  H20  1  0.44363000  0.27628000  0.09623000  1.0
  H  H21  1  0.94363000  0.72372000  0.40377000  1.0
  H  H22  1  0.55637000  0.72372000  0.90377000  1.0
  H  H23  1  0.05637000  0.27628000  0.59623000  1.0
  H  H24  1  0.43070000  0.07483000  0.01039000  1.0
  H  H25  1  0.93070000  0.92516000  0.48961000  1.0
  H  H26  1  0.56930000  0.92517000  0.98961000  1.0
  H  H27  1  0.06930000  0.07483000  0.51039000  1.0
  H  H28  1  0.67594000  0.88414000  0.79191000  1.0
  H  H29  1  0.17594000  0.11586000  0.70809000  1.0
  H  H30  1  0.32406000  0.11586000  0.20809000  1.0
  H  H31  1  0.82406000  0.88414000  0.29191000  1.0
  H  H32  1  0.45115000  0.02703000  0.80574000  1.0
  H  H33  1  0.95115000  0.97297000  0.69426000  1.0
  H  H34  1  0.54885000  0.97297000  0.19426000  1.0
  H  H35  1  0.04885000  0.02703000  0.30574000  1.0
  H  H36  1  0.51956000  0.23139000  0.88002000  1.0
  H  H37  1  0.01956000  0.76861000  0.61998000  1.0
  H  H38  1  0.48044000  0.76861000  0.11998000  1.0
  H  H39  1  0.98044000  0.23139000  0.38002000  1.0
  H  H40  1  0.23333000  0.70955000  0.82551000  1.0
  H  H41  1  0.73333000  0.29045000  0.67449000  1.0
  H  H42  1  0.76667000  0.29045000  0.17449000  1.0
  H  H43  1  0.26667000  0.70955000  0.32551000  1.0
  C  C44  1  0.19284000  0.31174000  0.05495000  1.0
  C  C45  1  0.69284000  0.68826000  0.44504000  1.0
  C  C46  1  0.80716000  0.68826000  0.94504000  1.0
  C  C47  1  0.30716000  0.31174000  0.55495000  1.0
  C  C48  1  0.33143000  0.24230000  0.05748000  1.0
  C  C49  1  0.83143000  0.75770000  0.44252000  1.0
  C  C50  1  0.66857000  0.75770000  0.94252000  1.0
  C  C51  1  0.16857000  0.24230000  0.55748000  1.0
  C  C52  1  0.32448000  0.12992000  0.00901000  1.0
  C  C53  1  0.82448000  0.87008000  0.49099000  1.0
  C  C54  1  0.67552000  0.87008000  0.99099000  1.0
  C  C55  1  0.17552000  0.12992000  0.50901000  1.0
  C  C56  1  0.17865000  0.08753000  0.95877000  1.0
  C  C57  1  0.67865000  0.91247000  0.54123000  1.0
  C  C58  1  0.82135000  0.91248000  0.04123000  1.0
  C  C59  1  0.32135000  0.08753000  0.45877000  1.0
  C  C60  1  0.15580000  0.97218000  0.90877000  1.0
  C  C61  1  0.65580000  0.02782000  0.59123000  1.0
  C  C62  1  0.84420000  0.02782000  0.09124000  1.0
  C  C63  1  0.34420000  0.97218000  0.40877000  1.0
  C  C64  1  0.00336000  0.93485000  0.86374000  1.0
  C  C65  1  0.50336000  0.06515000  0.63626000  1.0
  C  C66  1  0.99664000  0.06515000  0.13626000  1.0
  C  C67  1  0.49664000  0.93485000  0.36374000  1.0
  C  C68  1  0.86320000  0.00724000  0.86443000  1.0
  C  C69  1  0.36320000  0.99276000  0.63557000  1.0
  C  C70  1  0.13680000  0.99276000  0.13557000  1.0
  C  C71  1  0.63680000  0.00724000  0.36443000  1.0
  C  C72  1  0.70310000  0.97263000  0.82555000  1.0
  C  C73  1  0.20310000  0.02737000  0.67445000  1.0
  C  C74  1  0.29690000  0.02737000  0.17445000  1.0
  C  C75  1  0.79691000  0.97263000  0.32555000  1.0
  C  C76  1  0.57741000  0.05219000  0.83247000  1.0
  C  C77  1  0.07741000  0.94781000  0.66753000  1.0
  C  C78  1  0.42259000  0.94781000  0.16753000  1.0
  C  C79  1  0.92259000  0.05219000  0.33247000  1.0
  C  C80  1  0.61356000  0.16577000  0.87541000  1.0
  C  C81  1  0.11356000  0.83423000  0.62460000  1.0
  C  C82  1  0.38644000  0.83422000  0.12459000  1.0
  C  C83  1  0.88644000  0.16578000  0.37541000  1.0
  C  C84  1  0.88674000  0.12364000  0.91096000  1.0
  C  C85  1  0.38674000  0.87636000  0.58904000  1.0
  C  C86  1  0.11326000  0.87635000  0.08904000  1.0
  C  C87  1  0.61326000  0.12364000  0.41096000  1.0
  C  C88  1  0.04336000  0.16339000  0.95942000  1.0
  C  C89  1  0.54336000  0.83661000  0.54058000  1.0
  C  C90  1  0.95664000  0.83661000  0.04058000  1.0
  C  C91  1  0.45664000  0.16339000  0.45942000  1.0
  C  C92  1  0.18407000  0.79471000  0.84784000  1.0
  C  C93  1  0.68407000  0.20529000  0.65216000  1.0
  C  C94  1  0.81593000  0.20529000  0.15216000  1.0
  C  C95  1  0.31593000  0.79471000  0.34784000  1.0
  N  N96  1  0.05423000  0.27323000  0.00727000  1.0
  N  N97  1  0.55423000  0.72677000  0.49273000  1.0
  N  N98  1  0.94577000  0.72677000  0.99273000  1.0
  N  N99  1  0.44577000  0.27323000  0.50727000  1.0
  N  N100  1  0.76309000  0.19960000  0.91341000  1.0
  N  N101  1  0.26309000  0.80040000  0.58659000  1.0
  N  N102  1  0.23691000  0.80040000  0.08659000  1.0
  N  N103  1  0.73691000  0.19960000  0.41341000  1.0
  N  N104  1  0.26684000  0.88368000  0.89851000  1.0
  N  N105  1  0.76684000  0.11632000  0.60150000  1.0
  N  N106  1  0.73316000  0.11632000  0.10150000  1.0
  N  N107  1  0.23316000  0.88368000  0.39850000  1.0
  N  N108  1  0.02461000  0.82102000  0.82539000  1.0
  N  N109  1  0.52461000  0.17898000  0.67461000  1.0
  N  N110  1  0.97539000  0.17898000  0.17461000  1.0
  N  N111  1  0.47539000  0.82102000  0.32539000  1.0
  O  O112  1  0.04441000  0.45228000  0.91025000  1.0
  O  O113  1  0.54441000  0.54772000  0.58975000  1.0
  O  O114  1  0.95559000  0.54772000  0.08975000  1.0
  O  O115  1  0.45559000  0.45228000  0.41025000  1.0
  O  O116  1  0.33823000  0.35551000  0.79939000  1.0
  O  O117  1  0.83823000  0.64448000  0.70061000  1.0
  O  O118  1  0.66177000  0.64449000  0.20061000  1.0
  O  O119  1  0.16177000  0.35552000  0.29939000  1.0
  O  O120  1  0.07648000  0.48829000  0.74441000  1.0
  O  O121  1  0.57648000  0.51171000  0.75559000  1.0
  O  O122  1  0.92352000  0.51171000  0.25559000  1.0
  O  O123  1  0.42352000  0.48829000  0.24441000  1.0
  O  O124  1  0.00880000  0.27575000  0.76333000  1.0
  O  O125  1  0.50880000  0.72425000  0.73667000  1.0
  O  O126  1  0.99120000  0.72425000  0.23667000  1.0
  O  O127  1  0.49120000  0.27575000  0.26333000  1.0
  O  O128  1  0.63693000  0.43487000  0.89899000  1.0
  O  O129  1  0.13693000  0.56513000  0.60101000  1.0
  O  O130  1  0.36307000  0.56513000  0.10101000  1.0
  O  O131  1  0.86307000  0.43487000  0.39899000  1.0
  O  O132  1  0.63286000  0.42297000  0.09414000  1.0
  O  O133  1  0.13285000  0.57703000  0.40586000  1.0
  O  O134  1  0.36714000  0.57703000  0.90586000  1.0
  O  O135  1  0.86715000  0.42297000  0.59414000  1.0
