# generated using pymatgen
data_CuH8C13NO4
_symmetry_space_group_name_H-M   'P 1'
_cell_length_a   7.74779000
_cell_length_b   9.01920000
_cell_length_c   10.90520000
_cell_angle_alpha   66.14320000
_cell_angle_beta   81.75860000
_cell_angle_gamma   80.20820000
_symmetry_Int_Tables_number   1
_chemical_formula_structural   CuH8C13NO4
_chemical_formula_sum   'Cu2 H16 C26 N2 O8'
_cell_volume   684.42637894
_cell_formula_units_Z   2
loop_
 _symmetry_equiv_pos_site_id
 _symmetry_equiv_pos_as_xyz
  1  'x, y, z'
loop_
 _atom_site_type_symbol
 _atom_site_label
 _atom_site_symmetry_multiplicity
 _atom_site_fract_x
 _atom_site_fract_y
 _atom_site_fract_z
 _atom_site_occupancy
  Cu  Cu0  1  0.38023000  0.39978000  0.04429000  1.0
  Cu  Cu1  1  0.61979000  0.60024000  0.95571000  1.0
  H  H2  1  0.30616000  0.05523000  0.90853000  1.0
  H  H3  1  0.69386000  0.94477000  0.09146000  1.0
  H  H4  1  0.91993000  0.71835000  0.07989000  1.0
  H  H5  1  0.08007000  0.28166000  0.92010000  1.0
  H  H6  1  0.67750000  0.67190000  0.54884000  1.0
  H  H7  1  0.32250000  0.32810000  0.45117000  1.0
  H  H8  1  0.28906000  0.33897000  0.67971000  1.0
  H  H9  1  0.71094000  0.66103000  0.32029000  1.0
  H  H10  1  0.39715000  0.03182000  0.21164000  1.0
  H  H11  1  0.60282000  0.96816000  0.78837000  1.0
  H  H12  1  0.26662000  0.86309000  0.43499000  1.0
  H  H13  1  0.73335000  0.13689000  0.56503000  1.0
  H  H14  1  0.84189000  0.25997000  0.38255000  1.0
  H  H15  1  0.15809000  0.74002000  0.61745000  1.0
  H  H16  1  0.99176000  0.40931000  0.16174000  1.0
  H  H17  1  0.00822000  0.59068000  0.83827000  1.0
  C  C18  1  0.26284000  0.73720000  0.98696000  1.0
  C  C19  1  0.73719000  0.26282000  0.01302000  1.0
  C  C20  1  0.46637000  0.51093000  0.76467000  1.0
  C  C21  1  0.53365000  0.48908000  0.23533000  1.0
  C  C22  1  0.12663000  0.87336000  0.99271000  1.0
  C  C23  1  0.87337000  0.12665000  0.00728000  1.0
  C  C24  1  0.17151000  0.03227000  0.94727000  1.0
  C  C25  1  0.82851000  0.96774000  0.05272000  1.0
  C  C26  1  0.95470000  0.84144000  0.04577000  1.0
  C  C27  1  0.04531000  0.15857000  0.95422000  1.0
  C  C28  1  0.48056000  0.50712000  0.62719000  1.0
  C  C29  1  0.51945000  0.49288000  0.37281000  1.0
  C  C30  1  0.59991000  0.59759000  0.52607000  1.0
  C  C31  1  0.40010000  0.40241000  0.47393000  1.0
  C  C32  1  0.38078000  0.40924000  0.60048000  1.0
  C  C33  1  0.61922000  0.59076000  0.39953000  1.0
  C  C34  1  0.27285000  0.07675000  0.25348000  1.0
  C  C35  1  0.72712000  0.92323000  0.74653000  1.0
  C  C36  1  0.19857000  0.98328000  0.37935000  1.0
  C  C37  1  0.80140000  0.01670000  0.62066000  1.0
  C  C38  1  0.04084000  0.04632000  0.43237000  1.0
  C  C39  1  0.95913000  0.95367000  0.56764000  1.0
  C  C40  1  0.96484000  0.20219000  0.35041000  1.0
  C  C41  1  0.03513000  0.79780000  0.64960000  1.0
  C  C42  1  0.04809000  0.28754000  0.22563000  1.0
  C  C43  1  0.95189000  0.71245000  0.77438000  1.0
  N  N44  1  0.20099000  0.22742000  0.17740000  1.0
  N  N45  1  0.79900000  0.77257000  0.82261000  1.0
  O  O46  1  0.42025000  0.77108000  0.95028000  1.0
  O  O47  1  0.57977000  0.22894000  0.04970000  1.0
  O  O48  1  0.21110000  0.59787000  0.02084000  1.0
  O  O49  1  0.78894000  0.40215000  0.97916000  1.0
  O  O50  1  0.56704000  0.59859000  0.77999000  1.0
  O  O51  1  0.43300000  0.40141000  0.22000000  1.0
  O  O52  1  0.35893000  0.42471000  0.85472000  1.0
  O  O53  1  0.64107000  0.57532000  0.14528000  1.0
