# generated using pymatgen
data_TbH7C7SO8
_symmetry_space_group_name_H-M   'P 1'
_cell_length_a   8.72436000
_cell_length_b   8.95059000
_cell_length_c   14.06860000
_cell_angle_alpha   101.84100000
_cell_angle_beta   89.99990000
_cell_angle_gamma   90.00000000
_symmetry_Int_Tables_number   1
_chemical_formula_structural   TbH7C7SO8
_chemical_formula_sum   'Tb4 H28 C28 S4 O32'
_cell_volume   1075.21408158
_cell_formula_units_Z   4
loop_
 _symmetry_equiv_pos_site_id
 _symmetry_equiv_pos_as_xyz
  1  'x, y, z'
loop_
 _atom_site_type_symbol
 _atom_site_label
 _atom_site_symmetry_multiplicity
 _atom_site_fract_x
 _atom_site_fract_y
 _atom_site_fract_z
 _atom_site_occupancy
  Tb  Tb0  1  0.53738000  0.26282000  0.22089000  1.0
  Tb  Tb1  1  0.03738000  0.23718000  0.27911000  1.0
  Tb  Tb2  1  0.46262000  0.73718000  0.77911000  1.0
  Tb  Tb3  1  0.96262000  0.76282000  0.72089000  1.0
  H  H4  1  0.31502000  0.59611000  0.04193000  1.0
  H  H5  1  0.81502000  0.90389000  0.45806000  1.0
  H  H6  1  0.68497000  0.40389000  0.95807000  1.0
  H  H7  1  0.18498000  0.09611000  0.54193000  1.0
  H  H8  1  0.86604000  0.80025000  0.05671000  1.0
  H  H9  1  0.36604000  0.69975000  0.44329000  1.0
  H  H10  1  0.13396000  0.19975000  0.94329000  1.0
  H  H11  1  0.63396000  0.30025000  0.55671000  1.0
  H  H12  1  0.79526000  0.66433000  0.18798000  1.0
  H  H13  1  0.29527000  0.83567000  0.31202000  1.0
  H  H14  1  0.20473000  0.33567000  0.81202000  1.0
  H  H15  1  0.70474000  0.16433000  0.68798000  1.0
  H  H16  1  0.44825000  0.20575000  0.01770000  1.0
  H  H17  1  0.94824000  0.29425000  0.48230000  1.0
  H  H18  1  0.55176000  0.79425000  0.98230000  1.0
  H  H19  1  0.05175000  0.70575000  0.51770000  1.0
  H  H20  1  0.36378000  0.05982000  0.03810000  1.0
  H  H21  1  0.86378000  0.44018000  0.46190000  1.0
  H  H22  1  0.63622000  0.94018000  0.96190000  1.0
  H  H23  1  0.13622000  0.55982000  0.53810000  1.0
  H  H24  1  0.66971000  0.50453000  0.36798000  1.0
  H  H25  1  0.16971000  0.99547000  0.13202000  1.0
  H  H26  1  0.33029000  0.49547000  0.63202000  1.0
  H  H27  1  0.83029000  0.00453000  0.86798000  1.0
  H  H28  1  0.78832000  0.48785000  0.27991000  1.0
  H  H29  1  0.28832000  0.01215000  0.22009000  1.0
  H  H30  1  0.21168000  0.51215000  0.72009000  1.0
  H  H31  1  0.71168000  0.98785000  0.77991000  1.0
  C  C32  1  0.28849000  0.44361000  0.17744000  1.0
  C  C33  1  0.78849000  0.05639000  0.32256000  1.0
  C  C34  1  0.71151000  0.55639000  0.82256000  1.0
  C  C35  1  0.21151000  0.94361000  0.67744000  1.0
  C  C36  1  0.16430000  0.53624000  0.14823000  1.0
  C  C37  1  0.66430000  0.96375000  0.35176000  1.0
  C  C38  1  0.83570000  0.46376000  0.85177000  1.0
  C  C39  1  0.33570000  0.03624000  0.64823000  1.0
  C  C40  1  0.20110000  0.61263000  0.07382000  1.0
  C  C41  1  0.70110000  0.88737000  0.42618000  1.0
  C  C42  1  0.79890000  0.38737000  0.92618000  1.0
  C  C43  1  0.29891000  0.11263000  0.57382000  1.0
  C  C44  1  0.09436000  0.70353000  0.04001000  1.0
  C  C45  1  0.59436000  0.79647000  0.45999000  1.0
  C  C46  1  0.90564000  0.29647000  0.95998000  1.0
  C  C47  1  0.40564000  0.20352000  0.54001000  1.0
  C  C48  1  0.94776000  0.72522000  0.08233000  1.0
  C  C49  1  0.44776000  0.77478000  0.41767000  1.0
  C  C50  1  0.05224000  0.27478000  0.91767000  1.0
  C  C51  1  0.55224000  0.22523000  0.58233000  1.0
  C  C52  1  0.90947000  0.65063000  0.15586000  1.0
  C  C53  1  0.40947000  0.84937000  0.34414000  1.0
  C  C54  1  0.09053000  0.34937000  0.84414000  1.0
  C  C55  1  0.59053000  0.15063000  0.65586000  1.0
  C  C56  1  0.01401000  0.55104000  0.18983000  1.0
  C  C57  1  0.51401000  0.94895000  0.31017000  1.0
  C  C58  1  0.98599000  0.44896000  0.81017000  1.0
  C  C59  1  0.48599000  0.05104000  0.68983000  1.0
  S  S60  1  0.15216000  0.80193000  0.95056000  1.0
  S  S61  1  0.65216000  0.69807000  0.54945000  1.0
  S  S62  1  0.84784000  0.19807000  0.04944000  1.0
  S  S63  1  0.34784000  0.30193000  0.45055000  1.0
  O  O64  1  0.26325000  0.34717000  0.23383000  1.0
  O  O65  1  0.76325000  0.15283000  0.26617000  1.0
  O  O66  1  0.73675000  0.65283000  0.76617000  1.0
  O  O67  1  0.23675000  0.84717000  0.73383000  1.0
  O  O68  1  0.42420000  0.45532000  0.14703000  1.0
  O  O69  1  0.92420000  0.04468000  0.35297000  1.0
  O  O70  1  0.57580000  0.54468000  0.85297000  1.0
  O  O71  1  0.07580000  0.95532000  0.64703000  1.0
  O  O72  1  0.96983000  0.47611000  0.25693000  1.0
  O  O73  1  0.46983000  0.02389000  0.24307000  1.0
  O  O74  1  0.03017000  0.52389000  0.74307000  1.0
  O  O75  1  0.53017000  0.97611000  0.75693000  1.0
  O  O76  1  0.27820000  0.71119000  0.89728000  1.0
  O  O77  1  0.77820000  0.78881000  0.60272000  1.0
  O  O78  1  0.72180000  0.28881000  0.10272000  1.0
  O  O79  1  0.22180000  0.21119000  0.39728000  1.0
  O  O80  1  0.20306000  0.95522000  0.00068000  1.0
  O  O81  1  0.70306000  0.54478000  0.49932000  1.0
  O  O82  1  0.79694000  0.04478000  0.99932000  1.0
  O  O83  1  0.29694000  0.45522000  0.50068000  1.0
  O  O84  1  0.01806000  0.81241000  0.88846000  1.0
  O  O85  1  0.51806000  0.68759000  0.61154000  1.0
  O  O86  1  0.98194000  0.18759000  0.11154000  1.0
  O  O87  1  0.48194000  0.31241000  0.38846000  1.0
  O  O88  1  0.67606000  0.47943000  0.29653000  1.0
  O  O89  1  0.17606000  0.02057000  0.20347000  1.0
  O  O90  1  0.32394000  0.52057000  0.70347000  1.0
  O  O91  1  0.82394000  0.97943000  0.79653000  1.0
  O  O92  1  0.44025000  0.13970000  0.06435000  1.0
  O  O93  1  0.94025000  0.36030000  0.43565000  1.0
  O  O94  1  0.55975000  0.86030000  0.93565000  1.0
  O  O95  1  0.05974000  0.63970000  0.56435000  1.0
