# generated using pymatgen
data_Ni3P4H22C10(N2O9)2
_symmetry_space_group_name_H-M   'P 1'
_cell_length_a   6.80297000
_cell_length_b   9.26500000
_cell_length_c   9.84892000
_cell_angle_alpha   100.84820000
_cell_angle_beta   90.50140000
_cell_angle_gamma   99.98370000
_symmetry_Int_Tables_number   1
_chemical_formula_structural   Ni3P4H22C10(N2O9)2
_chemical_formula_sum   'Ni3 P4 H22 C10 N4 O18'
_cell_volume   599.89698732
_cell_formula_units_Z   1
loop_
 _symmetry_equiv_pos_site_id
 _symmetry_equiv_pos_as_xyz
  1  'x, y, z'
loop_
 _atom_site_type_symbol
 _atom_site_label
 _atom_site_symmetry_multiplicity
 _atom_site_fract_x
 _atom_site_fract_y
 _atom_site_fract_z
 _atom_site_occupancy
  Ni  Ni0  1  0.00001000  0.50000000  0.00001000  1.0
  Ni  Ni1  1  0.80884000  0.95261000  0.05966000  1.0
  Ni  Ni2  1  0.19115000  0.04739000  0.94035000  1.0
  P  P3  1  0.97058000  0.27299000  0.20339000  1.0
  P  P4  1  0.02945000  0.72701000  0.79662000  1.0
  P  P5  1  0.63720000  0.22716000  0.99164000  1.0
  P  P6  1  0.36283000  0.77284000  0.00836000  1.0
  H  H7  1  0.33715000  0.33845000  0.85934000  1.0
  H  H8  1  0.66281000  0.66155000  0.14066000  1.0
  H  H9  1  0.17672000  0.43123000  0.82449000  1.0
  H  H10  1  0.82324000  0.56874000  0.17548000  1.0
  H  H11  1  0.89296000  0.79831000  0.23345000  1.0
  H  H12  1  0.10703000  0.20167000  0.76656000  1.0
  H  H13  1  0.09096000  0.89722000  0.18474000  1.0
  H  H14  1  0.90903000  0.10277000  0.81527000  1.0
  H  H15  1  0.50023000  0.02470000  0.15963000  1.0
  H  H16  1  0.49976000  0.97532000  0.84036000  1.0
  H  H17  1  0.80656000  0.44415000  0.71478000  1.0
  H  H18  1  0.19349000  0.55588000  0.28521000  1.0
  H  H19  1  0.80290000  0.53028000  0.48639000  1.0
  H  H20  1  0.19709000  0.46973000  0.51357000  1.0
  H  H21  1  0.57838000  0.18692000  0.70289000  1.0
  H  H22  1  0.42165000  0.81313000  0.29714000  1.0
  H  H23  1  0.41209000  0.10993000  0.43418000  1.0
  H  H24  1  0.58792000  0.89008000  0.56585000  1.0
  H  H25  1  0.59170000  0.43597000  0.25654000  1.0
  H  H26  1  0.40828000  0.56401000  0.74346000  1.0
  H  H27  1  0.40460000  0.27365000  0.24472000  1.0
  H  H28  1  0.59543000  0.72634000  0.75527000  1.0
  C  C29  1  0.72183000  0.42504000  0.50576000  1.0
  C  C30  1  0.27815000  0.57498000  0.49423000  1.0
  C  C31  1  0.60170000  0.24338000  0.61643000  1.0
  C  C32  1  0.39830000  0.75663000  0.38358000  1.0
  C  C33  1  0.52118000  0.20461000  0.48433000  1.0
  C  C34  1  0.47881000  0.79541000  0.51568000  1.0
  C  C35  1  0.56335000  0.31966000  0.27087000  1.0
  C  C36  1  0.43665000  0.68034000  0.72914000  1.0
  C  C37  1  0.69152000  0.22541000  0.17759000  1.0
  C  C38  1  0.30849000  0.77460000  0.82242000  1.0
  N  N39  1  0.59822000  0.31932000  0.41719000  1.0
  N  N40  1  0.40176000  0.68069000  0.58281000  1.0
  N  N41  1  0.72435000  0.38042000  0.62707000  1.0
  N  N42  1  0.27566000  0.61960000  0.37291000  1.0
  O  O43  1  0.03012000  0.43171000  0.16395000  1.0
  O  O44  1  0.96990000  0.56829000  0.83605000  1.0
  O  O45  1  0.26386000  0.36287000  0.78091000  1.0
  O  O46  1  0.73608000  0.63708000  0.21907000  1.0
  O  O47  1  0.02679000  0.14643000  0.09114000  1.0
  O  O48  1  0.97321000  0.85356000  0.90886000  1.0
  O  O49  1  0.95523000  0.90032000  0.21920000  1.0
  O  O50  1  0.04474000  0.09965000  0.78081000  1.0
  O  O51  1  0.04353000  0.28161000  0.34867000  1.0
  O  O52  1  0.95651000  0.71839000  0.65134000  1.0
  O  O53  1  0.76224000  0.36350000  0.94663000  1.0
  O  O54  1  0.23780000  0.63648000  0.05336000  1.0
  O  O55  1  0.68802000  0.07590000  0.91304000  1.0
  O  O56  1  0.31194000  0.92407000  0.08697000  1.0
  O  O57  1  0.41413000  0.23073000  0.97066000  1.0
  O  O58  1  0.58590000  0.76929000  0.02935000  1.0
  O  O59  1  0.64282000  0.07267000  0.19741000  1.0
  O  O60  1  0.35718000  0.92731000  0.80260000  1.0
