# generated using pymatgen
data_CuH8C13N5ClO
_symmetry_space_group_name_H-M   'P 1'
_cell_length_a   3.76555000
_cell_length_b   11.62900000
_cell_length_c   13.72160000
_cell_angle_alpha   90.00020000
_cell_angle_beta   90.00030000
_cell_angle_gamma   93.53660000
_symmetry_Int_Tables_number   1
_chemical_formula_structural   CuH8C13N5ClO
_chemical_formula_sum   'Cu2 H16 C26 N10 Cl2 O2'
_cell_volume   599.71882877
_cell_formula_units_Z   2
loop_
 _symmetry_equiv_pos_site_id
 _symmetry_equiv_pos_as_xyz
  1  'x, y, z'
loop_
 _atom_site_type_symbol
 _atom_site_label
 _atom_site_symmetry_multiplicity
 _atom_site_fract_x
 _atom_site_fract_y
 _atom_site_fract_z
 _atom_site_occupancy
  Cu  Cu0  1  0.60493000  0.67236000  0.75000000  1.0
  Cu  Cu1  1  0.39506000  0.32763000  0.25000000  1.0
  H  H2  1  0.79845000  0.55725000  0.55591000  1.0
  H  H3  1  0.20152000  0.44275000  0.05591000  1.0
  H  H4  1  0.20153000  0.44275000  0.44410000  1.0
  H  H5  1  0.79845000  0.55725000  0.94409000  1.0
  H  H6  1  0.71528000  0.60261000  0.37743000  1.0
  H  H7  1  0.28470000  0.39739000  0.87743000  1.0
  H  H8  1  0.28471000  0.39738000  0.62258000  1.0
  H  H9  1  0.71527000  0.60261000  0.12257000  1.0
  H  H10  1  0.42682000  0.78678000  0.33414000  1.0
  H  H11  1  0.57319000  0.21322000  0.83414000  1.0
  H  H12  1  0.57318000  0.21321000  0.66586000  1.0
  H  H13  1  0.42681000  0.78678000  0.16586000  1.0
  H  H14  1  0.23798000  0.91462000  0.46667000  1.0
  H  H15  1  0.76202000  0.08538000  0.96667000  1.0
  H  H16  1  0.76202000  0.08537000  0.53333000  1.0
  H  H17  1  0.23798000  0.91462000  0.03333000  1.0
  C  C18  1  0.67454000  0.63456000  0.53171000  1.0
  C  C19  1  0.32543000  0.36544000  0.03171000  1.0
  C  C20  1  0.32543000  0.36543000  0.46829000  1.0
  C  C21  1  0.67455000  0.63456000  0.96829000  1.0
  C  C22  1  0.62807000  0.66097000  0.43358000  1.0
  C  C23  1  0.37192000  0.33903000  0.93358000  1.0
  C  C24  1  0.37192000  0.33902000  0.56642000  1.0
  C  C25  1  0.62805000  0.66097000  0.06642000  1.0
  C  C26  1  0.47233000  0.76275000  0.40936000  1.0
  C  C27  1  0.52765000  0.23725000  0.90936000  1.0
  C  C28  1  0.52767000  0.23724000  0.59064000  1.0
  C  C29  1  0.47234000  0.76275000  0.09064000  1.0
  C  C30  1  0.36626000  0.83545000  0.48341000  1.0
  C  C31  1  0.63375000  0.16456000  0.98341000  1.0
  C  C32  1  0.63374000  0.16455000  0.51659000  1.0
  C  C33  1  0.36626000  0.83544000  0.01658000  1.0
  C  C34  1  0.41908000  0.80331000  0.57966000  1.0
  C  C35  1  0.58093000  0.19669000  0.07966000  1.0
  C  C36  1  0.58094000  0.19669000  0.42034000  1.0
  C  C37  1  0.41907000  0.80331000  0.92034000  1.0
  C  C38  1  0.31505000  0.87053000  0.66554000  1.0
  C  C39  1  0.68495000  0.12948000  0.16555000  1.0
  C  C40  1  0.68497000  0.12948000  0.33445000  1.0
  C  C41  1  0.31506000  0.87053000  0.83445000  1.0
  C  C42  1  0.08367000  0.02102000  0.75000000  1.0
  C  C43  1  0.91642000  0.97898000  0.25000000  1.0
  N  N44  1  0.57174000  0.70371000  0.60295000  1.0
  N  N45  1  0.42824000  0.29629000  0.10295000  1.0
  N  N46  1  0.42825000  0.29629000  0.39706000  1.0
  N  N47  1  0.57174000  0.70371000  0.89705000  1.0
  N  N48  1  0.39999000  0.81918000  0.75000000  1.0
  N  N49  1  0.59999000  0.18082000  0.25000000  1.0
  N  N50  1  0.15708000  0.96767000  0.66063000  1.0
  N  N51  1  0.84296000  0.03233000  0.16062000  1.0
  N  N52  1  0.84295000  0.03233000  0.33938000  1.0
  N  N53  1  0.15707000  0.96767000  0.83937000  1.0
  Cl  Cl54  1  0.97874000  0.53084000  0.75000000  1.0
  Cl  Cl55  1  0.02124000  0.46916000  0.25000000  1.0
  O  O56  1  0.95176000  0.11616000  0.75000000  1.0
  O  O57  1  0.04830000  0.88385000  0.25000000  1.0
