# generated using pymatgen
data_ZnH27C38N5O4
_symmetry_space_group_name_H-M   'P 1'
_cell_length_a   7.89142000
_cell_length_b   14.98650000
_cell_length_c   33.81310000
_cell_angle_alpha   90.00000000
_cell_angle_beta   89.99990000
_cell_angle_gamma   103.70100000
_symmetry_Int_Tables_number   1
_chemical_formula_structural   ZnH27C38N5O4
_chemical_formula_sum   'Zn4 H108 C152 N20 O16'
_cell_volume   3885.10964582
_cell_formula_units_Z   4
loop_
 _symmetry_equiv_pos_site_id
 _symmetry_equiv_pos_as_xyz
  1  'x, y, z'
loop_
 _atom_site_type_symbol
 _atom_site_label
 _atom_site_symmetry_multiplicity
 _atom_site_fract_x
 _atom_site_fract_y
 _atom_site_fract_z
 _atom_site_occupancy
  Zn  Zn0  1  0.11742000  0.31770000  0.14947000  1.0
  Zn  Zn1  1  0.38259000  0.68230000  0.64947000  1.0
  Zn  Zn2  1  0.88258000  0.68230000  0.85053000  1.0
  Zn  Zn3  1  0.61742000  0.31770000  0.35053000  1.0
  H  H4  1  0.04783000  0.51885000  0.16348000  1.0
  H  H5  1  0.45218000  0.48115000  0.66348000  1.0
  H  H6  1  0.95218000  0.48115000  0.83652000  1.0
  H  H7  1  0.54783000  0.51885000  0.33652000  1.0
  H  H8  1  0.95694000  0.11302000  0.05995000  1.0
  H  H9  1  0.54304000  0.88698000  0.55994000  1.0
  H  H10  1  0.04304000  0.88698000  0.94005000  1.0
  H  H11  1  0.45695000  0.11301000  0.44005000  1.0
  H  H12  1  0.84307000  0.96766000  0.02320000  1.0
  H  H13  1  0.65692000  0.03234000  0.52319000  1.0
  H  H14  1  0.15691000  0.03234000  0.97680000  1.0
  H  H15  1  0.34307000  0.96766000  0.47680000  1.0
  H  H16  1  0.13658000  0.18304000  0.29997000  1.0
  H  H17  1  0.36343000  0.81697000  0.79997000  1.0
  H  H18  1  0.86343000  0.81696000  0.70003000  1.0
  H  H19  1  0.63658000  0.18304000  0.20003000  1.0
  H  H20  1  0.63891000  0.00439000  0.15974000  1.0
  H  H21  1  0.86109000  0.99561000  0.65974000  1.0
  H  H22  1  0.36110000  0.99561000  0.84026000  1.0
  H  H23  1  0.13891000  0.00439000  0.34026000  1.0
  H  H24  1  0.84254000  0.78033000  0.18860000  1.0
  H  H25  1  0.65747000  0.21967000  0.68860000  1.0
  H  H26  1  0.15746000  0.21967000  0.81140000  1.0
  H  H27  1  0.34254000  0.78033000  0.31140000  1.0
  H  H28  1  0.58614000  0.12084000  0.31254000  1.0
  H  H29  1  0.91386000  0.87916000  0.81254000  1.0
  H  H30  1  0.41386000  0.87916000  0.68746000  1.0
  H  H31  1  0.08615000  0.12084000  0.18746000  1.0
  H  H32  1  0.90045000  0.71795000  0.31181000  1.0
  H  H33  1  0.59955000  0.28204000  0.81181000  1.0
  H  H34  1  0.09956000  0.28204000  0.68819000  1.0
  H  H35  1  0.40045000  0.71796000  0.18819000  1.0
  H  H36  1  0.75628000  0.71307000  0.00588000  1.0
  H  H37  1  0.74372000  0.28693000  0.50588000  1.0
  H  H38  1  0.24373000  0.28693000  0.99412000  1.0
  H  H39  1  0.25627000  0.71307000  0.49412000  1.0
  H  H40  1  0.87896000  0.62732000  0.17063000  1.0
  H  H41  1  0.62106000  0.37268000  0.67063000  1.0
  H  H42  1  0.12105000  0.37268000  0.82937000  1.0
  H  H43  1  0.37895000  0.62732000  0.32937000  1.0
  H  H44  1  0.48644000  0.92324000  0.92707000  1.0
  H  H45  1  0.01355000  0.07677000  0.42707000  1.0
  H  H46  1  0.51355000  0.07676000  0.07293000  1.0
  H  H47  1  0.98645000  0.92323000  0.57293000  1.0
  H  H48  1  0.51448000  0.86132000  0.12266000  1.0
  H  H49  1  0.98552000  0.13868000  0.62266000  1.0
  H  H50  1  0.48553000  0.13868000  0.87734000  1.0
  H  H51  1  0.01447000  0.86132000  0.37734000  1.0
  H  H52  1  0.93057000  0.56458000  0.29404000  1.0
  H  H53  1  0.56942000  0.43542000  0.79404000  1.0
  H  H54  1  0.06944000  0.43542000  0.70596000  1.0
  H  H55  1  0.43057000  0.56458000  0.20596000  1.0
  H  H56  1  0.47051000  0.92430000  0.00062000  1.0
  H  H57  1  0.02948000  0.07569000  0.50062000  1.0
  H  H58  1  0.52946000  0.07569000  0.99938000  1.0
  H  H59  1  0.97051000  0.92430000  0.49939000  1.0
  H  H60  1  0.77984000  0.97548000  0.34568000  1.0
  H  H61  1  0.72016000  0.02451000  0.84568000  1.0
  H  H62  1  0.22015000  0.02451000  0.65432000  1.0
  H  H63  1  0.27984000  0.97548000  0.15432000  1.0
  H  H64  1  0.03039000  0.33859000  0.32607000  1.0
  H  H65  1  0.46962000  0.66141000  0.82607000  1.0
  H  H66  1  0.96961000  0.66141000  0.67393000  1.0
  H  H67  1  0.53039000  0.33860000  0.17393000  1.0
  H  H68  1  0.90892000  0.27824000  0.23223000  1.0
  H  H69  1  0.59109000  0.72176000  0.73223000  1.0
  H  H70  1  0.09108000  0.72176000  0.76777000  1.0
  H  H71  1  0.40892000  0.27824000  0.26777000  1.0
  H  H72  1  0.90692000  0.91682000  0.20541000  1.0
  H  H73  1  0.59309000  0.08318000  0.70540000  1.0
  H  H74  1  0.09309000  0.08318000  0.79460000  1.0
  H  H75  1  0.40693000  0.91682000  0.29459000  1.0
  H  H76  1  0.82565000  0.42170000  0.27437000  1.0
  H  H77  1  0.67435000  0.57830000  0.77437000  1.0
  H  H78  1  0.17435000  0.57831000  0.72563000  1.0
  H  H79  1  0.32565000  0.42169000  0.22562000  1.0
  H  H80  1  0.89240000  0.07214000  0.22656000  1.0
  H  H81  1  0.60761000  0.92786000  0.72655000  1.0
  H  H82  1  0.10761000  0.92786000  0.77345000  1.0
  H  H83  1  0.39241000  0.07214000  0.27344000  1.0
  H  H84  1  0.77358000  0.81733000  0.32394000  1.0
  H  H85  1  0.72643000  0.18267000  0.82394000  1.0
  H  H86  1  0.22642000  0.18267000  0.67606000  1.0
  H  H87  1  0.27358000  0.81733000  0.17606000  1.0
  H  H88  1  0.76634000  0.70875000  0.93242000  1.0
  H  H89  1  0.73366000  0.29126000  0.43242000  1.0
  H  H90  1  0.23367000  0.29126000  0.06758000  1.0
  H  H91  1  0.26635000  0.70875000  0.56758000  1.0
  H  H92  1  0.63363000  0.81507000  0.89285000  1.0
  H  H93  1  0.86637000  0.18493000  0.39285000  1.0
  H  H94  1  0.36638000  0.18493000  0.10715000  1.0
  H  H95  1  0.13364000  0.81507000  0.60715000  1.0
  H  H96  1  0.61495000  0.61503000  0.15079000  1.0
  H  H97  1  0.88506000  0.38497000  0.65080000  1.0
  H  H98  1  0.38505000  0.38496000  0.84921000  1.0
  H  H99  1  0.11494000  0.61503000  0.34921000  1.0
  H  H100  1  0.34938000  0.68496000  0.02501000  1.0
  H  H101  1  0.15063000  0.31503000  0.52501000  1.0
  H  H102  1  0.65063000  0.31503000  0.97499000  1.0
  H  H103  1  0.84936000  0.68496000  0.47499000  1.0
  H  H104  1  0.73235000  0.76524000  0.11721000  1.0
  H  H105  1  0.76765000  0.23476000  0.61721000  1.0
  H  H106  1  0.26764000  0.23476000  0.88280000  1.0
  H  H107  1  0.23234000  0.76524000  0.38280000  1.0
  H  H108  1  0.23674000  0.53471000  0.05877000  1.0
  H  H109  1  0.26327000  0.46529000  0.55877000  1.0
  H  H110  1  0.76328000  0.46529000  0.94123000  1.0
  H  H111  1  0.73673000  0.53471000  0.44123000  1.0
  C  C112  1  0.90609000  0.58593000  0.23112000  1.0
  C  C113  1  0.59391000  0.41407000  0.73112000  1.0
  C  C114  1  0.09392000  0.41407000  0.76888000  1.0
  C  C115  1  0.40609000  0.58593000  0.26888000  1.0
  C  C116  1  0.61517000  0.81994000  0.00756000  1.0
  C  C117  1  0.88483000  0.18007000  0.50756000  1.0
  C  C118  1  0.38482000  0.18006000  0.99244000  1.0
  C  C119  1  0.11517000  0.81993000  0.49244000  1.0
  C  C120  1  0.86623000  0.76211000  0.25183000  1.0
  C  C121  1  0.63377000  0.23788000  0.75183000  1.0
  C  C122  1  0.13377000  0.23788000  0.74818000  1.0
  C  C123  1  0.36624000  0.76212000  0.24817000  1.0
  C  C124  1  0.87897000  0.15351000  0.13538000  1.0
  C  C125  1  0.62103000  0.84649000  0.63538000  1.0
  C  C126  1  0.12103000  0.84649000  0.86462000  1.0
  C  C127  1  0.37897000  0.15351000  0.36462000  1.0
  C  C128  1  0.84903000  0.85475000  0.26340000  1.0
  C  C129  1  0.65098000  0.14525000  0.76339000  1.0
  C  C130  1  0.15097000  0.14525000  0.73661000  1.0
  C  C131  1  0.34904000  0.85475000  0.23661000  1.0
  C  C132  1  0.80630000  0.06823000  0.11240000  1.0
  C  C133  1  0.69368000  0.93177000  0.61240000  1.0
  C  C134  1  0.19369000  0.93177000  0.88760000  1.0
  C  C135  1  0.30630000  0.06823000  0.38760000  1.0
  C  C136  1  0.99518000  0.47186000  0.18718000  1.0
  C  C137  1  0.50483000  0.52814000  0.68719000  1.0
  C  C138  1  0.00482000  0.52814000  0.81281000  1.0
  C  C139  1  0.49518000  0.47186000  0.31281000  1.0
  C  C140  1  0.86092000  0.05711000  0.07358000  1.0
  C  C141  1  0.63906000  0.94289000  0.57358000  1.0
  C  C142  1  0.13906000  0.94289000  0.92641000  1.0
  C  C143  1  0.36093000  0.05711000  0.42642000  1.0
  C  C144  1  0.79709000  0.97576000  0.05305000  1.0
  C  C145  1  0.70289000  0.02425000  0.55305000  1.0
  C  C146  1  0.20290000  0.02424000  0.94695000  1.0
  C  C147  1  0.29709000  0.97576000  0.44695000  1.0
  C  C148  1  0.00808000  0.19535000  0.30468000  1.0
  C  C149  1  0.49192000  0.80465000  0.80468000  1.0
  C  C150  1  0.99192000  0.80464000  0.69532000  1.0
  C  C151  1  0.50809000  0.19535000  0.19532000  1.0
  C  C152  1  0.68275000  0.99592000  0.12972000  1.0
  C  C153  1  0.81725000  0.00408000  0.62972000  1.0
  C  C154  1  0.31725000  0.00408000  0.87028000  1.0
  C  C155  1  0.18275000  0.99592000  0.37028000  1.0
  C  C156  1  0.86424000  0.73442000  0.21204000  1.0
  C  C157  1  0.63577000  0.26558000  0.71204000  1.0
  C  C158  1  0.13577000  0.26559000  0.78796000  1.0
  C  C159  1  0.36424000  0.73442000  0.28796000  1.0
  C  C160  1  0.72050000  0.15958000  0.31247000  1.0
  C  C161  1  0.77950000  0.84042000  0.81247000  1.0
  C  C162  1  0.27950000  0.84041000  0.68753000  1.0
  C  C163  1  0.22051000  0.15958000  0.18753000  1.0
  C  C164  1  0.89081000  0.69876000  0.28067000  1.0
  C  C165  1  0.60920000  0.30123000  0.78067000  1.0
  C  C166  1  0.10920000  0.30123000  0.71933000  1.0
  C  C167  1  0.39081000  0.69877000  0.21933000  1.0
  C  C168  1  0.69769000  0.75902000  0.98834000  1.0
  C  C169  1  0.80231000  0.24099000  0.48834000  1.0
  C  C170  1  0.30231000  0.24099000  0.01166000  1.0
  C  C171  1  0.19769000  0.75901000  0.51166000  1.0
  C  C172  1  0.67270000  0.90302000  0.07047000  1.0
  C  C173  1  0.82728000  0.09697000  0.57047000  1.0
  C  C174  1  0.32728000  0.09697000  0.92953000  1.0
  C  C175  1  0.17270000  0.90302000  0.42953000  1.0
  C  C176  1  0.84662000  0.03383000  0.28779000  1.0
  C  C177  1  0.65338000  0.96617000  0.78779000  1.0
  C  C178  1  0.15338000  0.96617000  0.71222000  1.0
  C  C179  1  0.34663000  0.03383000  0.21221000  1.0
  C  C180  1  0.88441000  0.64769000  0.20162000  1.0
  C  C181  1  0.61560000  0.35231000  0.70162000  1.0
  C  C182  1  0.11560000  0.35231000  0.79838000  1.0
  C  C183  1  0.38441000  0.64769000  0.29838000  1.0
  C  C184  1  0.54713000  0.87766000  0.94422000  1.0
  C  C185  1  0.95286000  0.12234000  0.44422000  1.0
  C  C186  1  0.45286000  0.12234000  0.05578000  1.0
  C  C187  1  0.04714000  0.87766000  0.55578000  1.0
  C  C188  1  0.61398000  0.91550000  0.10904000  1.0
  C  C189  1  0.88601000  0.08450000  0.60904000  1.0
  C  C190  1  0.38601000  0.08450000  0.89096000  1.0
  C  C191  1  0.11398000  0.91550000  0.39096000  1.0
  C  C192  1  0.90987000  0.61166000  0.27084000  1.0
  C  C193  1  0.59013000  0.38834000  0.77084000  1.0
  C  C194  1  0.09013000  0.38834000  0.72916000  1.0
  C  C195  1  0.40987000  0.61166000  0.22916000  1.0
  C  C196  1  0.53821000  0.87872000  0.98543000  1.0
  C  C197  1  0.96179000  0.12128000  0.48543000  1.0
  C  C198  1  0.46178000  0.12127000  0.01457000  1.0
  C  C199  1  0.03821000  0.87872000  0.51457000  1.0
  C  C200  1  0.80692000  0.96170000  0.31494000  1.0
  C  C201  1  0.69309000  0.03830000  0.81494000  1.0
  C  C202  1  0.19308000  0.03829000  0.68506000  1.0
  C  C203  1  0.30692000  0.96170000  0.18506000  1.0
  C  C204  1  0.95524000  0.27020000  0.31887000  1.0
  C  C205  1  0.54476000  0.72980000  0.81887000  1.0
  C  C206  1  0.04476000  0.72979000  0.68113000  1.0
  C  C207  1  0.45524000  0.27021000  0.18113000  1.0
  C  C208  1  0.92302000  0.34955000  0.22425000  1.0
  C  C209  1  0.57700000  0.65045000  0.72425000  1.0
  C  C210  1  0.07699000  0.65045000  0.77575000  1.0
  C  C211  1  0.42301000  0.34955000  0.27575000  1.0
  C  C212  1  0.87835000  0.92804000  0.23628000  1.0
  C  C213  1  0.62166000  0.07196000  0.73628000  1.0
  C  C214  1  0.12165000  0.07196000  0.76372000  1.0
  C  C215  1  0.37835000  0.92804000  0.26372000  1.0
  C  C216  1  0.87960000  0.41926000  0.24505000  1.0
  C  C217  1  0.62041000  0.58074000  0.74505000  1.0
  C  C218  1  0.12040000  0.58074000  0.75495000  1.0
  C  C219  1  0.37960000  0.41926000  0.25495000  1.0
  C  C220  1  0.87570000  0.01667000  0.24814000  1.0
  C  C221  1  0.62431000  0.98333000  0.74814000  1.0
  C  C222  1  0.12430000  0.98333000  0.75186000  1.0
  C  C223  1  0.37570000  0.01667000  0.25186000  1.0
  C  C224  1  0.80649000  0.87310000  0.30256000  1.0
  C  C225  1  0.69352000  0.12690000  0.80256000  1.0
  C  C226  1  0.19351000  0.12690000  0.69744000  1.0
  C  C227  1  0.30649000  0.87310000  0.19744000  1.0
  C  C228  1  0.70313000  0.75683000  0.94715000  1.0
  C  C229  1  0.79687000  0.24318000  0.44715000  1.0
  C  C230  1  0.29687000  0.24318000  0.05285000  1.0
  C  C231  1  0.20314000  0.75682000  0.55285000  1.0
  C  C232  1  0.62901000  0.81672000  0.92504000  1.0
  C  C233  1  0.87099000  0.18329000  0.42505000  1.0
  C  C234  1  0.37099000  0.18329000  0.07496000  1.0
  C  C235  1  0.12902000  0.81672000  0.57496000  1.0
  C  C236  1  0.55742000  0.63159000  0.12331000  1.0
  C  C237  1  0.94259000  0.36841000  0.62331000  1.0
  C  C238  1  0.44258000  0.36841000  0.87669000  1.0
  C  C239  1  0.05741000  0.63159000  0.37669000  1.0
  C  C240  1  0.54587000  0.73621000  0.06930000  1.0
  C  C241  1  0.95413000  0.26379000  0.56930000  1.0
  C  C242  1  0.45412000  0.26379000  0.93070000  1.0
  C  C243  1  0.04586000  0.73621000  0.43070000  1.0
  C  C244  1  0.40719000  0.66985000  0.05274000  1.0
  C  C245  1  0.09282000  0.33015000  0.55274000  1.0
  C  C246  1  0.59281000  0.33015000  0.94726000  1.0
  C  C247  1  0.90718000  0.66985000  0.44726000  1.0
  C  C248  1  0.62193000  0.71532000  0.10473000  1.0
  C  C249  1  0.87808000  0.28468000  0.60473000  1.0
  C  C250  1  0.37806000  0.28468000  0.89527000  1.0
  C  C251  1  0.12192000  0.71532000  0.39527000  1.0
  C  C252  1  0.34950000  0.47766000  0.12885000  1.0
  C  C253  1  0.15050000  0.52233000  0.62885000  1.0
  C  C254  1  0.65049000  0.52233000  0.87115000  1.0
  C  C255  1  0.84949000  0.47766000  0.37115000  1.0
  C  C256  1  0.34482000  0.58584000  0.07144000  1.0
  C  C257  1  0.15519000  0.41416000  0.57143000  1.0
  C  C258  1  0.65518000  0.41416000  0.92856000  1.0
  C  C259  1  0.84481000  0.58583000  0.42857000  1.0
  C  C260  1  0.41788000  0.56570000  0.10721000  1.0
  C  C261  1  0.08213000  0.43430000  0.60721000  1.0
  C  C262  1  0.58212000  0.43430000  0.89279000  1.0
  C  C263  1  0.91787000  0.56570000  0.39280000  1.0
  N  N264  1  0.92521000  0.49669000  0.22114000  1.0
  N  N265  1  0.57479000  0.50331000  0.72115000  1.0
  N  N266  1  0.07479000  0.50332000  0.77885000  1.0
  N  N267  1  0.42521000  0.49669000  0.27885000  1.0
  N  N268  1  0.60869000  0.82076000  0.04982000  1.0
  N  N269  1  0.89130000  0.17924000  0.54982000  1.0
  N  N270  1  0.39130000  0.17924000  0.95018000  1.0
  N  N271  1  0.10868000  0.82076000  0.45018000  1.0
  N  N272  1  0.99515000  0.38319000  0.18841000  1.0
  N  N273  1  0.50486000  0.61681000  0.68841000  1.0
  N  N274  1  0.00486000  0.61681000  0.81159000  1.0
  N  N275  1  0.49515000  0.38319000  0.31159000  1.0
  N  N276  1  0.85740000  0.12586000  0.30081000  1.0
  N  N277  1  0.64260000  0.87414000  0.80081000  1.0
  N  N278  1  0.14260000  0.87413000  0.69919000  1.0
  N  N279  1  0.35741000  0.12586000  0.19918000  1.0
  N  N280  1  0.77567000  0.24715000  0.32346000  1.0
  N  N281  1  0.72433000  0.75285000  0.82345000  1.0
  N  N282  1  0.22433000  0.75285000  0.67655000  1.0
  N  N283  1  0.27568000  0.24715000  0.17655000  1.0
  O  O284  1  0.97104000  0.22210000  0.11575000  1.0
  O  O285  1  0.52895000  0.77790000  0.61575000  1.0
  O  O286  1  0.02896000  0.77790000  0.88425000  1.0
  O  O287  1  0.47104000  0.22210000  0.38425000  1.0
  O  O288  1  0.85408000  0.15442000  0.17234000  1.0
  O  O289  1  0.64593000  0.84558000  0.67234000  1.0
  O  O290  1  0.14593000  0.84557000  0.82765000  1.0
  O  O291  1  0.35408000  0.15442000  0.32766000  1.0
  O  O292  1  0.41430000  0.46463000  0.16178000  1.0
  O  O293  1  0.08570000  0.53537000  0.66178000  1.0
  O  O294  1  0.58570000  0.53537000  0.83822000  1.0
  O  O295  1  0.91430000  0.46463000  0.33822000  1.0
  O  O296  1  0.22025000  0.41924000  0.11254000  1.0
  O  O297  1  0.27976000  0.58077000  0.61254000  1.0
  O  O298  1  0.77976000  0.58077000  0.88746000  1.0
  O  O299  1  0.72024000  0.41923000  0.38746000  1.0
