# generated using pymatgen
data_Al3FeP4H8C6(NO4)4
_symmetry_space_group_name_H-M   'P 1'
_cell_length_a   8.65151000
_cell_length_b   8.97560000
_cell_length_c   13.97890000
_cell_angle_alpha   93.01300000
_cell_angle_beta   91.92900000
_cell_angle_gamma   116.42400000
_symmetry_Int_Tables_number   1
_chemical_formula_structural   Al3FeP4H8C6(NO4)4
_chemical_formula_sum   'Al6 Fe2 P8 H16 C12 N8 O32'
_cell_volume   968.76843919
_cell_formula_units_Z   2
loop_
 _symmetry_equiv_pos_site_id
 _symmetry_equiv_pos_as_xyz
  1  'x, y, z'
loop_
 _atom_site_type_symbol
 _atom_site_label
 _atom_site_symmetry_multiplicity
 _atom_site_fract_x
 _atom_site_fract_y
 _atom_site_fract_z
 _atom_site_occupancy
  Al  Al0  1  0.13894000  0.42484000  0.40877000  1.0
  Al  Al1  1  0.86106000  0.57516000  0.59123000  1.0
  Al  Al2  1  0.80986000  0.79034000  0.24820000  1.0
  Al  Al3  1  0.19013000  0.20966000  0.75180000  1.0
  Al  Al4  1  0.86891000  0.52166000  0.86833000  1.0
  Al  Al5  1  0.13109000  0.47834000  0.13167000  1.0
  Fe  Fe6  1  0.58844000  0.27436000  0.22981000  1.0
  Fe  Fe7  1  0.41156000  0.72564000  0.77019000  1.0
  P  P8  1  0.90723000  0.59693000  0.37388000  1.0
  P  P9  1  0.09277000  0.40307000  0.62612000  1.0
  P  P10  1  0.89321000  0.17002000  0.25040000  1.0
  P  P11  1  0.10679000  0.82998000  0.74960000  1.0
  P  P12  1  0.82271000  0.54696000  0.09001000  1.0
  P  P13  1  0.17728000  0.45303000  0.90999000  1.0
  P  P14  1  0.43540000  0.54650000  0.27123000  1.0
  P  P15  1  0.56460000  0.45350000  0.72877000  1.0
  H  H16  1  0.29901000  0.78568000  0.98979000  1.0
  H  H17  1  0.70099000  0.21431000  0.01021000  1.0
  H  H18  1  0.39548000  0.19691000  0.56281000  1.0
  H  H19  1  0.60452000  0.80309000  0.43719000  1.0
  H  H20  1  0.27148000  0.22422000  0.09204000  1.0
  H  H21  1  0.72852000  0.77578000  0.90796000  1.0
  H  H22  1  0.13324000  0.95438000  0.95558000  1.0
  H  H23  1  0.86676000  0.04561000  0.04442000  1.0
  H  H24  1  0.50182000  0.90557000  0.14200000  1.0
  H  H25  1  0.49818000  0.09443000  0.85800000  1.0
  H  H26  1  0.57503000  0.39510000  0.44293000  1.0
  H  H27  1  0.42497000  0.60490000  0.55707000  1.0
  H  H28  1  0.22417000  0.89713000  0.48670000  1.0
  H  H29  1  0.77583000  0.10287000  0.51330000  1.0
  H  H30  1  0.31060000  0.91573000  0.29688000  1.0
  H  H31  1  0.68940000  0.08427000  0.70312000  1.0
  C  C32  1  0.29602000  0.11664000  0.08308000  1.0
  C  C33  1  0.70398000  0.88335000  0.91692000  1.0
  C  C34  1  0.22834000  0.98455000  0.01494000  1.0
  C  C35  1  0.77166000  0.01544000  0.98506000  1.0
  C  C36  1  0.41996000  0.95550000  0.11150000  1.0
  C  C37  1  0.58005000  0.04450000  0.88850000  1.0
  C  C38  1  0.49312000  0.26329000  0.42764000  1.0
  C  C39  1  0.50688000  0.73672000  0.57236000  1.0
  C  C40  1  0.30966000  0.00143000  0.44858000  1.0
  C  C41  1  0.69034000  0.99857000  0.55142000  1.0
  C  C42  1  0.35415000  0.01236000  0.35496000  1.0
  C  C43  1  0.64585000  0.98764000  0.64504000  1.0
  N  N44  1  0.41565000  0.09726000  0.14283000  1.0
  N  N45  1  0.58435000  0.90274000  0.85717000  1.0
  N  N46  1  0.30766000  0.88498000  0.03420000  1.0
  N  N47  1  0.69234000  0.11501000  0.96580000  1.0
  N  N48  1  0.46873000  0.17657000  0.34292000  1.0
  N  N49  1  0.53127000  0.82343000  0.65708000  1.0
  N  N50  1  0.39841000  0.16035000  0.49257000  1.0
  N  N51  1  0.60159000  0.83965000  0.50743000  1.0
  O  O52  1  0.70412000  0.13745000  0.23812000  1.0
  O  O53  1  0.29588000  0.86255000  0.76189000  1.0
  O  O54  1  0.46199000  0.40620000  0.22107000  1.0
  O  O55  1  0.53802000  0.59380000  0.77893000  1.0
  O  O56  1  0.70109000  0.36675000  0.11095000  1.0
  O  O57  1  0.29892000  0.63325000  0.88905000  1.0
  O  O58  1  0.97551000  0.23881000  0.35334000  1.0
  O  O59  1  0.02450000  0.76119000  0.64666000  1.0
  O  O60  1  0.07904000  0.58617000  0.39569000  1.0
  O  O61  1  0.92096000  0.41383000  0.60430000  1.0
  O  O62  1  0.82984000  0.60644000  0.47157000  1.0
  O  O63  1  0.17016000  0.39357000  0.52843000  1.0
  O  O64  1  0.95450000  0.76504000  0.32916000  1.0
  O  O65  1  0.04551000  0.23496000  0.67084000  1.0
  O  O66  1  0.77785000  0.68024000  0.13692000  1.0
  O  O67  1  0.22215000  0.31976000  0.86308000  1.0
  O  O68  1  0.80947000  0.56102000  0.98089000  1.0
  O  O69  1  0.19053000  0.43897000  0.01911000  1.0
  O  O70  1  0.01305000  0.59262000  0.12260000  1.0
  O  O71  1  0.98695000  0.40738000  0.87740000  1.0
  O  O72  1  0.60513000  0.70969000  0.29910000  1.0
  O  O73  1  0.39487000  0.29031000  0.70090000  1.0
  O  O74  1  0.34619000  0.49407000  0.36651000  1.0
  O  O75  1  0.65381000  0.50593000  0.63349000  1.0
  O  O76  1  0.32049000  0.59516000  0.20479000  1.0
  O  O77  1  0.67951000  0.40484000  0.79521000  1.0
  O  O78  1  0.78167000  0.45269000  0.30780000  1.0
  O  O79  1  0.21834000  0.54731000  0.69220000  1.0
  O  O80  1  0.89482000  0.00061000  0.22992000  1.0
  O  O81  1  0.10518000  0.99939000  0.77008000  1.0
  O  O82  1  0.00902000  0.28657000  0.17771000  1.0
  O  O83  1  0.99098000  0.71343000  0.82229000  1.0
