# generated using pymatgen
data_Zn5H26(C21O10)2
_symmetry_space_group_name_H-M   'P 1'
_cell_length_a   5.10794000
_cell_length_b   13.43950000
_cell_length_c   16.65758128
_cell_angle_alpha   82.39368816
_cell_angle_beta   87.55320217
_cell_angle_gamma   88.73930000
_symmetry_Int_Tables_number   1
_chemical_formula_structural   Zn5H26(C21O10)2
_chemical_formula_sum   'Zn5 H26 C42 O20'
_cell_volume   1132.26275544
_cell_formula_units_Z   1
loop_
 _symmetry_equiv_pos_site_id
 _symmetry_equiv_pos_as_xyz
  1  'x, y, z'
loop_
 _atom_site_type_symbol
 _atom_site_label
 _atom_site_symmetry_multiplicity
 _atom_site_fract_x
 _atom_site_fract_y
 _atom_site_fract_z
 _atom_site_occupancy
  Zn  Zn0  1  0.47258000  0.10944000  0.60582000  1.0
  Zn  Zn1  1  0.52736000  0.89056000  0.39417000  1.0
  Zn  Zn2  1  0.04516000  0.00195000  0.69342000  1.0
  Zn  Zn3  1  0.95484000  0.99805000  0.30658000  1.0
  Zn  Zn4  1  0.99996000  0.00000000  0.50000000  1.0
  H  H5  1  0.37530000  0.64527000  0.56097000  1.0
  H  H6  1  0.62464000  0.35470000  0.43904000  1.0
  H  H7  1  0.28183000  0.51484000  0.67838000  1.0
  H  H8  1  0.71816000  0.48515000  0.32164000  1.0
  H  H9  1  0.95050000  0.60932000  0.79598000  1.0
  H  H10  1  0.04955000  0.39069000  0.20400000  1.0
  H  H11  1  0.02005000  0.74983000  0.68328000  1.0
  H  H12  1  0.97992000  0.25018000  0.31670000  1.0
  H  H13  1  0.52386000  0.34268000  0.73254000  1.0
  H  H14  1  0.47620000  0.65731000  0.26747000  1.0
  H  H15  1  0.83991000  0.21826000  0.86585000  1.0
  H  H16  1  0.16012000  0.78174000  0.13416000  1.0
  H  H17  1  0.17039000  0.49199000  0.92518000  1.0
  H  H18  1  0.82965000  0.50800000  0.07483000  1.0
  H  H19  1  0.01368000  0.18040000  0.00569000  1.0
  H  H20  1  0.98636000  0.81958000  0.99431000  1.0
  H  H21  1  0.83681000  0.06066000  0.12034000  1.0
  H  H22  1  0.16319000  0.93933000  0.87967000  1.0
  H  H23  1  0.18138000  0.25864000  0.15120000  1.0
  H  H24  1  0.81864000  0.74137000  0.84880000  1.0
  H  H25  1  0.37302000  0.38589000  0.04235000  1.0
  H  H26  1  0.62705000  0.61412000  0.95764000  1.0
  H  H27  1  0.41482000  0.93051000  0.60077000  1.0
  H  H28  1  0.58516000  0.06949000  0.39923000  1.0
  H  H29  1  0.93378000  0.15325000  0.57870000  1.0
  H  H30  1  0.06615000  0.84676000  0.42130000  1.0
  C  C31  1  0.72442000  0.79512000  0.55117000  1.0
  C  C32  1  0.27550000  0.20488000  0.44883000  1.0
  C  C33  1  0.69768000  0.70804000  0.61566000  1.0
  C  C34  1  0.30228000  0.29196000  0.38433000  1.0
  C  C35  1  0.49832000  0.63838000  0.61339000  1.0
  C  C36  1  0.50165000  0.36161000  0.38661000  1.0
  C  C37  1  0.44742000  0.56436000  0.67866000  1.0
  C  C38  1  0.55259000  0.43563000  0.32135000  1.0
  C  C39  1  0.60572000  0.55810000  0.74578000  1.0
  C  C40  1  0.39430000  0.44190000  0.25422000  1.0
  C  C41  1  0.82253000  0.62032000  0.74487000  1.0
  C  C42  1  0.17748000  0.37968000  0.25512000  1.0
  C  C43  1  0.86240000  0.69712000  0.68163000  1.0
  C  C44  1  0.13757000  0.30288000  0.31836000  1.0
  C  C45  1  0.36420000  0.42603000  0.82653000  1.0
  C  C46  1  0.63581000  0.57397000  0.17347000  1.0
  C  C47  1  0.37282000  0.34756000  0.77988000  1.0
  C  C48  1  0.62721000  0.65244000  0.22013000  1.0
  C  C49  1  0.18288000  0.27315000  0.79470000  1.0
  C  C50  1  0.81716000  0.72684000  0.20531000  1.0
  C  C51  1  0.98785000  0.27614000  0.85616000  1.0
  C  C52  1  0.01219000  0.72385000  0.14384000  1.0
  C  C53  1  0.98859000  0.35479000  0.90316000  1.0
  C  C54  1  0.01143000  0.64521000  0.09684000  1.0
  C  C55  1  0.17388000  0.43072000  0.88836000  1.0
  C  C56  1  0.82613000  0.56929000  0.11164000  1.0
  C  C57  1  0.70281000  0.29052000  0.01779000  1.0
  C  C58  1  0.29723000  0.70948000  0.98221000  1.0
  C  C59  1  0.83182000  0.19805000  0.03761000  1.0
  C  C60  1  0.16819000  0.80195000  0.96240000  1.0
  C  C61  1  0.73170000  0.13078000  0.10200000  1.0
  C  C62  1  0.26831000  0.86921000  0.89800000  1.0
  C  C63  1  0.49974000  0.15318000  0.14447000  1.0
  C  C64  1  0.50026000  0.84682000  0.85552000  1.0
  C  C65  1  0.36604000  0.24363000  0.12016000  1.0
  C  C66  1  0.63397000  0.75637000  0.87984000  1.0
  C  C67  1  0.46869000  0.31323000  0.05866000  1.0
  C  C68  1  0.53135000  0.68677000  0.94134000  1.0
  C  C69  1  0.19566000  0.19044000  0.74259000  1.0
  C  C70  1  0.80440000  0.80956000  0.25741000  1.0
  C  C71  1  0.39628000  0.08474000  0.21600000  1.0
  C  C72  1  0.60369000  0.91527000  0.78400000  1.0
  O  O73  1  0.81201000  0.87692000  0.57042000  1.0
  O  O74  1  0.18788000  0.12309000  0.42958000  1.0
  O  O75  1  0.65122000  0.78343000  0.48046000  1.0
  O  O76  1  0.34871000  0.21657000  0.51953000  1.0
  O  O77  1  0.55720000  0.49807000  0.81813000  1.0
  O  O78  1  0.44282000  0.50193000  0.18187000  1.0
  O  O79  1  0.79923000  0.36839000  0.96267000  1.0
  O  O80  1  0.20080000  0.63161000  0.03734000  1.0
  O  O81  1  0.54419000  0.02025000  0.25454000  1.0
  O  O82  1  0.45573000  0.97976000  0.74547000  1.0
  O  O83  1  0.15067000  0.09717000  0.23511000  1.0
  O  O84  1  0.84928000  0.90285000  0.76489000  1.0
  O  O85  1  0.02196000  0.12309000  0.75382000  1.0
  O  O86  1  0.97811000  0.87691000  0.24618000  1.0
  O  O87  1  0.38368000  0.19553000  0.68938000  1.0
  O  O88  1  0.61639000  0.80448000  0.31061000  1.0
  O  O89  1  0.28229000  0.98422000  0.59319000  1.0
  O  O90  1  0.71766000  0.01577000  0.40681000  1.0
  O  O91  1  0.84762000  0.08837000  0.58876000  1.0
  O  O92  1  0.15233000  0.91163000  0.41123000  1.0
