# generated using pymatgen
data_Nd2Co3H36(C2O3)12
_symmetry_space_group_name_H-M   'P 1'
_cell_length_a   15.11300000
_cell_length_b   15.11300000
_cell_length_c   15.51540000
_cell_angle_alpha   90.00000000
_cell_angle_beta   90.00000000
_cell_angle_gamma   120.00000000
_symmetry_Int_Tables_number   1
_chemical_formula_structural   Nd2Co3H36(C2O3)12
_chemical_formula_sum   'Nd4 Co6 H72 C48 O72'
_cell_volume   3068.98646390
_cell_formula_units_Z   2
loop_
 _symmetry_equiv_pos_site_id
 _symmetry_equiv_pos_as_xyz
  1  'x, y, z'
loop_
 _atom_site_type_symbol
 _atom_site_label
 _atom_site_symmetry_multiplicity
 _atom_site_fract_x
 _atom_site_fract_y
 _atom_site_fract_z
 _atom_site_occupancy
  Nd  Nd0  1  0.33333333  0.66666667  0.75000000  1.0
  Nd  Nd1  1  0.66666667  0.33333333  0.75000000  1.0
  Nd  Nd2  1  0.66666667  0.33333333  0.25000000  1.0
  Nd  Nd3  1  0.33333333  0.66666667  0.25000000  1.0
  Co  Co4  1  0.50000000  0.50000000  0.00000000  1.0
  Co  Co5  1  0.00000000  0.50000000  0.00000000  1.0
  Co  Co6  1  0.50000000  0.00000000  0.00000000  1.0
  Co  Co7  1  0.00000000  0.50000000  0.50000000  1.0
  Co  Co8  1  0.50000000  0.50000000  0.50000000  1.0
  Co  Co9  1  0.50000000  0.00000000  0.50000000  1.0
  H  H10  1  0.28519000  0.36576000  0.76059000  1.0
  H  H11  1  0.08057000  0.71482000  0.76059000  1.0
  H  H12  1  0.63425000  0.91944000  0.76059000  1.0
  H  H13  1  0.71481000  0.63424000  0.76059000  1.0
  H  H14  1  0.91943000  0.28518000  0.76059000  1.0
  H  H15  1  0.36575000  0.08056000  0.76059000  1.0
  H  H16  1  0.91943000  0.63424000  0.73941000  1.0
  H  H17  1  0.36575000  0.28518000  0.73941000  1.0
  H  H18  1  0.71481000  0.08056000  0.73941000  1.0
  H  H19  1  0.08057000  0.36576000  0.73941000  1.0
  H  H20  1  0.63425000  0.71482000  0.73941000  1.0
  H  H21  1  0.28519000  0.91944000  0.73941000  1.0
  H  H22  1  0.71481000  0.63424000  0.23941000  1.0
  H  H23  1  0.91943000  0.28518000  0.23941000  1.0
  H  H24  1  0.36575000  0.08056000  0.23941000  1.0
  H  H25  1  0.28519000  0.36576000  0.23941000  1.0
  H  H26  1  0.08057000  0.71482000  0.23941000  1.0
  H  H27  1  0.63425000  0.91944000  0.23941000  1.0
  H  H28  1  0.08057000  0.36576000  0.26059000  1.0
  H  H29  1  0.63425000  0.71482000  0.26059000  1.0
  H  H30  1  0.28519000  0.91944000  0.26059000  1.0
  H  H31  1  0.91943000  0.63424000  0.26059000  1.0
  H  H32  1  0.36575000  0.28518000  0.26059000  1.0
  H  H33  1  0.71481000  0.08056000  0.26059000  1.0
  H  H34  1  0.19964000  0.35915000  0.84371000  1.0
  H  H35  1  0.15951000  0.80036000  0.84371000  1.0
  H  H36  1  0.64085000  0.84049000  0.84371000  1.0
  H  H37  1  0.80036000  0.64085000  0.84371000  1.0
  H  H38  1  0.84050000  0.19965000  0.84371000  1.0
  H  H39  1  0.35914000  0.15950000  0.84371000  1.0
  H  H40  1  0.84049000  0.64085000  0.65629000  1.0
  H  H41  1  0.35914000  0.19964000  0.65629000  1.0
  H  H42  1  0.80036000  0.15951000  0.65629000  1.0
  H  H43  1  0.15951000  0.35915000  0.65629000  1.0
  H  H44  1  0.64086000  0.80037000  0.65629000  1.0
  H  H45  1  0.19964000  0.84049000  0.65629000  1.0
  H  H46  1  0.80036000  0.64085000  0.15629000  1.0
  H  H47  1  0.84049000  0.19963000  0.15629000  1.0
  H  H48  1  0.35914000  0.15950000  0.15629000  1.0
  H  H49  1  0.19964000  0.35915000  0.15629000  1.0
  H  H50  1  0.15951000  0.80036000  0.15629000  1.0
  H  H51  1  0.64086000  0.84050000  0.15629000  1.0
  H  H52  1  0.15951000  0.35915000  0.34371000  1.0
  H  H53  1  0.64085000  0.80035000  0.34371000  1.0
  H  H54  1  0.19964000  0.84049000  0.34371000  1.0
  H  H55  1  0.84049000  0.64085000  0.34371000  1.0
  H  H56  1  0.35915000  0.19965000  0.34371000  1.0
  H  H57  1  0.80036000  0.15951000  0.34371000  1.0
  H  H58  1  0.54002000  0.36595000  0.05171000  1.0
  H  H59  1  0.82593000  0.45998000  0.05171000  1.0
  H  H60  1  0.63405000  0.17407000  0.05171000  1.0
  H  H61  1  0.45998000  0.63405000  0.05171000  1.0
  H  H62  1  0.17407000  0.54002000  0.05171000  1.0
  H  H63  1  0.36595000  0.82593000  0.05171000  1.0
  H  H64  1  0.17407000  0.63405000  0.44829000  1.0
  H  H65  1  0.36595000  0.54002000  0.44829000  1.0
  H  H66  1  0.45998000  0.82593000  0.44829000  1.0
  H  H67  1  0.82593000  0.36595000  0.44829000  1.0
  H  H68  1  0.63405000  0.45998000  0.44829000  1.0
  H  H69  1  0.54002000  0.17407000  0.44829000  1.0
  H  H70  1  0.45998000  0.63405000  0.94829000  1.0
  H  H71  1  0.17407000  0.54002000  0.94829000  1.0
  H  H72  1  0.36595000  0.82593000  0.94829000  1.0
  H  H73  1  0.54002000  0.36595000  0.94829000  1.0
  H  H74  1  0.82593000  0.45998000  0.94829000  1.0
  H  H75  1  0.63405000  0.17407000  0.94829000  1.0
  H  H76  1  0.82593000  0.36595000  0.55171000  1.0
  H  H77  1  0.63405000  0.45998000  0.55171000  1.0
  H  H78  1  0.54002000  0.17407000  0.55171000  1.0
  H  H79  1  0.17407000  0.63405000  0.55171000  1.0
  H  H80  1  0.36595000  0.54002000  0.55171000  1.0
  H  H81  1  0.45998000  0.82593000  0.55171000  1.0
  C  C82  1  0.35312000  0.48205000  0.85877000  1.0
  C  C83  1  0.12893000  0.64688000  0.85877000  1.0
  C  C84  1  0.51795000  0.87107000  0.85877000  1.0
  C  C85  1  0.64688000  0.51795000  0.85877000  1.0
  C  C86  1  0.87107000  0.35312000  0.85877000  1.0
  C  C87  1  0.48205000  0.12893000  0.85877000  1.0
  C  C88  1  0.87107000  0.51795000  0.64123000  1.0
  C  C89  1  0.48205000  0.35312000  0.64123000  1.0
  C  C90  1  0.64688000  0.12893000  0.64123000  1.0
  C  C91  1  0.12893000  0.48205000  0.64123000  1.0
  C  C92  1  0.51795000  0.64688000  0.64123000  1.0
  C  C93  1  0.35312000  0.87107000  0.64123000  1.0
  C  C94  1  0.64688000  0.51795000  0.14123000  1.0
  C  C95  1  0.87107000  0.35312000  0.14123000  1.0
  C  C96  1  0.48205000  0.12893000  0.14123000  1.0
  C  C97  1  0.35312000  0.48205000  0.14123000  1.0
  C  C98  1  0.12893000  0.64688000  0.14123000  1.0
  C  C99  1  0.51795000  0.87107000  0.14123000  1.0
  C  C100  1  0.12893000  0.48205000  0.35877000  1.0
  C  C101  1  0.51795000  0.64688000  0.35877000  1.0
  C  C102  1  0.35312000  0.87107000  0.35877000  1.0
  C  C103  1  0.87107000  0.51795000  0.35877000  1.0
  C  C104  1  0.48205000  0.35312000  0.35877000  1.0
  C  C105  1  0.64688000  0.12893000  0.35877000  1.0
  C  C106  1  0.26363000  0.41149000  0.80178000  1.0
  C  C107  1  0.14786000  0.73636000  0.80178000  1.0
  C  C108  1  0.58850000  0.85213000  0.80178000  1.0
  C  C109  1  0.73637000  0.58851000  0.80178000  1.0
  C  C110  1  0.85214000  0.26364000  0.80178000  1.0
  C  C111  1  0.41150000  0.14787000  0.80178000  1.0
  C  C112  1  0.85214000  0.58851000  0.69822000  1.0
  C  C113  1  0.41150000  0.26364000  0.69822000  1.0
  C  C114  1  0.73637000  0.14787000  0.69822000  1.0
  C  C115  1  0.14786000  0.41149000  0.69822000  1.0
  C  C116  1  0.58850000  0.73636000  0.69822000  1.0
  C  C117  1  0.26363000  0.85213000  0.69822000  1.0
  C  C118  1  0.73637000  0.58851000  0.19822000  1.0
  C  C119  1  0.85214000  0.26364000  0.19822000  1.0
  C  C120  1  0.41150000  0.14787000  0.19822000  1.0
  C  C121  1  0.26363000  0.41149000  0.19822000  1.0
  C  C122  1  0.14786000  0.73636000  0.19822000  1.0
  C  C123  1  0.58850000  0.85213000  0.19822000  1.0
  C  C124  1  0.14786000  0.41149000  0.30178000  1.0
  C  C125  1  0.58850000  0.73636000  0.30178000  1.0
  C  C126  1  0.26363000  0.85213000  0.30178000  1.0
  C  C127  1  0.85214000  0.58851000  0.30178000  1.0
  C  C128  1  0.41150000  0.26364000  0.30178000  1.0
  C  C129  1  0.73637000  0.14787000  0.30178000  1.0
  O  O130  1  0.38362000  0.57797000  0.85603000  1.0
  O  O131  1  0.19435000  0.61638000  0.85603000  1.0
  O  O132  1  0.42203000  0.80565000  0.85603000  1.0
  O  O133  1  0.61638000  0.42203000  0.85603000  1.0
  O  O134  1  0.80565000  0.38362000  0.85603000  1.0
  O  O135  1  0.57797000  0.19435000  0.85603000  1.0
  O  O136  1  0.80565000  0.42203000  0.64397000  1.0
  O  O137  1  0.57797000  0.38362000  0.64397000  1.0
  O  O138  1  0.61638000  0.19435000  0.64397000  1.0
  O  O139  1  0.19435000  0.57797000  0.64397000  1.0
  O  O140  1  0.42203000  0.61638000  0.64397000  1.0
  O  O141  1  0.38362000  0.80565000  0.64397000  1.0
  O  O142  1  0.61638000  0.42203000  0.14397000  1.0
  O  O143  1  0.80565000  0.38362000  0.14397000  1.0
  O  O144  1  0.57797000  0.19435000  0.14397000  1.0
  O  O145  1  0.38362000  0.57797000  0.14397000  1.0
  O  O146  1  0.19435000  0.61638000  0.14397000  1.0
  O  O147  1  0.42203000  0.80565000  0.14397000  1.0
  O  O148  1  0.19435000  0.57797000  0.35603000  1.0
  O  O149  1  0.42203000  0.61638000  0.35603000  1.0
  O  O150  1  0.38362000  0.80565000  0.35603000  1.0
  O  O151  1  0.80565000  0.42203000  0.35603000  1.0
  O  O152  1  0.57797000  0.38362000  0.35603000  1.0
  O  O153  1  0.61638000  0.19435000  0.35603000  1.0
  O  O154  1  0.38843000  0.43876000  0.90491000  1.0
  O  O155  1  0.05033000  0.61157000  0.90491000  1.0
  O  O156  1  0.56124000  0.94967000  0.90491000  1.0
  O  O157  1  0.61157000  0.56124000  0.90491000  1.0
  O  O158  1  0.94967000  0.38843000  0.90491000  1.0
  O  O159  1  0.43876000  0.05033000  0.90491000  1.0
  O  O160  1  0.94967000  0.56124000  0.59508000  1.0
  O  O161  1  0.43876000  0.38843000  0.59509000  1.0
  O  O162  1  0.61157000  0.05033000  0.59509000  1.0
  O  O163  1  0.05033000  0.43876000  0.59508000  1.0
  O  O164  1  0.56124000  0.61157000  0.59509000  1.0
  O  O165  1  0.38843000  0.94967000  0.59509000  1.0
  O  O166  1  0.61157000  0.56124000  0.09508000  1.0
  O  O167  1  0.94967000  0.38843000  0.09509000  1.0
  O  O168  1  0.43876000  0.05033000  0.09509000  1.0
  O  O169  1  0.38843000  0.43876000  0.09508000  1.0
  O  O170  1  0.05033000  0.61157000  0.09509000  1.0
  O  O171  1  0.56124000  0.94967000  0.09509000  1.0
  O  O172  1  0.05033000  0.43876000  0.40492000  1.0
  O  O173  1  0.56124000  0.61157000  0.40491000  1.0
  O  O174  1  0.38843000  0.94967000  0.40491000  1.0
  O  O175  1  0.94967000  0.56124000  0.40492000  1.0
  O  O176  1  0.43876000  0.38843000  0.40491000  1.0
  O  O177  1  0.61157000  0.05033000  0.40491000  1.0
  O  O178  1  0.23555000  0.47110000  0.75000000  1.0
  O  O179  1  0.23555000  0.76445000  0.75000000  1.0
  O  O180  1  0.52890000  0.76445000  0.75000000  1.0
  O  O181  1  0.76445000  0.52890000  0.75000000  1.0
  O  O182  1  0.76445000  0.23555000  0.75000000  1.0
  O  O183  1  0.47110000  0.23555000  0.75000000  1.0
  O  O184  1  0.76445000  0.52890000  0.25000000  1.0
  O  O185  1  0.76445000  0.23555000  0.25000000  1.0
  O  O186  1  0.47110000  0.23555000  0.25000000  1.0
  O  O187  1  0.23555000  0.47110000  0.25000000  1.0
  O  O188  1  0.23555000  0.76445000  0.25000000  1.0
  O  O189  1  0.52890000  0.76445000  0.25000000  1.0
  O  O190  1  0.49807000  0.35843000  1.00000000  1.0
  O  O191  1  0.86036000  0.50193000  1.00000000  1.0
  O  O192  1  0.64157000  0.13964000  1.00000000  1.0
  O  O193  1  0.50193000  0.64157000  0.00000000  1.0
  O  O194  1  0.13964000  0.49807000  0.00000000  1.0
  O  O195  1  0.35843000  0.86036000  0.00000000  1.0
  O  O196  1  0.13964000  0.64157000  0.50000000  1.0
  O  O197  1  0.35843000  0.49807000  0.50000000  1.0
  O  O198  1  0.50193000  0.86036000  0.50000000  1.0
  O  O199  1  0.86036000  0.35843000  0.50000000  1.0
  O  O200  1  0.64157000  0.50193000  0.50000000  1.0
  O  O201  1  0.49807000  0.13964000  0.50000000  1.0
