# generated using pymatgen
data_CrH5C8O5
_symmetry_space_group_name_H-M   'P 1'
_cell_length_a   6.89635000
_cell_length_b   11.23730000
_cell_length_c   11.23730000
_cell_angle_alpha   70.24670000
_cell_angle_beta   72.14070000
_cell_angle_gamma   72.14110000
_symmetry_Int_Tables_number   1
_chemical_formula_structural   CrH5C8O5
_chemical_formula_sum   'Cr2 H10 C16 O10'
_cell_volume   759.81168595
_cell_formula_units_Z   2
loop_
 _symmetry_equiv_pos_site_id
 _symmetry_equiv_pos_as_xyz
  1  'x, y, z'
loop_
 _atom_site_type_symbol
 _atom_site_label
 _atom_site_symmetry_multiplicity
 _atom_site_fract_x
 _atom_site_fract_y
 _atom_site_fract_z
 _atom_site_occupancy
  Cr  Cr0  1  0.49999000  0.50001000  0.00002000  1.0
  Cr  Cr1  1  0.00003000  0.49993000  0.00001000  1.0
  H  H2  1  0.62802000  0.11626000  0.00510000  1.0
  H  H3  1  0.87196000  0.49490000  0.38374000  1.0
  H  H4  1  0.75041000  0.50524000  0.61638000  1.0
  H  H5  1  0.74959000  0.88362000  0.99476000  1.0
  H  H6  1  0.37198000  0.88375000  0.99486000  1.0
  H  H7  1  0.12801000  0.50514000  0.61625000  1.0
  H  H8  1  0.24960000  0.49481000  0.38361000  1.0
  H  H9  1  0.25039000  0.11639000  0.00520000  1.0
  H  H10  1  0.25000000  0.35525000  0.14483000  1.0
  H  H11  1  0.74998000  0.64482000  0.85528000  1.0
  C  C12  1  0.70965000  0.49700000  0.43591000  1.0
  C  C13  1  0.79034000  0.06409000  0.00300000  1.0
  C  C14  1  0.85757000  0.93587000  0.99687000  1.0
  C  C15  1  0.64243000  0.50314000  0.56413000  1.0
  C  C16  1  0.29033000  0.50304000  0.56408000  1.0
  C  C17  1  0.20966000  0.93592000  0.99696000  1.0
  C  C18  1  0.14242000  0.06414000  0.00308000  1.0
  C  C19  1  0.35757000  0.49692000  0.43585000  1.0
  C  C20  1  0.56766000  0.49371000  0.37109000  1.0
  C  C21  1  0.63936000  0.48831000  0.23307000  1.0
  C  C22  1  0.93234000  0.12890000  0.00630000  1.0
  C  C23  1  0.86061000  0.26692000  0.01169000  1.0
  C  C24  1  0.06765000  0.87109000  0.99367000  1.0
  C  C25  1  0.13938000  0.73302000  0.98829000  1.0
  C  C26  1  0.43233000  0.50634000  0.62890000  1.0
  C  C27  1  0.36063000  0.51171000  0.76697000  1.0
  O  O28  1  0.50158000  0.48600000  0.18024000  1.0
  O  O29  1  0.99844000  0.31971000  0.01402000  1.0
  O  O30  1  0.33229000  0.68019000  0.98598000  1.0
  O  O31  1  0.16772000  0.51399000  0.81982000  1.0
  O  O32  1  0.49836000  0.51403000  0.81985000  1.0
  O  O33  1  0.00165000  0.68012000  0.98599000  1.0
  O  O34  1  0.66772000  0.31980000  0.01401000  1.0
  O  O35  1  0.83229000  0.48596000  0.18023000  1.0
  O  O36  1  0.75004000  0.56976000  0.93020000  1.0
  O  O37  1  0.25004000  0.43020000  0.06978000  1.0
