# generated using pymatgen
data_NiH24C32N2O7
_symmetry_space_group_name_H-M   'P 1'
_cell_length_a   11.15160000
_cell_length_b   11.71860000
_cell_length_c   13.89630000
_cell_angle_alpha   69.96270000
_cell_angle_beta   67.00360000
_cell_angle_gamma   76.54680000
_symmetry_Int_Tables_number   1
_chemical_formula_structural   NiH24C32N2O7
_chemical_formula_sum   'Ni2 H48 C64 N4 O14'
_cell_volume   1560.19931108
_cell_formula_units_Z   2
loop_
 _symmetry_equiv_pos_site_id
 _symmetry_equiv_pos_as_xyz
  1  'x, y, z'
loop_
 _atom_site_type_symbol
 _atom_site_label
 _atom_site_symmetry_multiplicity
 _atom_site_fract_x
 _atom_site_fract_y
 _atom_site_fract_z
 _atom_site_occupancy
  Ni  Ni0  1  0.33797000  0.36076000  0.44954000  1.0
  Ni  Ni1  1  0.66203000  0.63924000  0.55046000  1.0
  H  H2  1  0.05828000  0.18123000  0.79040000  1.0
  H  H3  1  0.94172000  0.81877000  0.20960000  1.0
  H  H4  1  0.60726000  0.27629000  0.41932000  1.0
  H  H5  1  0.39274000  0.72371000  0.58068000  1.0
  H  H6  1  0.94288000  0.87694000  0.41336000  1.0
  H  H7  1  0.05711000  0.12306000  0.58664000  1.0
  H  H8  1  0.94566000  0.52835000  0.18207000  1.0
  H  H9  1  0.05434000  0.47165000  0.81793000  1.0
  H  H10  1  0.39087000  0.12013000  0.96504000  1.0
  H  H11  1  0.60914000  0.87987000  0.03496000  1.0
  H  H12  1  0.33730000  0.80863000  0.42592000  1.0
  H  H13  1  0.66269000  0.19137000  0.57409000  1.0
  H  H14  1  0.41576000  0.54039000  0.22598000  1.0
  H  H15  1  0.58425000  0.45961000  0.77402000  1.0
  H  H16  1  0.44420000  0.21888000  0.76414000  1.0
  H  H17  1  0.55580000  0.78113000  0.23586000  1.0
  H  H18  1  0.44072000  0.60195000  0.41272000  1.0
  H  H19  1  0.55927000  0.39805000  0.58729000  1.0
  H  H20  1  0.08043000  0.47064000  0.53371000  1.0
  H  H21  1  0.91956000  0.52936000  0.46628000  1.0
  H  H22  1  0.62812000  0.59018000  0.07338000  1.0
  H  H23  1  0.37188000  0.40980000  0.92662000  1.0
  H  H24  1  0.37537000  0.02054000  0.32564000  1.0
  H  H25  1  0.62462000  0.97946000  0.67437000  1.0
  H  H26  1  0.82647000  0.31799000  0.27974000  1.0
  H  H27  1  0.17353000  0.68200000  0.72027000  1.0
  H  H28  1  0.00080000  0.09059000  0.99309000  1.0
  H  H29  1  0.99921000  0.90940000  0.00691000  1.0
  H  H30  1  0.31605000  0.92460000  0.21513000  1.0
  H  H31  1  0.68396000  0.07540000  0.78487000  1.0
  H  H32  1  0.13293000  0.34984000  0.23070000  1.0
  H  H33  1  0.86709000  0.65016000  0.76929000  1.0
  H  H34  1  0.95968000  0.67431000  0.54873000  1.0
  H  H35  1  0.04032000  0.32570000  0.45126000  1.0
  H  H36  1  0.85055000  0.47666000  0.78895000  1.0
  H  H37  1  0.14945000  0.52334000  0.21105000  1.0
  H  H38  1  0.75220000  0.35529000  0.87402000  1.0
  H  H39  1  0.24781000  0.64471000  0.12598000  1.0
  H  H40  1  0.92486000  0.33015000  0.85033000  1.0
  H  H41  1  0.07514000  0.66985000  0.14967000  1.0
  H  H42  1  0.26049000  0.05551000  0.59045000  1.0
  H  H43  1  0.73950000  0.94450000  0.40956000  1.0
  H  H44  1  0.30312000  0.90998000  0.67600000  1.0
  H  H45  1  0.69687000  0.09003000  0.32401000  1.0
  H  H46  1  0.13791000  0.98342000  0.71442000  1.0
  H  H47  1  0.86208000  0.01658000  0.28559000  1.0
  H  H48  1  0.07810000  0.25834000  0.11706000  1.0
  H  H49  1  0.92191000  0.74166000  0.88294000  1.0
  C  C50  1  0.25463000  0.20520000  0.76534000  1.0
  C  C51  1  0.74537000  0.79481000  0.23465000  1.0
  C  C52  1  0.28562000  0.26280000  0.64635000  1.0
  C  C53  1  0.71439000  0.73720000  0.35364000  1.0
  C  C54  1  0.13806000  0.76189000  0.48661000  1.0
  C  C55  1  0.86194000  0.23812000  0.51338000  1.0
  C  C56  1  0.29325000  0.25000000  0.34710000  1.0
  C  C57  1  0.70675000  0.75000000  0.65290000  1.0
  C  C58  1  0.13006000  0.16793000  0.82966000  1.0
  C  C59  1  0.86994000  0.83207000  0.17033000  1.0
  C  C60  1  0.25920000  0.19144000  0.28311000  1.0
  C  C61  1  0.74080000  0.80856000  0.71689000  1.0
  C  C62  1  0.61698000  0.34721000  0.34267000  1.0
  C  C63  1  0.38301000  0.65279000  0.65733000  1.0
  C  C64  1  0.96705000  0.93148000  0.45153000  1.0
  C  C65  1  0.03294000  0.06852000  0.54847000  1.0
  C  C66  1  0.97117000  0.51522000  0.10218000  1.0
  C  C67  1  0.02884000  0.48476000  0.89783000  1.0
  C  C68  1  0.31851000  0.13419000  0.92617000  1.0
  C  C69  1  0.68150000  0.86581000  0.07383000  1.0
  C  C70  1  0.06917000  0.88389000  0.49419000  1.0
  C  C71  1  0.93083000  0.11611000  0.50581000  1.0
  C  C72  1  0.27530000  0.73772000  0.44886000  1.0
  C  C73  1  0.72469000  0.26229000  0.55115000  1.0
  C  C74  1  0.10184000  0.95354000  0.54380000  1.0
  C  C75  1  0.89815000  0.04647000  0.45619000  1.0
  C  C76  1  0.87462000  0.48268000  0.07858000  1.0
  C  C77  1  0.12539000  0.51731000  0.92143000  1.0
  C  C78  1  0.50998000  0.49416000  0.23342000  1.0
  C  C79  1  0.49002000  0.50583000  0.76658000  1.0
  C  C80  1  0.34797000  0.18869000  0.81481000  1.0
  C  C81  1  0.65202000  0.81133000  0.18519000  1.0
  C  C82  1  0.33418000  0.62135000  0.44103000  1.0
  C  C83  1  0.66582000  0.37866000  0.55898000  1.0
  C  C84  1  0.13240000  0.54981000  0.50785000  1.0
  C  C85  1  0.86760000  0.45019000  0.49215000  1.0
  C  C86  1  0.62764000  0.52104000  0.14950000  1.0
  C  C87  1  0.37236000  0.47895000  0.85051000  1.0
  C  C88  1  0.31005000  0.07111000  0.27989000  1.0
  C  C89  1  0.68996000  0.92889000  0.72011000  1.0
  C  C90  1  0.73868000  0.37110000  0.26387000  1.0
  C  C91  1  0.26132000  0.62889000  0.73613000  1.0
  C  C92  1  0.19382000  0.09657000  0.98884000  1.0
  C  C93  1  0.80618000  0.90343000  0.01116000  1.0
  C  C94  1  0.74583000  0.45904000  0.16418000  1.0
  C  C95  1  0.25417000  0.54095000  0.83582000  1.0
  C  C96  1  0.09854000  0.11571000  0.94150000  1.0
  C  C97  1  0.90146000  0.88430000  0.05850000  1.0
  C  C98  1  0.27796000  0.01814000  0.21851000  1.0
  C  C99  1  0.72204000  0.98185000  0.78149000  1.0
  C  C100  1  0.19587000  0.08711000  0.15976000  1.0
  C  C101  1  0.80414000  0.91288000  0.84024000  1.0
  C  C102  1  0.17437000  0.25767000  0.22539000  1.0
  C  C103  1  0.82563000  0.74232000  0.77461000  1.0
  C  C104  1  0.06646000  0.66376000  0.51637000  1.0
  C  C105  1  0.93354000  0.33625000  0.48362000  1.0
  C  C106  1  0.83715000  0.39727000  0.86167000  1.0
  C  C107  1  0.16286000  0.60273000  0.13833000  1.0
  C  C108  1  0.90370000  0.46710000  0.97510000  1.0
  C  C109  1  0.09630000  0.53289000  0.02491000  1.0
  C  C110  1  0.22579000  0.96780000  0.64549000  1.0
  C  C111  1  0.77420000  0.03221000  0.35451000  1.0
  C  C112  1  0.14292000  0.20667000  0.16298000  1.0
  C  C113  1  0.85708000  0.79333000  0.83701000  1.0
  N  N114  1  0.26428000  0.52822000  0.46939000  1.0
  N  N115  1  0.73573000  0.47178000  0.53061000  1.0
  N  N116  1  0.50439000  0.40848000  0.32865000  1.0
  N  N117  1  0.49561000  0.59152000  0.67136000  1.0
  O  O118  1  0.36692000  0.19214000  0.40312000  1.0
  O  O119  1  0.63307000  0.80787000  0.59689000  1.0
  O  O120  1  0.24579000  0.36207000  0.34534000  1.0
  O  O121  1  0.75421000  0.63794000  0.65466000  1.0
  O  O122  1  0.19752000  0.28020000  0.60361000  1.0
  O  O123  1  0.80249000  0.71980000  0.39638000  1.0
  O  O124  1  0.40010000  0.29533000  0.58665000  1.0
  O  O125  1  0.59990000  0.70467000  0.41335000  1.0
  O  O126  1  0.19822000  0.90099000  0.58850000  1.0
  O  O127  1  0.80178000  0.09902000  0.41150000  1.0
  O  O128  1  0.16295000  0.03453000  0.09875000  1.0
  O  O129  1  0.83706000  0.96547000  0.90124000  1.0
  O  O130  1  0.80608000  0.43165000  0.95899000  1.0
  O  O131  1  0.19393000  0.56835000  0.04101000  1.0
