# generated using pymatgen
data_CdH8C12(BrN)2
_symmetry_space_group_name_H-M   'P 1'
_cell_length_a   7.41416000
_cell_length_b   9.74622000
_cell_length_c   9.74618000
_cell_angle_alpha   66.98530000
_cell_angle_beta   75.82620000
_cell_angle_gamma   75.82610000
_symmetry_Int_Tables_number   1
_chemical_formula_structural   CdH8C12(BrN)2
_chemical_formula_sum   'Cd2 H16 C24 Br4 N4'
_cell_volume   619.63245982
_cell_formula_units_Z   2
loop_
 _symmetry_equiv_pos_site_id
 _symmetry_equiv_pos_as_xyz
  1  'x, y, z'
loop_
 _atom_site_type_symbol
 _atom_site_label
 _atom_site_symmetry_multiplicity
 _atom_site_fract_x
 _atom_site_fract_y
 _atom_site_fract_z
 _atom_site_occupancy
  Cd  Cd0  1  0.25000000  0.92736000  0.07264000  1.0
  Cd  Cd1  1  0.75000000  0.07264000  0.92736000  1.0
  H  H2  1  0.59236000  0.66778000  0.98819000  1.0
  H  H3  1  0.90764000  0.01181000  0.33221000  1.0
  H  H4  1  0.40764000  0.33221000  0.01181000  1.0
  H  H5  1  0.09236000  0.98819000  0.66778000  1.0
  H  H6  1  0.72375000  0.39020000  0.10230000  1.0
  H  H7  1  0.77625000  0.89771000  0.60979000  1.0
  H  H8  1  0.27624000  0.60979000  0.89771000  1.0
  H  H9  1  0.22375000  0.10229000  0.39020000  1.0
  H  H10  1  0.59013000  0.24622000  0.36800000  1.0
  H  H11  1  0.90987000  0.63200000  0.75378000  1.0
  H  H12  1  0.40987000  0.75378000  0.63200000  1.0
  H  H13  1  0.09012000  0.36800000  0.24621000  1.0
  H  H14  1  0.12566000  0.38928000  0.74988000  1.0
  H  H15  1  0.37433000  0.25013000  0.61072000  1.0
  H  H16  1  0.87433000  0.61072000  0.25012000  1.0
  H  H17  1  0.62567000  0.74987000  0.38928000  1.0
  C  C18  1  0.53753000  0.59977000  0.10346000  1.0
  C  C19  1  0.96247000  0.89654000  0.40023000  1.0
  C  C20  1  0.46247000  0.40023000  0.89654000  1.0
  C  C21  1  0.03753000  0.10346000  0.59977000  1.0
  C  C22  1  0.61035000  0.44555000  0.16777000  1.0
  C  C23  1  0.88965000  0.83223000  0.55445000  1.0
  C  C24  1  0.38965000  0.55445000  0.83223000  1.0
  C  C25  1  0.11035000  0.16777000  0.44555000  1.0
  C  C26  1  0.53703000  0.36617000  0.31499000  1.0
  C  C27  1  0.96297000  0.68502000  0.63383000  1.0
  C  C28  1  0.46298000  0.63383000  0.68501000  1.0
  C  C29  1  0.03703000  0.31499000  0.36617000  1.0
  C  C30  1  0.39359000  0.44150000  0.39857000  1.0
  C  C31  1  0.10641000  0.60144000  0.55850000  1.0
  C  C32  1  0.60641000  0.55850000  0.60144000  1.0
  C  C33  1  0.89359000  0.39857000  0.44150000  1.0
  C  C34  1  0.31866000  0.36877000  0.55397000  1.0
  C  C35  1  0.18134000  0.44603000  0.63123000  1.0
  C  C36  1  0.68134000  0.63123000  0.44604000  1.0
  C  C37  1  0.81866000  0.55397000  0.36877000  1.0
  C  C38  1  0.17485000  0.67712000  0.40324000  1.0
  C  C39  1  0.32515000  0.59676000  0.32288000  1.0
  C  C40  1  0.82515000  0.32288000  0.59676000  1.0
  C  C41  1  0.67485000  0.40324000  0.67712000  1.0
  Br  Br42  1  0.00310000  0.19149000  0.02276000  1.0
  Br  Br43  1  0.49690000  0.97724000  0.80851000  1.0
  Br  Br44  1  0.99690000  0.80851000  0.97724000  1.0
  Br  Br45  1  0.50310000  0.02275000  0.19149000  1.0
  N  N46  1  0.39746000  0.67195000  0.17767000  1.0
  N  N47  1  0.10255000  0.82233000  0.32805000  1.0
  N  N48  1  0.60255000  0.32805000  0.82233000  1.0
  N  N49  1  0.89746000  0.17767000  0.67194000  1.0
