# generated using pymatgen
data_NiH32C44(NO)6
_symmetry_space_group_name_H-M   'P 1'
_cell_length_a   12.87620000
_cell_length_b   17.04020000
_cell_length_c   17.04030000
_cell_angle_alpha   69.63890000
_cell_angle_beta   73.41790000
_cell_angle_gamma   73.41670000
_symmetry_Int_Tables_number   1
_chemical_formula_structural   NiH32C44(NO)6
_chemical_formula_sum   'Ni2 H64 C88 N12 O12'
_cell_volume   3286.62103966
_cell_formula_units_Z   2
loop_
 _symmetry_equiv_pos_site_id
 _symmetry_equiv_pos_as_xyz
  1  'x, y, z'
loop_
 _atom_site_type_symbol
 _atom_site_label
 _atom_site_symmetry_multiplicity
 _atom_site_fract_x
 _atom_site_fract_y
 _atom_site_fract_z
 _atom_site_occupancy
  Ni  Ni0  1  0.75000000  0.24301000  0.75699000  1.0
  Ni  Ni1  1  0.25000000  0.75699000  0.24301000  1.0
  H  H2  1  0.70061000  0.22011000  0.93850000  1.0
  H  H3  1  0.20061000  0.93851000  0.22011000  1.0
  H  H4  1  0.29938000  0.77990000  0.06150000  1.0
  H  H5  1  0.79940000  0.06150000  0.77989000  1.0
  H  H6  1  0.69539000  0.09539000  0.06919000  1.0
  H  H7  1  0.19542000  0.06920000  0.09538000  1.0
  H  H8  1  0.30460000  0.90462000  0.93080000  1.0
  H  H9  1  0.80460000  0.93080000  0.90462000  1.0
  H  H10  1  0.58537000  0.97345000  0.14062000  1.0
  H  H11  1  0.08539000  0.14063000  0.97345000  1.0
  H  H12  1  0.41464000  0.02656000  0.85937000  1.0
  H  H13  1  0.91462000  0.85938000  0.02655000  1.0
  H  H14  1  0.58305000  0.84734000  0.26457000  1.0
  H  H15  1  0.08305000  0.26458000  0.84734000  1.0
  H  H16  1  0.41695000  0.15267000  0.73542000  1.0
  H  H17  1  0.91695000  0.73542000  0.15267000  1.0
  H  H18  1  0.57556000  0.70732000  0.31513000  1.0
  H  H19  1  0.07555000  0.31515000  0.70732000  1.0
  H  H20  1  0.42444000  0.29268000  0.68486000  1.0
  H  H21  1  0.92445000  0.68486000  0.29268000  1.0
  H  H22  1  0.57621000  0.57920000  0.44049000  1.0
  H  H23  1  0.07621000  0.44050000  0.57919000  1.0
  H  H24  1  0.42380000  0.42080000  0.55951000  1.0
  H  H25  1  0.92379000  0.55950000  0.42080000  1.0
  H  H26  1  0.85826000  0.38415000  0.69604000  1.0
  H  H27  1  0.35828000  0.69604000  0.38414000  1.0
  H  H28  1  0.14173000  0.61587000  0.30396000  1.0
  H  H29  1  0.64174000  0.30396000  0.61585000  1.0
  H  H30  1  0.86358000  0.51421000  0.56887000  1.0
  H  H31  1  0.36360000  0.56886000  0.51420000  1.0
  H  H32  1  0.13641000  0.48580000  0.43113000  1.0
  H  H33  1  0.63641000  0.43114000  0.48579000  1.0
  H  H34  1  0.65818000  0.40284000  0.79909000  1.0
  H  H35  1  0.15820000  0.79910000  0.40283000  1.0
  H  H36  1  0.34180000  0.59716000  0.20090000  1.0
  H  H37  1  0.84181000  0.20090000  0.59716000  1.0
  H  H38  1  0.47122000  0.47723000  0.85672000  1.0
  H  H39  1  0.97124000  0.85673000  0.47722000  1.0
  H  H40  1  0.52877000  0.52277000  0.14328000  1.0
  H  H41  1  0.02877000  0.14327000  0.52278000  1.0
  H  H42  1  0.35194000  0.25246000  0.88942000  1.0
  H  H43  1  0.85194000  0.88943000  0.25246000  1.0
  H  H44  1  0.64806000  0.74754000  0.11058000  1.0
  H  H45  1  0.14806000  0.11057000  0.74754000  1.0
  H  H46  1  0.54125000  0.19088000  0.82273000  1.0
  H  H47  1  0.04125000  0.82274000  0.19088000  1.0
  H  H48  1  0.45875000  0.80912000  0.17727000  1.0
  H  H49  1  0.95875000  0.17726000  0.80912000  1.0
  H  H50  1  0.32413000  0.49474000  0.96397000  1.0
  H  H51  1  0.82413000  0.96399000  0.49474000  1.0
  H  H52  1  0.67586000  0.50527000  0.03601000  1.0
  H  H53  1  0.17587000  0.03603000  0.50525000  1.0
  H  H54  1  0.13552000  0.55704000  0.02058000  1.0
  H  H55  1  0.63553000  0.02058000  0.55704000  1.0
  H  H56  1  0.86447000  0.44297000  0.97941000  1.0
  H  H57  1  0.36448000  0.97941000  0.44296000  1.0
  H  H58  1  0.01455000  0.40036000  0.92733000  1.0
  H  H59  1  0.51456000  0.92728000  0.40041000  1.0
  H  H60  1  0.98544000  0.59961000  0.07270000  1.0
  H  H61  1  0.48544000  0.07267000  0.59964000  1.0
  H  H62  1  0.20314000  0.34287000  0.86639000  1.0
  H  H63  1  0.70315000  0.86636000  0.34290000  1.0
  H  H64  1  0.79685000  0.65711000  0.13363000  1.0
  H  H65  1  0.29685000  0.13361000  0.65713000  1.0
  C  C66  1  0.72101000  0.15489000  0.93397000  1.0
  C  C67  1  0.22102000  0.93398000  0.15489000  1.0
  C  C68  1  0.27898000  0.84512000  0.06603000  1.0
  C  C69  1  0.77899000  0.06602000  0.84511000  1.0
  C  C70  1  0.71885000  0.08483000  0.00641000  1.0
  C  C71  1  0.21886000  0.00641000  0.08483000  1.0
  C  C72  1  0.28115000  0.91518000  0.99359000  1.0
  C  C73  1  0.78115000  0.99359000  0.91517000  1.0
  C  C74  1  0.75000000  0.00158000  0.99842000  1.0
  C  C75  1  0.25001000  0.99843000  0.00158000  1.0
  C  C76  1  0.75000000  0.92594000  0.07406000  1.0
  C  C77  1  0.25001000  0.07406000  0.92595000  1.0
  C  C78  1  0.65801000  0.92115000  0.14273000  1.0
  C  C79  1  0.15803000  0.14274000  0.92115000  1.0
  C  C80  1  0.34199000  0.07885000  0.85726000  1.0
  C  C81  1  0.84198000  0.85727000  0.07885000  1.0
  C  C82  1  0.65697000  0.84887000  0.21337000  1.0
  C  C83  1  0.15696000  0.21337000  0.84887000  1.0
  C  C84  1  0.34304000  0.15113000  0.78663000  1.0
  C  C85  1  0.84304000  0.78663000  0.15112000  1.0
  C  C86  1  0.75000000  0.78098000  0.21902000  1.0
  C  C87  1  0.24999000  0.21902000  0.78098000  1.0
  C  C88  1  0.75000000  0.70529000  0.29470000  1.0
  C  C89  1  0.24999000  0.29471000  0.70529000  1.0
  C  C90  1  0.65226000  0.67450000  0.33778000  1.0
  C  C91  1  0.15226000  0.33779000  0.67449000  1.0
  C  C92  1  0.34774000  0.32550000  0.66221000  1.0
  C  C93  1  0.84774000  0.66221000  0.32550000  1.0
  C  C94  1  0.65282000  0.60225000  0.40825000  1.0
  C  C95  1  0.15282000  0.40826000  0.60224000  1.0
  C  C96  1  0.34718000  0.39775000  0.59174000  1.0
  C  C97  1  0.84718000  0.59174000  0.39775000  1.0
  C  C98  1  0.75000000  0.56001000  0.43999000  1.0
  C  C99  1  0.25000000  0.43999000  0.56001000  1.0
  C  C100  1  0.81229000  0.39725000  0.64650000  1.0
  C  C101  1  0.31230000  0.64650000  0.39724000  1.0
  C  C102  1  0.18771000  0.60276000  0.35350000  1.0
  C  C103  1  0.68771000  0.35351000  0.60276000  1.0
  C  C104  1  0.81415000  0.46898000  0.57573000  1.0
  C  C105  1  0.31417000  0.57572000  0.46897000  1.0
  C  C106  1  0.18585000  0.53104000  0.42427000  1.0
  C  C107  1  0.68584000  0.42427000  0.53103000  1.0
  C  C108  1  0.75000000  0.48455000  0.51545000  1.0
  C  C109  1  0.25001000  0.51545000  0.48455000  1.0
  C  C110  1  0.58706000  0.37324000  0.81755000  1.0
  C  C111  1  0.08706000  0.81756000  0.37323000  1.0
  C  C112  1  0.41294000  0.62676000  0.18244000  1.0
  C  C113  1  0.91294000  0.18244000  0.62676000  1.0
  C  C114  1  0.48241000  0.41327000  0.85158000  1.0
  C  C115  1  0.98242000  0.85159000  0.41327000  1.0
  C  C116  1  0.51758000  0.58673000  0.14842000  1.0
  C  C117  1  0.01759000  0.14841000  0.58673000  1.0
  C  C118  1  0.39252000  0.37230000  0.87755000  1.0
  C  C119  1  0.89253000  0.87756000  0.37230000  1.0
  C  C120  1  0.60747000  0.62770000  0.12245000  1.0
  C  C121  1  0.10748000  0.12244000  0.62770000  1.0
  C  C122  1  0.41620000  0.28954000  0.86850000  1.0
  C  C123  1  0.91620000  0.86850000  0.28954000  1.0
  C  C124  1  0.58380000  0.71046000  0.13150000  1.0
  C  C125  1  0.08380000  0.13150000  0.71046000  1.0
  C  C126  1  0.52202000  0.25348000  0.83300000  1.0
  C  C127  1  0.02203000  0.83301000  0.25347000  1.0
  C  C128  1  0.47797000  0.74653000  0.16700000  1.0
  C  C129  1  0.97798000  0.16699000  0.74652000  1.0
  C  C130  1  0.27936000  0.41227000  0.91166000  1.0
  C  C131  1  0.77936000  0.91165000  0.41228000  1.0
  C  C132  1  0.72063000  0.58773000  0.08834000  1.0
  C  C133  1  0.22064000  0.08834000  0.58773000  1.0
  C  C134  1  0.25671000  0.47426000  0.95466000  1.0
  C  C135  1  0.75672000  0.95466000  0.47427000  1.0
  C  C136  1  0.74328000  0.52574000  0.04533000  1.0
  C  C137  1  0.24328000  0.04534000  0.52574000  1.0
  C  C138  1  0.14839000  0.50876000  0.98848000  1.0
  C  C139  1  0.64840000  0.98848000  0.50877000  1.0
  C  C140  1  0.85160000  0.49124000  0.01152000  1.0
  C  C141  1  0.35161000  0.01152000  0.49123000  1.0
  C  C142  1  0.05768000  0.48273000  0.98112000  1.0
  C  C143  1  0.55769000  0.98110000  0.48275000  1.0
  C  C144  1  0.94230000  0.51726000  0.01889000  1.0
  C  C145  1  0.44231000  0.01887000  0.51728000  1.0
  C  C146  1  0.08090000  0.42239000  0.93592000  1.0
  C  C147  1  0.58091000  0.93589000  0.42243000  1.0
  C  C148  1  0.91908000  0.57758000  0.06410000  1.0
  C  C149  1  0.41909000  0.06407000  0.57761000  1.0
  C  C150  1  0.18892000  0.38829000  0.90206000  1.0
  C  C151  1  0.68893000  0.90204000  0.38831000  1.0
  C  C152  1  0.81107000  0.61170000  0.09795000  1.0
  C  C153  1  0.31108000  0.09794000  0.61171000  1.0
  N  N154  1  0.65924000  0.10037000  0.67729000  1.0
  N  N155  1  0.15924000  0.67729000  0.10036000  1.0
  N  N156  1  0.34075000  0.89963000  0.32272000  1.0
  N  N157  1  0.84076000  0.32271000  0.89963000  1.0
  N  N158  1  0.75000000  0.14578000  0.85422000  1.0
  N  N159  1  0.25000000  0.85423000  0.14578000  1.0
  N  N160  1  0.75000000  0.34027000  0.65974000  1.0
  N  N161  1  0.25001000  0.65974000  0.34026000  1.0
  N  N162  1  0.60686000  0.29482000  0.80704000  1.0
  N  N163  1  0.10686000  0.80704000  0.29483000  1.0
  N  N164  1  0.39314000  0.70517000  0.19296000  1.0
  N  N165  1  0.89314000  0.19296000  0.70517000  1.0
  O  O166  1  0.58259000  0.06191000  0.69056000  1.0
  O  O167  1  0.08259000  0.69055000  0.06192000  1.0
  O  O168  1  0.41740000  0.93808000  0.30946000  1.0
  O  O169  1  0.91740000  0.30945000  0.93809000  1.0
  O  O170  1  0.75974000  0.06532000  0.65695000  1.0
  O  O171  1  0.25974000  0.65699000  0.06529000  1.0
  O  O172  1  0.24025000  0.93470000  0.34302000  1.0
  O  O173  1  0.74025000  0.34304000  0.93469000  1.0
  O  O174  1  0.63443000  0.17619000  0.68557000  1.0
  O  O175  1  0.13444000  0.68557000  0.17618000  1.0
  O  O176  1  0.36556000  0.82382000  0.31443000  1.0
  O  O177  1  0.86557000  0.31443000  0.82382000  1.0
