# generated using pymatgen
data_Cd3H26(CO)22
_symmetry_space_group_name_H-M   'P 1'
_cell_length_a   6.66182000
_cell_length_b   11.51839704
_cell_length_c   11.73230000
_cell_angle_alpha   66.98900993
_cell_angle_beta   88.80210000
_cell_angle_gamma   78.87651924
_symmetry_Int_Tables_number   1
_chemical_formula_structural   Cd3H26(CO)22
_chemical_formula_sum   'Cd3 H26 C22 O22'
_cell_volume   811.57737431
_cell_formula_units_Z   1
loop_
 _symmetry_equiv_pos_site_id
 _symmetry_equiv_pos_as_xyz
  1  'x, y, z'
loop_
 _atom_site_type_symbol
 _atom_site_label
 _atom_site_symmetry_multiplicity
 _atom_site_fract_x
 _atom_site_fract_y
 _atom_site_fract_z
 _atom_site_occupancy
  Cd  Cd0  1  0.00001000  0.00000000  0.50000000  1.0
  Cd  Cd1  1  0.04166000  0.72561000  0.37906000  1.0
  Cd  Cd2  1  0.95837000  0.27441000  0.62092000  1.0
  H  H3  1  0.49216000  0.74344000  0.36529000  1.0
  H  H4  1  0.50784000  0.25657000  0.63470000  1.0
  H  H5  1  0.34502000  0.77851000  0.24343000  1.0
  H  H6  1  0.65495000  0.22150000  0.75657000  1.0
  H  H7  1  0.75224000  0.58310000  0.53150000  1.0
  H  H8  1  0.24774000  0.41691000  0.46848000  1.0
  H  H9  1  0.74645000  0.57014000  0.40584000  1.0
  H  H10  1  0.25353000  0.42984000  0.59416000  1.0
  H  H11  1  0.31222000  0.07567000  0.32433000  1.0
  H  H12  1  0.68777000  0.92433000  0.67566000  1.0
  H  H13  1  0.27531000  0.94200000  0.32866000  1.0
  H  H14  1  0.72469000  0.05801000  0.67133000  1.0
  H  H15  1  0.38358000  0.33985000  0.31701000  1.0
  H  H16  1  0.61640000  0.66018000  0.68301000  1.0
  H  H17  1  0.38597000  0.27908000  0.97590000  1.0
  H  H18  1  0.61402000  0.72094000  0.02407000  1.0
  H  H19  1  0.16029000  0.65775000  0.97276000  1.0
  H  H20  1  0.83975000  0.34222000  0.02724000  1.0
  H  H21  1  0.68537000  0.14845000  0.09215000  1.0
  H  H22  1  0.31463000  0.85155000  0.90786000  1.0
  H  H23  1  0.49707000  0.05011000  0.13070000  1.0
  H  H24  1  0.50293000  0.94990000  0.86929000  1.0
  H  H25  1  0.25538000  0.70052000  0.77745000  1.0
  H  H26  1  0.74462000  0.29947000  0.22256000  1.0
  H  H27  1  0.99964000  0.67311000  0.79074000  1.0
  H  H28  1  0.00036000  0.32689000  0.20927000  1.0
  C  C29  1  0.26532000  0.50793000  0.15039000  1.0
  C  C30  1  0.73472000  0.49205000  0.84962000  1.0
  C  C31  1  0.34656000  0.37793000  0.21755000  1.0
  C  C32  1  0.65348000  0.62206000  0.78246000  1.0
  C  C33  1  0.39282000  0.29630000  0.15387000  1.0
  C  C34  1  0.60720000  0.70370000  0.84613000  1.0
  C  C35  1  0.34923000  0.34078000  0.02688000  1.0
  C  C36  1  0.65077000  0.65921000  0.97312000  1.0
  C  C37  1  0.26368000  0.47162000  0.96132000  1.0
  C  C38  1  0.73632000  0.52836000  0.03869000  1.0
  C  C39  1  0.22334000  0.55578000  0.02187000  1.0
  C  C40  1  0.77668000  0.44420000  0.97814000  1.0
  C  C41  1  0.23078000  0.60050000  0.21295000  1.0
  C  C42  1  0.76924000  0.39950000  0.78704000  1.0
  C  C43  1  0.60007000  0.09220000  0.16868000  1.0
  C  C44  1  0.39994000  0.90780000  0.83132000  1.0
  C  C45  1  0.74983000  0.98428000  0.26845000  1.0
  C  C46  1  0.25014000  0.01572000  0.73157000  1.0
  C  C47  1  0.15396000  0.64063000  0.76539000  1.0
  C  C48  1  0.84604000  0.35938000  0.23461000  1.0
  C  C49  1  0.14332000  0.66329000  0.63004000  1.0
  C  C50  1  0.85667000  0.33672000  0.36995000  1.0
  O  O51  1  0.36533000  0.80095000  0.31656000  1.0
  O  O52  1  0.63466000  0.19906000  0.68344000  1.0
  O  O53  1  0.73730000  0.63741000  0.44074000  1.0
  O  O54  1  0.26272000  0.36258000  0.55925000  1.0
  O  O55  1  0.20802000  0.02201000  0.33942000  1.0
  O  O56  1  0.79197000  0.97800000  0.66056000  1.0
  O  O57  1  0.17851000  0.55792000  0.32687000  1.0
  O  O58  1  0.82150000  0.44209000  0.67312000  1.0
  O  O59  1  0.25223000  0.71473000  0.15263000  1.0
  O  O60  1  0.74778000  0.28528000  0.84735000  1.0
  O  O61  1  0.48680000  0.17168000  0.22641000  1.0
  O  O62  1  0.51322000  0.82832000  0.77359000  1.0
  O  O63  1  0.75692000  0.98628000  0.37492000  1.0
  O  O64  1  0.24304000  0.01372000  0.62509000  1.0
  O  O65  1  0.85224000  0.90004000  0.23318000  1.0
  O  O66  1  0.14772000  0.09996000  0.76684000  1.0
  O  O67  1  0.22937000  0.50769000  0.83679000  1.0
  O  O68  1  0.77062000  0.49229000  0.16322000  1.0
  O  O69  1  0.05053000  0.77569000  0.55476000  1.0
  O  O70  1  0.94946000  0.22432000  0.44523000  1.0
  O  O71  1  0.21815000  0.57746000  0.59166000  1.0
  O  O72  1  0.78183000  0.42255000  0.40834000  1.0
