# generated using pymatgen
data_CdH12C15S(N2O3)2
_symmetry_space_group_name_H-M   'P 1'
_cell_length_a   7.65157000
_cell_length_b   8.14581000
_cell_length_c   13.96740000
_cell_angle_alpha   92.77960000
_cell_angle_beta   98.96290000
_cell_angle_gamma   91.10810000
_symmetry_Int_Tables_number   1
_chemical_formula_structural   CdH12C15S(N2O3)2
_chemical_formula_sum   'Cd2 H24 C30 S2 N8 O12'
_cell_volume   858.60241942
_cell_formula_units_Z   2
loop_
 _symmetry_equiv_pos_site_id
 _symmetry_equiv_pos_as_xyz
  1  'x, y, z'
loop_
 _atom_site_type_symbol
 _atom_site_label
 _atom_site_symmetry_multiplicity
 _atom_site_fract_x
 _atom_site_fract_y
 _atom_site_fract_z
 _atom_site_occupancy
  Cd  Cd0  1  0.68088000  0.71459000  0.80593000  1.0
  Cd  Cd1  1  0.31912000  0.28541000  0.19407000  1.0
  H  H2  1  0.82602000  0.35964000  0.72732000  1.0
  H  H3  1  0.17398000  0.64035000  0.27268000  1.0
  H  H4  1  0.72559000  0.16892000  0.75521000  1.0
  H  H5  1  0.27441000  0.83107000  0.24479000  1.0
  H  H6  1  0.95689000  0.12769000  0.09600000  1.0
  H  H7  1  0.04311000  0.87230000  0.90400000  1.0
  H  H8  1  0.31214000  0.42836000  0.98351000  1.0
  H  H9  1  0.68786000  0.57164000  0.01649000  1.0
  H  H10  1  0.55916000  0.88424000  0.61106000  1.0
  H  H11  1  0.44083000  0.11576000  0.38894000  1.0
  H  H12  1  0.33679000  0.14804000  0.74123000  1.0
  H  H13  1  0.66321000  0.85195000  0.25877000  1.0
  H  H14  1  0.73986000  0.12893000  0.94573000  1.0
  H  H15  1  0.26014000  0.87106000  0.05427000  1.0
  H  H16  1  0.16482000  0.58973000  0.41814000  1.0
  H  H17  1  0.83518000  0.41028000  0.58186000  1.0
  H  H18  1  0.10426000  0.44645000  0.82805000  1.0
  H  H19  1  0.89574000  0.55355000  0.17195000  1.0
  H  H20  1  0.11577000  0.10457000  0.59213000  1.0
  H  H21  1  0.88422000  0.89543000  0.40786000  1.0
  H  H22  1  0.07819000  0.32136000  0.46969000  1.0
  H  H23  1  0.92180000  0.67865000  0.53031000  1.0
  H  H24  1  0.34652000  0.85370000  0.45425000  1.0
  H  H25  1  0.65348000  0.14631000  0.54575000  1.0
  C  C26  1  0.77232000  0.29293000  0.78277000  1.0
  C  C27  1  0.22768000  0.70707000  0.21723000  1.0
  C  C28  1  0.98657000  0.19634000  0.03532000  1.0
  C  C29  1  0.01343000  0.80366000  0.96468000  1.0
  C  C30  1  0.90498000  0.28662000  0.87363000  1.0
  C  C31  1  0.09502000  0.71337000  0.12637000  1.0
  C  C32  1  0.18358000  0.36413000  0.97205000  1.0
  C  C33  1  0.81642000  0.63587000  0.02795000  1.0
  C  C34  1  0.47864000  0.77203000  0.59179000  1.0
  C  C35  1  0.52136000  0.22798000  0.40821000  1.0
  C  C36  1  0.42703000  0.38382000  0.70555000  1.0
  C  C37  1  0.57298000  0.61618000  0.29444000  1.0
  C  C38  1  0.32203000  0.24158000  0.68755000  1.0
  C  C39  1  0.67797000  0.75841000  0.31245000  1.0
  C  C40  1  0.40569000  0.51189000  0.63841000  1.0
  C  C41  1  0.59431000  0.48811000  0.36159000  1.0
  C  C42  1  0.86503000  0.19689000  0.95065000  1.0
  C  C43  1  0.13497000  0.80310000  0.04935000  1.0
  C  C44  1  0.26004000  0.61062000  0.48447000  1.0
  C  C45  1  0.73996000  0.38939000  0.51553000  1.0
  C  C46  1  0.06812000  0.37211000  0.88513000  1.0
  C  C47  1  0.93189000  0.62789000  0.11486000  1.0
  C  C48  1  0.27922000  0.48518000  0.55160000  1.0
  C  C49  1  0.72077000  0.51483000  0.44841000  1.0
  C  C50  1  0.19659000  0.21765000  0.60229000  1.0
  C  C51  1  0.80340000  0.78236000  0.39771000  1.0
  C  C52  1  0.17643000  0.33701000  0.53513000  1.0
  C  C53  1  0.82356000  0.66300000  0.46487000  1.0
  C  C54  1  0.35939000  0.75444000  0.50421000  1.0
  C  C55  1  0.64061000  0.24557000  0.49580000  1.0
  S  S56  1  0.57864000  0.40083000  0.81559000  1.0
  S  S57  1  0.42136000  0.59916000  0.18440000  1.0
  N  N58  1  0.50162000  0.65603000  0.65585000  1.0
  N  N59  1  0.49838000  0.34397000  0.34415000  1.0
  N  N60  1  0.14301000  0.27886000  0.04618000  1.0
  N  N61  1  0.85699000  0.72113000  0.95382000  1.0
  N  N62  1  0.97518000  0.79140000  0.70385000  1.0
  N  N63  1  0.02481000  0.20860000  0.29615000  1.0
  N  N64  1  0.41290000  0.91538000  0.86939000  1.0
  N  N65  1  0.58710000  0.08461000  0.13061000  1.0
  O  O66  1  0.94977000  0.64080000  0.72163000  1.0
  O  O67  1  0.05023000  0.35920000  0.27837000  1.0
  O  O68  1  0.40461000  0.76420000  0.88763000  1.0
  O  O69  1  0.59539000  0.23580000  0.11238000  1.0
  O  O70  1  0.53793000  0.96345000  0.82321000  1.0
  O  O71  1  0.46207000  0.03655000  0.17679000  1.0
  O  O72  1  0.86783000  0.89782000  0.73097000  1.0
  O  O73  1  0.13216000  0.10218000  0.26903000  1.0
  O  O74  1  0.09813000  0.83415000  0.66098000  1.0
  O  O75  1  0.90187000  0.16585000  0.33902000  1.0
  O  O76  1  0.30687000  0.01700000  0.89395000  1.0
  O  O77  1  0.69313000  0.98299000  0.10605000  1.0
