# generated using pymatgen
data_ZnH9C19NO8
_symmetry_space_group_name_H-M   'P 1'
_cell_length_a   9.43447000
_cell_length_b   10.89170000
_cell_length_c   16.10430000
_cell_angle_alpha   90.72650000
_cell_angle_beta   92.31120000
_cell_angle_gamma   90.20330000
_symmetry_Int_Tables_number   1
_chemical_formula_structural   ZnH9C19NO8
_chemical_formula_sum   'Zn2 H18 C38 N2 O16'
_cell_volume   1653.34354261
_cell_formula_units_Z   2
loop_
 _symmetry_equiv_pos_site_id
 _symmetry_equiv_pos_as_xyz
  1  'x, y, z'
loop_
 _atom_site_type_symbol
 _atom_site_label
 _atom_site_symmetry_multiplicity
 _atom_site_fract_x
 _atom_site_fract_y
 _atom_site_fract_z
 _atom_site_occupancy
  Zn  Zn0  1  0.35679000  0.49455000  0.50426000  1.0
  Zn  Zn1  1  0.64320000  0.50544000  0.49574000  1.0
  H  H2  1  0.74466000  0.26825000  0.04855000  1.0
  H  H3  1  0.25533000  0.73177000  0.95138000  1.0
  H  H4  1  0.41164000  0.31384000  0.92950000  1.0
  H  H5  1  0.58837000  0.68619000  0.07050000  1.0
  H  H6  1  0.85921000  0.55103000  0.04066000  1.0
  H  H7  1  0.14082000  0.44897000  0.95934000  1.0
  H  H8  1  0.64972000  0.90871000  0.60958000  1.0
  H  H9  1  0.35027000  0.09128000  0.39044000  1.0
  H  H10  1  0.36173000  0.01706000  0.69481000  1.0
  H  H11  1  0.63824000  0.98294000  0.30521000  1.0
  H  H12  1  0.25104000  0.94156000  0.51937000  1.0
  H  H13  1  0.74895000  0.05843000  0.48064000  1.0
  H  H14  1  0.08623000  0.30653000  0.55513000  1.0
  H  H15  1  0.91377000  0.69345000  0.44486000  1.0
  H  H16  1  0.78771000  0.33806000  0.35771000  1.0
  H  H17  1  0.21228000  0.66192000  0.64227000  1.0
  H  H18  1  0.10610000  0.51994000  0.36649000  1.0
  H  H19  1  0.89390000  0.48005000  0.63350000  1.0
  C  C20  1  0.51749000  0.26114000  0.50445000  1.0
  C  C21  1  0.48252000  0.73885000  0.49556000  1.0
  C  C22  1  0.58405000  0.95027000  0.56008000  1.0
  C  C23  1  0.41595000  0.04972000  0.43994000  1.0
  C  C24  1  0.48525000  0.87535000  0.49730000  1.0
  C  C25  1  0.51473000  0.12464000  0.50271000  1.0
  C  C26  1  0.36155000  0.96721000  0.51067000  1.0
  C  C27  1  0.63844000  0.03278000  0.48935000  1.0
  C  C28  1  0.94808000  0.40849000  0.45119000  1.0
  C  C29  1  0.05192000  0.59150000  0.54880000  1.0
  C  C30  1  0.04167000  0.39215000  0.53132000  1.0
  C  C31  1  0.95833000  0.60784000  0.46867000  1.0
  C  C32  1  0.05165000  0.51259000  0.42484000  1.0
  C  C33  1  0.94835000  0.48740000  0.57515000  1.0
  C  C34  1  0.47752000  0.49059000  0.33611000  1.0
  C  C35  1  0.52248000  0.50940000  0.66389000  1.0
  C  C36  1  0.44970000  0.39781000  0.96105000  1.0
  C  C37  1  0.55031000  0.60222000  0.03895000  1.0
  C  C38  1  0.56768000  0.40105000  0.03306000  1.0
  C  C39  1  0.43233000  0.59899000  0.96694000  1.0
  C  C40  1  0.46599000  0.48979000  0.24652000  1.0
  C  C41  1  0.53401000  0.51022000  0.75348000  1.0
  C  C42  1  0.35622000  0.48856000  0.01133000  1.0
  C  C43  1  0.64378000  0.51147000  0.98866000  1.0
  C  C44  1  0.47395000  0.49455000  0.08397000  1.0
  C  C45  1  0.52607000  0.50548000  0.91603000  1.0
  C  C46  1  0.46063000  0.49029000  0.17094000  1.0
  C  C47  1  0.53938000  0.50973000  0.82906000  1.0
  C  C48  1  0.45806000  0.04396000  0.57471000  1.0
  C  C49  1  0.54194000  0.95603000  0.42531000  1.0
  C  C50  1  0.63467000  0.28864000  0.06801000  1.0
  C  C51  1  0.36536000  0.71139000  0.93197000  1.0
  C  C52  1  0.80017000  0.51895000  0.98271000  1.0
  C  C53  1  0.19984000  0.48105000  0.01728000  1.0
  C  C54  1  0.42227000  0.08570000  0.65886000  1.0
  C  C55  1  0.57770000  0.91430000  0.34116000  1.0
  C  C56  1  0.88379000  0.31080000  0.39515000  1.0
  C  C57  1  0.11620000  0.68918000  0.60484000  1.0
  N  N58  1  0.14274000  0.49419000  0.50503000  1.0
  N  N59  1  0.85725000  0.50580000  0.49496000  1.0
  O  O60  1  0.39623000  0.31202000  0.50699000  1.0
  O  O61  1  0.60377000  0.68798000  0.49302000  1.0
  O  O62  1  0.63637000  0.31600000  0.50095000  1.0
  O  O63  1  0.36363000  0.68399000  0.49906000  1.0
  O  O64  1  0.36270000  0.49094000  0.37485000  1.0
  O  O65  1  0.63728000  0.50903000  0.62515000  1.0
  O  O66  1  0.60325000  0.49009000  0.36828000  1.0
  O  O67  1  0.39673000  0.50991000  0.63173000  1.0
  O  O68  1  0.57314000  0.22118000  0.11486000  1.0
  O  O69  1  0.42693000  0.77886000  0.88515000  1.0
  O  O70  1  0.86386000  0.49058000  0.92059000  1.0
  O  O71  1  0.13615000  0.50939000  0.07941000  1.0
  O  O72  1  0.45720000  0.18510000  0.68983000  1.0
  O  O73  1  0.54276000  0.81490000  0.31018000  1.0
  O  O74  1  0.93863000  0.20967000  0.38989000  1.0
  O  O75  1  0.06137000  0.79031000  0.61010000  1.0
