# generated using pymatgen
data_ZnH22(C12N5)2
_symmetry_space_group_name_H-M   'P 1'
_cell_length_a   9.61496000
_cell_length_b   10.27500000
_cell_length_c   13.32210000
_cell_angle_alpha   98.67000000
_cell_angle_beta   105.64300000
_cell_angle_gamma   109.51900000
_symmetry_Int_Tables_number   1
_chemical_formula_structural   ZnH22(C12N5)2
_chemical_formula_sum   'Zn2 H44 C48 N20'
_cell_volume   1151.73266336
_cell_formula_units_Z   2
loop_
 _symmetry_equiv_pos_site_id
 _symmetry_equiv_pos_as_xyz
  1  'x, y, z'
loop_
 _atom_site_type_symbol
 _atom_site_label
 _atom_site_symmetry_multiplicity
 _atom_site_fract_x
 _atom_site_fract_y
 _atom_site_fract_z
 _atom_site_occupancy
  Zn  Zn0  1  0.60671000  0.98532000  0.70222000  1.0
  Zn  Zn1  1  0.39329000  0.01468000  0.29778000  1.0
  H  H2  1  0.36146000  0.32501000  0.07947000  1.0
  H  H3  1  0.63854000  0.67499000  0.92053000  1.0
  H  H4  1  0.31288000  0.47656000  0.08015000  1.0
  H  H5  1  0.68712000  0.52344000  0.91985000  1.0
  H  H6  1  0.36208000  0.48592000  0.90289000  1.0
  H  H7  1  0.63791000  0.51408000  0.09711000  1.0
  H  H8  1  0.16249000  0.08799000  0.97288000  1.0
  H  H9  1  0.83751000  0.91200000  0.02712000  1.0
  H  H10  1  0.88549000  0.94310000  0.84833000  1.0
  H  H11  1  0.11451000  0.05690000  0.15167000  1.0
  H  H12  1  0.81638000  0.30539000  0.79256000  1.0
  H  H13  1  0.18362000  0.69460000  0.20745000  1.0
  H  H14  1  0.08741000  0.46662000  0.91665000  1.0
  H  H15  1  0.91259000  0.53338000  0.08335000  1.0
  H  H16  1  0.56406000  0.26372000  0.04122000  1.0
  H  H17  1  0.43594000  0.73628000  0.95878000  1.0
  H  H18  1  0.62559000  0.08545000  0.93219000  1.0
  H  H19  1  0.37441000  0.91455000  0.06781000  1.0
  H  H20  1  0.40120000  0.15220000  0.64519000  1.0
  H  H21  1  0.59881000  0.84780000  0.35481000  1.0
  H  H22  1  0.33829000  0.34212000  0.74236000  1.0
  H  H23  1  0.66171000  0.65788000  0.25764000  1.0
  H  H24  1  0.04485000  0.71917000  0.46014000  1.0
  H  H25  1  0.95515000  0.28084000  0.53986000  1.0
  H  H26  1  0.86004000  0.58888000  0.36860000  1.0
  H  H27  1  0.13996000  0.41112000  0.63139000  1.0
  H  H28  1  0.82733000  0.44533000  0.49122000  1.0
  H  H29  1  0.17267000  0.55467000  0.50877000  1.0
  H  H30  1  0.61757000  0.55537000  0.44319000  1.0
  H  H31  1  0.38243000  0.44463000  0.55681000  1.0
  H  H32  1  0.50412000  0.69512000  0.54289000  1.0
  H  H33  1  0.49588000  0.30488000  0.45711000  1.0
  H  H34  1  0.91603000  0.05812000  0.65102000  1.0
  H  H35  1  0.08396000  0.94188000  0.34897000  1.0
  H  H36  1  0.05270000  0.92835000  0.56821000  1.0
  H  H37  1  0.94730000  0.07165000  0.43179000  1.0
  H  H38  1  0.78147000  0.46608000  0.65633000  1.0
  H  H39  1  0.21853000  0.53393000  0.34367000  1.0
  H  H40  1  0.86564000  0.59423000  0.84971000  1.0
  H  H41  1  0.13436000  0.40578000  0.15029000  1.0
  H  H42  1  0.29320000  0.86397000  0.84573000  1.0
  H  H43  1  0.70680000  0.13603000  0.15426000  1.0
  H  H44  1  0.22643000  0.75216000  0.65268000  1.0
  H  H45  1  0.77357000  0.24784000  0.34732000  1.0
  C  C46  1  0.31316000  0.38360000  0.02726000  1.0
  C  C47  1  0.68684000  0.61640000  0.97274000  1.0
  C  C48  1  0.42033000  0.43981000  0.96218000  1.0
  C  C49  1  0.57967000  0.56019000  0.03783000  1.0
  C  C50  1  0.14819000  0.29000000  0.95503000  1.0
  C  C51  1  0.85181000  0.70999000  0.04497000  1.0
  C  C52  1  0.08960000  0.14077000  0.93475000  1.0
  C  C53  1  0.91040000  0.85922000  0.06525000  1.0
  C  C54  1  0.93600000  0.05960000  0.86576000  1.0
  C  C55  1  0.06400000  0.94039000  0.13424000  1.0
  C  C56  1  0.89659000  0.26239000  0.83562000  1.0
  C  C57  1  0.10341000  0.73760000  0.16438000  1.0
  C  C58  1  0.04797000  0.35079000  0.90379000  1.0
  C  C59  1  0.95203000  0.64920000  0.09621000  1.0
  C  C60  1  0.44647000  0.31977000  0.90017000  1.0
  C  C61  1  0.55353000  0.68022000  0.09983000  1.0
  C  C62  1  0.52519000  0.24341000  0.95347000  1.0
  C  C63  1  0.47481000  0.75659000  0.04653000  1.0
  C  C64  1  0.55895000  0.14276000  0.89341000  1.0
  C  C65  1  0.44105000  0.85724000  0.10658000  1.0
  C  C66  1  0.43382000  0.18055000  0.73285000  1.0
  C  C67  1  0.56618000  0.81945000  0.26715000  1.0
  C  C68  1  0.39749000  0.28421000  0.78722000  1.0
  C  C69  1  0.60251000  0.71579000  0.21278000  1.0
  C  C70  1  0.92761000  0.64600000  0.45415000  1.0
  C  C71  1  0.07238000  0.35400000  0.54585000  1.0
  C  C72  1  0.94461000  0.53220000  0.51618000  1.0
  C  C73  1  0.05539000  0.46780000  0.48382000  1.0
  C  C74  1  0.84666000  0.72977000  0.49926000  1.0
  C  C75  1  0.15334000  0.27023000  0.50075000  1.0
  C  C76  1  0.68905000  0.66557000  0.49128000  1.0
  C  C77  1  0.31095000  0.33443000  0.50871000  1.0
  C  C78  1  0.62464000  0.74356000  0.54463000  1.0
  C  C79  1  0.37536000  0.25644000  0.45537000  1.0
  C  C80  1  0.85475000  0.94555000  0.60619000  1.0
  C  C81  1  0.14525000  0.05446000  0.39381000  1.0
  C  C82  1  0.92933000  0.87343000  0.55823000  1.0
  C  C83  1  0.07066000  0.12658000  0.44177000  1.0
  C  C84  1  0.99722000  0.59702000  0.63681000  1.0
  C  C85  1  0.00278000  0.40298000  0.36319000  1.0
  C  C86  1  0.89659000  0.55413000  0.69510000  1.0
  C  C87  1  0.10341000  0.44587000  0.30490000  1.0
  C  C88  1  0.94420000  0.62578000  0.80392000  1.0
  C  C89  1  0.05580000  0.37422000  0.19608000  1.0
  C  C90  1  0.17990000  0.77465000  0.80196000  1.0
  C  C91  1  0.82010000  0.22536000  0.19803000  1.0
  C  C92  1  0.14301000  0.71033000  0.69309000  1.0
  C  C93  1  0.85699000  0.28967000  0.30691000  1.0
  N  N94  1  0.66393000  0.17224000  0.60999000  1.0
  N  N95  1  0.33607000  0.82776000  0.39001000  1.0
  N  N96  1  0.64215000  0.14334000  0.51645000  1.0
  N  N97  1  0.35785000  0.85666000  0.48355000  1.0
  N  N98  1  0.62319000  0.11737000  0.42238000  1.0
  N  N99  1  0.37680000  0.88263000  0.57762000  1.0
  N  N100  1  0.57922000  0.83792000  0.79554000  1.0
  N  N101  1  0.42077000  0.16208000  0.20446000  1.0
  N  N102  1  0.50072000  0.71251000  0.75660000  1.0
  N  N103  1  0.49928000  0.28749000  0.24340000  1.0
  N  N104  1  0.42513000  0.58886000  0.72241000  1.0
  N  N105  1  0.57487000  0.41114000  0.27759000  1.0
  N  N106  1  0.84109000  0.11894000  0.81639000  1.0
  N  N107  1  0.15891000  0.88106000  0.18361000  1.0
  N  N108  1  0.51592000  0.11308000  0.78503000  1.0
  N  N109  1  0.48408000  0.88693000  0.21497000  1.0
  N  N110  1  0.70553000  0.88164000  0.60202000  1.0
  N  N111  1  0.29447000  0.11836000  0.39798000  1.0
  N  N112  1  0.08345000  0.73495000  0.85844000  1.0
  N  N113  1  0.91655000  0.26506000  0.14156000  1.0
