# generated using pymatgen
data_AlH4C12SCl2O5
_symmetry_space_group_name_H-M   'P 1'
_cell_length_a   6.67895000
_cell_length_b   12.77652095
_cell_length_c   17.74490000
_cell_angle_alpha   89.68786418
_cell_angle_beta   79.22880000
_cell_angle_gamma   74.85786982
_symmetry_Int_Tables_number   1
_chemical_formula_structural   AlH4C12SCl2O5
_chemical_formula_sum   'Al2 H8 C24 S2 Cl4 O10'
_cell_volume   1434.41043452
_cell_formula_units_Z   2
loop_
 _symmetry_equiv_pos_site_id
 _symmetry_equiv_pos_as_xyz
  1  'x, y, z'
loop_
 _atom_site_type_symbol
 _atom_site_label
 _atom_site_symmetry_multiplicity
 _atom_site_fract_x
 _atom_site_fract_y
 _atom_site_fract_z
 _atom_site_occupancy
  Al  Al0  1  0.01248000  0.49824000  0.49875000  1.0
  Al  Al1  1  0.51154000  0.49823000  0.50136000  1.0
  H  H2  1  0.35133000  0.37972000  0.44049000  1.0
  H  H3  1  0.67769000  0.62091000  0.55425000  1.0
  H  H4  1  0.80418000  0.53921000  0.72675000  1.0
  H  H5  1  0.71435000  0.55165000  0.87036000  1.0
  H  H6  1  0.46520000  0.42420000  0.73548000  1.0
  H  H7  1  0.52504000  0.58332000  0.27817000  1.0
  H  H8  1  0.19667000  0.45547000  0.26004000  1.0
  H  H9  1  0.24223000  0.44673000  0.11672000  1.0
  C  C10  1  0.85666000  0.30301000  0.49747000  1.0
  C  C11  1  0.82788000  0.51293000  0.36240000  1.0
  C  C12  1  0.16762000  0.69402000  0.50251000  1.0
  C  C13  1  0.18931000  0.48445000  0.63752000  1.0
  C  C14  1  0.13950000  0.48280000  0.72293000  1.0
  C  C15  1  0.92748000  0.51643000  0.76080000  1.0
  C  C16  1  0.87769000  0.52270000  0.84031000  1.0
  C  C17  1  0.03721000  0.49073000  0.88442000  1.0
  C  C18  1  0.24952000  0.45182000  0.84488000  1.0
  C  C19  1  0.30100000  0.45073000  0.76517000  1.0
  C  C20  1  0.98633000  0.49878000  0.96527000  1.0
  C  C21  1  0.94388000  0.50805000  0.03526000  1.0
  C  C22  1  0.91173000  0.51429000  0.11610000  1.0
  C  C23  1  0.70940000  0.55594000  0.16290000  1.0
  C  C24  1  0.68199000  0.55511000  0.24250000  1.0
  C  C25  1  0.85813000  0.51832000  0.27724000  1.0
  C  C26  1  0.06114000  0.48207000  0.23205000  1.0
  C  C27  1  0.08653000  0.47774000  0.15269000  1.0
  C  C28  1  0.91004000  0.88525000  0.53219000  1.0
  C  C29  1  0.11510000  0.11192000  0.46737000  1.0
  C  C30  1  0.10409000  0.81316000  0.50225000  1.0
  C  C31  1  0.92097000  0.18392000  0.49744000  1.0
  C  C32  1  0.11121000  0.00290000  0.48006000  1.0
  C  C33  1  0.91396000  0.99427000  0.51958000  1.0
  S  S34  1  0.29186000  0.87862000  0.45939000  1.0
  S  S35  1  0.73345000  0.11849000  0.54050000  1.0
  Cl  Cl36  1  0.44720000  0.40573000  0.89690000  1.0
  Cl  Cl37  1  0.49404000  0.60794000  0.12033000  1.0
  Cl  Cl38  1  0.69083000  0.85287000  0.58202000  1.0
  Cl  Cl39  1  0.33438000  0.14414000  0.41751000  1.0
  O  O40  1  0.00260000  0.35142000  0.48514000  1.0
  O  O41  1  0.65366000  0.49643000  0.39633000  1.0
  O  O42  1  0.36562000  0.64885000  0.49290000  1.0
  O  O43  1  0.04487000  0.47365000  0.60283000  1.0
  O  O44  1  0.02136000  0.64575000  0.51202000  1.0
  O  O45  1  0.36741000  0.49961000  0.60646000  1.0
  O  O46  1  0.65818000  0.34813000  0.51020000  1.0
  O  O47  1  0.97948000  0.52201000  0.39393000  1.0
  O  O48  1  0.30393000  0.45208000  0.46468000  1.0
  O  O49  1  0.72118000  0.54576000  0.53523000  1.0
