# generated using pymatgen
data_AgH4C4N3O2
_symmetry_space_group_name_H-M   'P 1'
_cell_length_a   6.01521000
_cell_length_b   7.60576000
_cell_length_c   7.60560000
_cell_angle_alpha   61.86590000
_cell_angle_beta   79.42620000
_cell_angle_gamma   79.42800000
_symmetry_Int_Tables_number   1
_chemical_formula_structural   AgH4C4N3O2
_chemical_formula_sum   'Ag2 H8 C8 N6 O4'
_cell_volume   299.74303579
_cell_formula_units_Z   2
loop_
 _symmetry_equiv_pos_site_id
 _symmetry_equiv_pos_as_xyz
  1  'x, y, z'
loop_
 _atom_site_type_symbol
 _atom_site_label
 _atom_site_symmetry_multiplicity
 _atom_site_fract_x
 _atom_site_fract_y
 _atom_site_fract_z
 _atom_site_occupancy
  Ag  Ag0  1  0.25000000  0.04391000  0.95610000  1.0
  Ag  Ag1  1  0.75000000  0.95609000  0.04390000  1.0
  H  H2  1  0.49318000  0.70571000  0.82552000  1.0
  H  H3  1  0.00681000  0.17449000  0.29430000  1.0
  H  H4  1  0.50682000  0.29428000  0.17448000  1.0
  H  H5  1  0.99319000  0.82551000  0.70570000  1.0
  H  H6  1  0.66278000  0.67785000  0.51117000  1.0
  H  H7  1  0.83720000  0.48884000  0.32215000  1.0
  H  H8  1  0.33722000  0.32215000  0.48883000  1.0
  H  H9  1  0.16279000  0.51116000  0.67785000  1.0
  C  C10  1  0.49628000  0.83758000  0.67959000  1.0
  C  C11  1  0.00371000  0.32042000  0.16242000  1.0
  C  C12  1  0.50373000  0.16241000  0.32041000  1.0
  C  C13  1  0.99629000  0.67959000  0.83757000  1.0
  C  C14  1  0.59051000  0.82268000  0.50500000  1.0
  C  C15  1  0.90948000  0.49502000  0.17730000  1.0
  C  C16  1  0.40949000  0.17730000  0.49501000  1.0
  C  C17  1  0.09052000  0.50499000  0.82269000  1.0
  N  N18  1  0.40562000  0.01452000  0.67479000  1.0
  N  N19  1  0.09440000  0.32521000  0.98547000  1.0
  N  N20  1  0.59439000  0.98546000  0.32522000  1.0
  N  N21  1  0.90561000  0.67480000  0.01451000  1.0
  N  N22  1  0.25000000  0.66163000  0.33838000  1.0
  N  N23  1  0.74999000  0.33839000  0.66163000  1.0
  O  O24  1  0.12445000  0.81967000  0.32519000  1.0
  O  O25  1  0.37556000  0.67481000  0.18034000  1.0
  O  O26  1  0.87555000  0.18035000  0.67482000  1.0
  O  O27  1  0.62443000  0.32521000  0.81967000  1.0
