# generated using pymatgen
data_ZnH18C19N4O7
_symmetry_space_group_name_H-M   'P 1'
_cell_length_a   8.80302000
_cell_length_b   9.87350000
_cell_length_c   11.33610000
_cell_angle_alpha   83.37800000
_cell_angle_beta   71.07310000
_cell_angle_gamma   81.96660000
_symmetry_Int_Tables_number   1
_chemical_formula_structural   ZnH18C19N4O7
_chemical_formula_sum   'Zn2 H36 C38 N8 O14'
_cell_volume   920.29748350
_cell_formula_units_Z   2
loop_
 _symmetry_equiv_pos_site_id
 _symmetry_equiv_pos_as_xyz
  1  'x, y, z'
loop_
 _atom_site_type_symbol
 _atom_site_label
 _atom_site_symmetry_multiplicity
 _atom_site_fract_x
 _atom_site_fract_y
 _atom_site_fract_z
 _atom_site_occupancy
  Zn  Zn0  1  0.37412000  0.25514000  0.27596000  1.0
  Zn  Zn1  1  0.62588000  0.74486000  0.72405000  1.0
  H  H2  1  0.55982000  0.41657000  0.09545000  1.0
  H  H3  1  0.44018000  0.58343000  0.90455000  1.0
  H  H4  1  0.45260000  0.35863000  0.02642000  1.0
  H  H5  1  0.54740000  0.64137000  0.97358000  1.0
  H  H6  1  0.61693000  0.37360000  0.31546000  1.0
  H  H7  1  0.38308000  0.62640000  0.68453000  1.0
  H  H8  1  0.63190000  0.21570000  0.38098000  1.0
  H  H9  1  0.36810000  0.78430000  0.61902000  1.0
  H  H10  1  0.89338000  0.85436000  0.38548000  1.0
  H  H11  1  0.10662000  0.14564000  0.61452000  1.0
  H  H12  1  0.59965000  0.08532000  0.04483000  1.0
  H  H13  1  0.40035000  0.91469000  0.95517000  1.0
  H  H14  1  0.68470000  0.83625000  0.00844000  1.0
  H  H15  1  0.31530000  0.16375000  0.99156000  1.0
  H  H16  1  0.46012000  0.74338000  0.40298000  1.0
  H  H17  1  0.53988000  0.25662000  0.59702000  1.0
  H  H18  1  0.14663000  0.04387000  0.28802000  1.0
  H  H19  1  0.85337000  0.95613000  0.71198000  1.0
  H  H20  1  0.77654000  0.98279000  0.25158000  1.0
  H  H21  1  0.22346000  0.01721000  0.74842000  1.0
  H  H22  1  0.93458000  0.91871000  0.12036000  1.0
  H  H23  1  0.06542000  0.08129000  0.87964000  1.0
  H  H24  1  0.81863000  0.19431000  0.07905000  1.0
  H  H25  1  0.18138000  0.80569000  0.92095000  1.0
  H  H26  1  0.92697000  0.41945000  0.04788000  1.0
  H  H27  1  0.07303000  0.58055000  0.95212000  1.0
  H  H28  1  0.15418000  0.44271000  0.12778000  1.0
  H  H29  1  0.84583000  0.55729000  0.87222000  1.0
  H  H30  1  0.27427000  0.36345000  0.53611000  1.0
  H  H31  1  0.72573000  0.63655000  0.46389000  1.0
  H  H32  1  0.13299000  0.57435000  0.64075000  1.0
  H  H33  1  0.86701000  0.42565000  0.35925000  1.0
  H  H34  1  0.04097000  0.77520000  0.51391000  1.0
  H  H35  1  0.95902000  0.22480000  0.48609000  1.0
  H  H36  1  0.27807000  0.54997000  0.18833000  1.0
  H  H37  1  0.72193000  0.45003000  0.81167000  1.0
  C  C38  1  0.57772000  0.76937000  0.20327000  1.0
  C  C39  1  0.42228000  0.23063000  0.79673000  1.0
  C  C40  1  0.32357000  0.00699000  0.45302000  1.0
  C  C41  1  0.67643000  0.99301000  0.54698000  1.0
  C  C42  1  0.43571000  0.95436000  0.33118000  1.0
  C  C43  1  0.56429000  0.04564000  0.66882000  1.0
  C  C44  1  0.56614000  0.00548000  0.12063000  1.0
  C  C45  1  0.43386000  0.99452000  0.87937000  1.0
  C  C46  1  0.61599000  0.86694000  0.10167000  1.0
  C  C47  1  0.38401000  0.13306000  0.89833000  1.0
  C  C48  1  0.49009000  0.81550000  0.32092000  1.0
  C  C49  1  0.50991000  0.18451000  0.67908000  1.0
  C  C50  1  0.62134000  0.61646000  0.19066000  1.0
  C  C51  1  0.37866000  0.38354000  0.80934000  1.0
  C  C52  1  0.09756000  0.12406000  0.23200000  1.0
  C  C53  1  0.90244000  0.87594000  0.76800000  1.0
  C  C54  1  0.97577000  0.09992000  0.18613000  1.0
  C  C55  1  0.02423000  0.90008000  0.81387000  1.0
  C  C56  1  0.90770000  0.96392000  0.21020000  1.0
  C  C57  1  0.09230000  0.03608000  0.78980000  1.0
  C  C58  1  0.91418000  0.20744000  0.11707000  1.0
  C  C59  1  0.08582000  0.79257000  0.88293000  1.0
  C  C60  1  0.97642000  0.33287000  0.09764000  1.0
  C  C61  1  0.02358000  0.66713000  0.90236000  1.0
  C  C62  1  0.10036000  0.34699000  0.14491000  1.0
  C  C63  1  0.89964000  0.65301000  0.85509000  1.0
  C  C64  1  0.23675000  0.45333000  0.48294000  1.0
  C  C65  1  0.76325000  0.54667000  0.51706000  1.0
  C  C66  1  0.15636000  0.57159000  0.54077000  1.0
  C  C67  1  0.84364000  0.42841000  0.45923000  1.0
  C  C68  1  0.10737000  0.68317000  0.46954000  1.0
  C  C69  1  0.89263000  0.31683000  0.53046000  1.0
  C  C70  1  0.14914000  0.67516000  0.34027000  1.0
  C  C71  1  0.85086000  0.32484000  0.65973000  1.0
  C  C72  1  0.10694000  0.78473000  0.24987000  1.0
  C  C73  1  0.89306000  0.21527000  0.75013000  1.0
  C  C74  1  0.23648000  0.55512000  0.28937000  1.0
  C  C75  1  0.76352000  0.44488000  0.71063000  1.0
  N  N76  1  0.47401000  0.04776000  0.23252000  1.0
  N  N77  1  0.52599000  0.95224000  0.76748000  1.0
  N  N78  1  0.16117000  0.24431000  0.21130000  1.0
  N  N79  1  0.83883000  0.75569000  0.78870000  1.0
  N  N80  1  0.27397000  0.44442000  0.35886000  1.0
  N  N81  1  0.72603000  0.55558000  0.64114000  1.0
  N  N82  1  0.96659000  0.86522000  0.29405000  1.0
  N  N83  1  0.03340000  0.13478000  0.70595000  1.0
  O  O84  1  0.49913000  0.33765000  0.09686000  1.0
  O  O85  1  0.50087000  0.66236000  0.90314000  1.0
  O  O86  1  0.26854000  0.13455000  0.45098000  1.0
  O  O87  1  0.73146000  0.86545000  0.54902000  1.0
  O  O88  1  0.28622000  0.92338000  0.54733000  1.0
  O  O89  1  0.71377000  0.07662000  0.45267000  1.0
  O  O90  1  0.62625000  0.57189000  0.08755000  1.0
  O  O91  1  0.37375000  0.42811000  0.91245000  1.0
  O  O92  1  0.64484000  0.54475000  0.28360000  1.0
  O  O93  1  0.35516000  0.45526000  0.71640000  1.0
  O  O94  1  0.58072000  0.28028000  0.32773000  1.0
  O  O95  1  0.41928000  0.71972000  0.67227000  1.0
  O  O96  1  0.19555000  0.79561000  0.13906000  1.0
  O  O97  1  0.80445000  0.20438000  0.86094000  1.0
