# generated using pymatgen
data_LaH8C9NO11
_symmetry_space_group_name_H-M   'P 1'
_cell_length_a   8.48433000
_cell_length_b   9.19955000
_cell_length_c   9.39748000
_cell_angle_alpha   102.59090000
_cell_angle_beta   116.56120000
_cell_angle_gamma   90.00790000
_symmetry_Int_Tables_number   1
_chemical_formula_structural   LaH8C9NO11
_chemical_formula_sum   'La2 H16 C18 N2 O22'
_cell_volume   636.28415264
_cell_formula_units_Z   2
loop_
 _symmetry_equiv_pos_site_id
 _symmetry_equiv_pos_as_xyz
  1  'x, y, z'
loop_
 _atom_site_type_symbol
 _atom_site_label
 _atom_site_symmetry_multiplicity
 _atom_site_fract_x
 _atom_site_fract_y
 _atom_site_fract_z
 _atom_site_occupancy
  La  La0  1  0.35919000  0.70638000  0.68036000  1.0
  La  La1  1  0.64082000  0.29363000  0.31964000  1.0
  H  H2  1  0.27007000  0.05804000  0.08872000  1.0
  H  H3  1  0.72994000  0.94197000  0.91128000  1.0
  H  H4  1  0.19148000  0.57327000  0.85658000  1.0
  H  H5  1  0.80851000  0.42675000  0.14343000  1.0
  H  H6  1  0.05104000  0.50957000  0.67717000  1.0
  H  H7  1  0.94897000  0.49044000  0.32285000  1.0
  H  H8  1  0.66737000  0.51550000  0.70983000  1.0
  H  H9  1  0.33263000  0.48449000  0.29016000  1.0
  H  H10  1  0.77471000  0.63094000  0.88510000  1.0
  H  H11  1  0.22529000  0.36905000  0.11489000  1.0
  H  H12  1  0.45494000  0.73563000  0.05270000  1.0
  H  H13  1  0.54507000  0.26436000  0.94729000  1.0
  H  H14  1  0.63293000  0.68844000  0.05217000  1.0
  H  H15  1  0.36708000  0.31156000  0.94783000  1.0
  H  H16  1  0.90671000  0.75662000  0.69916000  1.0
  H  H17  1  0.09329000  0.24336000  0.30083000  1.0
  C  C18  1  0.13883000  0.99595000  0.85003000  1.0
  C  C19  1  0.86117000  0.00405000  0.14997000  1.0
  C  C20  1  0.96247000  0.98649000  0.70367000  1.0
  C  C21  1  0.03752000  0.01350000  0.29633000  1.0
  C  C22  1  0.85879000  0.84823000  0.64004000  1.0
  C  C23  1  0.14120000  0.15176000  0.35996000  1.0
  C  C24  1  0.69403000  0.82713000  0.50148000  1.0
  C  C25  1  0.30597000  0.17288000  0.49853000  1.0
  C  C26  1  0.64256000  0.94707000  0.42675000  1.0
  C  C27  1  0.35744000  0.05293000  0.57325000  1.0
  C  C28  1  0.89984000  0.10200000  0.62324000  1.0
  C  C29  1  0.10016000  0.89800000  0.37675000  1.0
  C  C30  1  0.99811000  0.25788000  0.68007000  1.0
  C  C31  1  0.00188000  0.74212000  0.31995000  1.0
  C  C32  1  0.47341000  0.93604000  0.27110000  1.0
  C  C33  1  0.52658000  0.06396000  0.72889000  1.0
  C  C34  1  0.58878000  0.67474000  0.43899000  1.0
  C  C35  1  0.41122000  0.32526000  0.56100000  1.0
  N  N36  1  0.74477000  0.07872000  0.48689000  1.0
  N  N37  1  0.25523000  0.92128000  0.51312000  1.0
  O  O38  1  0.25880000  0.92791000  0.83355000  1.0
  O  O39  1  0.74120000  0.07208000  0.16644000  1.0
  O  O40  1  0.14813000  0.06821000  0.98915000  1.0
  O  O41  1  0.85188000  0.93179000  0.01086000  1.0
  O  O42  1  0.13287000  0.29555000  0.81676000  1.0
  O  O43  1  0.86712000  0.70444000  0.18325000  1.0
  O  O44  1  0.93032000  0.34301000  0.57996000  1.0
  O  O45  1  0.06967000  0.65700000  0.42006000  1.0
  O  O46  1  0.43256000  0.06274000  0.23267000  1.0
  O  O47  1  0.56745000  0.93726000  0.76733000  1.0
  O  O48  1  0.38552000  0.81192000  0.18950000  1.0
  O  O49  1  0.61448000  0.18808000  0.81048000  1.0
  O  O50  1  0.44530000  0.65782000  0.44883000  1.0
  O  O51  1  0.55468000  0.34218000  0.55115000  1.0
  O  O52  1  0.66093000  0.57019000  0.38749000  1.0
  O  O53  1  0.33907000  0.42981000  0.61250000  1.0
  O  O54  1  0.12763000  0.60460000  0.75457000  1.0
  O  O55  1  0.87237000  0.39540000  0.24544000  1.0
  O  O56  1  0.68526000  0.62141000  0.77213000  1.0
  O  O57  1  0.31475000  0.37858000  0.22786000  1.0
  O  O58  1  0.50691000  0.69272000  0.97866000  1.0
  O  O59  1  0.49310000  0.30728000  0.02134000  1.0
