# generated using pymatgen
data_NiH28C22S2(N3O2)2
_symmetry_space_group_name_H-M   'P 1'
_cell_length_a   9.73067000
_cell_length_b   11.25480000
_cell_length_c   14.47310000
_cell_angle_alpha   67.13700000
_cell_angle_beta   86.05850000
_cell_angle_gamma   89.97360000
_symmetry_Int_Tables_number   1
_chemical_formula_structural   NiH28C22S2(N3O2)2
_chemical_formula_sum   'Ni2 H56 C44 S4 N12 O8'
_cell_volume   1456.47148086
_cell_formula_units_Z   2
loop_
 _symmetry_equiv_pos_site_id
 _symmetry_equiv_pos_as_xyz
  1  'x, y, z'
loop_
 _atom_site_type_symbol
 _atom_site_label
 _atom_site_symmetry_multiplicity
 _atom_site_fract_x
 _atom_site_fract_y
 _atom_site_fract_z
 _atom_site_occupancy
  Ni  Ni0  1  0.25005000  0.38157000  0.99999000  1.0
  Ni  Ni1  1  0.74995000  0.61843000  0.00001000  1.0
  H  H2  1  0.12962000  0.20953000  0.91333000  1.0
  H  H3  1  0.37046000  0.12302000  0.08673000  1.0
  H  H4  1  0.87038000  0.79047000  0.08667000  1.0
  H  H5  1  0.62954000  0.87697000  0.91327000  1.0
  H  H6  1  0.18207000  0.13095000  0.77681000  1.0
  H  H7  1  0.31817000  0.90806000  0.22324000  1.0
  H  H8  1  0.81792000  0.86905000  0.22319000  1.0
  H  H9  1  0.68184000  0.09194000  0.77676000  1.0
  H  H10  1  0.58458000  0.31738000  0.72951000  1.0
  H  H11  1  0.91549000  0.04728000  0.27056000  1.0
  H  H12  1  0.41542000  0.68263000  0.27049000  1.0
  H  H13  1  0.08452000  0.95272000  0.72944000  1.0
  H  H14  1  0.51583000  0.38374000  0.87134000  1.0
  H  H15  1  0.98403000  0.25528000  0.12860000  1.0
  H  H16  1  0.48417000  0.61627000  0.12866000  1.0
  H  H17  1  0.01598000  0.74473000  0.87140000  1.0
  H  H18  1  0.52656000  0.20908000  0.62861000  1.0
  H  H19  1  0.97352000  0.83811000  0.37134000  1.0
  H  H20  1  0.47344000  0.79092000  0.37139000  1.0
  H  H21  1  0.02648000  0.16189000  0.62866000  1.0
  H  H22  1  0.50644000  0.24441000  0.32629000  1.0
  H  H23  1  0.99359000  0.57071000  0.67340000  1.0
  H  H24  1  0.49356000  0.75559000  0.67370000  1.0
  H  H25  1  0.00641000  0.42929000  0.32660000  1.0
  H  H26  1  0.40140000  0.14582000  0.28799000  1.0
  H  H27  1  0.09885000  0.43395000  0.71164000  1.0
  H  H28  1  0.59860000  0.85417000  0.71201000  1.0
  H  H29  1  0.90115000  0.56605000  0.28836000  1.0
  H  H30  1  0.51485000  0.07268000  0.38448000  1.0
  H  H31  1  0.98538000  0.45715000  0.61518000  1.0
  H  H32  1  0.48514000  0.92731000  0.61552000  1.0
  H  H33  1  0.01462000  0.54285000  0.38482000  1.0
  H  H34  1  0.15250000  0.26363000  0.44113000  1.0
  H  H35  1  0.34735000  0.70495000  0.55855000  1.0
  H  H36  1  0.84750000  0.73637000  0.55887000  1.0
  H  H37  1  0.65265000  0.29505000  0.44145000  1.0
  H  H38  1  0.19503000  0.26243000  0.32002000  1.0
  H  H39  1  0.30482000  0.58279000  0.67967000  1.0
  H  H40  1  0.80496000  0.73756000  0.67998000  1.0
  H  H41  1  0.69518000  0.41721000  0.32033000  1.0
  H  H42  1  0.29771000  0.35576000  0.36419000  1.0
  H  H43  1  0.20193000  0.72019000  0.63537000  1.0
  H  H44  1  0.70228000  0.64424000  0.63580000  1.0
  H  H45  1  0.79807000  0.27981000  0.36463000  1.0
  H  H46  1  0.31944000  0.94070000  0.50172000  1.0
  H  H47  1  0.18093000  0.44220000  0.49813000  1.0
  H  H48  1  0.68056000  0.05930000  0.49829000  1.0
  H  H49  1  0.81908000  0.55780000  0.50187000  1.0
  H  H50  1  0.20583000  0.01112000  0.40548000  1.0
  H  H51  1  0.29438000  0.41666000  0.59440000  1.0
  H  H52  1  0.79417000  0.98887000  0.59452000  1.0
  H  H53  1  0.70562000  0.58334000  0.40560000  1.0
  H  H54  1  0.16688000  0.01635000  0.52555000  1.0
  H  H55  1  0.33341000  0.54165000  0.47426000  1.0
  H  H56  1  0.83312000  0.98365000  0.47445000  1.0
  H  H57  1  0.66659000  0.45834000  0.52575000  1.0
  C  C58  1  0.53652000  0.37152000  0.08873000  1.0
  C  C59  1  0.96344000  0.46006000  0.91140000  1.0
  C  C60  1  0.46346000  0.62849000  0.91126000  1.0
  C  C61  1  0.03655000  0.53993000  0.08860000  1.0
  C  C62  1  0.22984000  0.23047000  0.87093000  1.0
  C  C63  1  0.27023000  0.10161000  0.12911000  1.0
  C  C64  1  0.77016000  0.76953000  0.12907000  1.0
  C  C65  1  0.72978000  0.89839000  0.87089000  1.0
  C  C66  1  0.25880000  0.18743000  0.79411000  1.0
  C  C67  1  0.24134000  0.98182000  0.20594000  1.0
  C  C68  1  0.74119000  0.81257000  0.20589000  1.0
  C  C69  1  0.75866000  0.01818000  0.79406000  1.0
  C  C70  1  0.38742000  0.22086000  0.73885000  1.0
  C  C71  1  0.11270000  0.96004000  0.26118000  1.0
  C  C72  1  0.61257000  0.77914000  0.26115000  1.0
  C  C73  1  0.88730000  0.03996000  0.73882000  1.0
  C  C74  1  0.48280000  0.29049000  0.76894000  1.0
  C  C75  1  0.01727000  0.05976000  0.23110000  1.0
  C  C76  1  0.51720000  0.70952000  0.23106000  1.0
  C  C77  1  0.98273000  0.94024000  0.76890000  1.0
  C  C78  1  0.44466000  0.32829000  0.84741000  1.0
  C  C79  1  0.05529000  0.17593000  0.15258000  1.0
  C  C80  1  0.55534000  0.67171000  0.15259000  1.0
  C  C81  1  0.94471000  0.82407000  0.84742000  1.0
  C  C82  1  0.33603000  0.16532000  0.59570000  1.0
  C  C83  1  0.16402000  0.76117000  0.40412000  1.0
  C  C84  1  0.66397000  0.83468000  0.40430000  1.0
  C  C85  1  0.83598000  0.23883000  0.59588000  1.0
  C  C86  1  0.33033000  0.14993000  0.43049000  1.0
  C  C87  1  0.16974000  0.58047000  0.56916000  1.0
  C  C88  1  0.66967000  0.85007000  0.56951000  1.0
  C  C89  1  0.83026000  0.41953000  0.43084000  1.0
  C  C90  1  0.44610000  0.15352000  0.35306000  1.0
  C  C91  1  0.05404000  0.50663000  0.64659000  1.0
  C  C92  1  0.55390000  0.84648000  0.64694000  1.0
  C  C93  1  0.94596000  0.49337000  0.35341000  1.0
  C  C94  1  0.23797000  0.26473000  0.38753000  1.0
  C  C95  1  0.26187000  0.65247000  0.61211000  1.0
  C  C96  1  0.76203000  0.73527000  0.61247000  1.0
  C  C97  1  0.73813000  0.34753000  0.38789000  1.0
  C  C98  1  0.25061000  0.02126000  0.46956000  1.0
  C  C99  1  0.24965000  0.49075000  0.53023000  1.0
  C  C100  1  0.74939000  0.97874000  0.53044000  1.0
  C  C101  1  0.75035000  0.50925000  0.46977000  1.0
  S  S102  1  0.68379000  0.39617000  0.12649000  1.0
  S  S103  1  0.81602000  0.52220000  0.87374000  1.0
  S  S104  1  0.31620000  0.60384000  0.87350000  1.0
  S  S105  1  0.18398000  0.47779000  0.12626000  1.0
  N  N106  1  0.43028000  0.35688000  0.05890000  1.0
  N  N107  1  0.06989000  0.41586000  0.94110000  1.0
  N  N108  1  0.56972000  0.64312000  0.94110000  1.0
  N  N109  1  0.93012000  0.58413000  0.05890000  1.0
  N  N110  1  0.31891000  0.30136000  0.89685000  1.0
  N  N111  1  0.18105000  0.19838000  0.10314000  1.0
  N  N112  1  0.68109000  0.69864000  0.10315000  1.0
  N  N113  1  0.81895000  0.80162000  0.89686000  1.0
  N  N114  1  0.42510000  0.19139000  0.65574000  1.0
  N  N115  1  0.07501000  0.84751000  0.34425000  1.0
  N  N116  1  0.57490000  0.80861000  0.34426000  1.0
  N  N117  1  0.92500000  0.15249000  0.65575000  1.0
  O  O118  1  0.21050000  0.14750000  0.61554000  1.0
  O  O119  1  0.28958000  0.76319000  0.38433000  1.0
  O  O120  1  0.78950000  0.85250000  0.38445000  1.0
  O  O121  1  0.71042000  0.23681000  0.61568000  1.0
  O  O122  1  0.40653000  0.16309000  0.51319000  1.0
  O  O123  1  0.09350000  0.67617000  0.48643000  1.0
  O  O124  1  0.59347000  0.83692000  0.48681000  1.0
  O  O125  1  0.90650000  0.32383000  0.51357000  1.0
