# generated using pymatgen
data_CdH36C50SN4O7
_symmetry_space_group_name_H-M   'P 1'
_cell_length_a   9.98308000
_cell_length_b   10.51960000
_cell_length_c   20.93250000
_cell_angle_alpha   90.78680000
_cell_angle_beta   99.27030000
_cell_angle_gamma   100.83200000
_symmetry_Int_Tables_number   1
_chemical_formula_structural   CdH36C50SN4O7
_chemical_formula_sum   'Cd2 H72 C100 S2 N8 O14'
_cell_volume   2128.72485801
_cell_formula_units_Z   2
loop_
 _symmetry_equiv_pos_site_id
 _symmetry_equiv_pos_as_xyz
  1  'x, y, z'
loop_
 _atom_site_type_symbol
 _atom_site_label
 _atom_site_symmetry_multiplicity
 _atom_site_fract_x
 _atom_site_fract_y
 _atom_site_fract_z
 _atom_site_occupancy
  Cd  Cd0  1  0.53162000  0.94763000  0.11615000  1.0
  Cd  Cd1  1  0.46838000  0.05237000  0.88385000  1.0
  H  H2  1  0.39836000  0.09100000  0.22461000  1.0
  H  H3  1  0.60164000  0.90899000  0.77538000  1.0
  H  H4  1  0.23759000  0.03302000  0.30341000  1.0
  H  H5  1  0.76241000  0.96697000  0.69659000  1.0
  H  H6  1  0.28852000  0.63582000  0.27978000  1.0
  H  H7  1  0.71147000  0.36417000  0.72022000  1.0
  H  H8  1  0.44530000  0.71274000  0.20132000  1.0
  H  H9  1  0.55469000  0.28726000  0.79867000  1.0
  H  H10  1  0.36733000  0.12182000  0.62234000  1.0
  H  H11  1  0.63267000  0.87818000  0.37765000  1.0
  H  H12  1  0.56475000  0.05329000  0.58451000  1.0
  H  H13  1  0.43525000  0.94671000  0.41549000  1.0
  H  H14  1  0.30492000  0.67470000  0.53800000  1.0
  H  H15  1  0.69508000  0.32530000  0.46200000  1.0
  H  H16  1  0.11655000  0.76181000  0.57356000  1.0
  H  H17  1  0.88346000  0.23819000  0.42644000  1.0
  H  H18  1  0.71352000  0.01890000  0.26638000  1.0
  H  H19  1  0.28649000  0.98111000  0.73363000  1.0
  H  H20  1  0.93531000  0.15016000  0.31796000  1.0
  H  H21  1  0.06470000  0.84985000  0.68205000  1.0
  H  H22  1  0.05647000  0.17344000  0.12768000  1.0
  H  H23  1  0.94353000  0.82656000  0.87233000  1.0
  H  H24  1  0.83166000  0.02916000  0.08577000  1.0
  H  H25  1  0.16834000  0.97084000  0.91424000  1.0
  H  H26  1  0.06746000  0.88820000  0.10304000  1.0
  H  H27  1  0.93254000  0.11180000  0.89696000  1.0
  H  H28  1  0.89897000  0.82022000  0.17548000  1.0
  H  H29  1  0.10104000  0.17977000  0.82451000  1.0
  H  H30  1  0.03025000  0.44997000  0.18321000  1.0
  H  H31  1  0.96975000  0.55003000  0.81679000  1.0
  H  H32  1  0.19363000  0.53541000  0.11029000  1.0
  H  H33  1  0.80637000  0.46458000  0.88972000  1.0
  H  H34  1  0.78826000  0.59623000  0.99950000  1.0
  H  H35  1  0.21173000  0.40377000  0.00050000  1.0
  H  H36  1  0.76277000  0.34053000  0.00604000  1.0
  H  H37  1  0.23722000  0.65947000  0.99395000  1.0
  H  H38  1  0.32541000  0.41463000  0.39879000  1.0
  H  H39  1  0.67459000  0.58538000  0.60122000  1.0
  H  H40  1  0.09344000  0.30036000  0.34818000  1.0
  H  H41  1  0.90657000  0.69964000  0.65182000  1.0
  H  H42  1  0.25121000  0.24536000  0.17096000  1.0
  H  H43  1  0.74880000  0.75465000  0.82905000  1.0
  H  H44  1  0.47651000  0.36258000  0.21995000  1.0
  H  H45  1  0.52349000  0.63743000  0.78005000  1.0
  H  H46  1  0.60332000  0.68807000  0.30512000  1.0
  H  H47  1  0.39668000  0.31194000  0.69488000  1.0
  H  H48  1  0.77882000  0.76618000  0.23709000  1.0
  H  H49  1  0.22118000  0.23382000  0.76290000  1.0
  H  H50  1  0.88658000  0.38686000  0.23723000  1.0
  H  H51  1  0.11342000  0.61314000  0.76277000  1.0
  H  H52  1  0.70926000  0.31068000  0.30459000  1.0
  H  H53  1  0.29074000  0.68932000  0.69542000  1.0
  H  H54  1  0.04091000  0.94232000  0.33141000  1.0
  H  H55  1  0.95909000  0.05767000  0.66859000  1.0
  H  H56  1  0.88725000  0.87351000  0.40917000  1.0
  H  H57  1  0.11274000  0.12649000  0.59084000  1.0
  H  H58  1  0.07928000  0.54111000  0.44944000  1.0
  H  H59  1  0.92072000  0.45889000  0.55056000  1.0
  H  H60  1  0.23901000  0.61473000  0.37237000  1.0
  H  H61  1  0.76098000  0.38526000  0.62763000  1.0
  H  H62  1  0.92195000  0.88003000  0.54454000  1.0
  H  H63  1  0.07806000  0.11997000  0.45546000  1.0
  H  H64  1  0.73139000  0.96436000  0.58027000  1.0
  H  H65  1  0.26861000  0.03564000  0.41973000  1.0
  H  H66  1  0.43718000  0.64467000  0.47714000  1.0
  H  H67  1  0.56282000  0.35534000  0.52286000  1.0
  H  H68  1  0.62899000  0.56003000  0.44180000  1.0
  H  H69  1  0.37101000  0.43998000  0.55820000  1.0
  H  H70  1  0.25947000  0.82417000  0.06803000  1.0
  H  H71  1  0.74054000  0.17582000  0.93196000  1.0
  H  H72  1  0.33446000  0.88865000  0.01055000  1.0
  H  H73  1  0.66555000  0.11133000  0.98945000  1.0
  C  C74  1  0.37117000  0.99145000  0.23895000  1.0
  C  C75  1  0.62882000  0.00854000  0.76105000  1.0
  C  C76  1  0.28106000  0.95748000  0.28278000  1.0
  C  C77  1  0.71893000  0.04251000  0.71722000  1.0
  C  C78  1  0.24869000  0.82784000  0.30002000  1.0
  C  C79  1  0.75130000  0.17215000  0.69997000  1.0
  C  C80  1  0.31143000  0.73871000  0.27073000  1.0
  C  C81  1  0.68856000  0.26129000  0.72927000  1.0
  C  C82  1  0.39914000  0.78008000  0.22684000  1.0
  C  C83  1  0.60085000  0.21991000  0.77315000  1.0
  C  C84  1  0.35652000  0.02266000  0.60302000  1.0
  C  C85  1  0.64348000  0.97734000  0.39698000  1.0
  C  C86  1  0.46849000  0.98344000  0.58211000  1.0
  C  C87  1  0.53150000  0.01656000  0.41789000  1.0
  C  C88  1  0.45443000  0.85635000  0.55686000  1.0
  C  C89  1  0.54557000  0.14365000  0.44314000  1.0
  C  C90  1  0.32438000  0.77568000  0.55506000  1.0
  C  C91  1  0.67562000  0.22432000  0.44495000  1.0
  C  C92  1  0.21805000  0.82453000  0.57603000  1.0
  C  C93  1  0.78194000  0.17547000  0.42398000  1.0
  C  C94  1  0.79325000  0.05417000  0.23733000  1.0
  C  C95  1  0.20675000  0.94584000  0.76267000  1.0
  C  C96  1  0.91823000  0.13053000  0.26583000  1.0
  C  C97  1  0.08177000  0.86947000  0.73417000  1.0
  C  C98  1  0.01848000  0.17841000  0.22741000  1.0
  C  C99  1  0.98153000  0.82160000  0.77260000  1.0
  C  C100  1  0.98518000  0.14120000  0.16104000  1.0
  C  C101  1  0.01482000  0.85880000  0.83896000  1.0
  C  C102  1  0.85912000  0.06176000  0.13669000  1.0
  C  C103  1  0.14088000  0.93824000  0.86332000  1.0
  C  C104  1  0.05605000  0.79141000  0.12221000  1.0
  C  C105  1  0.94396000  0.20859000  0.87778000  1.0
  C  C106  1  0.96237000  0.75268000  0.16378000  1.0
  C  C107  1  0.03763000  0.24732000  0.83622000  1.0
  C  C108  1  0.94872000  0.62785000  0.18793000  1.0
  C  C109  1  0.05128000  0.37215000  0.81207000  1.0
  C  C110  1  0.03365000  0.54837000  0.16727000  1.0
  C  C111  1  0.96635000  0.45163000  0.83273000  1.0
  C  C112  1  0.12535000  0.59542000  0.12576000  1.0
  C  C113  1  0.87464000  0.40458000  0.87424000  1.0
  C  C114  1  0.62599000  0.72171000  0.07637000  1.0
  C  C115  1  0.37401000  0.27830000  0.92363000  1.0
  C  C116  1  0.64301000  0.58629000  0.06665000  1.0
  C  C117  1  0.35699000  0.41371000  0.93335000  1.0
  C  C118  1  0.72320000  0.53529000  0.02861000  1.0
  C  C119  1  0.27679000  0.46471000  0.97139000  1.0
  C  C120  1  0.70933000  0.39958000  0.03236000  1.0
  C  C121  1  0.29067000  0.60042000  0.96763000  1.0
  C  C122  1  0.61924000  0.34890000  0.07386000  1.0
  C  C123  1  0.38075000  0.65110000  0.92614000  1.0
  C  C124  1  0.57750000  0.21408000  0.09210000  1.0
  C  C125  1  0.42250000  0.78592000  0.90790000  1.0
  C  C126  1  0.41583000  0.39537000  0.31317000  1.0
  C  C127  1  0.58418000  0.60463000  0.68683000  1.0
  C  C128  1  0.30654000  0.37861000  0.34848000  1.0
  C  C129  1  0.69347000  0.62139000  0.65153000  1.0
  C  C130  1  0.17673000  0.31229000  0.31967000  1.0
  C  C131  1  0.82328000  0.68771000  0.68033000  1.0
  C  C132  1  0.15233000  0.26006000  0.25559000  1.0
  C  C133  1  0.84768000  0.73995000  0.74441000  1.0
  C  C134  1  0.26286000  0.28377000  0.22056000  1.0
  C  C135  1  0.73715000  0.71623000  0.77944000  1.0
  C  C136  1  0.39321000  0.35090000  0.24839000  1.0
  C  C137  1  0.60680000  0.64910000  0.75161000  1.0
  C  C138  1  0.64742000  0.49602000  0.30861000  1.0
  C  C139  1  0.35258000  0.50399000  0.69139000  1.0
  C  C140  1  0.66799000  0.62401000  0.29047000  1.0
  C  C141  1  0.33201000  0.37600000  0.70953000  1.0
  C  C142  1  0.76766000  0.66682000  0.25227000  1.0
  C  C143  1  0.23235000  0.33318000  0.74773000  1.0
  C  C144  1  0.84848000  0.58321000  0.23171000  1.0
  C  C145  1  0.15153000  0.41680000  0.76829000  1.0
  C  C146  1  0.82746000  0.45538000  0.25246000  1.0
  C  C147  1  0.17254000  0.54463000  0.74755000  1.0
  C  C148  1  0.72778000  0.41110000  0.29066000  1.0
  C  C149  1  0.27222000  0.58891000  0.70934000  1.0
  C  C150  1  0.15466000  0.78596000  0.34650000  1.0
  C  C151  1  0.84533000  0.21403000  0.65350000  1.0
  C  C152  1  0.05381000  0.85613000  0.35828000  1.0
  C  C153  1  0.94618000  0.14386000  0.64172000  1.0
  C  C154  1  0.96424000  0.81606000  0.40191000  1.0
  C  C155  1  0.03576000  0.18394000  0.59809000  1.0
  C  C156  1  0.97478000  0.70239000  0.43442000  1.0
  C  C157  1  0.02522000  0.29761000  0.56559000  1.0
  C  C158  1  0.07353000  0.62970000  0.42351000  1.0
  C  C159  1  0.92647000  0.37030000  0.57649000  1.0
  C  C160  1  0.16215000  0.67180000  0.38019000  1.0
  C  C161  1  0.83784000  0.32819000  0.61981000  1.0
  C  C162  1  0.78639000  0.71273000  0.49247000  1.0
  C  C163  1  0.21362000  0.28727000  0.50753000  1.0
  C  C164  1  0.81553000  0.82839000  0.53007000  1.0
  C  C165  1  0.18447000  0.17162000  0.46993000  1.0
  C  C166  1  0.70680000  0.87532000  0.55004000  1.0
  C  C167  1  0.29319000  0.12468000  0.44996000  1.0
  C  C168  1  0.56890000  0.80934000  0.53326000  1.0
  C  C169  1  0.43110000  0.19066000  0.46674000  1.0
  C  C170  1  0.54294000  0.69612000  0.49320000  1.0
  C  C171  1  0.45706000  0.30389000  0.50680000  1.0
  C  C172  1  0.65030000  0.64755000  0.47300000  1.0
  C  C173  1  0.34970000  0.35245000  0.52701000  1.0
  S  S174  1  0.55210000  0.46799000  0.10720000  1.0
  S  S175  1  0.44791000  0.53201000  0.89280000  1.0
  N  N176  1  0.42964000  0.90469000  0.21117000  1.0
  N  N177  1  0.57035000  0.09529000  0.78883000  1.0
  N  N178  1  0.23143000  0.94629000  0.59994000  1.0
  N  N179  1  0.76857000  0.05371000  0.40006000  1.0
  N  N180  1  0.76322000  0.01964000  0.17399000  1.0
  N  N181  1  0.23677000  0.98037000  0.82601000  1.0
  N  N182  1  0.13773000  0.71532000  0.10322000  1.0
  N  N183  1  0.86228000  0.28467000  0.89678000  1.0
  O  O184  1  0.53988000  0.73492000  0.11516000  1.0
  O  O185  1  0.46013000  0.26509000  0.88484000  1.0
  O  O186  1  0.69164000  0.81263000  0.04903000  1.0
  O  O187  1  0.30837000  0.18738000  0.95097000  1.0
  O  O188  1  0.60721000  0.12314000  0.05803000  1.0
  O  O189  1  0.39280000  0.87686000  0.94196000  1.0
  O  O190  1  0.51725000  0.19126000  0.14069000  1.0
  O  O191  1  0.48275000  0.80873000  0.85930000  1.0
  O  O192  1  0.31330000  0.90671000  0.05455000  1.0
  O  O193  1  0.68671000  0.09328000  0.94545000  1.0
  O  O194  1  0.89048000  0.65161000  0.47780000  1.0
  O  O195  1  0.10953000  0.34839000  0.52220000  1.0
  O  O196  1  0.54388000  0.45504000  0.34590000  1.0
  O  O197  1  0.45612000  0.54497000  0.65410000  1.0
