# generated using pymatgen
data_Zn2H23C33I6N7O8
_symmetry_space_group_name_H-M   'P 1'
_cell_length_a   10.80150000
_cell_length_b   10.85130000
_cell_length_c   14.02070000
_cell_angle_alpha   98.11930000
_cell_angle_beta   93.60450000
_cell_angle_gamma   73.98600000
_symmetry_Int_Tables_number   1
_chemical_formula_structural   Zn2H23C33I6N7O8
_chemical_formula_sum   'Zn2 H23 C33 I6 N7 O8'
_cell_volume   1563.27131080
_cell_formula_units_Z   1
loop_
 _symmetry_equiv_pos_site_id
 _symmetry_equiv_pos_as_xyz
  1  'x, y, z'
loop_
 _atom_site_type_symbol
 _atom_site_label
 _atom_site_symmetry_multiplicity
 _atom_site_fract_x
 _atom_site_fract_y
 _atom_site_fract_z
 _atom_site_occupancy
  Zn  Zn0  1  0.47108000  0.36835000  0.53688000  1.0
  Zn  Zn1  1  0.40426000  0.65049000  0.54055000  1.0
  H  H2  1  0.42306000  0.38203000  0.01954000  1.0
  H  H3  1  0.51111000  0.99930000  0.05262000  1.0
  H  H4  1  0.59206000  0.08426000  0.98967000  1.0
  H  H5  1  0.57289000  0.26047000  0.33202000  1.0
  H  H6  1  0.70933000  0.34730000  0.26536000  1.0
  H  H7  1  0.67861000  0.26367000  0.15258000  1.0
  H  H8  1  0.80979000  0.18973000  0.22940000  1.0
  H  H9  1  0.33832000  0.22955000  0.57930000  1.0
  H  H10  1  0.46221000  0.09040000  0.70198000  1.0
  H  H11  1  0.43357000  0.26228000  0.73023000  1.0
  H  H12  1  0.58619000  0.16727000  0.68804000  1.0
  H  H13  1  0.40958000  0.67267000  0.05897000  1.0
  H  H14  1  0.96190000  0.73562000  0.73045000  1.0
  H  H15  1  0.03581000  0.89638000  0.67474000  1.0
  H  H16  1  0.90494000  0.86861000  0.59791000  1.0
  H  H17  1  0.06689000  0.80013000  0.56051000  1.0
  H  H18  1  0.19305000  0.36237000  0.39929000  1.0
  H  H19  1  0.75791000  0.80517000  0.07926000  1.0
  H  H20  1  0.70009000  0.61958000  0.02863000  1.0
  H  H21  1  0.63518000  0.62819000  0.14401000  1.0
  H  H22  1  0.80031000  0.54905000  0.12389000  1.0
  H  H23  1  0.76267000  0.05161000  0.10490000  1.0
  H  H24  1  0.52077000  0.15648000  0.10362000  1.0
  C  C25  1  0.67781000  0.48500000  0.55018000  1.0
  C  C26  1  0.85359000  0.58458000  0.62181000  1.0
  C  C27  1  0.97611000  0.60787000  0.61257000  1.0
  C  C28  1  0.42059000  0.50608000  0.35427000  1.0
  C  C29  1  0.05762000  0.52611000  0.54322000  1.0
  C  C30  1  0.67779000  0.80350000  0.30096000  1.0
  C  C31  1  0.70488000  0.83954000  0.21357000  1.0
  C  C32  1  0.68174000  0.97472000  0.20279000  1.0
  C  C33  1  0.63642000  0.07221000  0.27885000  1.0
  C  C34  1  0.59129000  0.03477000  0.36227000  1.0
  C  C35  1  0.60564000  0.89996000  0.36920000  1.0
  C  C36  1  0.41665000  0.49260000  0.25041000  1.0
  C  C37  1  0.48060000  0.96517000  0.50315000  1.0
  C  C38  1  0.48504000  0.09481000  0.50692000  1.0
  C  C39  1  0.19373000  0.53502000  0.53962000  1.0
  C  C40  1  0.43578000  0.55350000  0.72476000  1.0
  C  C41  1  0.42814000  0.56626000  0.82841000  1.0
  C  C42  1  0.41582000  0.57900000  0.01585000  1.0
  C  C43  1  0.41814000  0.47578000  0.06209000  1.0
  C  C44  1  0.41560000  0.48458000  0.16264000  1.0
  C  C45  1  0.42135000  0.57168000  0.91558000  1.0
  C  C46  1  0.72048000  0.63127000  0.10665000  1.0
  C  C47  1  0.91630000  0.24720000  0.48909000  1.0
  C  C48  1  0.57358000  0.06501000  0.06155000  1.0
  C  C49  1  0.70990000  0.25125000  0.22800000  1.0
  C  C50  1  0.48244000  0.17690000  0.68170000  1.0
  C  C51  1  0.00450000  0.82481000  0.62270000  1.0
  C  C52  1  0.99859000  0.16722000  0.41880000  1.0
  C  C53  1  0.09361000  0.21508000  0.38138000  1.0
  C  C54  1  0.11238000  0.33215000  0.42175000  1.0
  C  C55  1  0.02778000  0.41433000  0.49210000  1.0
  C  C56  1  0.91613000  0.37992000  0.51629000  1.0
  C  C57  1  0.81802000  0.47929000  0.57035000  1.0
  I  I58  1  0.76045000  0.61952000  0.34362000  1.0
  I  I59  1  0.73085000  0.71988000  0.72361000  1.0
  I  I60  1  0.83422000  0.15926000  0.58465000  1.0
  I  I61  1  0.99168000  0.97619000  0.37305000  1.0
  I  I62  1  0.22117000  0.10897000  0.27240000  1.0
  I  I63  1  0.34404000  0.91881000  0.58849000  1.0
  N  N64  1  0.54368000  0.87189000  0.44158000  1.0
  N  N65  1  0.53914000  0.12517000  0.43451000  1.0
  N  N66  1  0.74963000  0.75487000  0.13397000  1.0
  N  N67  1  0.69632000  0.00137000  0.10740000  1.0
  N  N68  1  0.62577000  0.19985000  0.27792000  1.0
  N  N69  1  0.43735000  0.19956000  0.58169000  1.0
  N  N70  1  0.01452000  0.70886000  0.66920000  1.0
  O  O71  1  0.64776000  0.38339000  0.51059000  1.0
  O  O72  1  0.59816000  0.59519000  0.56759000  1.0
  O  O73  1  0.41879000  0.40686000  0.39334000  1.0
  O  O74  1  0.42646000  0.61600000  0.39685000  1.0
  O  O75  1  0.27686000  0.43781000  0.56754000  1.0
  O  O76  1  0.21831000  0.63154000  0.51185000  1.0
  O  O77  1  0.49796000  0.44387000  0.68360000  1.0
  O  O78  1  0.37892000  0.65341000  0.68476000  1.0
