# generated using pymatgen
data_CuH21C21(NO3)3
_symmetry_space_group_name_H-M   'P 1'
_cell_length_a   6.74177000
_cell_length_b   12.92410000
_cell_length_c   13.32990000
_cell_angle_alpha   97.39940000
_cell_angle_beta   93.60840000
_cell_angle_gamma   98.44100000
_symmetry_Int_Tables_number   1
_chemical_formula_structural   CuH21C21(NO3)3
_chemical_formula_sum   'Cu2 H42 C42 N6 O18'
_cell_volume   1135.33082105
_cell_formula_units_Z   2
loop_
 _symmetry_equiv_pos_site_id
 _symmetry_equiv_pos_as_xyz
  1  'x, y, z'
loop_
 _atom_site_type_symbol
 _atom_site_label
 _atom_site_symmetry_multiplicity
 _atom_site_fract_x
 _atom_site_fract_y
 _atom_site_fract_z
 _atom_site_occupancy
  Cu  Cu0  1  0.38233000  0.75997000  0.21753000  1.0
  Cu  Cu1  1  0.61766000  0.24003000  0.78247000  1.0
  H  H2  1  0.82771000  0.95444000  0.26368000  1.0
  H  H3  1  0.17229000  0.04557000  0.73634000  1.0
  H  H4  1  0.70260000  0.89813000  0.16570000  1.0
  H  H5  1  0.29733000  0.10189000  0.83433000  1.0
  H  H6  1  0.02369000  0.76524000  0.23135000  1.0
  H  H7  1  0.97629000  0.23475000  0.76867000  1.0
  H  H8  1  0.11165000  0.88990000  0.23654000  1.0
  H  H9  1  0.88833000  0.11008000  0.76346000  1.0
  H  H10  1  0.71773000  0.70332000  0.28977000  1.0
  H  H11  1  0.28226000  0.29668000  0.71024000  1.0
  H  H12  1  0.54971000  0.60696000  0.23084000  1.0
  H  H13  1  0.45028000  0.39304000  0.76917000  1.0
  H  H14  1  0.32958000  0.93099000  0.37568000  1.0
  H  H15  1  0.67038000  0.06901000  0.62433000  1.0
  H  H16  1  0.33316000  0.95917000  0.56378000  1.0
  H  H17  1  0.66682000  0.04083000  0.43623000  1.0
  H  H18  1  0.39526000  0.62957000  0.55873000  1.0
  H  H19  1  0.60477000  0.37044000  0.44126000  1.0
  H  H20  1  0.40197000  0.61692000  0.37377000  1.0
  H  H21  1  0.59804000  0.38308000  0.62622000  1.0
  H  H22  1  0.35504000  0.89474000  0.72318000  1.0
  H  H23  1  0.64491000  0.10527000  0.27681000  1.0
  H  H24  1  0.43946000  0.66513000  0.71656000  1.0
  H  H25  1  0.56055000  0.33489000  0.28345000  1.0
  H  H26  1  0.31236000  0.91104000  0.88425000  1.0
  H  H27  1  0.68756000  0.08897000  0.11576000  1.0
  H  H28  1  0.31013000  0.91407000  0.07052000  1.0
  H  H29  1  0.68982000  0.08593000  0.92949000  1.0
  H  H30  1  0.51950000  0.62595000  0.05781000  1.0
  H  H31  1  0.48062000  0.37409000  0.94219000  1.0
  H  H32  1  0.51406000  0.60684000  0.86833000  1.0
  H  H33  1  0.48601000  0.39320000  0.13166000  1.0
  H  H34  1  0.91009000  0.48436000  0.25895000  1.0
  H  H35  1  0.08990000  0.51560000  0.74102000  1.0
  H  H36  1  0.94956000  0.40275000  0.14480000  1.0
  H  H37  1  0.05052000  0.59723000  0.85517000  1.0
  H  H38  1  0.05157000  0.46037000  0.41355000  1.0
  H  H39  1  0.94846000  0.53961000  0.58642000  1.0
  H  H40  1  0.14738000  0.14304000  0.44456000  1.0
  H  H41  1  0.85264000  0.85695000  0.55544000  1.0
  H  H42  1  0.08179000  0.24938000  0.15219000  1.0
  H  H43  1  0.91820000  0.75059000  0.84780000  1.0
  C  C44  1  0.35015000  0.86730000  0.41953000  1.0
  C  C45  1  0.64983000  0.13271000  0.58047000  1.0
  C  C46  1  0.35062000  0.88214000  0.52447000  1.0
  C  C47  1  0.64935000  0.11787000  0.47552000  1.0
  C  C48  1  0.37151000  0.79816000  0.57958000  1.0
  C  C49  1  0.62850000  0.20185000  0.42042000  1.0
  C  C50  1  0.38596000  0.70008000  0.52291000  1.0
  C  C51  1  0.61405000  0.29993000  0.47709000  1.0
  C  C52  1  0.38663000  0.69151000  0.41852000  1.0
  C  C53  1  0.61338000  0.30850000  0.58148000  1.0
  C  C54  1  0.37559000  0.81569000  0.68944000  1.0
  C  C55  1  0.62438000  0.18432000  0.31056000  1.0
  C  C56  1  0.40960000  0.74265000  0.74987000  1.0
  C  C57  1  0.59039000  0.25737000  0.25014000  1.0
  C  C58  1  0.41291000  0.75726000  0.85976000  1.0
  C  C59  1  0.58707000  0.24276000  0.14025000  1.0
  C  C60  1  0.35758000  0.84528000  0.91888000  1.0
  C  C61  1  0.64236000  0.15473000  0.08112000  1.0
  C  C62  1  0.35838000  0.84824000  0.02337000  1.0
  C  C63  1  0.64158000  0.15176000  0.97664000  1.0
  C  C64  1  0.47241000  0.68611000  0.01575000  1.0
  C  C65  1  0.52764000  0.31392000  0.98425000  1.0
  C  C66  1  0.47052000  0.67657000  0.91117000  1.0
  C  C67  1  0.52950000  0.32346000  0.08882000  1.0
  C  C68  1  0.20561000  0.51981000  0.20820000  1.0
  C  C69  1  0.79440000  0.48018000  0.79181000  1.0
  C  C70  1  0.01744000  0.44035000  0.21999000  1.0
  C  C71  1  0.98258000  0.55963000  0.77999000  1.0
  C  C72  1  0.07749000  0.38153000  0.38308000  1.0
  C  C73  1  0.92253000  0.61845000  0.61691000  1.0
  C  C74  1  0.11505000  0.30636000  0.44428000  1.0
  C  C75  1  0.88497000  0.69363000  0.55571000  1.0
  C  C76  1  0.12877000  0.20468000  0.39783000  1.0
  C  C77  1  0.87123000  0.79530000  0.60217000  1.0
  C  C78  1  0.12008000  0.18270000  0.29196000  1.0
  C  C79  1  0.87991000  0.81728000  0.70803000  1.0
  C  C80  1  0.08926000  0.26218000  0.23474000  1.0
  C  C81  1  0.91073000  0.73779000  0.76525000  1.0
  C  C82  1  0.14104000  0.33738000  0.55915000  1.0
  C  C83  1  0.85897000  0.66261000  0.44084000  1.0
  C  C84  1  0.13885000  0.07461000  0.23715000  1.0
  C  C85  1  0.86114000  0.92536000  0.76286000  1.0
  N  N86  1  0.37062000  0.77380000  0.36697000  1.0
  N  N87  1  0.62936000  0.22621000  0.63303000  1.0
  N  N88  1  0.41595000  0.76988000  0.07132000  1.0
  N  N89  1  0.58405000  0.23013000  0.92868000  1.0
  N  N90  1  0.06064000  0.35772000  0.28051000  1.0
  N  N91  1  0.93937000  0.64226000  0.71948000  1.0
  O  O92  1  0.16727000  0.60000000  0.17119000  1.0
  O  O93  1  0.83274000  0.39999000  0.82882000  1.0
  O  O94  1  0.68857000  0.93871000  0.23096000  1.0
  O  O95  1  0.31142000  0.06131000  0.76908000  1.0
  O  O96  1  0.11708000  0.81460000  0.20024000  1.0
  O  O97  1  0.88288000  0.18538000  0.79977000  1.0
  O  O98  1  0.37739000  0.49915000  0.23724000  1.0
  O  O99  1  0.62262000  0.50085000  0.76277000  1.0
  O  O100  1  0.16706000  0.43473000  0.59169000  1.0
  O  O101  1  0.83301000  0.56527000  0.40829000  1.0
  O  O102  1  0.62033000  0.68043000  0.22570000  1.0
  O  O103  1  0.37966000  0.31957000  0.77431000  1.0
  O  O104  1  0.14025000  0.26102000  0.61117000  1.0
  O  O105  1  0.85973000  0.73898000  0.38883000  1.0
  O  O106  1  0.09605000  0.99867000  0.29073000  1.0
  O  O107  1  0.90396000  0.00131000  0.70928000  1.0
  O  O108  1  0.18900000  0.06743000  0.14861000  1.0
  O  O109  1  0.81102000  0.93254000  0.85139000  1.0
