# generated using pymatgen
data_CdH10(CN)12
_symmetry_space_group_name_H-M   'P 1'
_cell_length_a   12.08160000
_cell_length_b   12.92740000
_cell_length_c   13.10687075
_cell_angle_alpha   91.79303351
_cell_angle_beta   117.43090982
_cell_angle_gamma   117.85030000
_symmetry_Int_Tables_number   1
_chemical_formula_structural   CdH10(CN)12
_chemical_formula_sum   'Cd4 H40 C48 N48'
_cell_volume   1525.15949988
_cell_formula_units_Z   4
loop_
 _symmetry_equiv_pos_site_id
 _symmetry_equiv_pos_as_xyz
  1  'x, y, z'
loop_
 _atom_site_type_symbol
 _atom_site_label
 _atom_site_symmetry_multiplicity
 _atom_site_fract_x
 _atom_site_fract_y
 _atom_site_fract_z
 _atom_site_occupancy
  Cd  Cd0  1  0.46128000  0.36910000  0.39813000  1.0
  Cd  Cd1  1  0.19398000  0.13087000  0.10195000  1.0
  Cd  Cd2  1  0.53872000  0.63090000  0.60187000  1.0
  Cd  Cd3  1  0.80602000  0.86913000  0.89805000  1.0
  H  H4  1  0.88387000  0.22041000  0.47112000  1.0
  H  H5  1  0.69214000  0.27939000  0.02910000  1.0
  H  H6  1  0.11613000  0.77959000  0.52888000  1.0
  H  H7  1  0.30786000  0.72061000  0.97090000  1.0
  H  H8  1  0.00137000  0.34644000  0.46152000  1.0
  H  H9  1  0.69342000  0.15346000  0.03875000  1.0
  H  H10  1  0.99863000  0.65356000  0.53848000  1.0
  H  H11  1  0.30658000  0.84654000  0.96125000  1.0
  H  H12  1  0.48788000  0.28892000  0.64378000  1.0
  H  H13  1  0.05530000  0.21101000  0.85635000  1.0
  H  H14  1  0.51212000  0.71108000  0.35622000  1.0
  H  H15  1  0.94470000  0.78899000  0.14365000  1.0
  H  H16  1  0.59195000  0.18164000  0.77902000  1.0
  H  H17  1  0.13145000  0.31820000  0.72104000  1.0
  H  H18  1  0.40805000  0.81836000  0.22098000  1.0
  H  H19  1  0.86855000  0.68180000  0.27896000  1.0
  H  H20  1  0.74620000  0.12440000  0.74420000  1.0
  H  H21  1  0.37764000  0.37522000  0.75582000  1.0
  H  H22  1  0.25380000  0.87560000  0.25580000  1.0
  H  H23  1  0.62236000  0.62478000  0.24418000  1.0
  H  H24  1  0.80918000  0.18945000  0.59331000  1.0
  H  H25  1  0.52640000  0.31026000  0.90681000  1.0
  H  H26  1  0.19082000  0.81055000  0.40669000  1.0
  H  H27  1  0.47360000  0.68974000  0.09319000  1.0
  H  H28  1  0.77232000  0.48567000  0.15242000  1.0
  H  H29  1  0.63429000  0.01427000  0.34798000  1.0
  H  H30  1  0.22768000  0.51433000  0.84758000  1.0
  H  H31  1  0.36571000  0.98573000  0.65202000  1.0
  H  H32  1  0.92910000  0.54054000  0.06390000  1.0
  H  H33  1  0.82480000  0.95942000  0.43631000  1.0
  H  H34  1  0.07089000  0.45946000  0.93610000  1.0
  H  H35  1  0.17520000  0.04058000  0.56368000  1.0
  H  H36  1  0.13731000  0.50346000  0.14986000  1.0
  H  H37  1  0.98402000  0.99655000  0.35019000  1.0
  H  H38  1  0.86269000  0.49654000  0.85014000  1.0
  H  H39  1  0.01599000  0.00345000  0.64981000  1.0
  H  H40  1  0.18138000  0.41801000  0.32291000  1.0
  H  H41  1  0.94028000  0.08196000  0.17712000  1.0
  H  H42  1  0.81862000  0.58199000  0.67709000  1.0
  H  H43  1  0.05973000  0.91804000  0.82288000  1.0
  C  C44  1  0.56027000  0.26570000  0.63607000  1.0
  C  C45  1  0.15863000  0.23424000  0.86410000  1.0
  C  C46  1  0.43974000  0.73430000  0.36394000  1.0
  C  C47  1  0.84136000  0.76576000  0.13589000  1.0
  C  C48  1  0.61684000  0.20540000  0.70993000  1.0
  C  C49  1  0.20163000  0.29442000  0.79017000  1.0
  C  C50  1  0.38316000  0.79460000  0.29007000  1.0
  C  C51  1  0.79837000  0.70558000  0.20983000  1.0
  C  C52  1  0.70494000  0.17590000  0.69211000  1.0
  C  C53  1  0.33695000  0.32376000  0.80791000  1.0
  C  C54  1  0.29506000  0.82411000  0.30789000  1.0
  C  C55  1  0.66306000  0.67624000  0.19209000  1.0
  C  C56  1  0.74027000  0.21242000  0.60673000  1.0
  C  C57  1  0.42108000  0.28723000  0.89333000  1.0
  C  C58  1  0.25972000  0.78757000  0.39327000  1.0
  C  C59  1  0.57892000  0.71277000  0.10667000  1.0
  C  C60  1  0.68391000  0.27672000  0.53965000  1.0
  C  C61  1  0.36755000  0.22306000  0.96051000  1.0
  C  C62  1  0.31609000  0.72328000  0.46035000  1.0
  C  C63  1  0.63245000  0.77694000  0.03949000  1.0
  C  C64  1  0.71640000  0.32492000  0.45085000  1.0
  C  C65  1  0.44059000  0.17491000  0.04942000  1.0
  C  C66  1  0.28360000  0.67508000  0.54915000  1.0
  C  C67  1  0.55941000  0.82509000  0.95058000  1.0
  C  C68  1  0.80880000  0.39343000  0.33927000  1.0
  C  C69  1  0.57594000  0.10633000  0.16098000  1.0
  C  C70  1  0.19120000  0.60657000  0.66073000  1.0
  C  C71  1  0.42406000  0.89367000  0.83902000  1.0
  C  C72  1  0.89872000  0.42652000  0.28595000  1.0
  C  C73  1  0.68614000  0.07333000  0.21432000  1.0
  C  C74  1  0.10127000  0.57348000  0.71404000  1.0
  C  C75  1  0.31386000  0.92667000  0.78568000  1.0
  C  C76  1  0.86487000  0.47324000  0.18805000  1.0
  C  C77  1  0.70356000  0.02665000  0.31226000  1.0
  C  C78  1  0.13513000  0.52676000  0.81195000  1.0
  C  C79  1  0.29644000  0.97336000  0.68774000  1.0
  C  C80  1  0.95244000  0.50319000  0.13921000  1.0
  C  C81  1  0.81008000  0.99674000  0.36100000  1.0
  C  C82  1  0.04756000  0.49680000  0.86079000  1.0
  C  C83  1  0.18992000  0.00326000  0.63900000  1.0
  C  C84  1  0.06732000  0.48249000  0.18647000  1.0
  C  C85  1  0.89832000  0.01744000  0.31364000  1.0
  C  C86  1  0.93268000  0.51751000  0.81353000  1.0
  C  C87  1  0.10169000  0.98256000  0.68636000  1.0
  C  C88  1  0.09223000  0.43496000  0.28312000  1.0
  C  C89  1  0.87404000  0.06501000  0.21702000  1.0
  C  C90  1  0.90777000  0.56504000  0.71688000  1.0
  C  C91  1  0.12596000  0.93499000  0.78298000  1.0
  N  N92  1  0.64171000  0.36784000  0.37505000  1.0
  N  N93  1  0.39878000  0.13205000  0.12526000  1.0
  N  N94  1  0.35829000  0.63215000  0.62495000  1.0
  N  N95  1  0.60122000  0.86795000  0.87474000  1.0
  N  N96  1  0.69853000  0.41139000  0.30670000  1.0
  N  N97  1  0.48030000  0.08843000  0.19357000  1.0
  N  N98  1  0.30147000  0.58861000  0.69330000  1.0
  N  N99  1  0.51970000  0.91158000  0.80643000  1.0
  N  N100  1  0.82273000  0.33866000  0.42970000  1.0
  N  N101  1  0.55427000  0.16110000  0.07054000  1.0
  N  N102  1  0.17726000  0.66134000  0.57030000  1.0
  N  N103  1  0.44573000  0.83890000  0.92946000  1.0
  N  N104  1  0.93310000  0.31423000  0.49550000  1.0
  N  N105  1  0.62328000  0.18557000  0.00474000  1.0
  N  N106  1  0.06690000  0.68577000  0.50450000  1.0
  N  N107  1  0.37672000  0.81443000  0.99526000  1.0
  N  N108  1  0.59204000  0.30000000  0.55296000  1.0
  N  N109  1  0.23913000  0.19988000  0.94720000  1.0
  N  N110  1  0.40796000  0.70000000  0.44704000  1.0
  N  N111  1  0.76087000  0.80012000  0.05280000  1.0
  N  N112  1  0.01184000  0.40913000  0.33372000  1.0
  N  N113  1  0.76891000  0.09084000  0.16654000  1.0
  N  N114  1  0.98816000  0.59087000  0.66628000  1.0
  N  N115  1  0.23110000  0.90916000  0.83346000  1.0
  N  N116  1  0.38472000  0.41305000  0.51746000  1.0
  N  N117  1  0.95421000  0.08701000  0.98255000  1.0
  N  N118  1  0.61528000  0.58695000  0.48254000  1.0
  N  N119  1  0.04579000  0.91299000  0.01745000  1.0
  N  N120  1  0.27496000  0.34153000  0.51715000  1.0
  N  N121  1  0.91620000  0.15848000  0.98287000  1.0
  N  N122  1  0.72504000  0.65847000  0.48285000  1.0
  N  N123  1  0.08380000  0.84152000  0.01713000  1.0
  N  N124  1  0.17015000  0.27247000  0.51791000  1.0
  N  N125  1  0.87958000  0.22747000  0.98210000  1.0
  N  N126  1  0.82985000  0.72753000  0.48209000  1.0
  N  N127  1  0.12042000  0.77252000  0.01790000  1.0
  N  N128  1  0.30615000  0.34607000  0.19758000  1.0
  N  N129  1  0.26247000  0.15401000  0.30254000  1.0
  N  N130  1  0.69385000  0.65393000  0.80242000  1.0
  N  N131  1  0.73753000  0.84599000  0.69746000  1.0
  N  N132  1  0.30831000  0.42412000  0.14950000  1.0
  N  N133  1  0.23468000  0.07594000  0.35059000  1.0
  N  N134  1  0.69169000  0.57588000  0.85050000  1.0
  N  N135  1  0.76532000  0.92406000  0.64941000  1.0
  N  N136  1  0.30741000  0.49897000  0.10197000  1.0
  N  N137  1  0.20647000  0.00106000  0.39810000  1.0
  N  N138  1  0.69259000  0.50103000  0.89803000  1.0
  N  N139  1  0.79353000  0.99894000  0.60190000  1.0
