# generated using pymatgen
data_H10PbC22N2(OF3)4
_symmetry_space_group_name_H-M   'P 1'
_cell_length_a   9.41325000
_cell_length_b   12.43610000
_cell_length_c   12.43680000
_cell_angle_alpha   60.13700000
_cell_angle_beta   71.73860000
_cell_angle_gamma   71.74090000
_symmetry_Int_Tables_number   1
_chemical_formula_structural   H10PbC22N2(OF3)4
_chemical_formula_sum   'H20 Pb2 C44 N4 O8 F24'
_cell_volume   1176.92718415
_cell_formula_units_Z   2
loop_
 _symmetry_equiv_pos_site_id
 _symmetry_equiv_pos_as_xyz
  1  'x, y, z'
loop_
 _atom_site_type_symbol
 _atom_site_label
 _atom_site_symmetry_multiplicity
 _atom_site_fract_x
 _atom_site_fract_y
 _atom_site_fract_z
 _atom_site_occupancy
  H  H0  1  0.89277000  0.03626000  0.38718000  1.0
  H  H1  1  0.60723000  0.61282000  0.96374000  1.0
  H  H2  1  0.10723000  0.96374000  0.61282000  1.0
  H  H3  1  0.39276000  0.38718000  0.03626000  1.0
  H  H4  1  0.37498000  0.02073000  0.21769000  1.0
  H  H5  1  0.12501000  0.78231000  0.97927000  1.0
  H  H6  1  0.62501000  0.97927000  0.78231000  1.0
  H  H7  1  0.87498000  0.21769000  0.02073000  1.0
  H  H8  1  0.43586000  0.90305000  0.43399000  1.0
  H  H9  1  0.06414000  0.56601000  0.09695000  1.0
  H  H10  1  0.56414000  0.09695000  0.56601000  1.0
  H  H11  1  0.93586000  0.43399000  0.90304000  1.0
  H  H12  1  0.39167000  0.68002000  0.56825000  1.0
  H  H13  1  0.10832000  0.43175000  0.31999000  1.0
  H  H14  1  0.60833000  0.31999000  0.43176000  1.0
  H  H15  1  0.89168000  0.56825000  0.68001000  1.0
  H  H16  1  0.30314000  0.49891000  0.59091000  1.0
  H  H17  1  0.19686000  0.40909000  0.50109000  1.0
  H  H18  1  0.69686000  0.50109000  0.40909000  1.0
  H  H19  1  0.80314000  0.59091000  0.49891000  1.0
  Pb  Pb20  1  0.25000000  0.99415000  0.00584000  1.0
  Pb  Pb21  1  0.75000000  0.00585000  0.99416000  1.0
  C  C22  1  0.91757000  0.97421000  0.24878000  1.0
  C  C23  1  0.58243000  0.75122000  0.02580000  1.0
  C  C24  1  0.08243000  0.02579000  0.75122000  1.0
  C  C25  1  0.41758000  0.24879000  0.97420000  1.0
  C  C26  1  0.94915000  0.04686000  0.29264000  1.0
  C  C27  1  0.55084000  0.70737000  0.95314000  1.0
  C  C28  1  0.05084000  0.95315000  0.70736000  1.0
  C  C29  1  0.44916000  0.29264000  0.04686000  1.0
  C  C30  1  0.04286000  0.13737000  0.21815000  1.0
  C  C31  1  0.45714000  0.78185000  0.86263000  1.0
  C  C32  1  0.95714000  0.86264000  0.78185000  1.0
  C  C33  1  0.54286000  0.21815000  0.13736000  1.0
  C  C34  1  0.82022000  0.87390000  0.34928000  1.0
  C  C35  1  0.67978000  0.65072000  0.12610000  1.0
  C  C36  1  0.17978000  0.12609000  0.65072000  1.0
  C  C37  1  0.32022000  0.34928000  0.87390000  1.0
  C  C38  1  0.05207000  0.21949000  0.27625000  1.0
  C  C39  1  0.44793000  0.72375000  0.78051000  1.0
  C  C40  1  0.94792000  0.78051000  0.72375000  1.0
  C  C41  1  0.55207000  0.27625000  0.21949000  1.0
  C  C42  1  0.35657000  0.92427000  0.27828000  1.0
  C  C43  1  0.14343000  0.72172000  0.07573000  1.0
  C  C44  1  0.64343000  0.07573000  0.72172000  1.0
  C  C45  1  0.85657000  0.27828000  0.92427000  1.0
  C  C46  1  0.39113000  0.85738000  0.39986000  1.0
  C  C47  1  0.10887000  0.60013000  0.14262000  1.0
  C  C48  1  0.60887000  0.14262000  0.60014000  1.0
  C  C49  1  0.89113000  0.39987000  0.85738000  1.0
  C  C50  1  0.36732000  0.73479000  0.47302000  1.0
  C  C51  1  0.13268000  0.52698000  0.26521000  1.0
  C  C52  1  0.63268000  0.26522000  0.52698000  1.0
  C  C53  1  0.86732000  0.47302000  0.73479000  1.0
  C  C54  1  0.30906000  0.67955000  0.42445000  1.0
  C  C55  1  0.19094000  0.57554000  0.32045000  1.0
  C  C56  1  0.69095000  0.32045000  0.57555000  1.0
  C  C57  1  0.80906000  0.42445000  0.67955000  1.0
  C  C58  1  0.27840000  0.75392000  0.30000000  1.0
  C  C59  1  0.22160000  0.70000000  0.24607000  1.0
  C  C60  1  0.72160000  0.24607000  0.70000000  1.0
  C  C61  1  0.77840000  0.30000000  0.75393000  1.0
  C  C62  1  0.27905000  0.55392000  0.49572000  1.0
  C  C63  1  0.22095000  0.50428000  0.44608000  1.0
  C  C64  1  0.72096000  0.44608000  0.50428000  1.0
  C  C65  1  0.77905000  0.49572000  0.55392000  1.0
  N  N66  1  0.30153000  0.87450000  0.23027000  1.0
  N  N67  1  0.19847000  0.76973000  0.12550000  1.0
  N  N68  1  0.69847000  0.12550000  0.76973000  1.0
  N  N69  1  0.80153000  0.23027000  0.87450000  1.0
  O  O70  1  0.96221000  0.97600000  0.14087000  1.0
  O  O71  1  0.53778000  0.85914000  0.02400000  1.0
  O  O72  1  0.03778000  0.02399000  0.85913000  1.0
  O  O73  1  0.46222000  0.14086000  0.97601000  1.0
  O  O74  1  0.12273000  0.16132000  0.10950000  1.0
  O  O75  1  0.37726000  0.89051000  0.83867000  1.0
  O  O76  1  0.87727000  0.83867000  0.89050000  1.0
  O  O77  1  0.62274000  0.10949000  0.16133000  1.0
  F  F78  1  0.70867000  0.91360000  0.42920000  1.0
  F  F79  1  0.79133000  0.57079000  0.08640000  1.0
  F  F80  1  0.29133000  0.08640000  0.57080000  1.0
  F  F81  1  0.20867000  0.42920000  0.91360000  1.0
  F  F82  1  0.91328000  0.76914000  0.42316000  1.0
  F  F83  1  0.58672000  0.57684000  0.23086000  1.0
  F  F84  1  0.08672000  0.23086000  0.57684000  1.0
  F  F85  1  0.41328000  0.42316000  0.76914000  1.0
  F  F86  1  0.75484000  0.83270000  0.29700000  1.0
  F  F87  1  0.74516000  0.70301000  0.16730000  1.0
  F  F88  1  0.24516000  0.16729000  0.70300000  1.0
  F  F89  1  0.25484000  0.29700000  0.83271000  1.0
  F  F90  1  0.19389000  0.19090000  0.30265000  1.0
  F  F91  1  0.30611000  0.69735000  0.80910000  1.0
  F  F92  1  0.80611000  0.80910000  0.69735000  1.0
  F  F93  1  0.69389000  0.30265000  0.19090000  1.0
  F  F94  1  0.95019000  0.20565000  0.38597000  1.0
  F  F95  1  0.54981000  0.61403000  0.79435000  1.0
  F  F96  1  0.04981000  0.79435000  0.61403000  1.0
  F  F97  1  0.45019000  0.38597000  0.20565000  1.0
  F  F98  1  0.02674000  0.34426000  0.19344000  1.0
  F  F99  1  0.47326000  0.80656000  0.65574000  1.0
  F  F100  1  0.97326000  0.65574000  0.80656000  1.0
  F  F101  1  0.52674000  0.19344000  0.34425000  1.0
