# generated using pymatgen
data_Y2H20C12O13
_symmetry_space_group_name_H-M   'P 1'
_cell_length_a   8.32158000
_cell_length_b   11.38160000
_cell_length_c   11.38150000
_cell_angle_alpha   91.75200000
_cell_angle_beta   107.56900000
_cell_angle_gamma   107.56900000
_symmetry_Int_Tables_number   1
_chemical_formula_structural   Y2H20C12O13
_chemical_formula_sum   'Y4 H40 C24 O26'
_cell_volume   970.93281800
_cell_formula_units_Z   2
loop_
 _symmetry_equiv_pos_site_id
 _symmetry_equiv_pos_as_xyz
  1  'x, y, z'
loop_
 _atom_site_type_symbol
 _atom_site_label
 _atom_site_symmetry_multiplicity
 _atom_site_fract_x
 _atom_site_fract_y
 _atom_site_fract_z
 _atom_site_occupancy
  Y  Y0  1  0.49838000  0.04674000  0.76064000  1.0
  Y  Y1  1  0.99838000  0.76064000  0.04674000  1.0
  Y  Y2  1  0.76071000  0.39680000  0.91516000  1.0
  Y  Y3  1  0.26070000  0.91516000  0.39680000  1.0
  H  H4  1  0.16516000  0.29031000  0.60849000  1.0
  H  H5  1  0.66516000  0.60850000  0.29031000  1.0
  H  H6  1  0.28434000  0.24488000  0.52150000  1.0
  H  H7  1  0.78434000  0.52150000  0.24488000  1.0
  H  H8  1  0.29907000  0.40626000  0.54382000  1.0
  H  H9  1  0.79907000  0.54382000  0.40626000  1.0
  H  H10  1  0.85714000  0.85689000  0.54741000  1.0
  H  H11  1  0.35714000  0.54741000  0.85690000  1.0
  H  H12  1  0.89962000  0.99158000  0.47050000  1.0
  H  H13  1  0.39963000  0.47050000  0.99158000  1.0
  H  H14  1  0.86970000  0.00007000  0.62098000  1.0
  H  H15  1  0.36971000  0.62098000  0.00007000  1.0
  H  H16  1  0.58600000  0.64411000  0.57974000  1.0
  H  H17  1  0.08601000  0.57975000  0.64412000  1.0
  H  H18  1  0.68869000  0.77149000  0.70399000  1.0
  H  H19  1  0.18870000  0.70399000  0.77150000  1.0
  H  H20  1  0.47622000  0.66655000  0.68641000  1.0
  H  H21  1  0.97623000  0.68641000  0.66655000  1.0
  H  H22  1  0.14319000  0.13890000  0.87275000  1.0
  H  H23  1  0.64319000  0.87275000  0.13889000  1.0
  H  H24  1  0.13514000  0.26222000  0.97263000  1.0
  H  H25  1  0.63514000  0.97263000  0.26221000  1.0
  H  H26  1  0.08282000  0.26908000  0.81181000  1.0
  H  H27  1  0.58282000  0.81181000  0.26908000  1.0
  H  H28  1  0.50086000  0.14484000  0.21499000  1.0
  H  H29  1  0.00086000  0.21499000  0.14484000  1.0
  H  H30  1  0.28730000  0.09144000  0.10070000  1.0
  H  H31  1  0.78730000  0.10070000  0.09144000  1.0
  H  H32  1  0.39218000  0.25387000  0.16179000  1.0
  H  H33  1  0.89218000  0.16179000  0.25387000  1.0
  H  H34  1  0.85748000  0.32196000  0.56620000  1.0
  H  H35  1  0.35748000  0.56620000  0.32196000  1.0
  H  H36  1  0.84275000  0.22047000  0.43548000  1.0
  H  H37  1  0.34275000  0.43548000  0.22047000  1.0
  H  H38  1  0.69923000  0.31018000  0.41501000  1.0
  H  H39  1  0.19923000  0.41501000  0.31018000  1.0
  H  H40  1  0.41168000  0.86117000  0.92551000  1.0
  H  H41  1  0.91168000  0.92551000  0.86117000  1.0
  H  H42  1  0.56255000  0.82513000  0.89366000  1.0
  H  H43  1  0.06255000  0.89366000  0.82513000  1.0
  C  C44  1  0.47469000  0.79291000  0.55263000  1.0
  C  C45  1  0.97469000  0.55263000  0.79291000  1.0
  C  C46  1  0.44434000  0.34201000  0.70427000  1.0
  C  C47  1  0.94434000  0.70427000  0.34202000  1.0
  C  C48  1  0.29006000  0.32054000  0.58639000  1.0
  C  C49  1  0.79006000  0.58639000  0.32054000  1.0
  C  C50  1  0.92464000  0.95783000  0.56113000  1.0
  C  C51  1  0.42464000  0.56113000  0.95783000  1.0
  C  C52  1  0.12054000  0.98340000  0.62350000  1.0
  C  C53  1  0.62054000  0.62350000  0.98340000  1.0
  C  C54  1  0.87997000  0.14109000  0.86008000  1.0
  C  C55  1  0.37997000  0.86008000  0.14109000  1.0
  C  C56  1  0.62978000  0.15379000  0.51140000  1.0
  C  C57  1  0.12978000  0.51139000  0.15379000  1.0
  C  C58  1  0.56281000  0.71427000  0.63440000  1.0
  C  C59  1  0.06282000  0.63440000  0.71427000  1.0
  C  C60  1  0.50027000  0.18895000  0.03277000  1.0
  C  C61  1  0.00027000  0.03277000  0.18895000  1.0
  C  C62  1  0.07381000  0.20461000  0.88149000  1.0
  C  C63  1  0.57381000  0.88149000  0.20461000  1.0
  C  C64  1  0.41317000  0.16861000  0.13242000  1.0
  C  C65  1  0.91317000  0.13241000  0.16861000  1.0
  C  C66  1  0.76760000  0.25887000  0.48171000  1.0
  C  C67  1  0.26760000  0.48171000  0.25887000  1.0
  O  O68  1  0.46866000  0.09663000  0.95388000  1.0
  O  O69  1  0.96866000  0.95388000  0.09663000  1.0
  O  O70  1  0.46995000  0.24962000  0.76070000  1.0
  O  O71  1  0.96995000  0.76070000  0.24962000  1.0
  O  O72  1  0.80147000  0.02674000  0.81633000  1.0
  O  O73  1  0.30147000  0.81634000  0.02674000  1.0
  O  O74  1  0.78504000  0.20431000  0.88150000  1.0
  O  O75  1  0.28504000  0.88150000  0.20431000  1.0
  O  O76  1  0.54908000  0.45169000  0.75043000  1.0
  O  O77  1  0.04908000  0.75043000  0.45169000  1.0
  O  O78  1  0.42213000  0.76857000  0.43471000  1.0
  O  O79  1  0.92213000  0.43471000  0.76857000  1.0
  O  O80  1  0.44625000  0.88547000  0.60150000  1.0
  O  O81  1  0.94625000  0.60150000  0.88547000  1.0
  O  O82  1  0.23120000  0.02486000  0.56445000  1.0
  O  O83  1  0.73120000  0.56445000  0.02486000  1.0
  O  O84  1  0.51388000  0.07441000  0.41978000  1.0
  O  O85  1  0.01388000  0.41978000  0.07441000  1.0
  O  O86  1  0.60361000  0.29890000  0.03549000  1.0
  O  O87  1  0.10360000  0.03549000  0.29890000  1.0
  O  O88  1  0.18215000  0.96625000  0.73617000  1.0
  O  O89  1  0.68214000  0.73617000  0.96625000  1.0
  O  O90  1  0.63531000  0.14996000  0.62329000  1.0
  O  O91  1  0.13531000  0.62329000  0.14996000  1.0
  O  O92  1  0.47672000  0.87122000  0.86388000  1.0
  O  O93  1  0.97672000  0.86388000  0.87122000  1.0
