# generated using pymatgen
data_AgH7C6IN
_symmetry_space_group_name_H-M   'P 1'
_cell_length_a   4.68616000
_cell_length_b   9.00659000
_cell_length_c   18.54590000
_cell_angle_alpha   86.37400000
_cell_angle_beta   89.99820000
_cell_angle_gamma   89.99780000
_symmetry_Int_Tables_number   1
_chemical_formula_structural   AgH7C6IN
_chemical_formula_sum   'Ag4 H28 C24 I4 N4'
_cell_volume   781.18725202
_cell_formula_units_Z   4
loop_
 _symmetry_equiv_pos_site_id
 _symmetry_equiv_pos_as_xyz
  1  'x, y, z'
loop_
 _atom_site_type_symbol
 _atom_site_label
 _atom_site_symmetry_multiplicity
 _atom_site_fract_x
 _atom_site_fract_y
 _atom_site_fract_z
 _atom_site_occupancy
  Ag  Ag0  1  0.15436000  0.29155000  0.29337000  1.0
  Ag  Ag1  1  0.65442000  0.20811000  0.20670000  1.0
  Ag  Ag2  1  0.84563000  0.70844000  0.70663000  1.0
  Ag  Ag3  1  0.34560000  0.79189000  0.79330000  1.0
  H  H4  1  0.82272000  0.47823000  0.41195000  1.0
  H  H5  1  0.32307000  0.02158000  0.08803000  1.0
  H  H6  1  0.17727000  0.52176000  0.58804000  1.0
  H  H7  1  0.67696000  0.97845000  0.91197000  1.0
  H  H8  1  0.15636000  0.92552000  0.40764000  1.0
  H  H9  1  0.65617000  0.57412000  0.09237000  1.0
  H  H10  1  0.84367000  0.07445000  0.59237000  1.0
  H  H11  1  0.34377000  0.42588000  0.90763000  1.0
  H  H12  1  0.47893000  0.85904000  0.30806000  1.0
  H  H13  1  0.97878000  0.64049000  0.19197000  1.0
  H  H14  1  0.52112000  0.14093000  0.69195000  1.0
  H  H15  1  0.02115000  0.35948000  0.80803000  1.0
  H  H16  1  0.46219000  0.59916000  0.26589000  1.0
  H  H17  1  0.96215000  0.90039000  0.23415000  1.0
  H  H18  1  0.53783000  0.40081000  0.73412000  1.0
  H  H19  1  0.03786000  0.09959000  0.76585000  1.0
  H  H20  1  0.59957000  0.65837000  0.48818000  1.0
  H  H21  1  0.09961000  0.84145000  0.01186000  1.0
  H  H22  1  0.40042000  0.34163000  0.51182000  1.0
  H  H23  1  0.90041000  0.15863000  0.98813000  1.0
  H  H24  1  0.89246000  0.73946000  0.53192000  1.0
  H  H25  1  0.39241000  0.76043000  0.96807000  1.0
  H  H26  1  0.10754000  0.26054000  0.46808000  1.0
  H  H27  1  0.60764000  0.23965000  0.03192000  1.0
  H  H28  1  0.67757000  0.85109000  0.47194000  1.0
  H  H29  1  0.17762000  0.64874000  0.02803000  1.0
  H  H30  1  0.32246000  0.14891000  0.52805000  1.0
  H  H31  1  0.82235000  0.35132000  0.97194000  1.0
  C  C32  1  0.96847000  0.56583000  0.39131000  1.0
  C  C33  1  0.46872000  0.93392000  0.10870000  1.0
  C  C34  1  0.03152000  0.43416000  0.60869000  1.0
  C  C35  1  0.53130000  0.06609000  0.89130000  1.0
  C  C36  1  0.96504000  0.70630000  0.41964000  1.0
  C  C37  1  0.46512000  0.79347000  0.08039000  1.0
  C  C38  1  0.03498000  0.29369000  0.58037000  1.0
  C  C39  1  0.53486000  0.20657000  0.91962000  1.0
  C  C40  1  0.77251000  0.73994000  0.48088000  1.0
  C  C41  1  0.27257000  0.75989000  0.01913000  1.0
  C  C42  1  0.22748000  0.26006000  0.51913000  1.0
  C  C43  1  0.72745000  0.24017000  0.98086000  1.0
  C  C44  1  0.15200000  0.81344000  0.38848000  1.0
  C  C45  1  0.65192000  0.68623000  0.11154000  1.0
  C  C46  1  0.84805000  0.18653000  0.61153000  1.0
  C  C47  1  0.34802000  0.31378000  0.88846000  1.0
  C  C48  1  0.33201000  0.77685000  0.33257000  1.0
  C  C49  1  0.83195000  0.72273000  0.16745000  1.0
  C  C50  1  0.66802000  0.22313000  0.66744000  1.0
  C  C51  1  0.16801000  0.27724000  0.83255000  1.0
  C  C52  1  0.32351000  0.63320000  0.30912000  1.0
  C  C53  1  0.82354000  0.86638000  0.19091000  1.0
  C  C54  1  0.67650000  0.36678000  0.69088000  1.0
  C  C55  1  0.17642000  0.13360000  0.80909000  1.0
  I  I56  1  0.15991000  0.33972000  0.13934000  1.0
  I  I57  1  0.65978000  0.15997000  0.36074000  1.0
  I  I58  1  0.84008000  0.66030000  0.86066000  1.0
  I  I59  1  0.34021000  0.84001000  0.63926000  1.0
  N  N60  1  0.14336000  0.52929000  0.33778000  1.0
  N  N61  1  0.64355000  0.97039000  0.16224000  1.0
  N  N62  1  0.85666000  0.47069000  0.66222000  1.0
  N  N63  1  0.35643000  0.02960000  0.83776000  1.0
