# generated using pymatgen
data_CuH4C8N2ClO
_symmetry_space_group_name_H-M   'P 1'
_cell_length_a   3.67480000
_cell_length_b   9.01706000
_cell_length_c   11.07390000
_cell_angle_alpha   77.62260000
_cell_angle_beta   89.62010000
_cell_angle_gamma   86.68010000
_symmetry_Int_Tables_number   1
_chemical_formula_structural   CuH4C8N2ClO
_chemical_formula_sum   'Cu2 H8 C16 N4 Cl2 O2'
_cell_volume   357.80685440
_cell_formula_units_Z   2
loop_
 _symmetry_equiv_pos_site_id
 _symmetry_equiv_pos_as_xyz
  1  'x, y, z'
loop_
 _atom_site_type_symbol
 _atom_site_label
 _atom_site_symmetry_multiplicity
 _atom_site_fract_x
 _atom_site_fract_y
 _atom_site_fract_z
 _atom_site_occupancy
  Cu  Cu0  1  0.34124000  0.92909000  0.64664000  1.0
  Cu  Cu1  1  0.65877000  0.07091000  0.35337000  1.0
  H  H2  1  0.73971000  0.52364000  0.59316000  1.0
  H  H3  1  0.26028000  0.47636000  0.40684000  1.0
  H  H4  1  0.64699000  0.25356000  0.57642000  1.0
  H  H5  1  0.35300000  0.74645000  0.42358000  1.0
  H  H6  1  0.23250000  0.43197000  0.95360000  1.0
  H  H7  1  0.76753000  0.56802000  0.04641000  1.0
  H  H8  1  0.52947000  0.61421000  0.78025000  1.0
  H  H9  1  0.47055000  0.38578000  0.21975000  1.0
  C  C10  1  0.60554000  0.44562000  0.66637000  1.0
  C  C11  1  0.39447000  0.55438000  0.33363000  1.0
  C  C12  1  0.12679000  0.13739000  0.94051000  1.0
  C  C13  1  0.87321000  0.86261000  0.05949000  1.0
  C  C14  1  0.55484000  0.29798000  0.65605000  1.0
  C  C15  1  0.44515000  0.70203000  0.34395000  1.0
  C  C16  1  0.32730000  0.40233000  0.86835000  1.0
  C  C17  1  0.67272000  0.59767000  0.13165000  1.0
  C  C18  1  0.49008000  0.49792000  0.77260000  1.0
  C  C19  1  0.50993000  0.50207000  0.22740000  1.0
  C  C20  1  0.15010000  0.01343000  0.88181000  1.0
  C  C21  1  0.84988000  0.98657000  0.11819000  1.0
  C  C22  1  0.38375000  0.20182000  0.75308000  1.0
  C  C23  1  0.61623000  0.79817000  0.24692000  1.0
  C  C24  1  0.96982000  0.13832000  0.06005000  1.0
  C  C25  1  0.03016000  0.86169000  0.93995000  1.0
  N  N26  1  0.27597000  0.25630000  0.85782000  1.0
  N  N27  1  0.72404000  0.74370000  0.14217000  1.0
  N  N28  1  0.30211000  0.05299000  0.76759000  1.0
  N  N29  1  0.69788000  0.94701000  0.23242000  1.0
  Cl  Cl30  1  0.85078000  0.82470000  0.57704000  1.0
  Cl  Cl31  1  0.14921000  0.17532000  0.42298000  1.0
  O  O32  1  0.92973000  0.25186000  0.10786000  1.0
  O  O33  1  0.07027000  0.74813000  0.89214000  1.0
