# generated using pymatgen
data_CuH13C18N3O4
_symmetry_space_group_name_H-M   'P 1'
_cell_length_a   7.96528000
_cell_length_b   9.92717000
_cell_length_c   10.52410000
_cell_angle_alpha   105.57500000
_cell_angle_beta   94.55960000
_cell_angle_gamma   97.82400000
_symmetry_Int_Tables_number   1
_chemical_formula_structural   CuH13C18N3O4
_chemical_formula_sum   'Cu2 H26 C36 N6 O8'
_cell_volume   788.25570487
_cell_formula_units_Z   2
loop_
 _symmetry_equiv_pos_site_id
 _symmetry_equiv_pos_as_xyz
  1  'x, y, z'
loop_
 _atom_site_type_symbol
 _atom_site_label
 _atom_site_symmetry_multiplicity
 _atom_site_fract_x
 _atom_site_fract_y
 _atom_site_fract_z
 _atom_site_occupancy
  Cu  Cu0  1  0.58441000  0.89657000  0.73568000  1.0
  Cu  Cu1  1  0.41558000  0.10342000  0.26430000  1.0
  H  H2  1  0.10886000  0.95966000  0.86539000  1.0
  H  H3  1  0.89114000  0.04033000  0.13463000  1.0
  H  H4  1  0.56620000  0.61825000  0.57645000  1.0
  H  H5  1  0.43382000  0.38176000  0.42353000  1.0
  H  H6  1  0.74537000  0.42272000  0.54204000  1.0
  H  H7  1  0.25463000  0.57728000  0.45798000  1.0
  H  H8  1  0.05132000  0.48719000  0.65118000  1.0
  H  H9  1  0.94866000  0.51277000  0.34886000  1.0
  H  H10  1  0.16334000  0.73418000  0.78404000  1.0
  H  H11  1  0.83666000  0.26581000  0.21600000  1.0
  H  H12  1  0.15617000  0.18794000  0.94641000  1.0
  H  H13  1  0.84382000  0.81207000  0.05358000  1.0
  H  H14  1  0.06809000  0.42017000  0.94691000  1.0
  H  H15  1  0.93189000  0.57983000  0.05304000  1.0
  H  H16  1  0.77343000  0.42015000  0.83376000  1.0
  H  H17  1  0.22654000  0.57985000  0.16622000  1.0
  H  H18  1  0.58701000  0.18586000  0.72931000  1.0
  H  H19  1  0.41298000  0.81412000  0.27070000  1.0
  H  H20  1  0.03846000  0.74758000  0.43365000  1.0
  H  H21  1  0.96152000  0.25242000  0.56636000  1.0
  H  H22  1  0.23307000  0.18192000  0.64396000  1.0
  H  H23  1  0.76693000  0.81809000  0.35603000  1.0
  H  H24  1  0.63322000  0.73579000  0.14981000  1.0
  H  H25  1  0.36677000  0.26423000  0.85022000  1.0
  H  H26  1  0.38070000  0.48198000  0.76911000  1.0
  H  H27  1  0.61934000  0.51804000  0.23090000  1.0
  C  C28  1  0.69919000  0.63675000  0.61959000  1.0
  C  C29  1  0.30083000  0.36327000  0.38041000  1.0
  C  C30  1  0.79859000  0.53079000  0.60082000  1.0
  C  C31  1  0.20143000  0.46922000  0.39919000  1.0
  C  C32  1  0.96766000  0.56680000  0.66320000  1.0
  C  C33  1  0.03234000  0.43319000  0.33681000  1.0
  C  C34  1  0.03054000  0.70408000  0.73878000  1.0
  C  C35  1  0.96946000  0.29593000  0.26124000  1.0
  C  C36  1  0.92086000  0.80595000  0.75265000  1.0
  C  C37  1  0.07915000  0.19404000  0.24736000  1.0
  C  C38  1  0.92047000  0.06760000  0.83429000  1.0
  C  C39  1  0.07953000  0.93240000  0.16571000  1.0
  C  C40  1  0.03105000  0.19441000  0.89994000  1.0
  C  C41  1  0.96896000  0.80560000  0.10005000  1.0
  C  C42  1  0.98004000  0.32199000  0.90011000  1.0
  C  C43  1  0.01995000  0.67800000  0.09987000  1.0
  C  C44  1  0.81895000  0.32251000  0.83708000  1.0
  C  C45  1  0.18103000  0.67747000  0.16290000  1.0
  C  C46  1  0.71438000  0.19359000  0.77850000  1.0
  C  C47  1  0.28558000  0.80639000  0.22149000  1.0
  C  C48  1  0.31203000  0.91474000  0.59009000  1.0
  C  C49  1  0.68797000  0.08527000  0.40991000  1.0
  C  C50  1  0.15162000  0.95990000  0.54381000  1.0
  C  C51  1  0.84837000  0.04009000  0.45618000  1.0
  C  C52  1  0.02004000  0.85789000  0.46227000  1.0
  C  C53  1  0.97995000  0.14211000  0.53773000  1.0
  C  C54  1  0.13031000  0.10259000  0.58121000  1.0
  C  C55  1  0.86968000  0.89742000  0.41878000  1.0
  C  C56  1  0.52914000  0.75104000  0.90614000  1.0
  C  C57  1  0.47088000  0.24897000  0.09387000  1.0
  C  C58  1  0.50819000  0.62168000  0.95521000  1.0
  C  C59  1  0.49181000  0.37834000  0.04480000  1.0
  C  C60  1  0.57632000  0.63149000  0.08504000  1.0
  C  C61  1  0.42369000  0.36852000  0.91498000  1.0
  C  C62  1  0.43143000  0.48891000  0.87042000  1.0
  C  C63  1  0.56858000  0.51110000  0.12959000  1.0
  N  N64  1  0.75796000  0.77126000  0.69514000  1.0
  N  N65  1  0.24205000  0.22873000  0.30485000  1.0
  N  N66  1  0.76194000  0.06799000  0.77847000  1.0
  N  N67  1  0.23804000  0.93201000  0.22151000  1.0
  N  N68  1  0.98341000  0.94290000  0.82767000  1.0
  N  N69  1  0.01659000  0.05708000  0.17234000  1.0
  O  O70  1  0.38988000  0.99206000  0.70514000  1.0
  O  O71  1  0.61012000  0.00793000  0.29485000  1.0
  O  O72  1  0.36395000  0.80780000  0.52134000  1.0
  O  O73  1  0.63605000  0.19220000  0.47865000  1.0
  O  O74  1  0.44415000  0.74041000  0.79243000  1.0
  O  O75  1  0.55586000  0.25958000  0.20758000  1.0
  O  O76  1  0.63372000  0.85921000  0.97029000  1.0
  O  O77  1  0.36631000  0.14079000  0.02970000  1.0
