# generated using pymatgen
data_ZnH14C18(NO2)2
_symmetry_space_group_name_H-M   'P 1'
_cell_length_a   13.45550000
_cell_length_b   14.28470000
_cell_length_c   21.73400000
_cell_angle_alpha   90.00000000
_cell_angle_beta   89.99990000
_cell_angle_gamma   89.99970000
_symmetry_Int_Tables_number   1
_chemical_formula_structural   ZnH14C18(NO2)2
_chemical_formula_sum   'Zn8 H112 C144 N16 O32'
_cell_volume   4177.44390893
_cell_formula_units_Z   8
loop_
 _symmetry_equiv_pos_site_id
 _symmetry_equiv_pos_as_xyz
  1  'x, y, z'
loop_
 _atom_site_type_symbol
 _atom_site_label
 _atom_site_symmetry_multiplicity
 _atom_site_fract_x
 _atom_site_fract_y
 _atom_site_fract_z
 _atom_site_occupancy
  Zn  Zn0  1  0.49913000  0.60951000  0.43360000  1.0
  Zn  Zn1  1  0.00088000  0.39050000  0.93360000  1.0
  Zn  Zn2  1  0.50088000  0.10951000  0.06639000  1.0
  Zn  Zn3  1  0.99912000  0.89049000  0.56640000  1.0
  Zn  Zn4  1  0.50087000  0.39049000  0.56639000  1.0
  Zn  Zn5  1  0.99913000  0.60951000  0.06640000  1.0
  Zn  Zn6  1  0.49913000  0.89050000  0.93360000  1.0
  Zn  Zn7  1  0.00087000  0.10951000  0.43360000  1.0
  H  H8  1  0.34066000  0.52343000  0.34839000  1.0
  H  H9  1  0.15935000  0.47657000  0.84839000  1.0
  H  H10  1  0.65934000  0.02343000  0.15161000  1.0
  H  H11  1  0.84066000  0.97657000  0.65161000  1.0
  H  H12  1  0.65934000  0.47656000  0.65161000  1.0
  H  H13  1  0.84066000  0.52344000  0.15161000  1.0
  H  H14  1  0.34066000  0.97657000  0.84840000  1.0
  H  H15  1  0.15934000  0.02343000  0.34839000  1.0
  H  H16  1  0.16199000  0.47511000  0.35509000  1.0
  H  H17  1  0.33802000  0.52489000  0.85509000  1.0
  H  H18  1  0.83801000  0.97511000  0.14491000  1.0
  H  H19  1  0.66199000  0.02489000  0.64491000  1.0
  H  H20  1  0.83801000  0.52489000  0.64491000  1.0
  H  H21  1  0.66199000  0.47511000  0.14491000  1.0
  H  H22  1  0.16199000  0.02489000  0.85509000  1.0
  H  H23  1  0.33801000  0.97511000  0.35509000  1.0
  H  H24  1  0.14335000  0.63548000  0.52365000  1.0
  H  H25  1  0.35666000  0.36452000  0.02365000  1.0
  H  H26  1  0.85665000  0.13548000  0.97635000  1.0
  H  H27  1  0.64335000  0.86452000  0.47635000  1.0
  H  H28  1  0.85665000  0.36452000  0.47635000  1.0
  H  H29  1  0.64336000  0.63548000  0.97635000  1.0
  H  H30  1  0.14335000  0.86452000  0.02365000  1.0
  H  H31  1  0.35665000  0.13548000  0.52364000  1.0
  H  H32  1  0.32260000  0.67034000  0.51150000  1.0
  H  H33  1  0.17740000  0.32966000  0.01150000  1.0
  H  H34  1  0.67740000  0.17034000  0.98850000  1.0
  H  H35  1  0.82260000  0.82966000  0.48850000  1.0
  H  H36  1  0.67739000  0.32966000  0.48850000  1.0
  H  H37  1  0.82261000  0.67034000  0.98850000  1.0
  H  H38  1  0.32260000  0.82966000  0.01150000  1.0
  H  H39  1  0.17739000  0.17034000  0.51150000  1.0
  H  H40  1  0.00671000  0.47491000  0.41239000  1.0
  H  H41  1  0.49329000  0.52509000  0.91238000  1.0
  H  H42  1  0.99329000  0.97491000  0.08762000  1.0
  H  H43  1  0.50671000  0.02509000  0.58761000  1.0
  H  H44  1  0.99328000  0.52509000  0.58762000  1.0
  H  H45  1  0.50672000  0.47491000  0.08761000  1.0
  H  H46  1  0.00672000  0.02509000  0.91239000  1.0
  H  H47  1  0.49329000  0.97491000  0.41238000  1.0
  H  H48  1  0.68054000  0.53570000  0.36239000  1.0
  H  H49  1  0.81947000  0.46430000  0.86239000  1.0
  H  H50  1  0.31947000  0.03570000  0.13761000  1.0
  H  H51  1  0.18053000  0.96430000  0.63761000  1.0
  H  H52  1  0.31946000  0.46430000  0.63761000  1.0
  H  H53  1  0.18054000  0.53570000  0.13761000  1.0
  H  H54  1  0.68053000  0.96429000  0.86239000  1.0
  H  H55  1  0.81947000  0.03571000  0.36239000  1.0
  H  H56  1  0.86113000  0.50926000  0.38136000  1.0
  H  H57  1  0.63888000  0.49074000  0.88135000  1.0
  H  H58  1  0.13888000  0.00926000  0.11864000  1.0
  H  H59  1  0.36113000  0.99074000  0.61865000  1.0
  H  H60  1  0.13887000  0.49074000  0.61865000  1.0
  H  H61  1  0.36113000  0.50926000  0.11864000  1.0
  H  H62  1  0.86113000  0.99074000  0.88136000  1.0
  H  H63  1  0.63887000  0.00926000  0.38136000  1.0
  H  H64  1  0.83227000  0.67749000  0.54536000  1.0
  H  H65  1  0.66773000  0.32251000  0.04536000  1.0
  H  H66  1  0.16773000  0.17749000  0.95464000  1.0
  H  H67  1  0.33227000  0.82251000  0.45464000  1.0
  H  H68  1  0.16773000  0.32251000  0.45464000  1.0
  H  H69  1  0.33227000  0.67748000  0.95464000  1.0
  H  H70  1  0.83227000  0.82252000  0.04536000  1.0
  H  H71  1  0.66773000  0.17749000  0.54536000  1.0
  H  H72  1  0.65146000  0.69546000  0.51955000  1.0
  H  H73  1  0.84855000  0.30453000  0.01954000  1.0
  H  H74  1  0.34854000  0.19547000  0.98045000  1.0
  H  H75  1  0.15146000  0.80453000  0.48045000  1.0
  H  H76  1  0.34854000  0.30453000  0.48045000  1.0
  H  H77  1  0.15146000  0.69546000  0.98045000  1.0
  H  H78  1  0.65146000  0.80454000  0.01955000  1.0
  H  H79  1  0.84854000  0.19547000  0.51955000  1.0
  H  H80  1  0.99484000  0.63234000  0.50902000  1.0
  H  H81  1  0.50516000  0.36767000  0.00902000  1.0
  H  H82  1  0.00516000  0.13234000  0.99098000  1.0
  H  H83  1  0.49484000  0.86767000  0.49098000  1.0
  H  H84  1  0.00516000  0.36766000  0.49098000  1.0
  H  H85  1  0.49484000  0.63234000  0.99098000  1.0
  H  H86  1  0.99484000  0.86766000  0.00902000  1.0
  H  H87  1  0.50516000  0.13234000  0.50902000  1.0
  H  H88  1  0.49303000  0.88459000  0.31039000  1.0
  H  H89  1  0.00697000  0.11541000  0.81039000  1.0
  H  H90  1  0.50697000  0.38459000  0.18960000  1.0
  H  H91  1  0.99303000  0.61541000  0.68962000  1.0
  H  H92  1  0.50696000  0.11541000  0.68961000  1.0
  H  H93  1  0.99303000  0.88459000  0.18961000  1.0
  H  H94  1  0.49303000  0.61541000  0.81039000  1.0
  H  H95  1  0.00697000  0.38459000  0.31039000  1.0
  H  H96  1  0.49659000  0.70618000  0.23091000  1.0
  H  H97  1  0.00342000  0.29381000  0.73091000  1.0
  H  H98  1  0.50341000  0.20619000  0.26909000  1.0
  H  H99  1  0.99659000  0.79381000  0.76909000  1.0
  H  H100  1  0.50341000  0.29381000  0.76909000  1.0
  H  H101  1  0.99659000  0.70619000  0.26909000  1.0
  H  H102  1  0.49658000  0.79381000  0.73091000  1.0
  H  H103  1  0.00340000  0.20619000  0.23091000  1.0
  H  H104  1  0.49023000  0.91976000  0.19734000  1.0
  H  H105  1  0.00977000  0.08023000  0.69735000  1.0
  H  H106  1  0.50976000  0.41977000  0.30265000  1.0
  H  H107  1  0.99023000  0.58024000  0.80266000  1.0
  H  H108  1  0.50977000  0.08024000  0.80265000  1.0
  H  H109  1  0.99023000  0.91977000  0.30265000  1.0
  H  H110  1  0.49023000  0.58023000  0.69735000  1.0
  H  H111  1  0.00977000  0.41976000  0.19734000  1.0
  H  H112  1  0.49260000  0.74175000  0.11690000  1.0
  H  H113  1  0.00739000  0.25825000  0.61691000  1.0
  H  H114  1  0.50739000  0.24175000  0.38309000  1.0
  H  H115  1  0.99261000  0.75826000  0.88310000  1.0
  H  H116  1  0.50739000  0.25826000  0.88309000  1.0
  H  H117  1  0.99261000  0.74175000  0.38309000  1.0
  H  H118  1  0.49259000  0.75825000  0.61691000  1.0
  H  H119  1  0.00739000  0.24174000  0.11690000  1.0
  C  C120  1  0.29355000  0.54619000  0.38640000  1.0
  C  C121  1  0.20645000  0.45381000  0.88640000  1.0
  C  C122  1  0.70645000  0.04619000  0.11360000  1.0
  C  C123  1  0.79355000  0.95381000  0.61360000  1.0
  C  C124  1  0.70645000  0.45381000  0.61360000  1.0
  C  C125  1  0.79355000  0.54619000  0.11360000  1.0
  C  C126  1  0.29355000  0.95381000  0.88640000  1.0
  C  C127  1  0.20645000  0.04619000  0.38640000  1.0
  C  C128  1  0.19381000  0.52071000  0.39022000  1.0
  C  C129  1  0.30619000  0.47929000  0.89022000  1.0
  C  C130  1  0.80619000  0.02071000  0.10978000  1.0
  C  C131  1  0.69381000  0.97929000  0.60978000  1.0
  C  C132  1  0.80619000  0.47928000  0.60978000  1.0
  C  C133  1  0.69381000  0.52072000  0.10978000  1.0
  C  C134  1  0.19381000  0.97929000  0.89022000  1.0
  C  C135  1  0.30619000  0.02071000  0.39022000  1.0
  C  C136  1  0.13675000  0.54939000  0.44090000  1.0
  C  C137  1  0.36325000  0.45061000  0.94090000  1.0
  C  C138  1  0.86325000  0.04940000  0.05910000  1.0
  C  C139  1  0.63675000  0.95061000  0.55910000  1.0
  C  C140  1  0.86325000  0.45060000  0.55910000  1.0
  C  C141  1  0.63676000  0.54940000  0.05910000  1.0
  C  C142  1  0.13675000  0.95061000  0.94090000  1.0
  C  C143  1  0.36325000  0.04939000  0.44089000  1.0
  C  C144  1  0.18310000  0.60844000  0.48368000  1.0
  C  C145  1  0.31690000  0.39157000  0.98368000  1.0
  C  C146  1  0.81690000  0.10844000  0.01632000  1.0
  C  C147  1  0.68310000  0.89156000  0.51632000  1.0
  C  C148  1  0.81690000  0.39156000  0.51632000  1.0
  C  C149  1  0.68311000  0.60843000  0.01632000  1.0
  C  C150  1  0.18310000  0.89156000  0.98368000  1.0
  C  C151  1  0.31690000  0.10844000  0.48368000  1.0
  C  C152  1  0.28335000  0.62891000  0.47727000  1.0
  C  C153  1  0.21665000  0.37109000  0.97727000  1.0
  C  C154  1  0.71665000  0.12891000  0.02273000  1.0
  C  C155  1  0.78335000  0.87109000  0.52273000  1.0
  C  C156  1  0.71665000  0.37108000  0.52273000  1.0
  C  C157  1  0.78336000  0.62891000  0.02273000  1.0
  C  C158  1  0.28335000  0.87108000  0.97727000  1.0
  C  C159  1  0.21665000  0.12891000  0.47727000  1.0
  C  C160  1  0.03707000  0.50774000  0.45394000  1.0
  C  C161  1  0.46293000  0.49226000  0.95394000  1.0
  C  C162  1  0.96293000  0.00774000  0.04606000  1.0
  C  C163  1  0.53707000  0.99226000  0.54606000  1.0
  C  C164  1  0.96293000  0.49225000  0.54606000  1.0
  C  C165  1  0.53708000  0.50775000  0.04606000  1.0
  C  C166  1  0.03707000  0.99226000  0.95394000  1.0
  C  C167  1  0.46293000  0.00774000  0.45394000  1.0
  C  C168  1  0.71748000  0.56644000  0.40222000  1.0
  C  C169  1  0.78252000  0.43357000  0.90222000  1.0
  C  C170  1  0.28252000  0.06643000  0.09778000  1.0
  C  C171  1  0.21748000  0.93357000  0.59778000  1.0
  C  C172  1  0.28252000  0.43356000  0.59778000  1.0
  C  C173  1  0.21748000  0.56643000  0.09778000  1.0
  C  C174  1  0.71748000  0.93357000  0.90222000  1.0
  C  C175  1  0.78252000  0.06644000  0.40222000  1.0
  C  C176  1  0.81855000  0.55238000  0.41327000  1.0
  C  C177  1  0.68146000  0.44762000  0.91327000  1.0
  C  C178  1  0.18146000  0.05238000  0.08673000  1.0
  C  C179  1  0.31855000  0.94762000  0.58673000  1.0
  C  C180  1  0.18145000  0.44761000  0.58673000  1.0
  C  C181  1  0.31855000  0.55238000  0.08673000  1.0
  C  C182  1  0.81855000  0.94762000  0.91327000  1.0
  C  C183  1  0.68145000  0.05239000  0.41327000  1.0
  C  C184  1  0.86165000  0.58956000  0.46659000  1.0
  C  C185  1  0.63835000  0.41044000  0.96658000  1.0
  C  C186  1  0.13835000  0.08956000  0.03342000  1.0
  C  C187  1  0.36165000  0.91044000  0.53342000  1.0
  C  C188  1  0.13835000  0.41043000  0.53342000  1.0
  C  C189  1  0.36166000  0.58956000  0.03341000  1.0
  C  C190  1  0.86165000  0.91044000  0.96658000  1.0
  C  C191  1  0.63835000  0.08957000  0.46659000  1.0
  C  C192  1  0.80098000  0.64516000  0.50422000  1.0
  C  C193  1  0.69903000  0.35484000  0.00422000  1.0
  C  C194  1  0.19902000  0.14516000  0.99578000  1.0
  C  C195  1  0.30098000  0.85484000  0.49578000  1.0
  C  C196  1  0.19902000  0.35484000  0.49578000  1.0
  C  C197  1  0.30098000  0.64515000  0.99578000  1.0
  C  C198  1  0.80098000  0.85485000  0.00422000  1.0
  C  C199  1  0.69902000  0.14516000  0.50422000  1.0
  C  C200  1  0.70124000  0.65531000  0.49022000  1.0
  C  C201  1  0.79876000  0.34469000  0.99022000  1.0
  C  C202  1  0.29876000  0.15531000  0.00978000  1.0
  C  C203  1  0.20124000  0.84469000  0.50978000  1.0
  C  C204  1  0.29876000  0.34469000  0.50978000  1.0
  C  C205  1  0.20124000  0.65531000  0.00978000  1.0
  C  C206  1  0.70124000  0.84469000  0.99022000  1.0
  C  C207  1  0.79876000  0.15531000  0.49022000  1.0
  C  C208  1  0.96255000  0.56735000  0.49111000  1.0
  C  C209  1  0.53746000  0.43265000  0.99111000  1.0
  C  C210  1  0.03745000  0.06735000  0.00889000  1.0
  C  C211  1  0.46255000  0.93265000  0.50889000  1.0
  C  C212  1  0.03745000  0.43264000  0.50890000  1.0
  C  C213  1  0.46255000  0.56735000  0.00889000  1.0
  C  C214  1  0.96255000  0.93265000  0.99111000  1.0
  C  C215  1  0.53745000  0.06736000  0.49110000  1.0
  C  C216  1  0.49758000  0.74470000  0.35220000  1.0
  C  C217  1  0.00243000  0.25531000  0.85220000  1.0
  C  C218  1  0.50242000  0.24469000  0.14780000  1.0
  C  C219  1  0.99758000  0.75530000  0.64780000  1.0
  C  C220  1  0.50241000  0.25531000  0.64780000  1.0
  C  C221  1  0.99758000  0.74469000  0.14780000  1.0
  C  C222  1  0.49758000  0.75530000  0.85220000  1.0
  C  C223  1  0.00241000  0.24469000  0.35220000  1.0
  C  C224  1  0.49508000  0.81002000  0.29913000  1.0
  C  C225  1  0.00492000  0.18997000  0.79914000  1.0
  C  C226  1  0.50491000  0.31003000  0.20086000  1.0
  C  C227  1  0.99508000  0.68998000  0.70087000  1.0
  C  C228  1  0.50491000  0.18997000  0.70086000  1.0
  C  C229  1  0.99508000  0.81002000  0.20087000  1.0
  C  C230  1  0.49509000  0.68997000  0.79914000  1.0
  C  C231  1  0.00491000  0.31002000  0.29913000  1.0
  C  C232  1  0.49459000  0.78150000  0.23988000  1.0
  C  C233  1  0.00541000  0.21849000  0.73988000  1.0
  C  C234  1  0.50540000  0.28151000  0.26012000  1.0
  C  C235  1  0.99459000  0.71850000  0.76013000  1.0
  C  C236  1  0.50540000  0.21850000  0.76012000  1.0
  C  C237  1  0.99459000  0.78151000  0.26012000  1.0
  C  C238  1  0.49459000  0.71849000  0.73988000  1.0
  C  C239  1  0.00540000  0.28150000  0.23987000  1.0
  C  C240  1  0.49187000  0.84439000  0.18822000  1.0
  C  C241  1  0.00812000  0.15561000  0.68822000  1.0
  C  C242  1  0.50812000  0.34440000  0.31178000  1.0
  C  C243  1  0.99187000  0.65561000  0.81178000  1.0
  C  C244  1  0.50812000  0.15561000  0.81178000  1.0
  C  C245  1  0.99188000  0.84439000  0.31178000  1.0
  C  C246  1  0.49186000  0.65560000  0.68822000  1.0
  C  C247  1  0.00813000  0.34439000  0.18822000  1.0
  C  C248  1  0.49149000  0.81600000  0.12891000  1.0
  C  C249  1  0.00850000  0.18400000  0.62891000  1.0
  C  C250  1  0.50850000  0.31600000  0.37109000  1.0
  C  C251  1  0.99149000  0.68401000  0.87110000  1.0
  C  C252  1  0.50850000  0.18400000  0.87109000  1.0
  C  C253  1  0.99150000  0.81600000  0.37109000  1.0
  C  C254  1  0.49148000  0.68400000  0.62891000  1.0
  C  C255  1  0.00851000  0.31599000  0.12891000  1.0
  C  C256  1  0.48994000  0.88267000  0.07644000  1.0
  C  C257  1  0.01006000  0.11733000  0.57644000  1.0
  C  C258  1  0.51006000  0.38267000  0.42356000  1.0
  C  C259  1  0.98994000  0.61734000  0.92356000  1.0
  C  C260  1  0.51006000  0.11734000  0.92356000  1.0
  C  C261  1  0.98994000  0.88267000  0.42356000  1.0
  C  C262  1  0.48993000  0.61733000  0.57644000  1.0
  C  C263  1  0.01007000  0.38267000  0.07644000  1.0
  N  N264  1  0.33887000  0.59708000  0.43033000  1.0
  N  N265  1  0.16113000  0.40292000  0.93033000  1.0
  N  N266  1  0.66113000  0.09708000  0.06968000  1.0
  N  N267  1  0.83887000  0.90291000  0.56967000  1.0
  N  N268  1  0.66112000  0.40291000  0.56967000  1.0
  N  N269  1  0.83888000  0.59709000  0.06967000  1.0
  N  N270  1  0.33888000  0.90291000  0.93033000  1.0
  N  N271  1  0.16112000  0.09708000  0.43033000  1.0
  N  N272  1  0.65874000  0.61464000  0.44091000  1.0
  N  N273  1  0.84126000  0.38536000  0.94091000  1.0
  N  N274  1  0.34126000  0.11464000  0.05909000  1.0
  N  N275  1  0.15874000  0.88536000  0.55909000  1.0
  N  N276  1  0.34126000  0.38536000  0.55909000  1.0
  N  N277  1  0.15874000  0.61464000  0.05908000  1.0
  N  N278  1  0.65874000  0.88536000  0.94091000  1.0
  N  N279  1  0.84126000  0.11464000  0.44092000  1.0
  O  O280  1  0.50180000  0.65617000  0.34185000  1.0
  O  O281  1  0.99820000  0.34382000  0.84185000  1.0
  O  O282  1  0.49819000  0.15617000  0.15815000  1.0
  O  O283  1  0.00180000  0.84383000  0.65815000  1.0
  O  O284  1  0.49819000  0.34383000  0.65815000  1.0
  O  O285  1  0.00180000  0.65617000  0.15815000  1.0
  O  O286  1  0.50180000  0.84382000  0.84185000  1.0
  O  O287  1  0.99819000  0.15618000  0.34185000  1.0
  O  O288  1  0.49484000  0.77893000  0.40621000  1.0
  O  O289  1  0.00517000  0.22107000  0.90621000  1.0
  O  O290  1  0.50516000  0.27892000  0.09379000  1.0
  O  O291  1  0.99484000  0.72107000  0.59379000  1.0
  O  O292  1  0.50515000  0.22108000  0.59379000  1.0
  O  O293  1  0.99484000  0.77893000  0.09379000  1.0
  O  O294  1  0.49485000  0.72107000  0.90621000  1.0
  O  O295  1  0.00515000  0.27893000  0.40620000  1.0
  O  O296  1  0.48838000  0.84441000  0.02315000  1.0
  O  O297  1  0.01162000  0.15560000  0.52315000  1.0
  O  O298  1  0.51162000  0.34440000  0.47685000  1.0
  O  O299  1  0.98838000  0.65561000  0.97685000  1.0
  O  O300  1  0.51162000  0.15560000  0.97685000  1.0
  O  O301  1  0.98838000  0.84439000  0.47685000  1.0
  O  O302  1  0.48838000  0.65560000  0.52315000  1.0
  O  O303  1  0.01163000  0.34439000  0.02315000  1.0
  O  O304  1  0.49022000  0.96947000  0.08824000  1.0
  O  O305  1  0.00978000  0.03053000  0.58824000  1.0
  O  O306  1  0.50978000  0.46947000  0.41176000  1.0
  O  O307  1  0.99022000  0.53054000  0.91177000  1.0
  O  O308  1  0.50979000  0.03054000  0.91176000  1.0
  O  O309  1  0.99021000  0.96947000  0.41176000  1.0
  O  O310  1  0.49021000  0.53053000  0.58824000  1.0
  O  O311  1  0.00979000  0.46946000  0.08824000  1.0
