# generated using pymatgen
data_AgH8C7SN2(OF)3
_symmetry_space_group_name_H-M   'P 1'
_cell_length_a   7.63422000
_cell_length_b   11.44550000
_cell_length_c   12.96280000
_cell_angle_alpha   89.99980000
_cell_angle_beta   101.61900000
_cell_angle_gamma   90.00000000
_symmetry_Int_Tables_number   1
_chemical_formula_structural   AgH8C7SN2(OF)3
_chemical_formula_sum   'Ag4 H32 C28 S4 N8 O12 F12'
_cell_volume   1109.44678850
_cell_formula_units_Z   4
loop_
 _symmetry_equiv_pos_site_id
 _symmetry_equiv_pos_as_xyz
  1  'x, y, z'
loop_
 _atom_site_type_symbol
 _atom_site_label
 _atom_site_symmetry_multiplicity
 _atom_site_fract_x
 _atom_site_fract_y
 _atom_site_fract_z
 _atom_site_occupancy
  Ag  Ag0  1  0.79045000  0.21780000  0.06542000  1.0
  Ag  Ag1  1  0.70955000  0.71780000  0.93458000  1.0
  Ag  Ag2  1  0.20955000  0.78220000  0.93458000  1.0
  Ag  Ag3  1  0.29045000  0.28220000  0.06542000  1.0
  H  H4  1  0.86602000  0.66069000  0.12156000  1.0
  H  H5  1  0.63398000  0.16069000  0.87844000  1.0
  H  H6  1  0.13398000  0.33931000  0.87844000  1.0
  H  H7  1  0.36602000  0.83931000  0.12156000  1.0
  H  H8  1  0.64867000  0.65059000  0.11661000  1.0
  H  H9  1  0.85133000  0.15059000  0.88339000  1.0
  H  H10  1  0.35133000  0.34941000  0.88339000  1.0
  H  H11  1  0.14867000  0.84941000  0.11661000  1.0
  H  H12  1  0.86863000  0.46774000  0.04221000  1.0
  H  H13  1  0.63137000  0.96774000  0.95779000  1.0
  H  H14  1  0.13137000  0.53226000  0.95779000  1.0
  H  H15  1  0.36863000  0.03226000  0.04221000  1.0
  H  H16  1  0.63786000  0.45791000  0.04047000  1.0
  H  H17  1  0.86214000  0.95791000  0.95953000  1.0
  H  H18  1  0.36214000  0.54209000  0.95953000  1.0
  H  H19  1  0.13786000  0.04209000  0.04047000  1.0
  H  H20  1  0.86095000  0.18094000  0.29596000  1.0
  H  H21  1  0.63904000  0.68094000  0.70404000  1.0
  H  H22  1  0.13904000  0.81906000  0.70404000  1.0
  H  H23  1  0.36096000  0.31906000  0.29596000  1.0
  H  H24  1  0.88008000  0.29305000  0.46373000  1.0
  H  H25  1  0.61993000  0.79305000  0.53628000  1.0
  H  H26  1  0.11992000  0.70695000  0.53627000  1.0
  H  H27  1  0.38007000  0.20695000  0.46373000  1.0
  H  H28  1  0.84747000  0.51249000  0.45239000  1.0
  H  H29  1  0.65253000  0.01249000  0.54762000  1.0
  H  H30  1  0.15253000  0.48751000  0.54761000  1.0
  H  H31  1  0.34747000  0.98751000  0.45238000  1.0
  H  H32  1  0.80086000  0.60745000  0.27705000  1.0
  H  H33  1  0.69914000  0.10745000  0.72295000  1.0
  H  H34  1  0.19914000  0.39255000  0.72295000  1.0
  H  H35  1  0.30086000  0.89255000  0.27705000  1.0
  C  C36  1  0.76389000  0.49605000  0.08360000  1.0
  C  C37  1  0.73611000  0.99605000  0.91640000  1.0
  C  C38  1  0.23611000  0.50395000  0.91640000  1.0
  C  C39  1  0.26389000  0.00395000  0.08360000  1.0
  C  C40  1  0.80170000  0.44500000  0.19338000  1.0
  C  C41  1  0.69830000  0.94500000  0.80662000  1.0
  C  C42  1  0.19830000  0.55500000  0.80662000  1.0
  C  C43  1  0.30170000  0.05500000  0.19338000  1.0
  C  C44  1  0.84719000  0.27560000  0.29598000  1.0
  C  C45  1  0.65281000  0.77560000  0.70402000  1.0
  C  C46  1  0.15281000  0.72440000  0.70402000  1.0
  C  C47  1  0.34719000  0.22440000  0.29598000  1.0
  C  C48  1  0.85862000  0.33873000  0.38855000  1.0
  C  C49  1  0.64138000  0.83873000  0.61145000  1.0
  C  C50  1  0.14138000  0.66127000  0.61145000  1.0
  C  C51  1  0.35862000  0.16127000  0.38855000  1.0
  C  C52  1  0.84150000  0.45982000  0.38189000  1.0
  C  C53  1  0.65850000  0.95982000  0.61811000  1.0
  C  C54  1  0.15850000  0.54018000  0.61811000  1.0
  C  C55  1  0.34150000  0.04018000  0.38189000  1.0
  C  C56  1  0.81515000  0.51316000  0.28371000  1.0
  C  C57  1  0.68485000  0.01316000  0.71629000  1.0
  C  C58  1  0.18485000  0.48684000  0.71629000  1.0
  C  C59  1  0.31515000  0.98684000  0.28371000  1.0
  C  C60  1  0.82765000  0.90319000  0.34282000  1.0
  C  C61  1  0.67235000  0.40319000  0.65718000  1.0
  C  C62  1  0.17235000  0.09681000  0.65718000  1.0
  C  C63  1  0.32765000  0.59681000  0.34282000  1.0
  S  S64  1  0.82986000  0.91907000  0.19945000  1.0
  S  S65  1  0.67014000  0.41907000  0.80055000  1.0
  S  S66  1  0.17015000  0.08093000  0.80055000  1.0
  S  S67  1  0.32986000  0.58093000  0.19945000  1.0
  N  N68  1  0.81822000  0.32741000  0.20037000  1.0
  N  N69  1  0.68178000  0.82741000  0.79963000  1.0
  N  N70  1  0.18178000  0.67259000  0.79963000  1.0
  N  N71  1  0.31822000  0.17259000  0.20037000  1.0
  N  N72  1  0.75015000  0.62402000  0.08010000  1.0
  N  N73  1  0.74985000  0.12403000  0.91990000  1.0
  N  N74  1  0.24985000  0.37597000  0.91990000  1.0
  N  N75  1  0.25015000  0.87597000  0.08010000  1.0
  O  O76  1  0.94759000  0.82371000  0.18090000  1.0
  O  O77  1  0.55241000  0.32371000  0.81910000  1.0
  O  O78  1  0.05241000  0.17630000  0.81910000  1.0
  O  O79  1  0.44759000  0.67629000  0.18090000  1.0
  O  O80  1  0.90577000  0.03535000  0.19342000  1.0
  O  O81  1  0.59423000  0.53535000  0.80658000  1.0
  O  O82  1  0.09423000  0.96465000  0.80659000  1.0
  O  O83  1  0.40577000  0.46465000  0.19342000  1.0
  O  O84  1  0.64343000  0.90610000  0.14790000  1.0
  O  O85  1  0.85657000  0.40609000  0.85210000  1.0
  O  O86  1  0.35657000  0.09390000  0.85210000  1.0
  O  O87  1  0.14343000  0.59390000  0.14790000  1.0
  F  F88  1  0.73977000  0.80451000  0.36155000  1.0
  F  F89  1  0.76023000  0.30451000  0.63845000  1.0
  F  F90  1  0.26023000  0.19549000  0.63845000  1.0
  F  F91  1  0.23977000  0.69549000  0.36155000  1.0
  F  F92  1  0.74377000  0.99616000  0.37720000  1.0
  F  F93  1  0.75623000  0.49616000  0.62280000  1.0
  F  F94  1  0.25623000  0.00384000  0.62280000  1.0
  F  F95  1  0.24377000  0.50384000  0.37720000  1.0
  F  F96  1  0.99559000  0.89773000  0.40238000  1.0
  F  F97  1  0.50440000  0.39773000  0.59762000  1.0
  F  F98  1  0.00440000  0.10226000  0.59762000  1.0
  F  F99  1  0.49560000  0.60227000  0.40238000  1.0
