# generated using pymatgen
data_Ag2H3C7NO4
_symmetry_space_group_name_H-M   'P 1'
_cell_length_a   6.74304000
_cell_length_b   10.54280000
_cell_length_c   11.11660000
_cell_angle_alpha   89.99910000
_cell_angle_beta   105.31300000
_cell_angle_gamma   89.99960000
_symmetry_Int_Tables_number   1
_chemical_formula_structural   Ag2H3C7NO4
_chemical_formula_sum   'Ag8 H12 C28 N4 O16'
_cell_volume   762.22782634
_cell_formula_units_Z   4
loop_
 _symmetry_equiv_pos_site_id
 _symmetry_equiv_pos_as_xyz
  1  'x, y, z'
loop_
 _atom_site_type_symbol
 _atom_site_label
 _atom_site_symmetry_multiplicity
 _atom_site_fract_x
 _atom_site_fract_y
 _atom_site_fract_z
 _atom_site_occupancy
  Ag  Ag0  1  0.80607000  0.46635000  0.11757000  1.0
  Ag  Ag1  1  0.69392000  0.96635000  0.88241000  1.0
  Ag  Ag2  1  0.19393000  0.53366000  0.88242000  1.0
  Ag  Ag3  1  0.30608000  0.03365000  0.11758000  1.0
  Ag  Ag4  1  0.05095000  0.69871000  0.14968000  1.0
  Ag  Ag5  1  0.44904000  0.19872000  0.85031000  1.0
  Ag  Ag6  1  0.94905000  0.30129000  0.85032000  1.0
  Ag  Ag7  1  0.55096000  0.80128000  0.14969000  1.0
  H  H8  1  0.20901000  0.29149000  0.55779000  1.0
  H  H9  1  0.29099000  0.79149000  0.44220000  1.0
  H  H10  1  0.79099000  0.70850000  0.44220000  1.0
  H  H11  1  0.70902000  0.20851000  0.55781000  1.0
  H  H12  1  0.05865000  0.45452000  0.39311000  1.0
  H  H13  1  0.44134000  0.95452000  0.60688000  1.0
  H  H14  1  0.94136000  0.54547000  0.60689000  1.0
  H  H15  1  0.55867000  0.04548000  0.39312000  1.0
  H  H16  1  0.16634000  0.06288000  0.49976000  1.0
  H  H17  1  0.33366000  0.56288000  0.50023000  1.0
  H  H18  1  0.83366000  0.93711000  0.50023000  1.0
  H  H19  1  0.66634000  0.43713000  0.49977000  1.0
  C  C20  1  0.90919000  0.19833000  0.22528000  1.0
  C  C21  1  0.59080000  0.69833000  0.77471000  1.0
  C  C22  1  0.09081000  0.80167000  0.77471000  1.0
  C  C23  1  0.40921000  0.30167000  0.22529000  1.0
  C  C24  1  0.98955000  0.10092000  0.31070000  1.0
  C  C25  1  0.51045000  0.60092000  0.68929000  1.0
  C  C26  1  0.01046000  0.89907000  0.68930000  1.0
  C  C27  1  0.48955000  0.39908000  0.31071000  1.0
  C  C28  1  0.79163000  0.16583000  0.09392000  1.0
  C  C29  1  0.70837000  0.66583000  0.90607000  1.0
  C  C30  1  0.20836000  0.83417000  0.90608000  1.0
  C  C31  1  0.29163000  0.33418000  0.09394000  1.0
  C  C32  1  0.12488000  0.26266000  0.46399000  1.0
  C  C33  1  0.37508000  0.76267000  0.53601000  1.0
  C  C34  1  0.87513000  0.73734000  0.53601000  1.0
  C  C35  1  0.62492000  0.23734000  0.46399000  1.0
  C  C36  1  0.04105000  0.35333000  0.37390000  1.0
  C  C37  1  0.45893000  0.85334000  0.62609000  1.0
  C  C38  1  0.95895000  0.64666000  0.62610000  1.0
  C  C39  1  0.54106000  0.14666000  0.37392000  1.0
  C  C40  1  0.10031000  0.13527000  0.43104000  1.0
  C  C41  1  0.39968000  0.63526000  0.56896000  1.0
  C  C42  1  0.89969000  0.86473000  0.56895000  1.0
  C  C43  1  0.60032000  0.36474000  0.43105000  1.0
  C  C44  1  0.95312000  0.96208000  0.27774000  1.0
  C  C45  1  0.54687000  0.46208000  0.72225000  1.0
  C  C46  1  0.04686000  0.03792000  0.72226000  1.0
  C  C47  1  0.45313000  0.53792000  0.27775000  1.0
  N  N48  1  0.93632000  0.32202000  0.25711000  1.0
  N  N49  1  0.56366000  0.82203000  0.74287000  1.0
  N  N50  1  0.06368000  0.67798000  0.74289000  1.0
  N  N51  1  0.43635000  0.17798000  0.25713000  1.0
  O  O52  1  0.10358000  0.89887000  0.26152000  1.0
  O  O53  1  0.39642000  0.39887000  0.73848000  1.0
  O  O54  1  0.89641000  0.10113000  0.73848000  1.0
  O  O55  1  0.60358000  0.60114000  0.26152000  1.0
  O  O56  1  0.66739000  0.24781000  0.03174000  1.0
  O  O57  1  0.83262000  0.74781000  0.96825000  1.0
  O  O58  1  0.33260000  0.75219000  0.96826000  1.0
  O  O59  1  0.16739000  0.25219000  0.03175000  1.0
  O  O60  1  0.77650000  0.92083000  0.27952000  1.0
  O  O61  1  0.72348000  0.42084000  0.72048000  1.0
  O  O62  1  0.22349000  0.07917000  0.72047000  1.0
  O  O63  1  0.27652000  0.57917000  0.27953000  1.0
  O  O64  1  0.82712000  0.05657000  0.05748000  1.0
  O  O65  1  0.67286000  0.55658000  0.94252000  1.0
  O  O66  1  0.17287000  0.94343000  0.94253000  1.0
  O  O67  1  0.32715000  0.44342000  0.05748000  1.0
