# generated using pymatgen
data_ZnH14C14N8O3
_symmetry_space_group_name_H-M   'P 1'
_cell_length_a   8.74004000
_cell_length_b   10.14890000
_cell_length_c   18.82580000
_cell_angle_alpha   90.00000000
_cell_angle_beta   89.99990000
_cell_angle_gamma   90.00000000
_symmetry_Int_Tables_number   1
_chemical_formula_structural   ZnH14C14N8O3
_chemical_formula_sum   'Zn4 H56 C56 N32 O12'
_cell_volume   1669.88219500
_cell_formula_units_Z   4
loop_
 _symmetry_equiv_pos_site_id
 _symmetry_equiv_pos_as_xyz
  1  'x, y, z'
loop_
 _atom_site_type_symbol
 _atom_site_label
 _atom_site_symmetry_multiplicity
 _atom_site_fract_x
 _atom_site_fract_y
 _atom_site_fract_z
 _atom_site_occupancy
  Zn  Zn0  1  0.13759000  0.02927000  0.59814000  1.0
  Zn  Zn1  1  0.63760000  0.97073000  0.40186000  1.0
  Zn  Zn2  1  0.13759000  0.47073000  0.09814000  1.0
  Zn  Zn3  1  0.63759000  0.52927000  0.90186000  1.0
  H  H4  1  0.82748000  0.95225000  0.53388000  1.0
  H  H5  1  0.32748000  0.04775000  0.46612000  1.0
  H  H6  1  0.82748000  0.54775000  0.03388000  1.0
  H  H7  1  0.32748000  0.45225000  0.96612000  1.0
  H  H8  1  0.25756000  0.38574000  0.38453000  1.0
  H  H9  1  0.75755000  0.61426000  0.61546000  1.0
  H  H10  1  0.25755000  0.11426000  0.88453000  1.0
  H  H11  1  0.75755000  0.88574000  0.11546000  1.0
  H  H12  1  0.82931000  0.31074000  0.26022000  1.0
  H  H13  1  0.32930000  0.68926000  0.73977000  1.0
  H  H14  1  0.82930000  0.18926000  0.76023000  1.0
  H  H15  1  0.32930000  0.81074000  0.23977000  1.0
  H  H16  1  0.71353000  0.20132000  0.30975000  1.0
  H  H17  1  0.21353000  0.79868000  0.69025000  1.0
  H  H18  1  0.71353000  0.29868000  0.80975000  1.0
  H  H19  1  0.21353000  0.70131000  0.19025000  1.0
  H  H20  1  0.96618000  0.68263000  0.69917000  1.0
  H  H21  1  0.46618000  0.31737000  0.30083000  1.0
  H  H22  1  0.96618000  0.81737000  0.19917000  1.0
  H  H23  1  0.46618000  0.18263000  0.80083000  1.0
  H  H24  1  0.84858000  0.52395000  0.78492000  1.0
  H  H25  1  0.34858000  0.47605000  0.21508000  1.0
  H  H26  1  0.84858000  0.97605000  0.28492000  1.0
  H  H27  1  0.34857000  0.02395000  0.71508000  1.0
  H  H28  1  0.59768000  0.82312000  0.88220000  1.0
  H  H29  1  0.09769000  0.17687000  0.11780000  1.0
  H  H30  1  0.59768000  0.67688000  0.38219000  1.0
  H  H31  1  0.09768000  0.32312000  0.61780000  1.0
  H  H32  1  0.70410000  0.99169000  0.80088000  1.0
  H  H33  1  0.20411000  0.00831000  0.19912000  1.0
  H  H34  1  0.70411000  0.50831000  0.30088000  1.0
  H  H35  1  0.20411000  0.49169000  0.69912000  1.0
  H  H36  1  0.78677000  0.03906000  0.97521000  1.0
  H  H37  1  0.28677000  0.96095000  0.02479000  1.0
  H  H38  1  0.78677000  0.46094000  0.47521000  1.0
  H  H39  1  0.28677000  0.53905000  0.52479000  1.0
  H  H40  1  0.36475000  0.19885000  0.00007000  1.0
  H  H41  1  0.86474000  0.80116000  0.99994000  1.0
  H  H42  1  0.36475000  0.30115000  0.50006000  1.0
  H  H43  1  0.86474000  0.69884000  0.49994000  1.0
  H  H44  1  0.51239000  0.21992000  0.12392000  1.0
  H  H45  1  0.01238000  0.78008000  0.87608000  1.0
  H  H46  1  0.51239000  0.28008000  0.62392000  1.0
  H  H47  1  0.01238000  0.71992000  0.37608000  1.0
  H  H48  1  0.56783000  0.33604000  0.05764000  1.0
  H  H49  1  0.06782000  0.66397000  0.94237000  1.0
  H  H50  1  0.56783000  0.16396000  0.55764000  1.0
  H  H51  1  0.06782000  0.83603000  0.44236000  1.0
  H  H52  1  0.81132000  0.23256000  0.06915000  1.0
  H  H53  1  0.31131000  0.76744000  0.93086000  1.0
  H  H54  1  0.81132000  0.26744000  0.56915000  1.0
  H  H55  1  0.31131000  0.73256000  0.43085000  1.0
  H  H56  1  0.73143000  0.08527000  0.10404000  1.0
  H  H57  1  0.23143000  0.91473000  0.89596000  1.0
  H  H58  1  0.73143000  0.41473000  0.60404000  1.0
  H  H59  1  0.23143000  0.58527000  0.39596000  1.0
  C  C60  1  0.87975000  0.02757000  0.50071000  1.0
  C  C61  1  0.37975000  0.97243000  0.49929000  1.0
  C  C62  1  0.87975000  0.47243000  0.00071000  1.0
  C  C63  1  0.37975000  0.52757000  0.99929000  1.0
  C  C64  1  0.15894000  0.32183000  0.39404000  1.0
  C  C65  1  0.65894000  0.67817000  0.60596000  1.0
  C  C66  1  0.15894000  0.17817000  0.89404000  1.0
  C  C67  1  0.65894000  0.82183000  0.10596000  1.0
  C  C68  1  0.92535000  0.24377000  0.35224000  1.0
  C  C69  1  0.42535000  0.75623000  0.64776000  1.0
  C  C70  1  0.92535000  0.25623000  0.85224000  1.0
  C  C71  1  0.42535000  0.74377000  0.14776000  1.0
  C  C72  1  0.92074000  0.16191000  0.41330000  1.0
  C  C73  1  0.42074000  0.83809000  0.58670000  1.0
  C  C74  1  0.92074000  0.33809000  0.91330000  1.0
  C  C75  1  0.42074000  0.66191000  0.08670000  1.0
  C  C76  1  0.04260000  0.17174000  0.46188000  1.0
  C  C77  1  0.54260000  0.82826000  0.53812000  1.0
  C  C78  1  0.04260000  0.32826000  0.96188000  1.0
  C  C79  1  0.54260000  0.67174000  0.03812000  1.0
  C  C80  1  0.91513000  0.94759000  0.69376000  1.0
  C  C81  1  0.41514000  0.05241000  0.30624000  1.0
  C  C82  1  0.91513000  0.55241000  0.19376000  1.0
  C  C83  1  0.41513000  0.44759000  0.80624000  1.0
  C  C84  1  0.88712000  0.71708000  0.73986000  1.0
  C  C85  1  0.38712000  0.28292000  0.26014000  1.0
  C  C86  1  0.88712000  0.78292000  0.23986000  1.0
  C  C87  1  0.38712000  0.21708000  0.76014000  1.0
  C  C88  1  0.84592000  0.85011000  0.74434000  1.0
  C  C89  1  0.34592000  0.14989000  0.25566000  1.0
  C  C90  1  0.84592000  0.64989000  0.24433000  1.0
  C  C91  1  0.34592000  0.35011000  0.75566000  1.0
  C  C92  1  0.82119000  0.62882000  0.78676000  1.0
  C  C93  1  0.32119000  0.37118000  0.21324000  1.0
  C  C94  1  0.82119000  0.87118000  0.28676000  1.0
  C  C95  1  0.32118000  0.12882000  0.71324000  1.0
  C  C96  1  0.67944000  0.79530000  0.84110000  1.0
  C  C97  1  0.17945000  0.20469000  0.15890000  1.0
  C  C98  1  0.67944000  0.70470000  0.34110000  1.0
  C  C99  1  0.17944000  0.29530000  0.65890000  1.0
  C  C100  1  0.73942000  0.88942000  0.79538000  1.0
  C  C101  1  0.23943000  0.11058000  0.20462000  1.0
  C  C102  1  0.73942000  0.61058000  0.29538000  1.0
  C  C103  1  0.23942000  0.38942000  0.70462000  1.0
  C  C104  1  0.55940000  0.23015000  0.07021000  1.0
  C  C105  1  0.05939000  0.76986000  0.92979000  1.0
  C  C106  1  0.55940000  0.26985000  0.57021000  1.0
  C  C107  1  0.05939000  0.73014000  0.42979000  1.0
  C  C108  1  0.56047000  0.09849000  0.96822000  1.0
  C  C109  1  0.06046000  0.90152000  0.03178000  1.0
  C  C110  1  0.56047000  0.40151000  0.46822000  1.0
  C  C111  1  0.06046000  0.59848000  0.53178000  1.0
  C  C112  1  0.71670000  0.16235000  0.06357000  1.0
  C  C113  1  0.21670000  0.83766000  0.93644000  1.0
  C  C114  1  0.71670000  0.33765000  0.56357000  1.0
  C  C115  1  0.21670000  0.66234000  0.43644000  1.0
  N  N116  1  0.01394000  0.08602000  0.51712000  1.0
  N  N117  1  0.51394000  0.91398000  0.48288000  1.0
  N  N118  1  0.01394000  0.41398000  0.01712000  1.0
  N  N119  1  0.51394000  0.58602000  0.98288000  1.0
  N  N120  1  0.16579000  0.25053000  0.45407000  1.0
  N  N121  1  0.66579000  0.74947000  0.54593000  1.0
  N  N122  1  0.16579000  0.24947000  0.95407000  1.0
  N  N123  1  0.66579000  0.75053000  0.04593000  1.0
  N  N124  1  0.81866000  0.06879000  0.43919000  1.0
  N  N125  1  0.31866000  0.93121000  0.56081000  1.0
  N  N126  1  0.81866000  0.43121000  0.93919000  1.0
  N  N127  1  0.31866000  0.56878000  0.06081000  1.0
  N  N128  1  0.04864000  0.32361000  0.34462000  1.0
  N  N129  1  0.54864000  0.67639000  0.65538000  1.0
  N  N130  1  0.04864000  0.17639000  0.84462000  1.0
  N  N131  1  0.54864000  0.82361000  0.15538000  1.0
  N  N132  1  0.81738000  0.24463000  0.30109000  1.0
  N  N133  1  0.31738000  0.75537000  0.69891000  1.0
  N  N134  1  0.81738000  0.25537000  0.80109000  1.0
  N  N135  1  0.31738000  0.74463000  0.19891000  1.0
  N  N136  1  0.72057000  0.66768000  0.83683000  1.0
  N  N137  1  0.22057000  0.33231000  0.16317000  1.0
  N  N138  1  0.72057000  0.83231000  0.33683000  1.0
  N  N139  1  0.22057000  0.16768000  0.66317000  1.0
  N  N140  1  0.70883000  0.10645000  0.99219000  1.0
  N  N141  1  0.20882000  0.89356000  0.00782000  1.0
  N  N142  1  0.70883000  0.39355000  0.49219000  1.0
  N  N143  1  0.20883000  0.60645000  0.50781000  1.0
  N  N144  1  0.46708000  0.15993000  0.01752000  1.0
  N  N145  1  0.96706000  0.84008000  0.98248000  1.0
  N  N146  1  0.46707000  0.34007000  0.51752000  1.0
  N  N147  1  0.96707000  0.65992000  0.48248000  1.0
  O  O148  1  0.03407000  0.90220000  0.66008000  1.0
  O  O149  1  0.53408000  0.09780000  0.33992000  1.0
  O  O150  1  0.03408000  0.59780000  0.16008000  1.0
  O  O151  1  0.53408000  0.40220000  0.83992000  1.0
  O  O152  1  0.85920000  0.05960000  0.68558000  1.0
  O  O153  1  0.35920000  0.94040000  0.31442000  1.0
  O  O154  1  0.85920000  0.44040000  0.18558000  1.0
  O  O155  1  0.35920000  0.55960000  0.81441000  1.0
  O  O156  1  0.51682000  0.04484000  0.91224000  1.0
  O  O157  1  0.01680000  0.95518000  0.08776000  1.0
  O  O158  1  0.51681000  0.45516000  0.41224000  1.0
  O  O159  1  0.01680000  0.54484000  0.58776000  1.0
