# generated using pymatgen
data_Al4H9C38Cl3O22
_symmetry_space_group_name_H-M   'P 1'
_cell_length_a   6.68881000
_cell_length_b   17.92630000
_cell_length_c   21.04080000
_cell_angle_alpha   71.92800000
_cell_angle_beta   88.74710000
_cell_angle_gamma   88.67190000
_symmetry_Int_Tables_number   1
_chemical_formula_structural   Al4H9C38Cl3O22
_chemical_formula_sum   'Al4 H9 C38 Cl3 O22'
_cell_volume   2397.51826853
_cell_formula_units_Z   1
loop_
 _symmetry_equiv_pos_site_id
 _symmetry_equiv_pos_as_xyz
  1  'x, y, z'
loop_
 _atom_site_type_symbol
 _atom_site_label
 _atom_site_symmetry_multiplicity
 _atom_site_fract_x
 _atom_site_fract_y
 _atom_site_fract_z
 _atom_site_occupancy
  Al  Al0  1  0.87829000  0.50017000  0.49951000  1.0
  Al  Al1  1  0.37876000  0.49937000  0.50068000  1.0
  Al  Al2  1  0.33931000  0.99992000  0.99959000  1.0
  Al  Al3  1  0.83915000  0.00076000  0.99822000  1.0
  H  H4  1  0.85436000  0.25065000  0.33548000  1.0
  H  H5  1  0.33534000  0.73296000  0.83544000  1.0
  H  H6  1  0.87677000  0.84724000  0.74168000  1.0
  H  H7  1  0.65925000  0.16563000  0.30717000  1.0
  H  H8  1  0.54068000  0.36361000  0.18655000  1.0
  H  H9  1  0.63518000  0.40590000  0.49238000  1.0
  H  H10  1  0.12415000  0.60216000  0.48439000  1.0
  H  H11  1  0.58290000  0.09388000  0.00713000  1.0
  H  H12  1  0.09115000  0.89902000  0.03599000  1.0
  C  C13  1  0.62924000  0.60766000  0.39620000  1.0
  C  C14  1  0.61824000  0.57729000  0.57522000  1.0
  C  C15  1  0.12525000  0.39328000  0.60364000  1.0
  C  C16  1  0.13994000  0.42112000  0.42487000  1.0
  C  C17  1  0.94570000  0.20307000  0.25715000  1.0
  C  C18  1  0.08970000  0.20329000  0.20638000  1.0
  C  C19  1  0.25814000  0.25191000  0.20020000  1.0
  C  C20  1  0.28788000  0.29625000  0.24369000  1.0
  C  C21  1  0.14057000  0.29539000  0.29373000  1.0
  C  C22  1  0.97005000  0.24962000  0.29842000  1.0
  C  C23  1  0.07124000  0.15825000  0.16259000  1.0
  C  C24  1  0.15458000  0.34025000  0.33812000  1.0
  C  C25  1  0.14531000  0.37711000  0.37794000  1.0
  C  C26  1  0.07407000  0.12259000  0.12183000  1.0
  C  C27  1  0.09603000  0.16810000  0.83238000  1.0
  C  C28  1  0.10493000  0.22112000  0.77931000  1.0
  C  C29  1  0.11388000  0.27948000  0.72059000  1.0
  C  C30  1  0.12186000  0.33217000  0.66728000  1.0
  C  C31  1  0.62434000  0.66868000  0.33252000  1.0
  C  C32  1  0.61396000  0.72089000  0.27898000  1.0
  C  C33  1  0.60336000  0.77855000  0.21989000  1.0
  C  C34  1  0.59376000  0.83087000  0.16641000  1.0
  C  C35  1  0.45464000  0.74042000  0.79806000  1.0
  C  C36  1  0.60582000  0.79534000  0.79368000  1.0
  C  C37  1  0.75987000  0.80487000  0.74522000  1.0
  C  C38  1  0.76106000  0.76039000  0.70167000  1.0
  C  C39  1  0.61144000  0.70430000  0.70513000  1.0
  C  C40  1  0.45908000  0.69553000  0.75481000  1.0
  C  C41  1  0.60334000  0.84049000  0.83822000  1.0
  C  C42  1  0.61346000  0.65960000  0.66070000  1.0
  C  C43  1  0.61505000  0.62147000  0.62182000  1.0
  C  C44  1  0.60139000  0.87884000  0.87693000  1.0
  C  C45  1  0.59767000  0.92306000  0.92366000  1.0
  C  C46  1  0.59009000  0.89217000  0.10302000  1.0
  C  C47  1  0.07921000  0.07967000  0.07414000  1.0
  C  C48  1  0.09113000  0.10621000  0.89542000  1.0
  C  C49  1  0.76559000  0.15332000  0.26969000  1.0
  C  C50  1  0.47185000  0.34342000  0.23744000  1.0
  Cl  Cl51  1  0.43373000  0.25334000  0.13862000  1.0
  Cl  Cl52  1  0.27628000  0.62735000  0.76190000  1.0
  Cl  Cl53  1  0.94778000  0.77404000  0.64177000  1.0
  O  O54  1  0.44976000  0.55771000  0.55893000  1.0
  O  O55  1  0.80125000  0.58329000  0.41929000  1.0
  O  O56  1  0.96720000  0.43693000  0.44449000  1.0
  O  O57  1  0.78974000  0.56266000  0.55394000  1.0
  O  O58  1  0.95540000  0.41824000  0.57905000  1.0
  O  O59  1  0.45953000  0.58519000  0.42299000  1.0
  O  O60  1  0.63123000  0.45335000  0.50530000  1.0
  O  O61  1  0.29653000  0.41515000  0.57811000  1.0
  O  O62  1  0.30798000  0.43916000  0.44270000  1.0
  O  O63  1  0.12659000  0.54592000  0.49258000  1.0
  O  O64  1  0.76020000  0.91627000  0.07738000  1.0
  O  O65  1  0.42572000  0.93949000  0.94326000  1.0
  O  O66  1  0.25988000  0.08222000  0.92142000  1.0
  O  O67  1  0.41860000  0.91543000  0.07866000  1.0
  O  O68  1  0.25274000  0.06211000  0.05629000  1.0
  O  O69  1  0.76603000  0.94053000  0.94166000  1.0
  O  O70  1  0.58662000  0.04667000  0.99385000  1.0
  O  O71  1  0.91137000  0.06438000  0.05403000  1.0
  O  O72  1  0.91971000  0.08224000  0.91940000  1.0
  O  O73  1  0.09103000  0.95343000  0.00813000  1.0
  O  O74  1  0.73164000  0.10299000  0.24366000  1.0
  O  O75  1  0.54622000  0.35870000  0.28441000  1.0
