# generated using pymatgen
data_CdH9C14S2N7
_symmetry_space_group_name_H-M   'P 1'
_cell_length_a   7.59715000
_cell_length_b   9.74967000
_cell_length_c   14.19370928
_cell_angle_alpha   110.04370149
_cell_angle_beta   105.20029278
_cell_angle_gamma   90.04010000
_symmetry_Int_Tables_number   1
_chemical_formula_structural   CdH9C14S2N7
_chemical_formula_sum   'Cd2 H18 C28 S4 N14'
_cell_volume   948.32645384
_cell_formula_units_Z   2
loop_
 _symmetry_equiv_pos_site_id
 _symmetry_equiv_pos_as_xyz
  1  'x, y, z'
loop_
 _atom_site_type_symbol
 _atom_site_label
 _atom_site_symmetry_multiplicity
 _atom_site_fract_x
 _atom_site_fract_y
 _atom_site_fract_z
 _atom_site_occupancy
  Cd  Cd0  1  0.50001000  0.00000000  0.50000000  1.0
  Cd  Cd1  1  0.00001000  0.50000000  0.50000000  1.0
  H  H2  1  0.75009000  0.74837000  0.00004000  1.0
  H  H3  1  0.24991000  0.25162000  0.99996000  1.0
  H  H4  1  0.32079000  0.67135000  0.37854000  1.0
  H  H5  1  0.17913000  0.29275000  0.62190000  1.0
  H  H6  1  0.67921000  0.32865000  0.62146000  1.0
  H  H7  1  0.82088000  0.70724000  0.37811000  1.0
  H  H8  1  0.07909000  0.51042000  0.22000000  1.0
  H  H9  1  0.42120000  0.29054000  0.78035000  1.0
  H  H10  1  0.92090000  0.48958000  0.78000000  1.0
  H  H11  1  0.57880000  0.70946000  0.21966000  1.0
  H  H12  1  0.94358000  0.90035000  0.14681000  1.0
  H  H13  1  0.55651000  0.75348000  0.85319000  1.0
  H  H14  1  0.05643000  0.09964000  0.85319000  1.0
  H  H15  1  0.44349000  0.24651000  0.14681000  1.0
  H  H16  1  0.18552000  0.04223000  0.30681000  1.0
  H  H17  1  0.31418000  0.73533000  0.69337000  1.0
  H  H18  1  0.81449000  0.95778000  0.69319000  1.0
  H  H19  1  0.68582000  0.26466000  0.30663000  1.0
  C  C20  1  0.83676000  0.14565000  0.43394000  1.0
  C  C21  1  0.66277000  0.71110000  0.56536000  1.0
  C  C22  1  0.16323000  0.85436000  0.56605000  1.0
  C  C23  1  0.33724000  0.28891000  0.43464000  1.0
  C  C24  1  0.23332000  0.71660000  0.32456000  1.0
  C  C25  1  0.26657000  0.39201000  0.67576000  1.0
  C  C26  1  0.76668000  0.28340000  0.67544000  1.0
  C  C27  1  0.73342000  0.60799000  0.32424000  1.0
  C  C28  1  0.09989000  0.62788000  0.23677000  1.0
  C  C29  1  0.40032000  0.39115000  0.76348000  1.0
  C  C30  1  0.90010000  0.37212000  0.76323000  1.0
  C  C31  1  0.59967000  0.60884000  0.23652000  1.0
  C  C32  1  0.99332000  0.69072000  0.16855000  1.0
  C  C33  1  0.50697000  0.52219000  0.83160000  1.0
  C  C34  1  0.00668000  0.30928000  0.83145000  1.0
  C  C35  1  0.49302000  0.47781000  0.16840000  1.0
  C  C36  1  0.02366000  0.84277000  0.19446000  1.0
  C  C37  1  0.47639000  0.64824000  0.80562000  1.0
  C  C38  1  0.97635000  0.15723000  0.80554000  1.0
  C  C39  1  0.52361000  0.35176000  0.19438000  1.0
  C  C40  1  0.15924000  0.92381000  0.28428000  1.0
  C  C41  1  0.34058000  0.63940000  0.71586000  1.0
  C  C42  1  0.84076000  0.07619000  0.71572000  1.0
  C  C43  1  0.65942000  0.36059000  0.28414000  1.0
  C  C44  1  0.85754000  0.59776000  0.07462000  1.0
  C  C45  1  0.64295000  0.52318000  0.92550000  1.0
  C  C46  1  0.14246000  0.40224000  0.92538000  1.0
  C  C47  1  0.35705000  0.47682000  0.07451000  1.0
  S  S48  1  0.72498000  0.98385000  0.36996000  1.0
  S  S49  1  0.77333000  0.61261000  0.62915000  1.0
  S  S50  1  0.27500000  0.01616000  0.63003000  1.0
  S  S51  1  0.22669000  0.38740000  0.37086000  1.0
  N  N52  1  0.91768000  0.26354000  0.48070000  1.0
  N  N53  1  0.58262000  0.78280000  0.51884000  1.0
  N  N54  1  0.08233000  0.73646000  0.51931000  1.0
  N  N55  1  0.41739000  0.21720000  0.48116000  1.0
  N  N56  1  0.26390000  0.86209000  0.34785000  1.0
  N  N57  1  0.23574000  0.51416000  0.65241000  1.0
  N  N58  1  0.73610000  0.13791000  0.65214000  1.0
  N  N59  1  0.76426000  0.48583000  0.34759000  1.0
  N  N60  1  0.81751000  0.45337000  0.04648000  1.0
  N  N61  1  0.68318000  0.40693000  0.95362000  1.0
  N  N62  1  0.18250000  0.54663000  0.95353000  1.0
  N  N63  1  0.31682000  0.59307000  0.04638000  1.0
  N  N64  1  0.75019000  0.64450000  0.00006000  1.0
  N  N65  1  0.24981000  0.35550000  0.99994000  1.0
