# generated using pymatgen
data_LiH17C9N4
_symmetry_space_group_name_H-M   'P 1'
_cell_length_a   10.08150000
_cell_length_b   10.29740000
_cell_length_c   11.45960000
_cell_angle_alpha   90.00020000
_cell_angle_beta   90.00010000
_cell_angle_gamma   94.43800000
_symmetry_Int_Tables_number   1
_chemical_formula_structural   LiH17C9N4
_chemical_formula_sum   'Li4 H68 C36 N16'
_cell_volume   1186.09117285
_cell_formula_units_Z   4
loop_
 _symmetry_equiv_pos_site_id
 _symmetry_equiv_pos_as_xyz
  1  'x, y, z'
loop_
 _atom_site_type_symbol
 _atom_site_label
 _atom_site_symmetry_multiplicity
 _atom_site_fract_x
 _atom_site_fract_y
 _atom_site_fract_z
 _atom_site_occupancy
  Li  Li0  1  0.99298000  0.83488000  0.74543000  1.0
  Li  Li1  1  0.49297000  0.33488000  0.75457000  1.0
  Li  Li2  1  0.00702000  0.16512000  0.25456000  1.0
  Li  Li3  1  0.50702000  0.66512000  0.24544000  1.0
  H  H4  1  0.96171000  0.53419000  0.10610000  1.0
  H  H5  1  0.46172000  0.03419000  0.39390000  1.0
  H  H6  1  0.03827000  0.46581000  0.89390000  1.0
  H  H7  1  0.53829000  0.96582000  0.60610000  1.0
  H  H8  1  0.17598000  0.94851000  0.93482000  1.0
  H  H9  1  0.67598000  0.44851000  0.56518000  1.0
  H  H10  1  0.82402000  0.05149000  0.06518000  1.0
  H  H11  1  0.32402000  0.55149000  0.43482000  1.0
  H  H12  1  0.07005000  0.07603000  0.91300000  1.0
  H  H13  1  0.57005000  0.57604000  0.58700000  1.0
  H  H14  1  0.92995000  0.92396000  0.08700000  1.0
  H  H15  1  0.42995000  0.42396000  0.41300000  1.0
  H  H16  1  0.24443000  0.10662000  0.88891000  1.0
  H  H17  1  0.74443000  0.60662000  0.61110000  1.0
  H  H18  1  0.75557000  0.89338000  0.11110000  1.0
  H  H19  1  0.25557000  0.39338000  0.38891000  1.0
  H  H20  1  0.18062000  0.18032000  0.68538000  1.0
  H  H21  1  0.68062000  0.68032000  0.81462000  1.0
  H  H22  1  0.81938000  0.81968000  0.31462000  1.0
  H  H23  1  0.31938000  0.31968000  0.18538000  1.0
  H  H24  1  0.00987000  0.13716000  0.72164000  1.0
  H  H25  1  0.50987000  0.63716000  0.77836000  1.0
  H  H26  1  0.99013000  0.86284000  0.27836000  1.0
  H  H27  1  0.49013000  0.36284000  0.22164000  1.0
  H  H28  1  0.08093000  0.06724000  0.59707000  1.0
  H  H29  1  0.58093000  0.56724000  0.90293000  1.0
  H  H30  1  0.91907000  0.93276000  0.40293000  1.0
  H  H31  1  0.41908000  0.43276000  0.09707000  1.0
  H  H32  1  0.29455000  0.87218000  0.78151000  1.0
  H  H33  1  0.79455000  0.37218000  0.71849000  1.0
  H  H34  1  0.70546000  0.12782000  0.21849000  1.0
  H  H35  1  0.20545000  0.62782000  0.28151000  1.0
  H  H36  1  0.33450000  0.00728000  0.68859000  1.0
  H  H37  1  0.83450000  0.50728000  0.81141000  1.0
  H  H38  1  0.66550000  0.99272000  0.31141000  1.0
  H  H39  1  0.16550000  0.49272000  0.18859000  1.0
  H  H40  1  0.17737000  0.90493000  0.53696000  1.0
  H  H41  1  0.67737000  0.40493000  0.96304000  1.0
  H  H42  1  0.82263000  0.09507000  0.46304000  1.0
  H  H43  1  0.32263000  0.59507000  0.03696000  1.0
  H  H44  1  0.31168000  0.81016000  0.56911000  1.0
  H  H45  1  0.81167000  0.31016000  0.93089000  1.0
  H  H46  1  0.68833000  0.18984000  0.43089000  1.0
  H  H47  1  0.18833000  0.68983000  0.06911000  1.0
  H  H48  1  0.26278000  0.59338000  0.64608000  1.0
  H  H49  1  0.76278000  0.09338000  0.85393000  1.0
  H  H50  1  0.73722000  0.40662000  0.35392000  1.0
  H  H51  1  0.23722000  0.90662000  0.14608000  1.0
  H  H52  1  0.10623000  0.55470000  0.71583000  1.0
  H  H53  1  0.60623000  0.05470000  0.78417000  1.0
  H  H54  1  0.89377000  0.44530000  0.28417000  1.0
  H  H55  1  0.39377000  0.94530000  0.21583000  1.0
  H  H56  1  0.22356000  0.66899000  0.78102000  1.0
  H  H57  1  0.72356000  0.16899000  0.71898000  1.0
  H  H58  1  0.77645000  0.33101000  0.21898000  1.0
  H  H59  1  0.27644000  0.83101000  0.28102000  1.0
  H  H60  1  0.12366000  0.64597000  0.46673000  1.0
  H  H61  1  0.62366000  0.14597000  0.03327000  1.0
  H  H62  1  0.87634000  0.35403000  0.53327000  1.0
  H  H63  1  0.37634000  0.85403000  0.96673000  1.0
  H  H64  1  0.00217000  0.76217000  0.48660000  1.0
  H  H65  1  0.50218000  0.26217000  0.01340000  1.0
  H  H66  1  0.99782000  0.23783000  0.51340000  1.0
  H  H67  1  0.49782000  0.73783000  0.98660000  1.0
  H  H68  1  0.97921000  0.60693000  0.55410000  1.0
  H  H69  1  0.47921000  0.10693000  0.94590000  1.0
  H  H70  1  0.02080000  0.39307000  0.44590000  1.0
  H  H71  1  0.52079000  0.89307000  0.05410000  1.0
  C  C72  1  0.89645000  0.60444000  0.07194000  1.0
  C  C73  1  0.39646000  0.10446000  0.42803000  1.0
  C  C74  1  0.10354000  0.39556000  0.92805000  1.0
  C  C75  1  0.60355000  0.89556000  0.57195000  1.0
  C  C76  1  0.93610000  0.67943000  0.97656000  1.0
  C  C77  1  0.43609000  0.17941000  0.52345000  1.0
  C  C78  1  0.06390000  0.32057000  0.02343000  1.0
  C  C79  1  0.56391000  0.82058000  0.47656000  1.0
  C  C80  1  0.77124000  0.61173000  0.11913000  1.0
  C  C81  1  0.27122000  0.11174000  0.38087000  1.0
  C  C82  1  0.22876000  0.38826000  0.88087000  1.0
  C  C83  1  0.72876000  0.88826000  0.61914000  1.0
  C  C84  1  0.15905000  0.03303000  0.88010000  1.0
  C  C85  1  0.65905000  0.53303000  0.61990000  1.0
  C  C86  1  0.84096000  0.96697000  0.11990000  1.0
  C  C87  1  0.34096000  0.46697000  0.38010000  1.0
  C  C88  1  0.10108000  0.10009000  0.68681000  1.0
  C  C89  1  0.60108000  0.60009000  0.81319000  1.0
  C  C90  1  0.89892000  0.89991000  0.31319000  1.0
  C  C91  1  0.39892000  0.39991000  0.18681000  1.0
  C  C92  1  0.25477000  0.93174000  0.71193000  1.0
  C  C93  1  0.75477000  0.43173000  0.78806000  1.0
  C  C94  1  0.74523000  0.06826000  0.28806000  1.0
  C  C95  1  0.24523000  0.56826000  0.21194000  1.0
  C  C96  1  0.21983000  0.84642000  0.60576000  1.0
  C  C97  1  0.71983000  0.34642000  0.89424000  1.0
  C  C98  1  0.78018000  0.15358000  0.39423000  1.0
  C  C99  1  0.28018000  0.65358000  0.10577000  1.0
  C  C100  1  0.18234000  0.63386000  0.69722000  1.0
  C  C101  1  0.68234000  0.13386000  0.80278000  1.0
  C  C102  1  0.81767000  0.36614000  0.30278000  1.0
  C  C103  1  0.31766000  0.86614000  0.19722000  1.0
  C  C104  1  0.05376000  0.68562000  0.52971000  1.0
  C  C105  1  0.55376000  0.18562000  0.97029000  1.0
  C  C106  1  0.94624000  0.31438000  0.47029000  1.0
  C  C107  1  0.44624000  0.81438000  0.02971000  1.0
  N  N108  1  0.96962000  0.74255000  0.89430000  1.0
  N  N109  1  0.46962000  0.24254000  0.60569000  1.0
  N  N110  1  0.03038000  0.25745000  0.10569000  1.0
  N  N111  1  0.53038000  0.75745000  0.39430000  1.0
  N  N112  1  0.66428000  0.61768000  0.15949000  1.0
  N  N113  1  0.16427000  0.11768000  0.34051000  1.0
  N  N114  1  0.33572000  0.38232000  0.84051000  1.0
  N  N115  1  0.83573000  0.88232000  0.65949000  1.0
  N  N116  1  0.13720000  0.99055000  0.75911000  1.0
  N  N117  1  0.63720000  0.49055000  0.74089000  1.0
  N  N118  1  0.86280000  0.00945000  0.24089000  1.0
  N  N119  1  0.36280000  0.50945000  0.25911000  1.0
  N  N120  1  0.12103000  0.73791000  0.63469000  1.0
  N  N121  1  0.62103000  0.23791000  0.86531000  1.0
  N  N122  1  0.87897000  0.26209000  0.36531000  1.0
  N  N123  1  0.37897000  0.76209000  0.13469000  1.0
