# generated using pymatgen
data_Cd3H14C20(NO)8
_symmetry_space_group_name_H-M   'P 1'
_cell_length_a   9.96712000
_cell_length_b   9.96717000
_cell_length_c   13.10920000
_cell_angle_alpha   76.24090000
_cell_angle_beta   76.24110000
_cell_angle_gamma   71.15500000
_symmetry_Int_Tables_number   1
_chemical_formula_structural   Cd3H14C20(NO)8
_chemical_formula_sum   'Cd6 H28 C40 N16 O16'
_cell_volume   1178.63512328
_cell_formula_units_Z   2
loop_
 _symmetry_equiv_pos_site_id
 _symmetry_equiv_pos_as_xyz
  1  'x, y, z'
loop_
 _atom_site_type_symbol
 _atom_site_label
 _atom_site_symmetry_multiplicity
 _atom_site_fract_x
 _atom_site_fract_y
 _atom_site_fract_z
 _atom_site_occupancy
  Cd  Cd0  1  0.38308000  0.36782000  0.03098000  1.0
  Cd  Cd1  1  0.63218000  0.61692000  0.46902000  1.0
  Cd  Cd2  1  0.61692000  0.63218000  0.96902000  1.0
  Cd  Cd3  1  0.36782000  0.38308000  0.53098000  1.0
  Cd  Cd4  1  0.00000000  0.50000000  0.00000000  1.0
  Cd  Cd5  1  0.50000000  0.00000000  0.50000000  1.0
  H  H6  1  0.94652000  0.56045000  0.76502000  1.0
  H  H7  1  0.43955000  0.05348000  0.73498000  1.0
  H  H8  1  0.05348000  0.43955000  0.23498000  1.0
  H  H9  1  0.56045000  0.94652000  0.26502000  1.0
  H  H10  1  0.03984000  0.50158000  0.64756000  1.0
  H  H11  1  0.49842000  0.96016000  0.85243000  1.0
  H  H12  1  0.96016000  0.49842000  0.35244000  1.0
  H  H13  1  0.50158000  0.03984000  0.14757000  1.0
  H  H14  1  0.34795000  0.88233000  0.05634000  1.0
  H  H15  1  0.11768000  0.65205000  0.44366000  1.0
  H  H16  1  0.65205000  0.11768000  0.94366000  1.0
  H  H17  1  0.88233000  0.34795000  0.55634000  1.0
  H  H18  1  0.95726000  0.75269000  0.13704000  1.0
  H  H19  1  0.24731000  0.04274000  0.36296000  1.0
  H  H20  1  0.04274000  0.24731000  0.86296000  1.0
  H  H21  1  0.75269000  0.95726000  0.63705000  1.0
  H  H22  1  0.81376000  0.00262000  0.16148000  1.0
  H  H23  1  0.99738000  0.18623000  0.33852000  1.0
  H  H24  1  0.18623000  0.99738000  0.83852000  1.0
  H  H25  1  0.00263000  0.81376000  0.66148000  1.0
  H  H26  1  0.94082000  0.19180000  0.13104000  1.0
  H  H27  1  0.80820000  0.05917000  0.36896000  1.0
  H  H28  1  0.05917000  0.80820000  0.86896000  1.0
  H  H29  1  0.19180000  0.94082000  0.63104000  1.0
  H  H30  1  0.49983000  0.35355000  0.75412000  1.0
  H  H31  1  0.64645000  0.50017000  0.74589000  1.0
  H  H32  1  0.50017000  0.64645000  0.24588000  1.0
  H  H33  1  0.35355000  0.49983000  0.25412000  1.0
  C  C34  1  0.15148000  0.04729000  0.09320000  1.0
  C  C35  1  0.95271000  0.84851000  0.40680000  1.0
  C  C36  1  0.84851000  0.95272000  0.90680000  1.0
  C  C37  1  0.04729000  0.15148000  0.59320000  1.0
  C  C38  1  0.23143000  0.90716000  0.07996000  1.0
  C  C39  1  0.09284000  0.76857000  0.42004000  1.0
  C  C40  1  0.76857000  0.09285000  0.92004000  1.0
  C  C41  1  0.90716000  0.23143000  0.57996000  1.0
  C  C42  1  0.16094000  0.80183000  0.09435000  1.0
  C  C43  1  0.19817000  0.83906000  0.40565000  1.0
  C  C44  1  0.83905000  0.19818000  0.90565000  1.0
  C  C45  1  0.80183000  0.16094000  0.59435000  1.0
  C  C46  1  0.01050000  0.83649000  0.12488000  1.0
  C  C47  1  0.16351000  0.98950000  0.37512000  1.0
  C  C48  1  0.98950000  0.16351000  0.87512000  1.0
  C  C49  1  0.83649000  0.01050000  0.62488000  1.0
  C  C50  1  0.93069000  0.97601000  0.13850000  1.0
  C  C51  1  0.02399000  0.06930000  0.36150000  1.0
  C  C52  1  0.06930000  0.02400000  0.86150000  1.0
  C  C53  1  0.97601000  0.93069000  0.63850000  1.0
  C  C54  1  0.00115000  0.08148000  0.12156000  1.0
  C  C55  1  0.91852000  0.99885000  0.37845000  1.0
  C  C56  1  0.99885000  0.91852000  0.87845000  1.0
  C  C57  1  0.08148000  0.00114000  0.62156000  1.0
  C  C58  1  0.22583000  0.16071000  0.07535000  1.0
  C  C59  1  0.83930000  0.77416000  0.42465000  1.0
  C  C60  1  0.77416000  0.83930000  0.92464000  1.0
  C  C61  1  0.16071000  0.22583000  0.57535000  1.0
  C  C62  1  0.24316000  0.65515000  0.07325000  1.0
  C  C63  1  0.34485000  0.75685000  0.42675000  1.0
  C  C64  1  0.75684000  0.34485000  0.92676000  1.0
  C  C65  1  0.65515000  0.24316000  0.57324000  1.0
  C  C66  1  0.16256000  0.48774000  0.75451000  1.0
  C  C67  1  0.51226000  0.83744000  0.74549000  1.0
  C  C68  1  0.83744000  0.51226000  0.24549000  1.0
  C  C69  1  0.48774000  0.16256000  0.25451000  1.0
  C  C70  1  0.38409000  0.39865000  0.77173000  1.0
  C  C71  1  0.60135000  0.61591000  0.72828000  1.0
  C  C72  1  0.61591000  0.60135000  0.22827000  1.0
  C  C73  1  0.39865000  0.38409000  0.27173000  1.0
  N  N74  1  0.31281000  0.42307000  0.86738000  1.0
  N  N75  1  0.57694000  0.68719000  0.63262000  1.0
  N  N76  1  0.68719000  0.57694000  0.13262000  1.0
  N  N77  1  0.42306000  0.31281000  0.36738000  1.0
  N  N78  1  0.16902000  0.48022000  0.85736000  1.0
  N  N79  1  0.51979000  0.83097000  0.64264000  1.0
  N  N80  1  0.83098000  0.51979000  0.14264000  1.0
  N  N81  1  0.48022000  0.16902000  0.35736000  1.0
  N  N82  1  0.29667000  0.43737000  0.69810000  1.0
  N  N83  1  0.56263000  0.70333000  0.80190000  1.0
  N  N84  1  0.70333000  0.56262000  0.30190000  1.0
  N  N85  1  0.43737000  0.29667000  0.19810000  1.0
  N  N86  1  0.04011000  0.54419000  0.71134000  1.0
  N  N87  1  0.45581000  0.95989000  0.78866000  1.0
  N  N88  1  0.95989000  0.45581000  0.28866000  1.0
  N  N89  1  0.54420000  0.04011000  0.21134000  1.0
  O  O90  1  0.14975000  0.28814000  0.08923000  1.0
  O  O91  1  0.71187000  0.85025000  0.41077000  1.0
  O  O92  1  0.85025000  0.71187000  0.91077000  1.0
  O  O93  1  0.28814000  0.14975000  0.58923000  1.0
  O  O94  1  0.36252000  0.12812000  0.04765000  1.0
  O  O95  1  0.87188000  0.63748000  0.45236000  1.0
  O  O96  1  0.63748000  0.87189000  0.95236000  1.0
  O  O97  1  0.12812000  0.36251000  0.54764000  1.0
  O  O98  1  0.17377000  0.56589000  0.07581000  1.0
  O  O99  1  0.43410000  0.82624000  0.42418000  1.0
  O  O100  1  0.82624000  0.43411000  0.92418000  1.0
  O  O101  1  0.56589000  0.17376000  0.57582000  1.0
  O  O102  1  0.38087000  0.61684000  0.05503000  1.0
  O  O103  1  0.38316000  0.61914000  0.44498000  1.0
  O  O104  1  0.61914000  0.38316000  0.94498000  1.0
  O  O105  1  0.61684000  0.38086000  0.55502000  1.0
