# generated using pymatgen
data_CoH18C18(N2O3)2
_symmetry_space_group_name_H-M   'P 1'
_cell_length_a   7.03345000
_cell_length_b   8.41931000
_cell_length_c   8.63469000
_cell_angle_alpha   97.63890000
_cell_angle_beta   113.88200000
_cell_angle_gamma   104.95800000
_symmetry_Int_Tables_number   1
_chemical_formula_structural   CoH18C18(N2O3)2
_chemical_formula_sum   'Co1 H18 C18 N4 O6'
_cell_volume   435.07780989
_cell_formula_units_Z   1
loop_
 _symmetry_equiv_pos_site_id
 _symmetry_equiv_pos_as_xyz
  1  'x, y, z'
loop_
 _atom_site_type_symbol
 _atom_site_label
 _atom_site_symmetry_multiplicity
 _atom_site_fract_x
 _atom_site_fract_y
 _atom_site_fract_z
 _atom_site_occupancy
  Co  Co0  1  0.50000000  0.50000000  0.50000000  1.0
  H  H1  1  0.80536000  0.63258000  0.15749000  1.0
  H  H2  1  0.19463000  0.36741000  0.84251000  1.0
  H  H3  1  0.66357000  0.73635000  0.87667000  1.0
  H  H4  1  0.33642000  0.26365000  0.12333000  1.0
  H  H5  1  0.57778000  0.15251000  0.57225000  1.0
  H  H6  1  0.42222000  0.84749000  0.42775000  1.0
  H  H7  1  0.67253000  0.94734000  0.74818000  1.0
  H  H8  1  0.32747000  0.05266000  0.25182000  1.0
  H  H9  1  0.81888000  0.03186000  0.07349000  1.0
  H  H10  1  0.18112000  0.96814000  0.92650000  1.0
  H  H11  1  0.86920000  0.32072000  0.22961000  1.0
  H  H12  1  0.13080000  0.67928000  0.77039000  1.0
  H  H13  1  0.09070000  0.96355000  0.36866000  1.0
  H  H14  1  0.90930000  0.03644000  0.63134000  1.0
  H  H15  1  0.22086000  0.52393000  0.59585000  1.0
  H  H16  1  0.77914000  0.47607000  0.40415000  1.0
  H  H17  1  0.16636000  0.65817000  0.48965000  1.0
  H  H18  1  0.83364000  0.34183000  0.51035000  1.0
  C  C19  1  0.68217000  0.61318000  0.88169000  1.0
  C  C20  1  0.31783000  0.38682000  0.11831000  1.0
  C  C21  1  0.64119000  0.18851000  0.71422000  1.0
  C  C22  1  0.35881000  0.81149000  0.28578000  1.0
  C  C23  1  0.69521000  0.07543000  0.81454000  1.0
  C  C24  1  0.30479000  0.92458000  0.18546000  1.0
  C  C25  1  0.77702000  0.12291000  0.99840000  1.0
  C  C26  1  0.22297000  0.87709000  0.00160000  1.0
  C  C27  1  0.80732000  0.28467000  0.08809000  1.0
  C  C28  1  0.19268000  0.71533000  0.91191000  1.0
  C  C29  1  0.75091000  0.39725000  0.98728000  1.0
  C  C30  1  0.24909000  0.60275000  0.01272000  1.0
  C  C31  1  0.66881000  0.35131000  0.80224000  1.0
  C  C32  1  0.33120000  0.64870000  0.19776000  1.0
  C  C33  1  0.16031000  0.22589000  0.50691000  1.0
  C  C34  1  0.83970000  0.77411000  0.49309000  1.0
  C  C35  1  0.05988000  0.03880000  0.46291000  1.0
  C  C36  1  0.94013000  0.96120000  0.53709000  1.0
  N  N37  1  0.75762000  0.56353000  0.03181000  1.0
  N  N38  1  0.24238000  0.43647000  0.96819000  1.0
  N  N39  1  0.62763000  0.49034000  0.74082000  1.0
  N  N40  1  0.37237000  0.50966000  0.25918000  1.0
  O  O41  1  0.28376000  0.27802000  0.43440000  1.0
  O  O42  1  0.71624000  0.72199000  0.56560000  1.0
  O  O43  1  0.12308000  0.32365000  0.61014000  1.0
  O  O44  1  0.87693000  0.67636000  0.38986000  1.0
  O  O45  1  0.29078000  0.63261000  0.57432000  1.0
  O  O46  1  0.70922000  0.36739000  0.42568000  1.0
