# generated using pymatgen
data_CdH22C24(N4O3)2
_symmetry_space_group_name_H-M   'P 1'
_cell_length_a   8.14064000
_cell_length_b   11.83430000
_cell_length_c   13.76300000
_cell_angle_alpha   109.54400000
_cell_angle_beta   89.99940000
_cell_angle_gamma   89.99970000
_symmetry_Int_Tables_number   1
_chemical_formula_structural   CdH22C24(N4O3)2
_chemical_formula_sum   'Cd2 H44 C48 N16 O12'
_cell_volume   1249.51806046
_cell_formula_units_Z   2
loop_
 _symmetry_equiv_pos_site_id
 _symmetry_equiv_pos_as_xyz
  1  'x, y, z'
loop_
 _atom_site_type_symbol
 _atom_site_label
 _atom_site_symmetry_multiplicity
 _atom_site_fract_x
 _atom_site_fract_y
 _atom_site_fract_z
 _atom_site_occupancy
  Cd  Cd0  1  0.24077000  0.25000000  0.50000000  1.0
  Cd  Cd1  1  0.75924000  0.75001000  0.50000000  1.0
  H  H2  1  0.54499000  0.16522000  0.39815000  1.0
  H  H3  1  0.54500000  0.33477000  0.60183000  1.0
  H  H4  1  0.45501000  0.83478000  0.60184000  1.0
  H  H5  1  0.45501000  0.66522000  0.39816000  1.0
  H  H6  1  0.51872000  0.30523000  0.39716000  1.0
  H  H7  1  0.51872000  0.19477000  0.60283000  1.0
  H  H8  1  0.48128000  0.69478000  0.60284000  1.0
  H  H9  1  0.48128000  0.80523000  0.39717000  1.0
  H  H10  1  0.05034000  0.65733000  0.60776000  1.0
  H  H11  1  0.05036000  0.84267000  0.39224000  1.0
  H  H12  1  0.94966000  0.34267000  0.39223000  1.0
  H  H13  1  0.94965000  0.15733000  0.60776000  1.0
  H  H14  1  0.23384000  0.72336000  0.76241000  1.0
  H  H15  1  0.23384000  0.77664000  0.23758000  1.0
  H  H16  1  0.76617000  0.27663000  0.23758000  1.0
  H  H17  1  0.76615000  0.22336000  0.76241000  1.0
  H  H18  1  0.03321000  0.07932000  0.83068000  1.0
  H  H19  1  0.03320000  0.42068000  0.16932000  1.0
  H  H20  1  0.96680000  0.92067000  0.16934000  1.0
  H  H21  1  0.96679000  0.57932000  0.83067000  1.0
  H  H22  1  0.86284000  0.99864000  0.67020000  1.0
  H  H23  1  0.86284000  0.50137000  0.32982000  1.0
  H  H24  1  0.13716000  0.00137000  0.32982000  1.0
  H  H25  1  0.13716000  0.49863000  0.67019000  1.0
  H  H26  1  0.32048000  0.87746000  0.91965000  1.0
  H  H27  1  0.32047000  0.62255000  0.08035000  1.0
  H  H28  1  0.67954000  0.12254000  0.08036000  1.0
  H  H29  1  0.67951000  0.37746000  0.91964000  1.0
  H  H30  1  0.24211000  0.27291000  0.08953000  1.0
  H  H31  1  0.24211000  0.22708000  0.91046000  1.0
  H  H32  1  0.75790000  0.72708000  0.91046000  1.0
  H  H33  1  0.75788000  0.77291000  0.08953000  1.0
  H  H34  1  0.34696000  0.35127000  0.26932000  1.0
  H  H35  1  0.34697000  0.14873000  0.73067000  1.0
  H  H36  1  0.65305000  0.64874000  0.73067000  1.0
  H  H37  1  0.65305000  0.85127000  0.26933000  1.0
  H  H38  1  0.46963000  0.99195000  0.25445000  1.0
  H  H39  1  0.46963000  0.50805000  0.74554000  1.0
  H  H40  1  0.53035000  0.00806000  0.74556000  1.0
  H  H41  1  0.53036000  0.49195000  0.25446000  1.0
  H  H42  1  0.36323000  0.91294000  0.07703000  1.0
  H  H43  1  0.36323000  0.58706000  0.92297000  1.0
  H  H44  1  0.63675000  0.08706000  0.92298000  1.0
  H  H45  1  0.63676000  0.41294000  0.07703000  1.0
  C  C46  1  0.05288000  0.75029000  0.65831000  1.0
  C  C47  1  0.05289000  0.74972000  0.34168000  1.0
  C  C48  1  0.94712000  0.24972000  0.34169000  1.0
  C  C49  1  0.94712000  0.25028000  0.65831000  1.0
  C  C50  1  0.15291000  0.78756000  0.74502000  1.0
  C  C51  1  0.15291000  0.71244000  0.25498000  1.0
  C  C52  1  0.84710000  0.21244000  0.25498000  1.0
  C  C53  1  0.84709000  0.28755000  0.74502000  1.0
  C  C54  1  0.14577000  0.90734000  0.81063000  1.0
  C  C55  1  0.14576000  0.59267000  0.18937000  1.0
  C  C56  1  0.85424000  0.09266000  0.18937000  1.0
  C  C57  1  0.85423000  0.40733000  0.81063000  1.0
  C  C58  1  0.04175000  0.98562000  0.78212000  1.0
  C  C59  1  0.04174000  0.51438000  0.21788000  1.0
  C  C60  1  0.95826000  0.01438000  0.21789000  1.0
  C  C61  1  0.95825000  0.48561000  0.78212000  1.0
  C  C62  1  0.94765000  0.94136000  0.69365000  1.0
  C  C63  1  0.94765000  0.55865000  0.30636000  1.0
  C  C64  1  0.05235000  0.05864000  0.30637000  1.0
  C  C65  1  0.05235000  0.44135000  0.69364000  1.0
  C  C66  1  0.23859000  0.94562000  0.90702000  1.0
  C  C67  1  0.23859000  0.55438000  0.09298000  1.0
  C  C68  1  0.76142000  0.05438000  0.09298000  1.0
  C  C69  1  0.76140000  0.44562000  0.90702000  1.0
  C  C70  1  0.29542000  0.08780000  0.06950000  1.0
  C  C71  1  0.29543000  0.41220000  0.93050000  1.0
  C  C72  1  0.70457000  0.91220000  0.93051000  1.0
  C  C73  1  0.70457000  0.58779000  0.06949000  1.0
  C  C74  1  0.29402000  0.21165000  0.12561000  1.0
  C  C75  1  0.29402000  0.28835000  0.87438000  1.0
  C  C76  1  0.70598000  0.78835000  0.87438000  1.0
  C  C77  1  0.70597000  0.71165000  0.12562000  1.0
  C  C78  1  0.35507000  0.25580000  0.22540000  1.0
  C  C79  1  0.35507000  0.24420000  0.77459000  1.0
  C  C80  1  0.64493000  0.74421000  0.77459000  1.0
  C  C81  1  0.64493000  0.75579000  0.22541000  1.0
  C  C82  1  0.41831000  0.17709000  0.27311000  1.0
  C  C83  1  0.41832000  0.32292000  0.72689000  1.0
  C  C84  1  0.58169000  0.82292000  0.72689000  1.0
  C  C85  1  0.58168000  0.67709000  0.27311000  1.0
  C  C86  1  0.42274000  0.05346000  0.21721000  1.0
  C  C87  1  0.42274000  0.44654000  0.78279000  1.0
  C  C88  1  0.57725000  0.94654000  0.78279000  1.0
  C  C89  1  0.57725000  0.55346000  0.21721000  1.0
  C  C90  1  0.36234000  0.00959000  0.11724000  1.0
  C  C91  1  0.36235000  0.49041000  0.88275000  1.0
  C  C92  1  0.63765000  0.99041000  0.88277000  1.0
  C  C93  1  0.63764000  0.50959000  0.11724000  1.0
  N  N94  1  0.95014000  0.82516000  0.63325000  1.0
  N  N95  1  0.95014000  0.67485000  0.36676000  1.0
  N  N96  1  0.04987000  0.17484000  0.36675000  1.0
  N  N97  1  0.04986000  0.32515000  0.63325000  1.0
  N  N98  1  0.22062000  0.05185000  0.97264000  1.0
  N  N99  1  0.22062000  0.44815000  0.02735000  1.0
  N  N100  1  0.77938000  0.94815000  0.02736000  1.0
  N  N101  1  0.77936000  0.55185000  0.97264000  1.0
  N  N102  1  0.46636000  0.22114000  0.37724000  1.0
  N  N103  1  0.46636000  0.27886000  0.62276000  1.0
  N  N104  1  0.53364000  0.77887000  0.62276000  1.0
  N  N105  1  0.53364000  0.72114000  0.37724000  1.0
  N  N106  1  0.28712000  0.52561000  0.49787000  1.0
  N  N107  1  0.28712000  0.97440000  0.50213000  1.0
  N  N108  1  0.71288000  0.47440000  0.50213000  1.0
  N  N109  1  0.71288000  0.02560000  0.49786000  1.0
  O  O110  1  0.20278000  0.43014000  0.45808000  1.0
  O  O111  1  0.20278000  0.06986000  0.54192000  1.0
  O  O112  1  0.79722000  0.56987000  0.54192000  1.0
  O  O113  1  0.79721000  0.93014000  0.45807000  1.0
  O  O114  1  0.36544000  0.54108000  0.58120000  1.0
  O  O115  1  0.36545000  0.95893000  0.41880000  1.0
  O  O116  1  0.63457000  0.45893000  0.41880000  1.0
  O  O117  1  0.63457000  0.04107000  0.58120000  1.0
  O  O118  1  0.28814000  0.60340000  0.45445000  1.0
  O  O119  1  0.28814000  0.89660000  0.54555000  1.0
  O  O120  1  0.71185000  0.39661000  0.54555000  1.0
  O  O121  1  0.71185000  0.10340000  0.45445000  1.0
