# generated using pymatgen
data_MgH4(C2O3)2
_symmetry_space_group_name_H-M   'P 1'
_cell_length_a   16.37730000
_cell_length_b   16.37730000
_cell_length_c   16.37730000
_cell_angle_alpha   89.99980000
_cell_angle_beta   89.99960000
_cell_angle_gamma   89.99970000
_symmetry_Int_Tables_number   1
_chemical_formula_structural   MgH4(C2O3)2
_chemical_formula_sum   'Mg24 H96 C96 O144'
_cell_volume   4392.65316438
_cell_formula_units_Z   24
loop_
 _symmetry_equiv_pos_site_id
 _symmetry_equiv_pos_as_xyz
  1  'x, y, z'
loop_
 _atom_site_type_symbol
 _atom_site_label
 _atom_site_symmetry_multiplicity
 _atom_site_fract_x
 _atom_site_fract_y
 _atom_site_fract_z
 _atom_site_occupancy
  Mg  Mg0  1  0.25000000  0.00099000  0.00099000  1.0
  Mg  Mg1  1  0.99901000  0.75000000  0.00098000  1.0
  Mg  Mg2  1  0.25000000  0.49902000  0.00099000  1.0
  Mg  Mg3  1  0.50099000  0.75000000  0.00099000  1.0
  Mg  Mg4  1  0.25000000  0.00099000  0.49901000  1.0
  Mg  Mg5  1  0.99901000  0.75000000  0.49901000  1.0
  Mg  Mg6  1  0.25000000  0.49901000  0.49901000  1.0
  Mg  Mg7  1  0.50099000  0.75000000  0.49901000  1.0
  Mg  Mg8  1  0.99901000  0.00099000  0.75000000  1.0
  Mg  Mg9  1  0.99901000  0.49901000  0.75000000  1.0
  Mg  Mg10  1  0.50099000  0.49901000  0.75000000  1.0
  Mg  Mg11  1  0.50098000  0.00099000  0.75000000  1.0
  Mg  Mg12  1  0.75000000  0.99901000  0.99902000  1.0
  Mg  Mg13  1  0.00099000  0.25000000  0.99901000  1.0
  Mg  Mg14  1  0.75000000  0.50098000  0.99901000  1.0
  Mg  Mg15  1  0.49901000  0.25000000  0.99901000  1.0
  Mg  Mg16  1  0.75000000  0.99901000  0.50099000  1.0
  Mg  Mg17  1  0.00099000  0.25000000  0.50099000  1.0
  Mg  Mg18  1  0.75000000  0.50099000  0.50098000  1.0
  Mg  Mg19  1  0.49901000  0.25000000  0.50099000  1.0
  Mg  Mg20  1  0.00099000  0.99901000  0.25000000  1.0
  Mg  Mg21  1  0.00099000  0.50099000  0.25000000  1.0
  Mg  Mg22  1  0.49901000  0.50099000  0.25000000  1.0
  Mg  Mg23  1  0.49901000  0.99901000  0.25000000  1.0
  H  H24  1  0.11978000  0.00573000  0.90804000  1.0
  H  H25  1  0.99428000  0.61978000  0.90804000  1.0
  H  H26  1  0.38023000  0.49428000  0.90804000  1.0
  H  H27  1  0.50572000  0.88023000  0.90804000  1.0
  H  H28  1  0.38022000  0.00572000  0.59196000  1.0
  H  H29  1  0.99428000  0.88023000  0.59196000  1.0
  H  H30  1  0.11978000  0.49428000  0.59196000  1.0
  H  H31  1  0.50572000  0.61977000  0.59196000  1.0
  H  H32  1  0.99428000  0.90804000  0.88023000  1.0
  H  H33  1  0.09196000  0.49428000  0.88022000  1.0
  H  H34  1  0.50572000  0.59196000  0.88023000  1.0
  H  H35  1  0.40804000  0.00572000  0.88023000  1.0
  H  H36  1  0.50572000  0.90804000  0.61978000  1.0
  H  H37  1  0.09196000  0.00572000  0.61978000  1.0
  H  H38  1  0.99428000  0.59196000  0.61978000  1.0
  H  H39  1  0.40804000  0.49428000  0.61977000  1.0
  H  H40  1  0.09196000  0.88023000  0.00572000  1.0
  H  H41  1  0.38023000  0.59196000  0.49428000  1.0
  H  H42  1  0.11977000  0.59196000  0.00572000  1.0
  H  H43  1  0.11977000  0.90804000  0.49428000  1.0
  H  H44  1  0.38022000  0.90804000  0.00572000  1.0
  H  H45  1  0.40804000  0.88023000  0.49428000  1.0
  H  H46  1  0.40804000  0.61978000  0.00572000  1.0
  H  H47  1  0.09196000  0.61978000  0.49428000  1.0
  H  H48  1  0.88023000  0.99428000  0.09196000  1.0
  H  H49  1  0.00572000  0.38023000  0.09196000  1.0
  H  H50  1  0.61977000  0.50572000  0.09196000  1.0
  H  H51  1  0.49428000  0.11977000  0.09196000  1.0
  H  H52  1  0.61978000  0.99428000  0.40804000  1.0
  H  H53  1  0.00572000  0.11977000  0.40804000  1.0
  H  H54  1  0.88023000  0.50572000  0.40804000  1.0
  H  H55  1  0.49428000  0.38022000  0.40804000  1.0
  H  H56  1  0.00572000  0.09196000  0.11977000  1.0
  H  H57  1  0.90804000  0.50572000  0.11977000  1.0
  H  H58  1  0.49428000  0.40804000  0.11977000  1.0
  H  H59  1  0.59196000  0.99427000  0.11978000  1.0
  H  H60  1  0.49428000  0.09196000  0.38022000  1.0
  H  H61  1  0.90804000  0.99428000  0.38022000  1.0
  H  H62  1  0.00573000  0.40804000  0.38023000  1.0
  H  H63  1  0.59196000  0.50572000  0.38022000  1.0
  H  H64  1  0.90804000  0.11977000  0.99428000  1.0
  H  H65  1  0.61977000  0.40804000  0.50572000  1.0
  H  H66  1  0.88023000  0.40804000  0.99428000  1.0
  H  H67  1  0.88023000  0.09196000  0.50572000  1.0
  H  H68  1  0.61978000  0.09196000  0.99428000  1.0
  H  H69  1  0.59196000  0.11977000  0.50572000  1.0
  H  H70  1  0.59196000  0.38023000  0.99428000  1.0
  H  H71  1  0.90804000  0.38022000  0.50572000  1.0
  H  H72  1  0.10231000  0.00542000  0.00656000  1.0
  H  H73  1  0.99458000  0.60231000  0.00656000  1.0
  H  H74  1  0.39769000  0.49458000  0.00656000  1.0
  H  H75  1  0.50542000  0.89769000  0.00656000  1.0
  H  H76  1  0.39769000  0.00543000  0.49344000  1.0
  H  H77  1  0.99457000  0.89769000  0.49344000  1.0
  H  H78  1  0.10231000  0.49458000  0.49344000  1.0
  H  H79  1  0.50542000  0.60231000  0.49344000  1.0
  H  H80  1  0.99458000  0.00656000  0.89769000  1.0
  H  H81  1  0.99344000  0.49457000  0.89769000  1.0
  H  H82  1  0.50542000  0.49344000  0.89769000  1.0
  H  H83  1  0.50656000  0.00542000  0.89769000  1.0
  H  H84  1  0.50542000  0.00656000  0.60231000  1.0
  H  H85  1  0.99344000  0.00542000  0.60231000  1.0
  H  H86  1  0.99458000  0.49344000  0.60231000  1.0
  H  H87  1  0.50656000  0.49458000  0.60231000  1.0
  H  H88  1  0.99343000  0.89769000  0.00542000  1.0
  H  H89  1  0.39769000  0.49344000  0.49458000  1.0
  H  H90  1  0.10231000  0.49344000  0.00542000  1.0
  H  H91  1  0.10231000  0.00656000  0.49457000  1.0
  H  H92  1  0.39769000  0.00656000  0.00542000  1.0
  H  H93  1  0.50656000  0.89769000  0.49458000  1.0
  H  H94  1  0.50656000  0.60231000  0.00543000  1.0
  H  H95  1  0.99344000  0.60231000  0.49458000  1.0
  H  H96  1  0.89769000  0.99458000  0.99343000  1.0
  H  H97  1  0.00542000  0.39769000  0.99344000  1.0
  H  H98  1  0.60231000  0.50542000  0.99344000  1.0
  H  H99  1  0.49458000  0.10231000  0.99343000  1.0
  H  H100  1  0.60231000  0.99458000  0.50656000  1.0
  H  H101  1  0.00542000  0.10231000  0.50656000  1.0
  H  H102  1  0.89769000  0.50542000  0.50656000  1.0
  H  H103  1  0.49458000  0.39769000  0.50656000  1.0
  H  H104  1  0.00542000  0.99344000  0.10231000  1.0
  H  H105  1  0.00657000  0.50542000  0.10231000  1.0
  H  H106  1  0.49458000  0.50656000  0.10231000  1.0
  H  H107  1  0.49344000  0.99458000  0.10231000  1.0
  H  H108  1  0.49458000  0.99344000  0.39769000  1.0
  H  H109  1  0.00656000  0.99458000  0.39769000  1.0
  H  H110  1  0.00542000  0.50656000  0.39769000  1.0
  H  H111  1  0.49344000  0.50542000  0.39769000  1.0
  H  H112  1  0.00656000  0.10231000  0.99458000  1.0
  H  H113  1  0.60231000  0.50656000  0.50542000  1.0
  H  H114  1  0.89769000  0.50656000  0.99458000  1.0
  H  H115  1  0.89769000  0.99343000  0.50542000  1.0
  H  H116  1  0.60231000  0.99344000  0.99458000  1.0
  H  H117  1  0.49344000  0.10231000  0.50542000  1.0
  H  H118  1  0.49344000  0.39769000  0.99458000  1.0
  H  H119  1  0.00656000  0.39769000  0.50543000  1.0
  C  C120  1  0.26791000  0.18871000  0.99926000  1.0
  C  C121  1  0.81129000  0.76791000  0.99926000  1.0
  C  C122  1  0.23208000  0.31129000  0.99926000  1.0
  C  C123  1  0.68871000  0.73208000  0.99926000  1.0
  C  C124  1  0.23209000  0.18871000  0.50074000  1.0
  C  C125  1  0.81129000  0.73208000  0.50074000  1.0
  C  C126  1  0.26791000  0.31129000  0.50075000  1.0
  C  C127  1  0.68871000  0.76791000  0.50074000  1.0
  C  C128  1  0.81128000  0.99926000  0.73209000  1.0
  C  C129  1  0.00075000  0.31129000  0.73209000  1.0
  C  C130  1  0.68871000  0.50074000  0.73209000  1.0
  C  C131  1  0.49926000  0.18871000  0.73209000  1.0
  C  C132  1  0.68870000  0.99926000  0.76792000  1.0
  C  C133  1  0.00074000  0.18871000  0.76791000  1.0
  C  C134  1  0.81129000  0.50074000  0.76791000  1.0
  C  C135  1  0.49926000  0.31129000  0.76791000  1.0
  C  C136  1  0.00074000  0.73209000  0.18871000  1.0
  C  C137  1  0.23209000  0.50074000  0.31129000  1.0
  C  C138  1  0.26791000  0.50074000  0.18871000  1.0
  C  C139  1  0.26791000  0.99926000  0.31129000  1.0
  C  C140  1  0.23208000  0.99926000  0.18871000  1.0
  C  C141  1  0.49926000  0.73209000  0.31128000  1.0
  C  C142  1  0.49926000  0.76791000  0.18871000  1.0
  C  C143  1  0.00074000  0.76791000  0.31129000  1.0
  C  C144  1  0.73209000  0.81128000  0.00074000  1.0
  C  C145  1  0.18871000  0.23209000  0.00074000  1.0
  C  C146  1  0.76792000  0.68870000  0.00074000  1.0
  C  C147  1  0.31129000  0.26792000  0.00074000  1.0
  C  C148  1  0.76791000  0.81129000  0.49926000  1.0
  C  C149  1  0.18871000  0.26791000  0.49926000  1.0
  C  C150  1  0.73209000  0.68871000  0.49926000  1.0
  C  C151  1  0.31129000  0.23209000  0.49926000  1.0
  C  C152  1  0.18871000  0.00074000  0.26792000  1.0
  C  C153  1  0.99926000  0.68871000  0.26791000  1.0
  C  C154  1  0.31128000  0.49926000  0.26791000  1.0
  C  C155  1  0.50074000  0.81129000  0.26791000  1.0
  C  C156  1  0.31129000  0.00075000  0.23209000  1.0
  C  C157  1  0.99926000  0.81129000  0.23209000  1.0
  C  C158  1  0.18871000  0.49926000  0.23209000  1.0
  C  C159  1  0.50074000  0.68871000  0.23208000  1.0
  C  C160  1  0.99926000  0.26791000  0.81129000  1.0
  C  C161  1  0.76791000  0.49926000  0.68871000  1.0
  C  C162  1  0.73209000  0.49926000  0.81129000  1.0
  C  C163  1  0.73208000  0.00074000  0.68872000  1.0
  C  C164  1  0.76791000  0.00074000  0.81130000  1.0
  C  C165  1  0.50074000  0.26791000  0.68871000  1.0
  C  C166  1  0.50074000  0.23209000  0.81129000  1.0
  C  C167  1  0.99926000  0.23209000  0.68872000  1.0
  C  C168  1  0.27360000  0.98318000  0.80912000  1.0
  C  C169  1  0.01682000  0.77361000  0.80912000  1.0
  C  C170  1  0.22640000  0.51683000  0.80912000  1.0
  C  C171  1  0.48318000  0.72640000  0.80912000  1.0
  C  C172  1  0.22640000  0.98318000  0.69088000  1.0
  C  C173  1  0.01682000  0.72640000  0.69088000  1.0
  C  C174  1  0.27360000  0.51682000  0.69088000  1.0
  C  C175  1  0.48318000  0.77360000  0.69089000  1.0
  C  C176  1  0.01682000  0.80912000  0.72640000  1.0
  C  C177  1  0.19088000  0.51682000  0.72640000  1.0
  C  C178  1  0.48318000  0.69088000  0.72640000  1.0
  C  C179  1  0.30912000  0.98318000  0.72640000  1.0
  C  C180  1  0.48317000  0.80912000  0.77361000  1.0
  C  C181  1  0.19088000  0.98318000  0.77360000  1.0
  C  C182  1  0.01682000  0.69088000  0.77360000  1.0
  C  C183  1  0.30912000  0.51682000  0.77360000  1.0
  C  C184  1  0.19088000  0.72640000  0.98318000  1.0
  C  C185  1  0.22640000  0.69088000  0.51682000  1.0
  C  C186  1  0.27361000  0.69088000  0.98318000  1.0
  C  C187  1  0.27360000  0.80912000  0.51682000  1.0
  C  C188  1  0.22640000  0.80912000  0.98318000  1.0
  C  C189  1  0.30912000  0.72640000  0.51682000  1.0
  C  C190  1  0.30912000  0.77361000  0.98318000  1.0
  C  C191  1  0.19089000  0.77360000  0.51682000  1.0
  C  C192  1  0.72640000  0.01682000  0.19088000  1.0
  C  C193  1  0.98318000  0.22640000  0.19088000  1.0
  C  C194  1  0.77360000  0.48318000  0.19088000  1.0
  C  C195  1  0.51682000  0.27360000  0.19088000  1.0
  C  C196  1  0.77360000  0.01682000  0.30912000  1.0
  C  C197  1  0.98318000  0.27360000  0.30912000  1.0
  C  C198  1  0.72640000  0.48318000  0.30912000  1.0
  C  C199  1  0.51682000  0.22639000  0.30911000  1.0
  C  C200  1  0.98318000  0.19088000  0.27360000  1.0
  C  C201  1  0.80912000  0.48319000  0.27359000  1.0
  C  C202  1  0.51682000  0.30912000  0.27360000  1.0
  C  C203  1  0.69088000  0.01682000  0.27360000  1.0
  C  C204  1  0.51682000  0.19088000  0.22640000  1.0
  C  C205  1  0.80912000  0.01682000  0.22640000  1.0
  C  C206  1  0.98318000  0.30912000  0.22640000  1.0
  C  C207  1  0.69088000  0.48318000  0.22639000  1.0
  C  C208  1  0.80911000  0.27360000  0.01682000  1.0
  C  C209  1  0.77360000  0.30911000  0.48318000  1.0
  C  C210  1  0.72639000  0.30912000  0.01682000  1.0
  C  C211  1  0.72640000  0.19088000  0.48318000  1.0
  C  C212  1  0.77360000  0.19089000  0.01682000  1.0
  C  C213  1  0.69088000  0.27360000  0.48318000  1.0
  C  C214  1  0.69088000  0.22640000  0.01682000  1.0
  C  C215  1  0.80912000  0.22640000  0.48318000  1.0
  O  O216  1  0.29065000  0.11533000  0.99684000  1.0
  O  O217  1  0.88467000  0.79064000  0.99683000  1.0
  O  O218  1  0.20935000  0.38468000  0.99683000  1.0
  O  O219  1  0.61533000  0.70935000  0.99683000  1.0
  O  O220  1  0.20935000  0.11533000  0.50316000  1.0
  O  O221  1  0.88467000  0.70935000  0.50317000  1.0
  O  O222  1  0.29065000  0.38467000  0.50317000  1.0
  O  O223  1  0.61533000  0.79065000  0.50316000  1.0
  O  O224  1  0.88467000  0.99683000  0.70935000  1.0
  O  O225  1  0.00317000  0.38467000  0.70935000  1.0
  O  O226  1  0.61532000  0.50317000  0.70935000  1.0
  O  O227  1  0.49684000  0.11533000  0.70935000  1.0
  O  O228  1  0.61532000  0.99683000  0.79065000  1.0
  O  O229  1  0.00317000  0.11532000  0.79065000  1.0
  O  O230  1  0.88467000  0.50317000  0.79065000  1.0
  O  O231  1  0.49683000  0.38467000  0.79065000  1.0
  O  O232  1  0.00317000  0.70935000  0.11533000  1.0
  O  O233  1  0.20935000  0.50317000  0.38467000  1.0
  O  O234  1  0.29065000  0.50317000  0.11533000  1.0
  O  O235  1  0.29065000  0.99683000  0.38467000  1.0
  O  O236  1  0.20935000  0.99684000  0.11533000  1.0
  O  O237  1  0.49684000  0.70935000  0.38467000  1.0
  O  O238  1  0.49683000  0.79065000  0.11532000  1.0
  O  O239  1  0.00317000  0.79065000  0.38467000  1.0
  O  O240  1  0.70935000  0.88467000  0.00316000  1.0
  O  O241  1  0.11533000  0.20935000  0.00316000  1.0
  O  O242  1  0.79065000  0.61532000  0.00316000  1.0
  O  O243  1  0.38467000  0.29065000  0.00316000  1.0
  O  O244  1  0.79065000  0.88467000  0.49684000  1.0
  O  O245  1  0.11533000  0.29065000  0.49684000  1.0
  O  O246  1  0.70935000  0.61533000  0.49684000  1.0
  O  O247  1  0.38468000  0.20935000  0.49683000  1.0
  O  O248  1  0.11533000  0.00317000  0.29065000  1.0
  O  O249  1  0.99684000  0.61533000  0.29065000  1.0
  O  O250  1  0.38467000  0.49683000  0.29065000  1.0
  O  O251  1  0.50316000  0.88467000  0.29065000  1.0
  O  O252  1  0.38467000  0.00317000  0.20935000  1.0
  O  O253  1  0.99683000  0.88468000  0.20935000  1.0
  O  O254  1  0.11533000  0.49683000  0.20935000  1.0
  O  O255  1  0.50317000  0.61533000  0.20935000  1.0
  O  O256  1  0.99683000  0.29064000  0.88468000  1.0
  O  O257  1  0.79064000  0.49683000  0.61533000  1.0
  O  O258  1  0.70935000  0.49684000  0.88467000  1.0
  O  O259  1  0.70935000  0.00316000  0.61533000  1.0
  O  O260  1  0.79064000  0.00317000  0.88468000  1.0
  O  O261  1  0.50316000  0.29065000  0.61532000  1.0
  O  O262  1  0.50317000  0.20935000  0.88467000  1.0
  O  O263  1  0.99684000  0.20935000  0.61532000  1.0
  O  O264  1  0.30284000  0.98481000  0.88049000  1.0
  O  O265  1  0.01520000  0.80284000  0.88050000  1.0
  O  O266  1  0.19716000  0.51520000  0.88050000  1.0
  O  O267  1  0.48481000  0.69716000  0.88050000  1.0
  O  O268  1  0.19716000  0.98481000  0.61951000  1.0
  O  O269  1  0.01519000  0.69716000  0.61951000  1.0
  O  O270  1  0.30284000  0.51519000  0.61950000  1.0
  O  O271  1  0.48481000  0.80284000  0.61951000  1.0
  O  O272  1  0.01519000  0.88050000  0.69716000  1.0
  O  O273  1  0.11950000  0.51519000  0.69716000  1.0
  O  O274  1  0.48481000  0.61950000  0.69716000  1.0
  O  O275  1  0.38049000  0.98481000  0.69716000  1.0
  O  O276  1  0.48480000  0.88050000  0.80284000  1.0
  O  O277  1  0.11950000  0.98481000  0.80284000  1.0
  O  O278  1  0.01519000  0.61951000  0.80284000  1.0
  O  O279  1  0.38049000  0.51519000  0.80284000  1.0
  O  O280  1  0.11951000  0.69717000  0.98481000  1.0
  O  O281  1  0.19717000  0.61951000  0.51519000  1.0
  O  O282  1  0.30284000  0.61951000  0.98481000  1.0
  O  O283  1  0.30284000  0.88050000  0.51519000  1.0
  O  O284  1  0.19716000  0.88050000  0.98481000  1.0
  O  O285  1  0.38050000  0.69716000  0.51519000  1.0
  O  O286  1  0.38050000  0.80284000  0.98480000  1.0
  O  O287  1  0.11951000  0.80284000  0.51519000  1.0
  O  O288  1  0.69716000  0.01519000  0.11951000  1.0
  O  O289  1  0.98481000  0.19716000  0.11951000  1.0
  O  O290  1  0.80284000  0.48480000  0.11950000  1.0
  O  O291  1  0.51519000  0.30284000  0.11950000  1.0
  O  O292  1  0.80284000  0.01519000  0.38050000  1.0
  O  O293  1  0.98481000  0.30284000  0.38049000  1.0
  O  O294  1  0.69716000  0.48481000  0.38049000  1.0
  O  O295  1  0.51520000  0.19716000  0.38049000  1.0
  O  O296  1  0.98481000  0.11950000  0.30284000  1.0
  O  O297  1  0.88050000  0.48481000  0.30283000  1.0
  O  O298  1  0.51519000  0.38049000  0.30284000  1.0
  O  O299  1  0.61950000  0.01519000  0.30284000  1.0
  O  O300  1  0.51520000  0.11950000  0.19716000  1.0
  O  O301  1  0.88050000  0.01520000  0.19716000  1.0
  O  O302  1  0.98481000  0.38050000  0.19716000  1.0
  O  O303  1  0.61951000  0.48481000  0.19716000  1.0
  O  O304  1  0.88049000  0.30284000  0.01520000  1.0
  O  O305  1  0.80284000  0.38049000  0.48480000  1.0
  O  O306  1  0.69716000  0.38050000  0.01519000  1.0
  O  O307  1  0.69716000  0.11950000  0.48481000  1.0
  O  O308  1  0.80284000  0.11950000  0.01519000  1.0
  O  O309  1  0.61950000  0.30283000  0.48481000  1.0
  O  O310  1  0.61950000  0.19716000  0.01519000  1.0
  O  O311  1  0.88050000  0.19716000  0.48481000  1.0
  O  O312  1  0.13076000  0.03259000  0.96174000  1.0
  O  O313  1  0.96742000  0.63076000  0.96174000  1.0
  O  O314  1  0.36924000  0.46742000  0.96174000  1.0
  O  O315  1  0.53259000  0.86924000  0.96174000  1.0
  O  O316  1  0.36923000  0.03258000  0.53826000  1.0
  O  O317  1  0.96741000  0.86924000  0.53826000  1.0
  O  O318  1  0.13076000  0.46742000  0.53826000  1.0
  O  O319  1  0.53258000  0.63076000  0.53826000  1.0
  O  O320  1  0.96742000  0.96174000  0.86924000  1.0
  O  O321  1  0.03826000  0.46742000  0.86923000  1.0
  O  O322  1  0.53258000  0.53826000  0.86923000  1.0
  O  O323  1  0.46174000  0.03259000  0.86924000  1.0
  O  O324  1  0.53258000  0.96174000  0.63077000  1.0
  O  O325  1  0.03826000  0.03258000  0.63077000  1.0
  O  O326  1  0.96742000  0.53826000  0.63076000  1.0
  O  O327  1  0.46174000  0.46742000  0.63076000  1.0
  O  O328  1  0.03826000  0.86923000  0.03258000  1.0
  O  O329  1  0.36924000  0.53826000  0.46742000  1.0
  O  O330  1  0.13076000  0.53826000  0.03258000  1.0
  O  O331  1  0.13077000  0.96174000  0.46742000  1.0
  O  O332  1  0.36923000  0.96174000  0.03258000  1.0
  O  O333  1  0.46174000  0.86924000  0.46742000  1.0
  O  O334  1  0.46174000  0.63076000  0.03259000  1.0
  O  O335  1  0.03826000  0.63076000  0.46742000  1.0
  O  O336  1  0.86924000  0.96742000  0.03826000  1.0
  O  O337  1  0.03258000  0.36924000  0.03826000  1.0
  O  O338  1  0.63076000  0.53258000  0.03826000  1.0
  O  O339  1  0.46742000  0.13076000  0.03826000  1.0
  O  O340  1  0.63077000  0.96742000  0.46174000  1.0
  O  O341  1  0.03259000  0.13076000  0.46174000  1.0
  O  O342  1  0.86924000  0.53258000  0.46174000  1.0
  O  O343  1  0.46742000  0.36923000  0.46174000  1.0
  O  O344  1  0.03258000  0.03826000  0.13076000  1.0
  O  O345  1  0.96174000  0.53258000  0.13076000  1.0
  O  O346  1  0.46742000  0.46174000  0.13076000  1.0
  O  O347  1  0.53826000  0.96742000  0.13076000  1.0
  O  O348  1  0.46742000  0.03826000  0.36923000  1.0
  O  O349  1  0.96174000  0.96742000  0.36924000  1.0
  O  O350  1  0.03258000  0.46174000  0.36923000  1.0
  O  O351  1  0.53826000  0.53258000  0.36923000  1.0
  O  O352  1  0.96174000  0.13076000  0.96742000  1.0
  O  O353  1  0.63076000  0.46174000  0.53258000  1.0
  O  O354  1  0.86924000  0.46174000  0.96742000  1.0
  O  O355  1  0.86924000  0.03826000  0.53258000  1.0
  O  O356  1  0.63077000  0.03826000  0.96742000  1.0
  O  O357  1  0.53826000  0.13077000  0.53258000  1.0
  O  O358  1  0.53826000  0.36924000  0.96742000  1.0
  O  O359  1  0.96174000  0.36923000  0.53258000  1.0
