# generated using pymatgen
data_CdH5C3SN5O3
_symmetry_space_group_name_H-M   'P 1'
_cell_length_a   8.90649000
_cell_length_b   10.72020000
_cell_length_c   19.90800000
_cell_angle_alpha   100.90100000
_cell_angle_beta   90.00000000
_cell_angle_gamma   89.99990000
_symmetry_Int_Tables_number   1
_chemical_formula_structural   CdH5C3SN5O3
_chemical_formula_sum   'Cd8 H40 C24 S8 N40 O24'
_cell_volume   1866.50377511
_cell_formula_units_Z   8
loop_
 _symmetry_equiv_pos_site_id
 _symmetry_equiv_pos_as_xyz
  1  'x, y, z'
loop_
 _atom_site_type_symbol
 _atom_site_label
 _atom_site_symmetry_multiplicity
 _atom_site_fract_x
 _atom_site_fract_y
 _atom_site_fract_z
 _atom_site_occupancy
  Cd  Cd0  1  0.70537000  0.13413000  0.17700000  1.0
  Cd  Cd1  1  0.70537000  0.36586000  0.82300000  1.0
  Cd  Cd2  1  0.29463000  0.86586000  0.82300000  1.0
  Cd  Cd3  1  0.29463000  0.63413000  0.17700000  1.0
  Cd  Cd4  1  0.78811000  0.00390000  0.34236000  1.0
  Cd  Cd5  1  0.78811000  0.49609000  0.65764000  1.0
  Cd  Cd6  1  0.21189000  0.99609000  0.65764000  1.0
  Cd  Cd7  1  0.21189000  0.50390000  0.34236000  1.0
  H  H8  1  0.49766000  0.94854000  0.07436000  1.0
  H  H9  1  0.49767000  0.55145000  0.92565000  1.0
  H  H10  1  0.50233000  0.05145000  0.92565000  1.0
  H  H11  1  0.50234000  0.44855000  0.07436000  1.0
  H  H12  1  0.41906000  0.79848000  0.06856000  1.0
  H  H13  1  0.41906000  0.70151000  0.93144000  1.0
  H  H14  1  0.58094000  0.20152000  0.93144000  1.0
  H  H15  1  0.58094000  0.29848000  0.06856000  1.0
  H  H16  1  0.97901000  0.20043000  0.44272000  1.0
  H  H17  1  0.97901000  0.29958000  0.55728000  1.0
  H  H18  1  0.02099000  0.79958000  0.55728000  1.0
  H  H19  1  0.02099000  0.70043000  0.44272000  1.0
  H  H20  1  0.06144000  0.34752000  0.44815000  1.0
  H  H21  1  0.06144000  0.15248000  0.55185000  1.0
  H  H22  1  0.93856000  0.65248000  0.55185000  1.0
  H  H23  1  0.93857000  0.84752000  0.44815000  1.0
  H  H24  1  0.11597000  0.32709000  0.08600000  1.0
  H  H25  1  0.11596000  0.17291000  0.91400000  1.0
  H  H26  1  0.88403000  0.67291000  0.91400000  1.0
  H  H27  1  0.88403000  0.82709000  0.08600000  1.0
  H  H28  1  0.03877000  0.18963000  0.11244000  1.0
  H  H29  1  0.03877000  0.31037000  0.88756000  1.0
  H  H30  1  0.96123000  0.81037000  0.88756000  1.0
  H  H31  1  0.96123000  0.68962000  0.11244000  1.0
  H  H32  1  0.19957000  0.26921000  0.15592000  1.0
  H  H33  1  0.19957000  0.23079000  0.84407000  1.0
  H  H34  1  0.80043000  0.73079000  0.84408000  1.0
  H  H35  1  0.80043000  0.76921000  0.15593000  1.0
  H  H36  1  0.66784000  0.54303000  0.34056000  1.0
  H  H37  1  0.66784000  0.95697000  0.65944000  1.0
  H  H38  1  0.33215000  0.45697000  0.65944000  1.0
  H  H39  1  0.33215000  0.04303000  0.34056000  1.0
  H  H40  1  0.78692000  0.63542000  0.29656000  1.0
  H  H41  1  0.78692000  0.86458000  0.70344000  1.0
  H  H42  1  0.21307000  0.36458000  0.70344000  1.0
  H  H43  1  0.21307000  0.13542000  0.29656000  1.0
  H  H44  1  0.64024000  0.53939000  0.25084000  1.0
  H  H45  1  0.64024000  0.96060000  0.74916000  1.0
  H  H46  1  0.35975000  0.46061000  0.74916000  1.0
  H  H47  1  0.35976000  0.03939000  0.25084000  1.0
  C  C48  1  0.95905000  0.31719000  0.25599000  1.0
  C  C49  1  0.95905000  0.18280000  0.74401000  1.0
  C  C50  1  0.04095000  0.68281000  0.74401000  1.0
  C  C51  1  0.04095000  0.81719000  0.25599000  1.0
  C  C52  1  0.55341000  0.80736000  0.25636000  1.0
  C  C53  1  0.55341000  0.69263000  0.74365000  1.0
  C  C54  1  0.44658000  0.19263000  0.74365000  1.0
  C  C55  1  0.44659000  0.30736000  0.25635000  1.0
  C  C56  1  0.98522000  0.26618000  0.35493000  1.0
  C  C57  1  0.98522000  0.23382000  0.64507000  1.0
  C  C58  1  0.01478000  0.73382000  0.64507000  1.0
  C  C59  1  0.01478000  0.76618000  0.35493000  1.0
  C  C60  1  0.52318000  0.86647000  0.15919000  1.0
  C  C61  1  0.52318000  0.63352000  0.84081000  1.0
  C  C62  1  0.47682000  0.13353000  0.84081000  1.0
  C  C63  1  0.47683000  0.36647000  0.15919000  1.0
  C  C64  1  0.09402000  0.28111000  0.12976000  1.0
  C  C65  1  0.09402000  0.21889000  0.87024000  1.0
  C  C66  1  0.90598000  0.71889000  0.87024000  1.0
  C  C67  1  0.90598000  0.78111000  0.12976000  1.0
  C  C68  1  0.67303000  0.59860000  0.29961000  1.0
  C  C69  1  0.67303000  0.90140000  0.70040000  1.0
  C  C70  1  0.32696000  0.40140000  0.70039000  1.0
  C  C71  1  0.32697000  0.09859000  0.29961000  1.0
  S  S72  1  0.97200000  0.39189000  0.18542000  1.0
  S  S73  1  0.97199000  0.10811000  0.81458000  1.0
  S  S74  1  0.02800000  0.60811000  0.81458000  1.0
  S  S75  1  0.02801000  0.89189000  0.18542000  1.0
  S  S76  1  0.54083000  0.72829000  0.32525000  1.0
  S  S77  1  0.54083000  0.77171000  0.67476000  1.0
  S  S78  1  0.45916000  0.27171000  0.67476000  1.0
  S  S79  1  0.45917000  0.22828000  0.32525000  1.0
  N  N80  1  0.62891000  0.91546000  0.25994000  1.0
  N  N81  1  0.62891000  0.58453000  0.74006000  1.0
  N  N82  1  0.37109000  0.08454000  0.74006000  1.0
  N  N83  1  0.37109000  0.41546000  0.25994000  1.0
  N  N84  1  0.87316000  0.21564000  0.25618000  1.0
  N  N85  1  0.87316000  0.28435000  0.74382000  1.0
  N  N86  1  0.12684000  0.78436000  0.74382000  1.0
  N  N87  1  0.12684000  0.71564000  0.25618000  1.0
  N  N88  1  0.61050000  0.95429000  0.19840000  1.0
  N  N89  1  0.61051000  0.54570000  0.80160000  1.0
  N  N90  1  0.38949000  0.04570000  0.80160000  1.0
  N  N91  1  0.38950000  0.45429000  0.19840000  1.0
  N  N92  1  0.88973000  0.18141000  0.31896000  1.0
  N  N93  1  0.88973000  0.31859000  0.68104000  1.0
  N  N94  1  0.11027000  0.81859000  0.68104000  1.0
  N  N95  1  0.11027000  0.68141000  0.31895000  1.0
  N  N96  1  0.48370000  0.77369000  0.19422000  1.0
  N  N97  1  0.48371000  0.72630000  0.80578000  1.0
  N  N98  1  0.51629000  0.22630000  0.80578000  1.0
  N  N99  1  0.51630000  0.27370000  0.19422000  1.0
  N  N100  1  0.03147000  0.35237000  0.31712000  1.0
  N  N101  1  0.03147000  0.14763000  0.68288000  1.0
  N  N102  1  0.96853000  0.64763000  0.68288000  1.0
  N  N103  1  0.96853000  0.85237000  0.31712000  1.0
  N  N104  1  0.76080000  0.06196000  0.03233000  1.0
  N  N105  1  0.76079000  0.43805000  0.96767000  1.0
  N  N106  1  0.23920000  0.93805000  0.96767000  1.0
  N  N107  1  0.23920000  0.56198000  0.03233000  1.0
  N  N108  1  0.48528000  0.86860000  0.09421000  1.0
  N  N109  1  0.48530000  0.63140000  0.90579000  1.0
  N  N110  1  0.51471000  0.13140000  0.90579000  1.0
  N  N111  1  0.51472000  0.36860000  0.09421000  1.0
  N  N112  1  0.03681000  0.26140000  0.41854000  1.0
  N  N113  1  0.03681000  0.23860000  0.58145000  1.0
  N  N114  1  0.96319000  0.73860000  0.58146000  1.0
  N  N115  1  0.96319000  0.76140000  0.41854000  1.0
  N  N116  1  0.72221000  0.07419000  0.48218000  1.0
  N  N117  1  0.72221000  0.42582000  0.51782000  1.0
  N  N118  1  0.27780000  0.92581000  0.51782000  1.0
  N  N119  1  0.27780000  0.57419000  0.48218000  1.0
  O  O120  1  0.85068000  0.05451000  0.08249000  1.0
  O  O121  1  0.85068000  0.44549000  0.91751000  1.0
  O  O122  1  0.14932000  0.94550000  0.91751000  1.0
  O  O123  1  0.14932000  0.55451000  0.08249000  1.0
  O  O124  1  0.62907000  0.10907000  0.04863000  1.0
  O  O125  1  0.62907000  0.39094000  0.95137000  1.0
  O  O126  1  0.37093000  0.89093000  0.95137000  1.0
  O  O127  1  0.37093000  0.60907000  0.04864000  1.0
  O  O128  1  0.62153000  0.05878000  0.43542000  1.0
  O  O129  1  0.62153000  0.44122000  0.56458000  1.0
  O  O130  1  0.37847000  0.94122000  0.56458000  1.0
  O  O131  1  0.37847000  0.55878000  0.43542000  1.0
  O  O132  1  0.86088000  0.04769000  0.46161000  1.0
  O  O133  1  0.86088000  0.45231000  0.53839000  1.0
  O  O134  1  0.13912000  0.95231000  0.53839000  1.0
  O  O135  1  0.13912000  0.54769000  0.46161000  1.0
  O  O136  1  0.69368000  0.11210000  0.54302000  1.0
  O  O137  1  0.69368000  0.38790000  0.45698000  1.0
  O  O138  1  0.30633000  0.88790000  0.45698000  1.0
  O  O139  1  0.30633000  0.61211000  0.54301000  1.0
  O  O140  1  0.79915000  0.02525000  0.97249000  1.0
  O  O141  1  0.79914000  0.47478000  0.02751000  1.0
  O  O142  1  0.20086000  0.97477000  0.02751000  1.0
  O  O143  1  0.20084000  0.52529000  0.97249000  1.0
