# generated using pymatgen
data_Zn2H11C18S(NO2)4
_symmetry_space_group_name_H-M   'P 1'
_cell_length_a   7.74740000
_cell_length_b   11.06900000
_cell_length_c   11.27110000
_cell_angle_alpha   82.42610000
_cell_angle_beta   80.44530000
_cell_angle_gamma   79.00990000
_symmetry_Int_Tables_number   1
_chemical_formula_structural   Zn2H11C18S(NO2)4
_chemical_formula_sum   'Zn4 H22 C36 S2 N8 O16'
_cell_volume   930.65288868
_cell_formula_units_Z   2
loop_
 _symmetry_equiv_pos_site_id
 _symmetry_equiv_pos_as_xyz
  1  'x, y, z'
loop_
 _atom_site_type_symbol
 _atom_site_label
 _atom_site_symmetry_multiplicity
 _atom_site_fract_x
 _atom_site_fract_y
 _atom_site_fract_z
 _atom_site_occupancy
  Zn  Zn0  1  0.78501000  0.80578000  0.46477000  1.0
  Zn  Zn1  1  0.21499000  0.19421000  0.53524000  1.0
  Zn  Zn2  1  0.14196000  0.74712000  0.54131000  1.0
  Zn  Zn3  1  0.85803000  0.25289000  0.45869000  1.0
  H  H4  1  0.32732000  0.88659000  0.62204000  1.0
  H  H5  1  0.67268000  0.11341000  0.37796000  1.0
  H  H6  1  0.41526000  0.85814000  0.48464000  1.0
  H  H7  1  0.58472000  0.14186000  0.51535000  1.0
  H  H8  1  0.40945000  0.81142000  0.94764000  1.0
  H  H9  1  0.59056000  0.18858000  0.05235000  1.0
  H  H10  1  0.08437000  0.87824000  0.01426000  1.0
  H  H11  1  0.91564000  0.12177000  0.98572000  1.0
  H  H12  1  0.98801000  0.99649000  0.19530000  1.0
  H  H13  1  0.01199000  0.00352000  0.80469000  1.0
  H  H14  1  0.44250000  0.24836000  0.26762000  1.0
  H  H15  1  0.55754000  0.75164000  0.73240000  1.0
  H  H16  1  0.59118000  0.36988000  0.09152000  1.0
  H  H17  1  0.40886000  0.63011000  0.90850000  1.0
  H  H18  1  0.60110000  0.58989000  0.09192000  1.0
  H  H19  1  0.39891000  0.41011000  0.90807000  1.0
  H  H20  1  0.45623000  0.70262000  0.27396000  1.0
  H  H21  1  0.54375000  0.29738000  0.72603000  1.0
  H  H22  1  0.02237000  0.30803000  0.72625000  1.0
  H  H23  1  0.97765000  0.69196000  0.27375000  1.0
  H  H24  1  0.94652000  0.69674000  0.84168000  1.0
  H  H25  1  0.05348000  0.30326000  0.15833000  1.0
  C  C26  1  0.36177000  0.85644000  0.02968000  1.0
  C  C27  1  0.63824000  0.14356000  0.97032000  1.0
  C  C28  1  0.18223000  0.89655000  0.06540000  1.0
  C  C29  1  0.81778000  0.10344000  0.93460000  1.0
  C  C30  1  0.12823000  0.96261000  0.16605000  1.0
  C  C31  1  0.87178000  0.03739000  0.83395000  1.0
  C  C32  1  0.25247000  0.98926000  0.23193000  1.0
  C  C33  1  0.74753000  0.01075000  0.76806000  1.0
  C  C34  1  0.18268000  0.07271000  0.33092000  1.0
  C  C35  1  0.81732000  0.92730000  0.66907000  1.0
  C  C36  1  0.43486000  0.94283000  0.20197000  1.0
  C  C37  1  0.56514000  0.05719000  0.79802000  1.0
  C  C38  1  0.48486000  0.87739000  0.09906000  1.0
  C  C39  1  0.51514000  0.12261000  0.90093000  1.0
  C  C40  1  0.56974000  0.95679000  0.28063000  1.0
  C  C41  1  0.43025000  0.04320000  0.71936000  1.0
  C  C42  1  0.44150000  0.34654000  0.26894000  1.0
  C  C43  1  0.55851000  0.65347000  0.73106000  1.0
  C  C44  1  0.52560000  0.41546000  0.17111000  1.0
  C  C45  1  0.47442000  0.58454000  0.82890000  1.0
  C  C46  1  0.53138000  0.54259000  0.17114000  1.0
  C  C47  1  0.46864000  0.45740000  0.82886000  1.0
  C  C48  1  0.45156000  0.60574000  0.26974000  1.0
  C  C49  1  0.54842000  0.39427000  0.73027000  1.0
  C  C50  1  0.36349000  0.53824000  0.36849000  1.0
  C  C51  1  0.63649000  0.46177000  0.63151000  1.0
  C  C52  1  0.35993000  0.40916000  0.36859000  1.0
  C  C53  1  0.64005000  0.59085000  0.63139000  1.0
  C  C54  1  0.21448000  0.47224000  0.53713000  1.0
  C  C55  1  0.78552000  0.52776000  0.46288000  1.0
  C  C56  1  0.10839000  0.48755000  0.65369000  1.0
  C  C57  1  0.89163000  0.51245000  0.34630000  1.0
  C  C58  1  0.02990000  0.40343000  0.73759000  1.0
  C  C59  1  0.97011000  0.59656000  0.26242000  1.0
  C  C60  1  0.98697000  0.61251000  0.79697000  1.0
  C  C61  1  0.01300000  0.38748000  0.20303000  1.0
  S  S62  1  0.92716000  0.47377000  0.86246000  1.0
  S  S63  1  0.07286000  0.52619000  0.13755000  1.0
  N  N64  1  0.67083000  0.82598000  0.06087000  1.0
  N  N65  1  0.32916000  0.17402000  0.93912000  1.0
  N  N66  1  0.26590000  0.36962000  0.47824000  1.0
  N  N67  1  0.73411000  0.63037000  0.52176000  1.0
  N  N68  1  0.27386000  0.57560000  0.47507000  1.0
  N  N69  1  0.72613000  0.42439000  0.52493000  1.0
  N  N70  1  0.07892000  0.60634000  0.68881000  1.0
  N  N71  1  0.92106000  0.39366000  0.31120000  1.0
  O  O72  1  0.02386000  0.12753000  0.33496000  1.0
  O  O73  1  0.97612000  0.87245000  0.66505000  1.0
  O  O74  1  0.29255000  0.08510000  0.40031000  1.0
  O  O75  1  0.70744000  0.91490000  0.59968000  1.0
  O  O76  1  0.65045000  0.04608000  0.25921000  1.0
  O  O77  1  0.34956000  0.95392000  0.74079000  1.0
  O  O78  1  0.58568000  0.86746000  0.36681000  1.0
  O  O79  1  0.41430000  0.13256000  0.63319000  1.0
  O  O80  1  0.70813000  0.77247000  0.96666000  1.0
  O  O81  1  0.29186000  0.22754000  0.03334000  1.0
  O  O82  1  0.78392000  0.83558000  0.12360000  1.0
  O  O83  1  0.21608000  0.16442000  0.87640000  1.0
  O  O84  1  0.02673000  0.79168000  0.39962000  1.0
  O  O85  1  0.97327000  0.20831000  0.60038000  1.0
  O  O86  1  0.34228000  0.82777000  0.55928000  1.0
  O  O87  1  0.65770000  0.17224000  0.44071000  1.0
