# generated using pymatgen
data_AgH14C10N2O2F
_symmetry_space_group_name_H-M   'P 1'
_cell_length_a   9.46956000
_cell_length_b   10.99920000
_cell_length_c   11.85250000
_cell_angle_alpha   65.71140000
_cell_angle_beta   77.68850000
_cell_angle_gamma   86.39030000
_symmetry_Int_Tables_number   1
_chemical_formula_structural   AgH14C10N2O2F
_chemical_formula_sum   'Ag4 H56 C40 N8 O8 F4'
_cell_volume   1098.95142746
_cell_formula_units_Z   4
loop_
 _symmetry_equiv_pos_site_id
 _symmetry_equiv_pos_as_xyz
  1  'x, y, z'
loop_
 _atom_site_type_symbol
 _atom_site_label
 _atom_site_symmetry_multiplicity
 _atom_site_fract_x
 _atom_site_fract_y
 _atom_site_fract_z
 _atom_site_occupancy
  Ag  Ag0  1  0.00000000  0.50000000  0.00000000  1.0
  Ag  Ag1  1  0.00000000  0.00000000  0.00000000  1.0
  Ag  Ag2  1  0.94597000  0.29370000  0.91990000  1.0
  Ag  Ag3  1  0.05403000  0.70629000  0.08010000  1.0
  H  H4  1  0.56893000  0.26110000  0.09272000  1.0
  H  H5  1  0.43107000  0.73890000  0.90728000  1.0
  H  H6  1  0.65045000  0.89269000  0.51148000  1.0
  H  H7  1  0.34956000  0.10732000  0.48853000  1.0
  H  H8  1  0.37030000  0.11859000  0.95165000  1.0
  H  H9  1  0.62969000  0.88141000  0.04834000  1.0
  H  H10  1  0.53577000  0.12464000  0.99930000  1.0
  H  H11  1  0.46422000  0.87536000  0.00070000  1.0
  H  H12  1  0.82542000  0.72549000  0.58530000  1.0
  H  H13  1  0.17459000  0.27451000  0.41470000  1.0
  H  H14  1  0.93057000  0.66341000  0.47838000  1.0
  H  H15  1  0.06943000  0.33658000  0.52162000  1.0
  H  H16  1  0.44335000  0.34839000  0.77254000  1.0
  H  H17  1  0.55665000  0.65162000  0.22745000  1.0
  H  H18  1  0.61784000  0.32702000  0.80688000  1.0
  H  H19  1  0.38216000  0.67298000  0.19312000  1.0
  H  H20  1  0.71394000  0.51599000  0.62468000  1.0
  H  H21  1  0.28605000  0.48401000  0.37532000  1.0
  H  H22  1  0.59900000  0.64595000  0.55855000  1.0
  H  H23  1  0.40100000  0.35405000  0.44145000  1.0
  H  H24  1  0.46754000  0.12897000  0.74470000  1.0
  H  H25  1  0.53246000  0.87103000  0.25530000  1.0
  H  H26  1  0.57632000  0.26431000  0.62740000  1.0
  H  H27  1  0.42368000  0.73569000  0.37260000  1.0
  H  H28  1  0.70748000  0.64040000  0.34067000  1.0
  H  H29  1  0.29252000  0.35960000  0.65933000  1.0
  H  H30  1  0.59394000  0.50592000  0.45176000  1.0
  H  H31  1  0.40606000  0.49408000  0.54824000  1.0
  H  H32  1  0.68930000  0.04703000  0.84830000  1.0
  H  H33  1  0.31070000  0.95297000  0.15170000  1.0
  H  H34  1  0.79078000  0.17851000  0.71986000  1.0
  H  H35  1  0.20922000  0.82149000  0.28014000  1.0
  H  H36  1  0.92386000  0.50586000  0.38359000  1.0
  H  H37  1  0.07614000  0.49414000  0.61641000  1.0
  H  H38  1  0.81731000  0.37424000  0.51163000  1.0
  H  H39  1  0.18269000  0.62576000  0.48837000  1.0
  H  H40  1  0.63078000  0.95105000  0.70806000  1.0
  H  H41  1  0.36922000  0.04895000  0.29194000  1.0
  H  H42  1  0.71610000  0.08770000  0.57291000  1.0
  H  H43  1  0.28390000  0.91230000  0.42709000  1.0
  H  H44  1  0.67998000  0.35370000  0.35795000  1.0
  H  H45  1  0.32002000  0.64630000  0.64205000  1.0
  H  H46  1  0.79247000  0.48096000  0.23347000  1.0
  H  H47  1  0.20753000  0.51904000  0.76653000  1.0
  H  H48  1  0.95638000  0.02393000  0.62879000  1.0
  H  H49  1  0.04362000  0.97606000  0.37121000  1.0
  H  H50  1  0.87324000  0.88260000  0.63299000  1.0
  H  H51  1  0.12676000  0.11740000  0.36701000  1.0
  H  H52  1  0.87695000  0.89650000  0.77598000  1.0
  H  H53  1  0.12305000  0.10350000  0.22402000  1.0
  H  H54  1  0.01018000  0.33803000  0.28382000  1.0
  H  H55  1  0.98982000  0.66197000  0.71619000  1.0
  H  H56  1  0.88273000  0.26072000  0.24279000  1.0
  H  H57  1  0.11728000  0.73928000  0.75722000  1.0
  H  H58  1  0.89345000  0.20777000  0.40388000  1.0
  H  H59  1  0.10655000  0.79223000  0.59613000  1.0
  C  C60  1  0.25121000  0.31771000  0.99652000  1.0
  C  C61  1  0.74879000  0.68230000  0.00348000  1.0
  C  C62  1  0.89054000  0.85063000  0.27600000  1.0
  C  C63  1  0.10946000  0.14937000  0.72400000  1.0
  C  C64  1  0.46229000  0.30343000  0.08256000  1.0
  C  C65  1  0.53771000  0.69657000  0.91745000  1.0
  C  C66  1  0.71186000  0.91761000  0.41564000  1.0
  C  C67  1  0.28814000  0.08239000  0.58436000  1.0
  C  C68  1  0.40482000  0.39083000  0.13243000  1.0
  C  C69  1  0.59518000  0.60917000  0.86757000  1.0
  C  C70  1  0.69403000  0.03285000  0.31744000  1.0
  C  C71  1  0.30597000  0.96715000  0.68257000  1.0
  C  C72  1  0.26851000  0.45205000  0.11082000  1.0
  C  C73  1  0.73148000  0.54795000  0.88918000  1.0
  C  C74  1  0.77648000  0.06307000  0.19135000  1.0
  C  C75  1  0.22352000  0.93693000  0.80865000  1.0
  C  C76  1  0.45502000  0.18491000  0.94747000  1.0
  C  C77  1  0.54499000  0.81509000  0.05252000  1.0
  C  C78  1  0.82454000  0.70129000  0.50437000  1.0
  C  C79  1  0.17546000  0.29871000  0.49563000  1.0
  C  C80  1  0.52230000  0.27294000  0.80985000  1.0
  C  C81  1  0.47770000  0.72707000  0.19015000  1.0
  C  C82  1  0.70274000  0.60090000  0.53633000  1.0
  C  C83  1  0.29726000  0.39910000  0.46367000  1.0
  C  C84  1  0.56074000  0.19423000  0.72776000  1.0
  C  C85  1  0.43926000  0.80577000  0.27224000  1.0
  C  C86  1  0.70004000  0.55401000  0.43223000  1.0
  C  C87  1  0.29996000  0.44599000  0.56777000  1.0
  C  C88  1  0.69618000  0.11148000  0.74719000  1.0
  C  C89  1  0.30382000  0.88852000  0.25281000  1.0
  C  C90  1  0.81631000  0.45588000  0.41807000  1.0
  C  C91  1  0.18369000  0.54412000  0.58193000  1.0
  C  C92  1  0.72093000  0.02473000  0.67233000  1.0
  C  C93  1  0.27906000  0.97527000  0.32767000  1.0
  C  C94  1  0.79009000  0.39835000  0.32674000  1.0
  C  C95  1  0.20991000  0.60165000  0.67327000  1.0
  C  C96  1  0.86401000  0.95307000  0.67792000  1.0
  C  C97  1  0.13599000  0.04693000  0.32208000  1.0
  C  C98  1  0.89976000  0.29544000  0.31361000  1.0
  C  C99  1  0.10024000  0.70455000  0.68639000  1.0
  N  N100  1  0.38663000  0.26625000  0.01532000  1.0
  N  N101  1  0.61337000  0.73375000  0.98468000  1.0
  N  N102  1  0.80951000  0.82743000  0.39674000  1.0
  N  N103  1  0.19050000  0.17257000  0.60326000  1.0
  N  N104  1  0.19753000  0.40977000  0.04298000  1.0
  N  N105  1  0.80247000  0.59023000  0.95702000  1.0
  N  N106  1  0.87127000  0.96827000  0.17833000  1.0
  N  N107  1  0.12873000  0.03173000  0.82166000  1.0
  O  O108  1  0.18527000  0.27755000  0.93592000  1.0
  O  O109  1  0.81473000  0.72246000  0.06408000  1.0
  O  O110  1  0.97800000  0.76547000  0.26164000  1.0
  O  O111  1  0.02200000  0.23452000  0.73836000  1.0
  O  O112  1  0.21850000  0.53899000  0.15146000  1.0
  O  O113  1  0.78149000  0.46101000  0.84854000  1.0
  O  O114  1  0.76161000  0.17064000  0.09886000  1.0
  O  O115  1  0.23839000  0.82936000  0.90114000  1.0
  F  F116  1  0.48150000  0.42877000  0.19804000  1.0
  F  F117  1  0.51849000  0.57123000  0.80197000  1.0
  F  F118  1  0.59796000  0.12349000  0.33674000  1.0
  F  F119  1  0.40205000  0.87651000  0.66326000  1.0
