# generated using pymatgen
data_CeH11C17O9
_symmetry_space_group_name_H-M   'P 1'
_cell_length_a   4.84531000
_cell_length_b   13.04460000
_cell_length_c   13.38460000
_cell_angle_alpha   89.99350000
_cell_angle_beta   89.88930000
_cell_angle_gamma   80.17380000
_symmetry_Int_Tables_number   1
_chemical_formula_structural   CeH11C17O9
_chemical_formula_sum   'Ce2 H22 C34 O18'
_cell_volume   833.56332756
_cell_formula_units_Z   2
loop_
 _symmetry_equiv_pos_site_id
 _symmetry_equiv_pos_as_xyz
  1  'x, y, z'
loop_
 _atom_site_type_symbol
 _atom_site_label
 _atom_site_symmetry_multiplicity
 _atom_site_fract_x
 _atom_site_fract_y
 _atom_site_fract_z
 _atom_site_occupancy
  Ce  Ce0  1  0.24355000  0.78795000  0.24014000  1.0
  Ce  Ce1  1  0.75414000  0.21200000  0.74045000  1.0
  H  H2  1  0.67119000  0.33247000  0.52024000  1.0
  H  H3  1  0.32981000  0.66819000  0.01900000  1.0
  H  H4  1  0.77218000  0.12697000  0.19546000  1.0
  H  H5  1  0.22755000  0.87317000  0.69554000  1.0
  H  H6  1  0.24986000  0.03711000  0.42816000  1.0
  H  H7  1  0.75097000  0.96351000  0.92696000  1.0
  H  H8  1  0.15060000  0.35796000  0.33611000  1.0
  H  H9  1  0.84915000  0.64238000  0.83575000  1.0
  H  H10  1  0.71664000  0.30025000  0.13931000  1.0
  H  H11  1  0.28279000  0.69982000  0.63972000  1.0
  H  H12  1  0.62894000  0.39279000  0.23568000  1.0
  H  H13  1  0.36998000  0.60757000  0.73631000  1.0
  H  H14  1  0.30806000  0.26286000  0.02300000  1.0
  H  H15  1  0.69295000  0.73700000  0.52327000  1.0
  H  H16  1  0.21960000  0.52461000  0.22484000  1.0
  H  H17  1  0.77827000  0.47551000  0.72535000  1.0
  H  H18  1  0.62913000  0.51674000  0.98434000  1.0
  H  H19  1  0.37134000  0.48273000  0.48482000  1.0
  H  H20  1  0.65781000  0.87866000  0.08748000  1.0
  H  H21  1  0.34135000  0.12117000  0.58806000  1.0
  H  H22  1  0.41422000  0.97496000  0.10319000  1.0
  H  H23  1  0.58497000  0.02486000  0.60312000  1.0
  C  C24  1  0.60223000  0.14867000  0.24904000  1.0
  C  C25  1  0.39732000  0.85153000  0.74900000  1.0
  C  C26  1  0.52302000  0.07106000  0.31009000  1.0
  C  C27  1  0.47680000  0.92929000  0.80971000  1.0
  C  C28  1  0.31361000  0.09754000  0.38174000  1.0
  C  C29  1  0.68676000  0.90291000  0.88099000  1.0
  C  C30  1  0.18502000  0.20151000  0.39203000  1.0
  C  C31  1  0.81522000  0.79894000  0.89134000  1.0
  C  C32  1  0.25577000  0.27758000  0.32779000  1.0
  C  C33  1  0.74412000  0.72276000  0.82741000  1.0
  C  C34  1  0.46654000  0.25182000  0.25609000  1.0
  C  C35  1  0.53297000  0.74843000  0.75607000  1.0
  C  C36  1  0.54676000  0.33529000  0.18931000  1.0
  C  C37  1  0.45244000  0.66488000  0.68963000  1.0
  C  C38  1  0.29947000  0.38907000  0.12942000  1.0
  C  C39  1  0.69996000  0.61090000  0.62968000  1.0
  C  C40  1  0.20188000  0.33942000  0.04725000  1.0
  C  C41  1  0.79864000  0.66038000  0.54743000  1.0
  C  C42  1  0.96166000  0.38565000  0.99526000  1.0
  C  C43  1  0.03911000  0.61386000  0.49541000  1.0
  C  C44  1  0.15189000  0.48577000  0.15932000  1.0
  C  C45  1  0.84677000  0.51421000  0.65978000  1.0
  C  C46  1  0.91104000  0.53288000  0.10774000  1.0
  C  C47  1  0.08806000  0.46702000  0.60823000  1.0
  C  C48  1  0.81770000  0.48297000  0.02470000  1.0
  C  C49  1  0.18243000  0.51666000  0.52513000  1.0
  C  C50  1  0.74912000  0.63198000  0.14614000  1.0
  C  C51  1  0.25030000  0.36827000  0.64680000  1.0
  C  C52  1  0.84872000  0.32540000  0.91445000  1.0
  C  C53  1  0.15445000  0.67307000  0.41416000  1.0
  C  C54  1  0.98738000  0.23203000  0.47522000  1.0
  C  C55  1  0.01252000  0.76829000  0.97441000  1.0
  C  C56  1  0.65832000  0.96000000  0.29723000  1.0
  C  C57  1  0.34117000  0.04018000  0.79693000  1.0
  O  O58  1  0.52434000  0.89008000  0.32789000  1.0
  O  O59  1  0.47467000  0.11032000  0.82779000  1.0
  O  O60  1  0.89671000  0.94162000  0.25415000  1.0
  O  O61  1  0.10350000  0.05867000  0.75375000  1.0
  O  O62  1  0.79591000  0.31490000  0.45829000  1.0
  O  O63  1  0.20426000  0.68558000  0.95723000  1.0
  O  O64  1  0.01032000  0.18388000  0.55661000  1.0
  O  O65  1  0.98868000  0.81610000  0.05599000  1.0
  O  O66  1  0.93792000  0.22734000  0.90991000  1.0
  O  O67  1  0.06779000  0.77150000  0.40943000  1.0
  O  O68  1  0.66722000  0.37058000  0.85197000  1.0
  O  O69  1  0.33471000  0.62702000  0.35182000  1.0
  O  O70  1  0.84984000  0.68622000  0.21125000  1.0
  O  O71  1  0.14782000  0.31288000  0.71051000  1.0
  O  O72  1  0.49529000  0.66155000  0.11524000  1.0
  O  O73  1  0.50662000  0.34037000  0.61756000  1.0
  O  O74  1  0.45882000  0.89973000  0.10844000  1.0
  O  O75  1  0.54136000  0.10018000  0.60758000  1.0
