# generated using pymatgen
data_H4PbC5N2O5
_symmetry_space_group_name_H-M   'P 1'
_cell_length_a   6.45995000
_cell_length_b   7.05706000
_cell_length_c   16.63350000
_cell_angle_alpha   89.99790000
_cell_angle_beta   89.99850000
_cell_angle_gamma   68.80300000
_symmetry_Int_Tables_number   1
_chemical_formula_structural   H4PbC5N2O5
_chemical_formula_sum   'H16 Pb4 C20 N8 O20'
_cell_volume   706.98825574
_cell_formula_units_Z   4
loop_
 _symmetry_equiv_pos_site_id
 _symmetry_equiv_pos_as_xyz
  1  'x, y, z'
loop_
 _atom_site_type_symbol
 _atom_site_label
 _atom_site_symmetry_multiplicity
 _atom_site_fract_x
 _atom_site_fract_y
 _atom_site_fract_z
 _atom_site_occupancy
  H  H0  1  0.25196000  0.93832000  0.72287000  1.0
  H  H1  1  0.24807000  0.06167000  0.22286000  1.0
  H  H2  1  0.74790000  0.06168000  0.27708000  1.0
  H  H3  1  0.75209000  0.93832000  0.77708000  1.0
  H  H4  1  0.07021000  0.57194000  0.86047000  1.0
  H  H5  1  0.42972000  0.42815000  0.36046000  1.0
  H  H6  1  0.92983000  0.42814000  0.13950000  1.0
  H  H7  1  0.57013000  0.57181000  0.63954000  1.0
  H  H8  1  0.02755000  0.72145000  0.98101000  1.0
  H  H9  1  0.47242000  0.27866000  0.48099000  1.0
  H  H10  1  0.97268000  0.27865000  0.01902000  1.0
  H  H11  1  0.52742000  0.72135000  0.51901000  1.0
  H  H12  1  0.94995000  0.88874000  0.91521000  1.0
  H  H13  1  0.55007000  0.11126000  0.41519000  1.0
  H  H14  1  0.05038000  0.11123000  0.08483000  1.0
  H  H15  1  0.44969000  0.88880000  0.58481000  1.0
  Pb  Pb16  1  0.45601000  0.77803000  0.93052000  1.0
  Pb  Pb17  1  0.04413000  0.22217000  0.43051000  1.0
  Pb  Pb18  1  0.54459000  0.22191000  0.06945000  1.0
  Pb  Pb19  1  0.95540000  0.77790000  0.56944000  1.0
  C  C20  1  0.08515000  0.45425000  0.74456000  1.0
  C  C21  1  0.41480000  0.54581000  0.24458000  1.0
  C  C22  1  0.91488000  0.54569000  0.25543000  1.0
  C  C23  1  0.58513000  0.45424000  0.75543000  1.0
  C  C24  1  0.14382000  0.26117000  0.70422000  1.0
  C  C25  1  0.35609000  0.73886000  0.20422000  1.0
  C  C26  1  0.85599000  0.73878000  0.29581000  1.0
  C  C27  1  0.64405000  0.26118000  0.79579000  1.0
  C  C28  1  0.20431000  0.08667000  0.75195000  1.0
  C  C29  1  0.29564000  0.91335000  0.25195000  1.0
  C  C30  1  0.79561000  0.91327000  0.24806000  1.0
  C  C31  1  0.70442000  0.08669000  0.74804000  1.0
  C  C32  1  0.15779000  0.26280000  0.87202000  1.0
  C  C33  1  0.34218000  0.73726000  0.37204000  1.0
  C  C34  1  0.84245000  0.73718000  0.12798000  1.0
  C  C35  1  0.65758000  0.26276000  0.62795000  1.0
  C  C36  1  0.14659000  0.23863000  0.61642000  1.0
  C  C37  1  0.35336000  0.76138000  0.11640000  1.0
  C  C38  1  0.85302000  0.76140000  0.38361000  1.0
  C  C39  1  0.64703000  0.23863000  0.88360000  1.0
  N  N40  1  0.09512000  0.43961000  0.82786000  1.0
  N  N41  1  0.40489000  0.56049000  0.32786000  1.0
  N  N42  1  0.90518000  0.56039000  0.17214000  1.0
  N  N43  1  0.59487000  0.43953000  0.67214000  1.0
  N  N44  1  0.21264000  0.08226000  0.83208000  1.0
  N  N45  1  0.28730000  0.91779000  0.33210000  1.0
  N  N46  1  0.78747000  0.91770000  0.16792000  1.0
  N  N47  1  0.71255000  0.08225000  0.66790000  1.0
  O  O48  1  0.02808000  0.62957000  0.71452000  1.0
  O  O49  1  0.47187000  0.37045000  0.21457000  1.0
  O  O50  1  0.97190000  0.37034000  0.28546000  1.0
  O  O51  1  0.52801000  0.62962000  0.78544000  1.0
  O  O52  1  0.19813000  0.05946000  0.58627000  1.0
  O  O53  1  0.30185000  0.94056000  0.08624000  1.0
  O  O54  1  0.80154000  0.94054000  0.41374000  1.0
  O  O55  1  0.69856000  0.05943000  0.91374000  1.0
  O  O56  1  0.09700000  0.39297000  0.56979000  1.0
  O  O57  1  0.40298000  0.60704000  0.06979000  1.0
  O  O58  1  0.90249000  0.60706000  0.43026000  1.0
  O  O59  1  0.59755000  0.39293000  0.93023000  1.0
  O  O60  1  0.16670000  0.26999000  0.94765000  1.0
  O  O61  1  0.33333333  0.72995000  0.44767000  1.0
  O  O62  1  0.83363000  0.73002000  0.05235000  1.0
  O  O63  1  0.66634000  0.27001000  0.55232000  1.0
  O  O64  1  0.07714000  0.75981000  0.92864000  1.0
  O  O65  1  0.42281000  0.24009000  0.42866000  1.0
  O  O66  1  0.92308000  0.24003000  0.07135000  1.0
  O  O67  1  0.57689000  0.75993000  0.57137000  1.0
