# generated using pymatgen
data_AgH3C3(N2O)2
_symmetry_space_group_name_H-M   'P 1'
_cell_length_a   4.96943000
_cell_length_b   8.53720000
_cell_length_c   13.73850000
_cell_angle_alpha   90.00000000
_cell_angle_beta   90.00000000
_cell_angle_gamma   100.07700000
_symmetry_Int_Tables_number   1
_chemical_formula_structural   AgH3C3(N2O)2
_chemical_formula_sum   'Ag4 H12 C12 N16 O8'
_cell_volume   573.86467572
_cell_formula_units_Z   4
loop_
 _symmetry_equiv_pos_site_id
 _symmetry_equiv_pos_as_xyz
  1  'x, y, z'
loop_
 _atom_site_type_symbol
 _atom_site_label
 _atom_site_symmetry_multiplicity
 _atom_site_fract_x
 _atom_site_fract_y
 _atom_site_fract_z
 _atom_site_occupancy
  Ag  Ag0  1  0.75584000  0.60266000  0.96458000  1.0
  Ag  Ag1  1  0.74416000  0.89734000  0.46458000  1.0
  Ag  Ag2  1  0.24416000  0.39734000  0.03542000  1.0
  Ag  Ag3  1  0.25584000  0.10266000  0.53542000  1.0
  H  H4  1  0.28130000  0.69731000  0.81992000  1.0
  H  H5  1  0.21870000  0.80269000  0.31992000  1.0
  H  H6  1  0.71870000  0.30269000  0.18008000  1.0
  H  H7  1  0.78130000  0.19731000  0.68008000  1.0
  H  H8  1  0.96096000  0.62075000  0.65416000  1.0
  H  H9  1  0.53904000  0.87925000  0.15416000  1.0
  H  H10  1  0.03904000  0.37925000  0.34584000  1.0
  H  H11  1  0.46096000  0.12075000  0.84584000  1.0
  H  H12  1  0.05509000  0.46523000  0.58236000  1.0
  H  H13  1  0.44491000  0.03478000  0.08236000  1.0
  H  H14  1  0.94491000  0.53477000  0.41764000  1.0
  H  H15  1  0.55509000  0.96523000  0.91764000  1.0
  C  C16  1  0.36310000  0.59816000  0.78991000  1.0
  C  C17  1  0.13690000  0.90184000  0.28991000  1.0
  C  C18  1  0.63690000  0.40184000  0.21009000  1.0
  C  C19  1  0.86310000  0.09816000  0.71009000  1.0
  C  C20  1  0.13445000  0.57288000  0.62467000  1.0
  C  C21  1  0.36555000  0.92712000  0.12467000  1.0
  C  C22  1  0.86555000  0.42712000  0.37533000  1.0
  C  C23  1  0.63444000  0.07288000  0.87533000  1.0
  C  C24  1  0.29863000  0.69887000  0.55846000  1.0
  C  C25  1  0.20136000  0.80113000  0.05846000  1.0
  C  C26  1  0.70136000  0.30113000  0.44154000  1.0
  C  C27  1  0.79864000  0.19887000  0.94154000  1.0
  N  N28  1  0.54580000  0.52354000  0.83219000  1.0
  N  N29  1  0.95420000  0.97646000  0.33219000  1.0
  N  N30  1  0.45420000  0.47646000  0.16781000  1.0
  N  N31  1  0.04580000  0.02354000  0.66781000  1.0
  N  N32  1  0.58912000  0.40557000  0.77051000  1.0
  N  N33  1  0.91088000  0.09443000  0.27051000  1.0
  N  N34  1  0.41088000  0.59443000  0.22949000  1.0
  N  N35  1  0.08912000  0.90557000  0.72949000  1.0
  N  N36  1  0.43969000  0.40702000  0.69317000  1.0
  N  N37  1  0.06031000  0.09299000  0.19317000  1.0
  N  N38  1  0.56031000  0.59299000  0.30683000  1.0
  N  N39  1  0.93969000  0.90701000  0.80683000  1.0
  N  N40  1  0.29622000  0.52693000  0.70423000  1.0
  N  N41  1  0.20378000  0.97307000  0.20423000  1.0
  N  N42  1  0.70378000  0.47307000  0.29577000  1.0
  N  N43  1  0.79622000  0.02693000  0.79577000  1.0
  O  O44  1  0.17729000  0.73566000  0.48377000  1.0
  O  O45  1  0.32271000  0.76434000  0.98377000  1.0
  O  O46  1  0.82271000  0.26434000  0.51623000  1.0
  O  O47  1  0.67729000  0.23566000  0.01623000  1.0
  O  O48  1  0.54340000  0.75644000  0.58387000  1.0
  O  O49  1  0.95660000  0.74356000  0.08387000  1.0
  O  O50  1  0.45660000  0.24356000  0.41613000  1.0
  O  O51  1  0.04340000  0.25644000  0.91613000  1.0
