# generated using pymatgen
data_MgH16C8O7
_symmetry_space_group_name_H-M   'P 1'
_cell_length_a   8.03981000
_cell_length_b   9.02295000
_cell_length_c   17.06090000
_cell_angle_alpha   101.36600000
_cell_angle_beta   90.00000000
_cell_angle_gamma   90.00000000
_symmetry_Int_Tables_number   1
_chemical_formula_structural   MgH16C8O7
_chemical_formula_sum   'Mg4 H64 C32 O28'
_cell_volume   1213.37317888
_cell_formula_units_Z   4
loop_
 _symmetry_equiv_pos_site_id
 _symmetry_equiv_pos_as_xyz
  1  'x, y, z'
loop_
 _atom_site_type_symbol
 _atom_site_label
 _atom_site_symmetry_multiplicity
 _atom_site_fract_x
 _atom_site_fract_y
 _atom_site_fract_z
 _atom_site_occupancy
  Mg  Mg0  1  0.84940000  0.98973000  0.36676000  1.0
  Mg  Mg1  1  0.34940000  0.51027000  0.63324000  1.0
  Mg  Mg2  1  0.15060000  0.01027000  0.63324000  1.0
  Mg  Mg3  1  0.65060000  0.48973000  0.36676000  1.0
  H  H4  1  0.59617000  0.15165000  0.35722000  1.0
  H  H5  1  0.09617000  0.34835000  0.64278000  1.0
  H  H6  1  0.40383000  0.84835000  0.64278000  1.0
  H  H7  1  0.90383000  0.65165000  0.35722000  1.0
  H  H8  1  0.50249000  0.01151000  0.38657000  1.0
  H  H9  1  0.00249000  0.48849000  0.61343000  1.0
  H  H10  1  0.49751000  0.98849000  0.61343000  1.0
  H  H11  1  0.99751000  0.51151000  0.38657000  1.0
  H  H12  1  0.84034000  0.26595000  0.45869000  1.0
  H  H13  1  0.34034000  0.23405000  0.54131000  1.0
  H  H14  1  0.15966000  0.73405000  0.54131000  1.0
  H  H15  1  0.65966000  0.76595000  0.45869000  1.0
  H  H16  1  0.01840000  0.26076000  0.41946000  1.0
  H  H17  1  0.51840000  0.23924000  0.58054000  1.0
  H  H18  1  0.98160000  0.73924000  0.58054000  1.0
  H  H19  1  0.48160000  0.76076000  0.41946000  1.0
  H  H20  1  0.90860000  0.87138000  0.50089000  1.0
  H  H21  1  0.40860000  0.62862000  0.49911000  1.0
  H  H22  1  0.09140000  0.12862000  0.49911000  1.0
  H  H23  1  0.59140000  0.37138000  0.50089000  1.0
  H  H24  1  0.75592000  0.98559000  0.51938000  1.0
  H  H25  1  0.25592000  0.51441000  0.48062000  1.0
  H  H26  1  0.24408000  0.01441000  0.48062000  1.0
  H  H27  1  0.74408000  0.48559000  0.51938000  1.0
  H  H28  1  0.35478000  0.65260000  0.28831000  1.0
  H  H29  1  0.85478000  0.84740000  0.71169000  1.0
  H  H30  1  0.64522000  0.34740000  0.71169000  1.0
  H  H31  1  0.14522000  0.15260000  0.28831000  1.0
  H  H32  1  0.03928000  0.77539000  0.22162000  1.0
  H  H33  1  0.53928000  0.72461000  0.77838000  1.0
  H  H34  1  0.96072000  0.22461000  0.77838000  1.0
  H  H35  1  0.46072000  0.27539000  0.22162000  1.0
  H  H36  1  0.26585000  0.49563000  0.16141000  1.0
  H  H37  1  0.76585000  0.00437000  0.83860000  1.0
  H  H38  1  0.73415000  0.50437000  0.83860000  1.0
  H  H39  1  0.23415000  0.99563000  0.16140000  1.0
  H  H40  1  0.04735000  0.50260000  0.14394000  1.0
  H  H41  1  0.54734000  0.99740000  0.85606000  1.0
  H  H42  1  0.95266000  0.49740000  0.85606000  1.0
  H  H43  1  0.45265000  0.00260000  0.14394000  1.0
  H  H44  1  0.18255000  0.61253000  0.09730000  1.0
  H  H45  1  0.68255000  0.88747000  0.90270000  1.0
  H  H46  1  0.81745000  0.38747000  0.90270000  1.0
  H  H47  1  0.31745000  0.11253000  0.09730000  1.0
  H  H48  1  0.72301000  0.86463000  0.17628000  1.0
  H  H49  1  0.22301000  0.63537000  0.82372000  1.0
  H  H50  1  0.27699000  0.13537000  0.82372000  1.0
  H  H51  1  0.77699000  0.36463000  0.17628000  1.0
  H  H52  1  0.56678000  0.55134000  0.11521000  1.0
  H  H53  1  0.06678000  0.94866000  0.88479000  1.0
  H  H54  1  0.43322000  0.44866000  0.88480000  1.0
  H  H55  1  0.93322000  0.05134000  0.11521000  1.0
  H  H56  1  0.63660000  0.82583000  0.03356000  1.0
  H  H57  1  0.13660000  0.67417000  0.96644000  1.0
  H  H58  1  0.36340000  0.17417000  0.96644000  1.0
  H  H59  1  0.86340000  0.32583000  0.03356000  1.0
  H  H60  1  0.46105000  0.70391000  0.01190000  1.0
  H  H61  1  0.96105000  0.79609000  0.98810000  1.0
  H  H62  1  0.53895000  0.29608000  0.98810000  1.0
  H  H63  1  0.03895000  0.20391000  0.01190000  1.0
  H  H64  1  0.66123000  0.63309000  0.98467000  1.0
  H  H65  1  0.16123000  0.86691000  0.01533000  1.0
  H  H66  1  0.33877000  0.36691000  0.01533000  1.0
  H  H67  1  0.83877000  0.13309000  0.98467000  1.0
  C  C68  1  0.22258000  0.85426000  0.35275000  1.0
  C  C69  1  0.72258000  0.64574000  0.64725000  1.0
  C  C70  1  0.77742000  0.14574000  0.64725000  1.0
  C  C71  1  0.27742000  0.35426000  0.35275000  1.0
  C  C72  1  0.24714000  0.72498000  0.28545000  1.0
  C  C73  1  0.74715000  0.77502000  0.71455000  1.0
  C  C74  1  0.75285000  0.27502000  0.71455000  1.0
  C  C75  1  0.25286000  0.22498000  0.28545000  1.0
  C  C76  1  0.14420000  0.69843000  0.22226000  1.0
  C  C77  1  0.64420000  0.80157000  0.77774000  1.0
  C  C78  1  0.85580000  0.30157000  0.77774000  1.0
  C  C79  1  0.35580000  0.19843000  0.22226000  1.0
  C  C80  1  0.16236000  0.57021000  0.15293000  1.0
  C  C81  1  0.66236000  0.92979000  0.84707000  1.0
  C  C82  1  0.83764000  0.42979000  0.84707000  1.0
  C  C83  1  0.33764000  0.07021000  0.15293000  1.0
  C  C84  1  0.69823000  0.69694000  0.25235000  1.0
  C  C85  1  0.19823000  0.80307000  0.74765000  1.0
  C  C86  1  0.30177000  0.30307000  0.74765000  1.0
  C  C87  1  0.80177000  0.19694000  0.25235000  1.0
  C  C88  1  0.67578000  0.75092000  0.17614000  1.0
  C  C89  1  0.17578000  0.74909000  0.82386000  1.0
  C  C90  1  0.32422000  0.24908000  0.82386000  1.0
  C  C91  1  0.82422000  0.25091000  0.17614000  1.0
  C  C92  1  0.60995000  0.66440000  0.11052000  1.0
  C  C93  1  0.10995000  0.83560000  0.88948000  1.0
  C  C94  1  0.39005000  0.33560000  0.88948000  1.0
  C  C95  1  0.89005000  0.16440000  0.11051000  1.0
  C  C96  1  0.59185000  0.71011000  0.03156000  1.0
  C  C97  1  0.09185000  0.78989000  0.96844000  1.0
  C  C98  1  0.40815000  0.28989000  0.96844000  1.0
  C  C99  1  0.90815000  0.21011000  0.03156000  1.0
  O  O100  1  0.60735000  0.06874000  0.38687000  1.0
  O  O101  1  0.10735000  0.43126000  0.61313000  1.0
  O  O102  1  0.39265000  0.93126000  0.61313000  1.0
  O  O103  1  0.89265000  0.56874000  0.38687000  1.0
  O  O104  1  0.93416000  0.19504000  0.43993000  1.0
  O  O105  1  0.43417000  0.30496000  0.56007000  1.0
  O  O106  1  0.06583000  0.80496000  0.56007000  1.0
  O  O107  1  0.56584000  0.69504000  0.43993000  1.0
  O  O108  1  0.80884000  0.90844000  0.47599000  1.0
  O  O109  1  0.30884000  0.59155000  0.52401000  1.0
  O  O110  1  0.19116000  0.09156000  0.52401000  1.0
  O  O111  1  0.69116000  0.40845000  0.47599000  1.0
  O  O112  1  0.08925000  0.92916000  0.35980000  1.0
  O  O113  1  0.58925000  0.57084000  0.64021000  1.0
  O  O114  1  0.91075000  0.07084000  0.64021000  1.0
  O  O115  1  0.41075000  0.42916000  0.35979000  1.0
  O  O116  1  0.34208000  0.88808000  0.40410000  1.0
  O  O117  1  0.84208000  0.61192000  0.59590000  1.0
  O  O118  1  0.65792000  0.11192000  0.59590000  1.0
  O  O119  1  0.15792000  0.38808000  0.40410000  1.0
  O  O120  1  0.63611000  0.57125000  0.26049000  1.0
  O  O121  1  0.13611000  0.92875000  0.73952000  1.0
  O  O122  1  0.36390000  0.42875000  0.73952000  1.0
  O  O123  1  0.86389000  0.07125000  0.26048000  1.0
  O  O124  1  0.78598000  0.77940000  0.30664000  1.0
  O  O125  1  0.28598000  0.72060000  0.69336000  1.0
  O  O126  1  0.21402000  0.22060000  0.69336000  1.0
  O  O127  1  0.71402000  0.27940000  0.30664000  1.0
