# generated using pymatgen
data_Zn5H34(C13O16)2
_symmetry_space_group_name_H-M   'P 1'
_cell_length_a   7.68210000
_cell_length_b   10.20510000
_cell_length_c   12.16910000
_cell_angle_alpha   90.01490000
_cell_angle_beta   90.23040000
_cell_angle_gamma   91.94840000
_symmetry_Int_Tables_number   1
_chemical_formula_structural   Zn5H34(C13O16)2
_chemical_formula_sum   'Zn5 H34 C26 O32'
_cell_volume   953.45670270
_cell_formula_units_Z   1
loop_
 _symmetry_equiv_pos_site_id
 _symmetry_equiv_pos_as_xyz
  1  'x, y, z'
loop_
 _atom_site_type_symbol
 _atom_site_label
 _atom_site_symmetry_multiplicity
 _atom_site_fract_x
 _atom_site_fract_y
 _atom_site_fract_z
 _atom_site_occupancy
  Zn  Zn0  1  0.50001000  0.00000000  0.50000000  1.0
  Zn  Zn1  1  0.60472000  0.30670000  0.58966000  1.0
  Zn  Zn2  1  0.39522000  0.69332000  0.41035000  1.0
  Zn  Zn3  1  0.55865000  0.06254000  0.77070000  1.0
  Zn  Zn4  1  0.44135000  0.93746000  0.22930000  1.0
  H  H5  1  0.81668000  0.60461000  0.82640000  1.0
  H  H6  1  0.18333000  0.39539000  0.17360000  1.0
  H  H7  1  0.61007000  0.29309000  0.02901000  1.0
  H  H8  1  0.38993000  0.70691000  0.97099000  1.0
  H  H9  1  0.96845000  0.77420000  0.83471000  1.0
  H  H10  1  0.03156000  0.22581000  0.16530000  1.0
  H  H11  1  0.04931000  0.90203000  0.92048000  1.0
  H  H12  1  0.95069000  0.09798000  0.07953000  1.0
  H  H13  1  0.05736000  0.70230000  0.18091000  1.0
  H  H14  1  0.94264000  0.29770000  0.81909000  1.0
  H  H15  1  0.98739000  0.58087000  0.27911000  1.0
  H  H16  1  0.01263000  0.41914000  0.72089000  1.0
  H  H17  1  0.68813000  0.22271000  0.19246000  1.0
  H  H18  1  0.31187000  0.77730000  0.80754000  1.0
  H  H19  1  0.47532000  0.28509000  0.19680000  1.0
  H  H20  1  0.52468000  0.71491000  0.80321000  1.0
  H  H21  1  0.36561000  0.15772000  0.63582000  1.0
  H  H22  1  0.63437000  0.84226000  0.36419000  1.0
  H  H23  1  0.80148000  0.51253000  0.63944000  1.0
  H  H24  1  0.19857000  0.48748000  0.36054000  1.0
  H  H25  1  0.89843000  0.44766000  0.54255000  1.0
  H  H26  1  0.10148000  0.55221000  0.45746000  1.0
  H  H27  1  0.35220000  0.46026000  0.64589000  1.0
  H  H28  1  0.64777000  0.53977000  0.35408000  1.0
  H  H29  1  0.29262000  0.42067000  0.52516000  1.0
  H  H30  1  0.70736000  0.57930000  0.47482000  1.0
  H  H31  1  0.23764000  0.07737000  0.79104000  1.0
  H  H32  1  0.76236000  0.92264000  0.20896000  1.0
  H  H33  1  0.32050000  0.06043000  0.91444000  1.0
  H  H34  1  0.67951000  0.93957000  0.08556000  1.0
  H  H35  1  0.83290000  0.08297000  0.54012000  1.0
  H  H36  1  0.16711000  0.91705000  0.45988000  1.0
  H  H37  1  0.83322000  0.96632000  0.44935000  1.0
  H  H38  1  0.16679000  0.03369000  0.55066000  1.0
  C  C39  1  0.65788000  0.35938000  0.82373000  1.0
  C  C40  1  0.34213000  0.64063000  0.17627000  1.0
  C  C41  1  0.70491000  0.44384000  0.92052000  1.0
  C  C42  1  0.29509000  0.55616000  0.07948000  1.0
  C  C43  1  0.78520000  0.56847000  0.90827000  1.0
  C  C44  1  0.21480000  0.43153000  0.09173000  1.0
  C  C45  1  0.82551000  0.64267000  0.00216000  1.0
  C  C46  1  0.17449000  0.35733000  0.99784000  1.0
  C  C47  1  0.77517000  0.59529000  0.10644000  1.0
  C  C48  1  0.22483000  0.40471000  0.89356000  1.0
  C  C49  1  0.70494000  0.46696000  0.11785000  1.0
  C  C50  1  0.29506000  0.53304000  0.88216000  1.0
  C  C51  1  0.66916000  0.39124000  0.02456000  1.0
  C  C52  1  0.33085000  0.60877000  0.97544000  1.0
  C  C53  1  0.93717000  0.83418000  0.90667000  1.0
  C  C54  1  0.06284000  0.16582000  0.09334000  1.0
  C  C55  1  0.77601000  0.91305000  0.88285000  1.0
  C  C56  1  0.22399000  0.08695000  0.11715000  1.0
  C  C57  1  0.96084000  0.67765000  0.24474000  1.0
  C  C58  1  0.03917000  0.32236000  0.75526000  1.0
  C  C59  1  0.97958000  0.78212000  0.33280000  1.0
  C  C60  1  0.02043000  0.21789000  0.66720000  1.0
  C  C61  1  0.60574000  0.29327000  0.23451000  1.0
  C  C62  1  0.39426000  0.70673000  0.76549000  1.0
  C  C63  1  0.59030000  0.25067000  0.35395000  1.0
  C  C64  1  0.40970000  0.74933000  0.64605000  1.0
  O  O65  1  0.61687000  0.24076000  0.84286000  1.0
  O  O66  1  0.38314000  0.75924000  0.15714000  1.0
  O  O67  1  0.66458000  0.41213000  0.72705000  1.0
  O  O68  1  0.33542000  0.58788000  0.27295000  1.0
  O  O69  1  0.91826000  0.75959000  0.00493000  1.0
  O  O70  1  0.08174000  0.24041000  0.99508000  1.0
  O  O71  1  0.77503000  0.96891000  0.78823000  1.0
  O  O72  1  0.22497000  0.03109000  0.21177000  1.0
  O  O73  1  0.65682000  0.92067000  0.95252000  1.0
  O  O74  1  0.34318000  0.07935000  0.04748000  1.0
  O  O75  1  0.79044000  0.67574000  0.19667000  1.0
  O  O76  1  0.20956000  0.32426000  0.80333000  1.0
  O  O77  1  0.87130000  0.87315000  0.33393000  1.0
  O  O78  1  0.12870000  0.12685000  0.66608000  1.0
  O  O79  1  0.10830000  0.77319000  0.39887000  1.0
  O  O80  1  0.89172000  0.22683000  0.60112000  1.0
  O  O81  1  0.67598000  0.42451000  0.22366000  1.0
  O  O82  1  0.32402000  0.57549000  0.77634000  1.0
  O  O83  1  0.64991000  0.32776000  0.42895000  1.0
  O  O84  1  0.35008000  0.67223000  0.57106000  1.0
  O  O85  1  0.51749000  0.13926000  0.36639000  1.0
  O  O86  1  0.48251000  0.86074000  0.63361000  1.0
  O  O87  1  0.48906000  0.13589000  0.62588000  1.0
  O  O88  1  0.51093000  0.86411000  0.37413000  1.0
  O  O89  1  0.85528000  0.53198000  0.56745000  1.0
  O  O90  1  0.14476000  0.46794000  0.43251000  1.0
  O  O91  1  0.36287000  0.39211000  0.58960000  1.0
  O  O92  1  0.63709000  0.60789000  0.41040000  1.0
  O  O93  1  0.32117000  0.02761000  0.83619000  1.0
  O  O94  1  0.67883000  0.97240000  0.16381000  1.0
  O  O95  1  0.77208000  0.00048000  0.51460000  1.0
  O  O96  1  0.22794000  0.99954000  0.48540000  1.0
