# generated using pymatgen
data_Zn4H8C40N6O25
_symmetry_space_group_name_H-M   'P 1'
_cell_length_a   19.61510000
_cell_length_b   19.61340000
_cell_length_c   29.25954506
_cell_angle_alpha   109.60011205
_cell_angle_beta   109.57874071
_cell_angle_gamma   89.98020000
_symmetry_Int_Tables_number   1
_chemical_formula_structural   Zn4H8C40N6O25
_chemical_formula_sum   'Zn8 H16 C80 N12 O50'
_cell_volume   9911.36189585
_cell_formula_units_Z   2
loop_
 _symmetry_equiv_pos_site_id
 _symmetry_equiv_pos_as_xyz
  1  'x, y, z'
loop_
 _atom_site_type_symbol
 _atom_site_label
 _atom_site_symmetry_multiplicity
 _atom_site_fract_x
 _atom_site_fract_y
 _atom_site_fract_z
 _atom_site_occupancy
  Zn  Zn0  1  0.85390000  0.27195000  0.54452000  1.0
  Zn  Zn1  1  0.14610000  0.72738000  0.45550000  1.0
  Zn  Zn2  1  0.27275000  0.85394000  0.54459000  1.0
  Zn  Zn3  1  0.72801000  0.14605000  0.45542000  1.0
  Zn  Zn4  1  0.69065000  0.27259000  0.54458000  1.0
  Zn  Zn5  1  0.30934000  0.72814000  0.45540000  1.0
  Zn  Zn6  1  0.27187000  0.69058000  0.54448000  1.0
  Zn  Zn7  1  0.72746000  0.30937000  0.45549000  1.0
  H  H8  1  0.02354000  0.35268000  0.04905000  1.0
  H  H9  1  0.97492000  0.64738000  0.95096000  1.0
  H  H10  1  0.69634000  0.02326000  0.04902000  1.0
  H  H11  1  0.30361000  0.97513000  0.95097000  1.0
  H  H12  1  0.02563000  0.69644000  0.04909000  1.0
  H  H13  1  0.97600000  0.30363000  0.95092000  1.0
  H  H14  1  0.35269000  0.02577000  0.04909000  1.0
  H  H15  1  0.64729000  0.97583000  0.95090000  1.0
  H  H16  1  0.74433000  0.37141000  0.70535000  1.0
  H  H17  1  0.03879000  0.62856000  0.29460000  1.0
  H  H18  1  0.33364000  0.74423000  0.70540000  1.0
  H  H19  1  0.66582000  0.03890000  0.29464000  1.0
  H  H20  1  0.96121000  0.33414000  0.70538000  1.0
  H  H21  1  0.25567000  0.66599000  0.29471000  1.0
  H  H22  1  0.37160000  0.96088000  0.70528000  1.0
  H  H23  1  0.62906000  0.25587000  0.29463000  1.0
  C  C24  1  0.01309000  0.38938000  0.02724000  1.0
  C  C25  1  0.98618000  0.61069000  0.97278000  1.0
  C  C26  1  0.63785000  0.01289000  0.02721000  1.0
  C  C27  1  0.36212000  0.98631000  0.97278000  1.0
  C  C28  1  0.01419000  0.63793000  0.02726000  1.0
  C  C29  1  0.98654000  0.36214000  0.97275000  1.0
  C  C30  1  0.38936000  0.01426000  0.02726000  1.0
  C  C31  1  0.61060000  0.98642000  0.97273000  1.0
  C  C32  1  0.82974000  0.39956000  0.77991000  1.0
  C  C33  1  0.04980000  0.60052000  0.22007000  1.0
  C  C34  1  0.38020000  0.82974000  0.77993000  1.0
  C  C35  1  0.61951000  0.04980000  0.22008000  1.0
  C  C36  1  0.95021000  0.38046000  0.77993000  1.0
  C  C37  1  0.17028000  0.61963000  0.22012000  1.0
  C  C38  1  0.39968000  0.95011000  0.77988000  1.0
  C  C39  1  0.60072000  0.17032000  0.22008000  1.0
  C  C40  1  0.90420000  0.40425000  0.80841000  1.0
  C  C41  1  0.09581000  0.59585000  0.19160000  1.0
  C  C42  1  0.40419000  0.90420000  0.80839000  1.0
  C  C43  1  0.59585000  0.09580000  0.19159000  1.0
  C  C44  1  0.67982000  0.17971000  0.35932000  1.0
  C  C45  1  0.32029000  0.82023000  0.64066000  1.0
  C  C46  1  0.17959000  0.67960000  0.35933000  1.0
  C  C47  1  0.82041000  0.32046000  0.64068000  1.0
  C  C48  1  0.87959000  0.37958000  0.50001000  1.0
  C  C49  1  0.11999000  0.61997000  0.50000000  1.0
  C  C50  1  0.12061000  0.87970000  0.50014000  1.0
  C  C51  1  0.87988000  0.11992000  0.49995000  1.0
  C  C52  1  0.62045000  0.12042000  0.50001000  1.0
  C  C53  1  0.38004000  0.88003000  0.49999000  1.0
  C  C54  1  0.37957000  0.62046000  0.49986000  1.0
  C  C55  1  0.61998000  0.37992000  0.50004000  1.0
  C  C56  1  0.80230000  0.37334000  0.72598000  1.0
  C  C57  1  0.07619000  0.62672000  0.27400000  1.0
  C  C58  1  0.35252000  0.80220000  0.72600000  1.0
  C  C59  1  0.64725000  0.07628000  0.27401000  1.0
  C  C60  1  0.92380000  0.35284000  0.72599000  1.0
  C  C61  1  0.19769000  0.64728000  0.27404000  1.0
  C  C62  1  0.37341000  0.92360000  0.72595000  1.0
  C  C63  1  0.62704000  0.19784000  0.27401000  1.0
  C  C64  1  0.93178000  0.06808000  0.49994000  1.0
  C  C65  1  0.06873000  0.93154000  0.50015000  1.0
  C  C66  1  0.43189000  0.93187000  0.49999000  1.0
  C  C67  1  0.56860000  0.06857000  0.50001000  1.0
  C  C68  1  0.56816000  0.43183000  0.50006000  1.0
  C  C69  1  0.43141000  0.56857000  0.49986000  1.0
  C  C70  1  0.06814000  0.56812000  0.50000000  1.0
  C  C71  1  0.93144000  0.43143000  0.50000000  1.0
  C  C72  1  0.97590000  0.02406000  0.49998000  1.0
  C  C73  1  0.02457000  0.97551000  0.50004000  1.0
  C  C74  1  0.47595000  0.97592000  0.50000000  1.0
  C  C75  1  0.52455000  0.02452000  0.50001000  1.0
  C  C76  1  0.52410000  0.47591000  0.50002000  1.0
  C  C77  1  0.47549000  0.52452000  0.49997000  1.0
  C  C78  1  0.02409000  0.52407000  0.50000000  1.0
  C  C79  1  0.97549000  0.47547000  0.50000000  1.0
  C  C80  1  0.84949000  0.34953000  0.69883000  1.0
  C  C81  1  0.15050000  0.65056000  0.30118000  1.0
  C  C82  1  0.34938000  0.84930000  0.69881000  1.0
  C  C83  1  0.65077000  0.15065000  0.30117000  1.0
  C  C84  1  0.05773000  0.62026000  0.11183000  1.0
  C  C85  1  0.94570000  0.37981000  0.88818000  1.0
  C  C86  1  0.49162000  0.05783000  0.11183000  1.0
  C  C87  1  0.50837000  0.94561000  0.88816000  1.0
  C  C88  1  0.05413000  0.49164000  0.11183000  1.0
  C  C89  1  0.94236000  0.50844000  0.88820000  1.0
  C  C90  1  0.62020000  0.05389000  0.11179000  1.0
  C  C91  1  0.37976000  0.94253000  0.88818000  1.0
  C  C92  1  0.02669000  0.46415000  0.05448000  1.0
  C  C93  1  0.97233000  0.53592000  0.94555000  1.0
  C  C94  1  0.59033000  0.02650000  0.05445000  1.0
  C  C95  1  0.40962000  0.97244000  0.94552000  1.0
  C  C96  1  0.02781000  0.59040000  0.05449000  1.0
  C  C97  1  0.97308000  0.40967000  0.94553000  1.0
  C  C98  1  0.46411000  0.02780000  0.05448000  1.0
  C  C99  1  0.53585000  0.97305000  0.94551000  1.0
  C  C100  1  0.01381000  0.51386000  0.02766000  1.0
  C  C101  1  0.98612000  0.48621000  0.97236000  1.0
  C  C102  1  0.51380000  0.01373000  0.02764000  1.0
  C  C103  1  0.48615000  0.98612000  0.97234000  1.0
  N  N104  1  0.06814000  0.56815000  0.13620000  1.0
  N  N105  1  0.93186000  0.43194000  0.86381000  1.0
  N  N106  1  0.56811000  0.06807000  0.13619000  1.0
  N  N107  1  0.43188000  0.93194000  0.86379000  1.0
  N  N108  1  0.77623000  0.42295000  0.80612000  1.0
  N  N109  1  0.97013000  0.57703000  0.19381000  1.0
  N  N110  1  0.38271000  0.77637000  0.80619000  1.0
  N  N111  1  0.61642000  0.97003000  0.19387000  1.0
  N  N112  1  0.02987000  0.38313000  0.80618000  1.0
  N  N113  1  0.22379000  0.61687000  0.19392000  1.0
  N  N114  1  0.42334000  0.02978000  0.80606000  1.0
  N  N115  1  0.57729000  0.22376000  0.19382000  1.0
  O  O116  1  0.74999000  0.24997000  0.50000000  1.0
  O  O117  1  0.25003000  0.75003000  0.49999000  1.0
  O  O118  1  0.69276000  0.13260000  0.38134000  1.0
  O  O119  1  0.31150000  0.86733000  0.61865000  1.0
  O  O120  1  0.24869000  0.69279000  0.38134000  1.0
  O  O121  1  0.75130000  0.31144000  0.61866000  1.0
  O  O122  1  0.68890000  0.24883000  0.38139000  1.0
  O  O123  1  0.30701000  0.75112000  0.61858000  1.0
  O  O124  1  0.13256000  0.68844000  0.38141000  1.0
  O  O125  1  0.86747000  0.30744000  0.61862000  1.0
  O  O126  1  0.81486000  0.37168000  0.46773000  1.0
  O  O127  1  0.18506000  0.62681000  0.53152000  1.0
  O  O128  1  0.09626000  0.81498000  0.46780000  1.0
  O  O129  1  0.90454000  0.18499000  0.53153000  1.0
  O  O130  1  0.65271000  0.09608000  0.46759000  1.0
  O  O131  1  0.34683000  0.90463000  0.53177000  1.0
  O  O132  1  0.37163000  0.65288000  0.46756000  1.0
  O  O133  1  0.62685000  0.34642000  0.53161000  1.0
  O  O134  1  0.18533000  0.90405000  0.53245000  1.0
  O  O135  1  0.81483000  0.09522000  0.46840000  1.0
  O  O136  1  0.90397000  0.34712000  0.53229000  1.0
  O  O137  1  0.09531000  0.65352000  0.46847000  1.0
  O  O138  1  0.34719000  0.62845000  0.53220000  1.0
  O  O139  1  0.65348000  0.37299000  0.46847000  1.0
  O  O140  1  0.62854000  0.18511000  0.53243000  1.0
  O  O141  1  0.37285000  0.81504000  0.46821000  1.0
  O  O142  1  0.07358000  0.68558000  0.13811000  1.0
  O  O143  1  0.93527000  0.31450000  0.86189000  1.0
  O  O144  1  0.45263000  0.07399000  0.13813000  1.0
  O  O145  1  0.54741000  0.93496000  0.86188000  1.0
  O  O146  1  0.06446000  0.45263000  0.13811000  1.0
  O  O147  1  0.92656000  0.54749000  0.86194000  1.0
  O  O148  1  0.68550000  0.06411000  0.13805000  1.0
  O  O149  1  0.31446000  0.92678000  0.86190000  1.0
  O  O150  1  0.78790000  0.41541000  0.84830000  1.0
  O  O151  1  0.72278000  0.44737000  0.78301000  1.0
  O  O152  1  0.93965000  0.58462000  0.15164000  1.0
  O  O153  1  0.93980000  0.55248000  0.21686000  1.0
  O  O154  1  0.43242000  0.78794000  0.84836000  1.0
  O  O155  1  0.33494000  0.72314000  0.78313000  1.0
  O  O156  1  0.56666000  0.93965000  0.15169000  1.0
  O  O157  1  0.66378000  0.93953000  0.21696000  1.0
  O  O158  1  0.06039000  0.43288000  0.84835000  1.0
  O  O159  1  0.06014000  0.33542000  0.78312000  1.0
  O  O160  1  0.21219000  0.56715000  0.15174000  1.0
  O  O161  1  0.27719000  0.66446000  0.21706000  1.0
  O  O162  1  0.41585000  0.06046000  0.84825000  1.0
  O  O163  1  0.44792000  0.05992000  0.78292000  1.0
  O  O164  1  0.58493000  0.21207000  0.15167000  1.0
  O  O165  1  0.55271000  0.27716000  0.21688000  1.0
