# generated using pymatgen
data_FeH16C8S2N2(ClO)2
_symmetry_space_group_name_H-M   'P 1'
_cell_length_a   6.73461512
_cell_length_b   6.84226000
_cell_length_c   8.67578000
_cell_angle_alpha   96.61550000
_cell_angle_beta   92.47113579
_cell_angle_gamma   61.50511970
_symmetry_Int_Tables_number   1
_chemical_formula_structural   FeH16C8S2N2(ClO)2
_chemical_formula_sum   'Fe1 H16 C8 S2 N2 Cl2 O2'
_cell_volume   348.97885167
_cell_formula_units_Z   1
loop_
 _symmetry_equiv_pos_site_id
 _symmetry_equiv_pos_as_xyz
  1  'x, y, z'
loop_
 _atom_site_type_symbol
 _atom_site_label
 _atom_site_symmetry_multiplicity
 _atom_site_fract_x
 _atom_site_fract_y
 _atom_site_fract_z
 _atom_site_occupancy
  Fe  Fe0  1  0.50055000  0.99994000  0.00012000  1.0
  H  H1  1  0.35215000  0.65510000  0.00973000  1.0
  H  H2  1  0.64890000  0.34469000  0.99027000  1.0
  H  H3  1  0.01879000  0.34318000  0.98805000  1.0
  H  H4  1  0.98228000  0.65674000  0.01232000  1.0
  H  H5  1  0.02295000  0.59624000  0.68191000  1.0
  H  H6  1  0.97629000  0.40343000  0.31879000  1.0
  H  H7  1  0.19633000  0.51889000  0.50897000  1.0
  H  H8  1  0.80207000  0.48127000  0.49139000  1.0
  H  H9  1  0.27685000  0.62594000  0.68820000  1.0
  H  H10  1  0.72209000  0.37411000  0.31186000  1.0
  H  H11  1  0.66403000  0.31959000  0.67051000  1.0
  H  H12  1  0.33502000  0.68061000  0.32882000  1.0
  H  H13  1  0.61367000  0.18799000  0.48889000  1.0
  H  H14  1  0.38479000  0.81260000  0.51051000  1.0
  H  H15  1  0.74518000  0.02342000  0.64795000  1.0
  H  H16  1  0.25438000  0.97661000  0.35111000  1.0
  C  C17  1  0.19541000  0.80980000  0.00526000  1.0
  C  C18  1  0.80577000  0.19005000  0.99479000  1.0
  C  C19  1  0.01122000  0.18933000  0.99361000  1.0
  C  C20  1  0.98997000  0.81049000  0.00654000  1.0
  C  C21  1  0.19561000  0.52862000  0.63610000  1.0
  C  C22  1  0.80347000  0.47124000  0.36424000  1.0
  C  C23  1  0.62477000  0.18942000  0.61577000  1.0
  C  C24  1  0.37437000  0.81078000  0.38359000  1.0
  S  S25  1  0.35235000  0.24775000  0.68582000  1.0
  S  S26  1  0.64744000  0.75218000  0.31451000  1.0
  N  N27  1  0.21097000  0.99943000  0.99919000  1.0
  N  N28  1  0.79024000  0.00044000  0.00096000  1.0
  Cl  Cl29  1  0.61609000  0.73460000  0.78027000  1.0
  Cl  Cl30  1  0.38462000  0.26543000  0.21971000  1.0
  O  O31  1  0.35953000  0.28377000  0.86454000  1.0
  O  O32  1  0.64186000  0.71631000  0.13570000  1.0
