# generated using pymatgen
data_CoH21C28(NO3)2
_symmetry_space_group_name_H-M   'P 1'
_cell_length_a   8.79150000
_cell_length_b   17.14030000
_cell_length_c   33.25800000
_cell_angle_alpha   89.99110000
_cell_angle_beta   93.65410000
_cell_angle_gamma   89.99130000
_symmetry_Int_Tables_number   1
_chemical_formula_structural   CoH21C28(NO3)2
_chemical_formula_sum   'Co8 H168 C224 N16 O48'
_cell_volume   5001.42425534
_cell_formula_units_Z   8
loop_
 _symmetry_equiv_pos_site_id
 _symmetry_equiv_pos_as_xyz
  1  'x, y, z'
loop_
 _atom_site_type_symbol
 _atom_site_label
 _atom_site_symmetry_multiplicity
 _atom_site_fract_x
 _atom_site_fract_y
 _atom_site_fract_z
 _atom_site_occupancy
  Co  Co0  1  0.67035000  0.21293000  0.19736000  1.0
  Co  Co1  1  0.71809000  0.82214000  0.83756000  1.0
  Co  Co2  1  0.82962000  0.71294000  0.30263000  1.0
  Co  Co3  1  0.32968000  0.78702000  0.80249000  1.0
  Co  Co4  1  0.78161000  0.32237000  0.66242000  1.0
  Co  Co5  1  0.17040000  0.28716000  0.69740000  1.0
  Co  Co6  1  0.21843000  0.67765000  0.33762000  1.0
  Co  Co7  1  0.28147000  0.17763000  0.16238000  1.0
  H  H8  1  0.73241000  0.12858000  0.59043000  1.0
  H  H9  1  0.25144000  0.11636000  0.45731000  1.0
  H  H10  1  0.39964000  0.30816000  0.37666000  1.0
  H  H11  1  0.52528000  0.95306000  0.55502000  1.0
  H  H12  1  0.11763000  0.59200000  0.95701000  1.0
  H  H13  1  0.26766000  0.87150000  0.40956000  1.0
  H  H14  1  0.73928000  0.01352000  0.54572000  1.0
  H  H15  1  0.61656000  0.04121000  0.81012000  1.0
  H  H16  1  0.03163000  0.46430000  0.81740000  1.0
  H  H17  1  0.36767000  0.95149000  0.10650000  1.0
  H  H18  1  0.62335000  0.23891000  0.45925000  1.0
  H  H19  1  0.06281000  0.44614000  0.74696000  1.0
  H  H20  1  0.21281000  0.93923000  0.85033000  1.0
  H  H21  1  0.77088000  0.16975000  0.47133000  1.0
  H  H22  1  0.63727000  0.73398000  0.13470000  1.0
  H  H23  1  0.02340000  0.67183000  0.80888000  1.0
  H  H24  1  0.14874000  0.12025000  0.28002000  1.0
  H  H25  1  0.32206000  0.16157000  0.60638000  1.0
  H  H26  1  0.32187000  0.57404000  0.99862000  1.0
  H  H27  1  0.77506000  0.76781000  0.21022000  1.0
  H  H28  1  0.63193000  0.04826000  0.89341000  1.0
  H  H29  1  0.06302000  0.12870000  0.35008000  1.0
  H  H30  1  0.22524000  0.06386000  0.73350000  1.0
  H  H31  1  0.96766000  0.27425000  0.57540000  1.0
  H  H32  1  0.42751000  0.56304000  0.63838000  1.0
  H  H33  1  0.80912000  0.04091000  0.40358000  1.0
  H  H34  1  0.04930000  0.39701000  0.54241000  1.0
  H  H35  1  0.97694000  0.32828000  0.19104000  1.0
  H  H36  1  0.48321000  0.64640000  0.95641000  1.0
  H  H37  1  0.53143000  0.03603000  0.31732000  1.0
  H  H38  1  0.91797000  0.51703000  0.87870000  1.0
  H  H39  1  0.17736000  0.66047000  0.89367000  1.0
  H  H40  1  0.15200000  0.16174000  0.08265000  1.0
  H  H41  1  0.99334000  0.12666000  0.21239000  1.0
  H  H42  1  0.93720000  0.55412000  0.25295000  1.0
  H  H43  1  0.01673000  0.14655000  0.54359000  1.0
  H  H44  1  0.32509000  0.88970000  0.02233000  1.0
  H  H45  1  0.36265000  0.26610000  0.86544000  1.0
  H  H46  1  0.70261000  0.27461000  0.51847000  1.0
  H  H47  1  0.90012000  0.19192000  0.87672000  1.0
  H  H48  1  0.86786000  0.54865000  0.60656000  1.0
  H  H49  1  0.77406000  0.93604000  0.26635000  1.0
  H  H50  1  0.74854000  0.88368000  0.54264000  1.0
  H  H51  1  0.54885000  0.10291000  0.04231000  1.0
  H  H52  1  0.72599000  0.43601000  0.23367000  1.0
  H  H53  1  0.61860000  0.90727000  0.45684000  1.0
  H  H54  1  0.95057000  0.60310000  0.45744000  1.0
  H  H55  1  0.69082000  0.54086000  0.09644000  1.0
  H  H56  1  0.13816000  0.02849000  0.18680000  1.0
  H  H57  1  0.67936000  0.42573000  0.00150000  1.0
  H  H58  1  0.00547000  0.67259000  0.59563000  1.0
  H  H59  1  0.56323000  0.37132000  0.85015000  1.0
  H  H60  1  0.02532000  0.54708000  0.05524000  1.0
  H  H61  1  0.85227000  0.23601000  0.41857000  1.0
  H  H62  1  0.13224000  0.45147000  0.39351000  1.0
  H  H63  1  0.72878000  0.66992000  0.02884000  1.0
  H  H64  1  0.85130000  0.88011000  0.71976000  1.0
  H  H65  1  0.01568000  0.79736000  0.19207000  1.0
  H  H66  1  0.35263000  0.26416000  0.91857000  1.0
  H  H67  1  0.72871000  0.67514000  0.57316000  1.0
  H  H68  1  0.11676000  0.45874000  0.31000000  1.0
  H  H69  1  0.60106000  0.69159000  0.62333000  1.0
  H  H70  1  0.78649000  0.06116000  0.14931000  1.0
  H  H71  1  0.82240000  0.33849000  0.10645000  1.0
  H  H72  1  0.51962000  0.85273000  0.18193000  1.0
  H  H73  1  0.47624000  0.41726000  0.20269000  1.0
  H  H74  1  0.49361000  0.37339000  0.71254000  1.0
  H  H75  1  0.38325000  0.95877000  0.18998000  1.0
  H  H76  1  0.48428000  0.29734000  0.30790000  1.0
  H  H77  1  0.26440000  0.84331000  0.29925000  1.0
  H  H78  1  0.67793000  0.83841000  0.39357000  1.0
  H  H79  1  0.64885000  0.37982000  0.78008000  1.0
  H  H80  1  0.98464000  0.20275000  0.80795000  1.0
  H  H81  1  0.68169000  0.42450000  0.14109000  1.0
  H  H82  1  0.82465000  0.61015000  0.52212000  1.0
  H  H83  1  0.69989000  0.15197000  0.32309000  1.0
  H  H84  1  0.36181000  0.52846000  0.31316000  1.0
  H  H85  1  0.27466000  0.73227000  0.71000000  1.0
  H  H86  1  0.82194000  0.92583000  0.49859000  1.0
  H  H87  1  0.63348000  0.76363000  0.55899000  1.0
  H  H88  1  0.37682000  0.76117000  0.54071000  1.0
  H  H89  1  0.77158000  0.17510000  0.92676000  1.0
  H  H90  1  0.97559000  0.08276000  0.70271000  1.0
  H  H91  1  0.98038000  0.35270000  0.31806000  1.0
  H  H92  1  0.72505000  0.26777000  0.28977000  1.0
  H  H93  1  0.87688000  0.73882000  0.04077000  1.0
  H  H94  1  0.18162000  0.07539000  0.64108000  1.0
  H  H95  1  0.23559000  0.34336000  0.20072000  1.0
  H  H96  1  0.30945000  0.45885000  0.90389000  1.0
  H  H97  1  0.47679000  0.17175000  0.69117000  1.0
  H  H98  1  0.96865000  0.53597000  0.18278000  1.0
  H  H99  1  0.31780000  0.57498000  0.85908000  1.0
  H  H100  1  0.23246000  0.37140000  0.09047000  1.0
  H  H101  1  0.86709000  0.26346000  0.94098000  1.0
  H  H102  1  0.50530000  0.82751000  0.09563000  1.0
  H  H103  1  0.36653000  0.23643000  0.44096000  1.0
  H  H104  1  0.30066000  0.84818000  0.67688000  1.0
  H  H105  1  0.12347000  0.26129000  0.95934000  1.0
  H  H106  1  0.13744000  0.76626000  0.63453000  1.0
  H  H107  1  0.56279000  0.05420000  0.24708000  1.0
  H  H108  1  0.00636000  0.87321000  0.78756000  1.0
  H  H109  1  0.29740000  0.72545000  0.48152000  1.0
  H  H110  1  0.34791000  0.66184000  0.41726000  1.0
  H  H111  1  0.86284000  0.23389000  0.36546000  1.0
  H  H112  1  0.98352000  0.85355000  0.45640000  1.0
  H  H113  1  0.02371000  0.91725000  0.29727000  1.0
  H  H114  1  0.41804000  0.98315000  0.37863000  1.0
  H  H115  1  0.53246000  0.77414000  0.92463000  1.0
  H  H116  1  0.76715000  0.62866000  0.90944000  1.0
  H  H117  1  0.27107000  0.33041000  0.97136000  1.0
  H  H118  1  0.28676000  0.43893000  0.64936000  1.0
  H  H119  1  0.76417000  0.65700000  0.79927000  1.0
  H  H120  1  0.24838000  0.61615000  0.04265000  1.0
  H  H121  1  0.73509000  0.15682000  0.70087000  1.0
  H  H122  1  0.80005000  0.65189000  0.17702000  1.0
  H  H123  1  0.46782000  0.22568000  0.07540000  1.0
  H  H124  1  0.22917000  0.83028000  0.52864000  1.0
  H  H125  1  0.71334000  0.56111000  0.35065000  1.0
  H  H126  1  0.23924000  0.48650000  0.04576000  1.0
  H  H127  1  0.58197000  0.01708000  0.62122000  1.0
  H  H128  1  0.01833000  0.64802000  0.68182000  1.0
  H  H129  1  0.08215000  0.48318000  0.12148000  1.0
  H  H130  1  0.45081000  0.89688000  0.95764000  1.0
  H  H131  1  0.93712000  0.87137000  0.64973000  1.0
  H  H132  1  0.51786000  0.35343000  0.04374000  1.0
  H  H133  1  0.79736000  0.77438000  0.98149000  1.0
  H  H134  1  0.57262000  0.43697000  0.36163000  1.0
  H  H135  1  0.88341000  0.54140000  0.69009000  1.0
  H  H136  1  0.22861000  0.82465000  0.07326000  1.0
  H  H137  1  0.47462000  0.04706000  0.44486000  1.0
  H  H138  1  0.49469000  0.17225000  0.90454000  1.0
  H  H139  1  0.43667000  0.94574000  0.75272000  1.0
  H  H140  1  0.48000000  0.14743000  0.81819000  1.0
  H  H141  1  0.75233000  0.38365000  0.95739000  1.0
  H  H142  1  0.07242000  0.06334000  0.86160000  1.0
  H  H143  1  0.51636000  0.70261000  0.69208000  1.0
  H  H144  1  0.20008000  0.34834000  0.82315000  1.0
  H  H145  1  0.65215000  0.33814000  0.58275000  1.0
  H  H146  1  0.22479000  0.23248000  0.78985000  1.0
  H  H147  1  0.67480000  0.11008000  0.97765000  1.0
  H  H148  1  0.10046000  0.80813000  0.12332000  1.0
  H  H149  1  0.13344000  0.73619000  0.05908000  1.0
  H  H150  1  0.97456000  0.45301000  0.94491000  1.0
  H  H151  1  0.43697000  0.62856000  0.15000000  1.0
  H  H152  1  0.35106000  0.62016000  0.22003000  1.0
  H  H153  1  0.26075000  0.98657000  0.45426000  1.0
  H  H154  1  0.81835000  0.92458000  0.35894000  1.0
  H  H155  1  0.50650000  0.62667000  0.28753000  1.0
  H  H156  1  0.20265000  0.22550000  0.01843000  1.0
  H  H157  1  0.27413000  0.56419000  0.76629000  1.0
  H  H158  1  0.64753000  0.73603000  0.08158000  1.0
  H  H159  1  0.27120000  0.32485000  0.42671000  1.0
  H  H160  1  0.76118000  0.51367000  0.95424000  1.0
  H  H161  1  0.63859000  0.47142000  0.68698000  1.0
  H  H162  1  0.46891000  0.96420000  0.68258000  1.0
  H  H163  1  0.19082000  0.95909000  0.59642000  1.0
  H  H164  1  0.52377000  0.58281000  0.79737000  1.0
  H  H165  1  0.86154000  0.97136000  0.81318000  1.0
  H  H166  1  0.52308000  0.82826000  0.30895000  1.0
  H  H167  1  0.03256000  0.72588000  0.42454000  1.0
  H  H168  1  0.17812000  0.07423000  0.50137000  1.0
  H  H169  1  0.92732000  0.93700000  0.13836000  1.0
  H  H170  1  0.17498000  0.38989000  0.47771000  1.0
  H  H171  1  0.99467000  0.32750000  0.40442000  1.0
  H  H172  1  0.88200000  0.40753000  0.04324000  1.0
  H  H173  1  0.84794000  0.83757000  0.91713000  1.0
  H  H174  1  0.38133000  0.09280000  0.54309000  1.0
  H  H175  1  0.14806000  0.76402000  0.58143000  1.0
  C  C176  1  0.47604000  0.08156000  0.14019000  1.0
  C  C177  1  0.75404000  0.23578000  0.93636000  1.0
  C  C178  1  0.40697000  0.18499000  0.58720000  1.0
  C  C179  1  0.90724000  0.31509000  0.08724000  1.0
  C  C180  1  0.15405000  0.11576000  0.47645000  1.0
  C  C181  1  0.69521000  0.44089000  0.36879000  1.0
  C  C182  1  0.22504000  0.62583000  0.61705000  1.0
  C  C183  1  0.88062000  0.30001000  0.74832000  1.0
  C  C184  1  0.38160000  0.75060000  0.46272000  1.0
  C  C185  1  0.88138000  0.74902000  0.96270000  1.0
  C  C186  1  0.05861000  0.66503000  0.71197000  1.0
  C  C187  1  0.06136000  0.64662000  0.94828000  1.0
  C  C188  1  0.09033000  0.21490000  0.07373000  1.0
  C  C189  1  0.98354000  0.24594000  0.09878000  1.0
  C  C190  1  0.94171000  0.32262000  0.22150000  1.0
  C  C191  1  0.95532000  0.10900000  0.61893000  1.0
  C  C192  1  0.77511000  0.37423000  0.38299000  1.0
  C  C193  1  0.62431000  0.30469000  0.99313000  1.0
  C  C194  1  0.16424000  0.97465000  0.43307000  1.0
  C  C195  1  0.84597000  0.88428000  0.52351000  1.0
  C  C196  1  0.84722000  0.83349000  0.65970000  1.0
  C  C197  1  0.22635000  0.49033000  0.63750000  1.0
  C  C198  1  0.39706000  0.42640000  0.22605000  1.0
  C  C199  1  0.56723000  0.01345000  0.12930000  1.0
  C  C200  1  0.95359000  0.17987000  0.64463000  1.0
  C  C201  1  0.21285000  0.00662000  0.74673000  1.0
  C  C202  1  0.32168000  0.83351000  0.61307000  1.0
  C  C203  1  0.84071000  0.60357000  0.74495000  1.0
  C  C204  1  0.60954000  0.73913000  0.68294000  1.0
  C  C205  1  0.94066000  0.33543000  0.28791000  1.0
  C  C206  1  0.78654000  0.99329000  0.25314000  1.0
  C  C207  1  0.30469000  0.94915000  0.21349000  1.0
  C  C208  1  0.25354000  0.26418000  0.43631000  1.0
  C  C209  1  0.17715000  0.70803000  0.21068000  1.0
  C  C210  1  0.51650000  0.74597000  0.40117000  1.0
  C  C211  1  0.00942000  0.44771000  0.38685000  1.0
  C  C212  1  0.66689000  0.51108000  0.71194000  1.0
  C  C213  1  0.83303000  0.01095000  0.78820000  1.0
  C  C214  1  0.00886000  0.53448000  0.11942000  1.0
  C  C215  1  0.10903000  0.76085000  0.18301000  1.0
  C  C216  1  0.27502000  0.12583000  0.88303000  1.0
  C  C217  1  0.30490000  0.55914000  0.63124000  1.0
  C  C218  1  0.93830000  0.35286000  0.05184000  1.0
  C  C219  1  0.44150000  0.17746000  0.72163000  1.0
  C  C220  1  0.77374000  0.50972000  0.36253000  1.0
  C  C221  1  0.37648000  0.69512000  0.00696000  1.0
  C  C222  1  0.45361000  0.32007000  0.14461000  1.0
  C  C223  1  0.54573000  0.67971000  0.85538000  1.0
  C  C224  1  0.65875000  0.10329000  0.75519000  1.0
  C  C225  1  0.80473000  0.94093000  0.13121000  1.0
  C  C226  1  0.55107000  0.29967000  0.02915000  1.0
  C  C227  1  0.41459000  0.56077000  0.87989000  1.0
  C  C228  1  0.09540000  0.90758000  0.77488000  1.0
  C  C229  1  0.11942000  0.70008000  0.25173000  1.0
  C  C230  1  0.67864000  0.16658000  0.38690000  1.0
  C  C231  1  0.06743000  0.48666000  0.62937000  1.0
  C  C232  1  0.11409000  0.36318000  0.92151000  1.0
  C  C233  1  0.40439000  0.40776000  0.72514000  1.0
  C  C234  1  0.55939000  0.83545000  0.21208000  1.0
  C  C235  1  0.90918000  0.00369000  0.40450000  1.0
  C  C236  1  0.15848000  0.76755000  0.14420000  1.0
  C  C237  1  0.59035000  0.28506000  0.57378000  1.0
  C  C238  1  0.06770000  0.62171000  0.60712000  1.0
  C  C239  1  0.29808000  0.66163000  0.19869000  1.0
  C  C240  1  0.15299000  0.16660000  0.34015000  1.0
  C  C241  1  0.93142000  0.65959000  0.47134000  1.0
  C  C242  1  0.85988000  0.66375000  0.50758000  1.0
  C  C243  1  0.59082000  0.50362000  0.09552000  1.0
  C  C244  1  0.43788000  0.14736000  0.55176000  1.0
  C  C245  1  0.85089000  0.67591000  0.03845000  1.0
  C  C246  1  0.64888000  0.17596000  0.46163000  1.0
  C  C247  1  0.34700000  0.66650000  0.15990000  1.0
  C  C248  1  0.52319000  0.22789000  0.04703000  1.0
  C  C249  1  0.88581000  0.63695000  0.07865000  1.0
  C  C250  1  0.99068000  0.55238000  0.61321000  1.0
  C  C251  1  0.23962000  0.88526000  0.27514000  1.0
  C  C252  1  0.39094000  0.26086000  0.31699000  1.0
  C  C253  1  0.28356000  0.26467000  0.88979000  1.0
  C  C254  1  0.40936000  0.49613000  0.90468000  1.0
  C  C255  1  0.94994000  0.79978000  0.47091000  1.0
  C  C256  1  0.33579000  0.47457000  0.06694000  1.0
  C  C257  1  0.40968000  0.71494000  0.42621000  1.0
  C  C258  1  0.95833000  0.67995000  0.97386000  1.0
  C  C259  1  0.44572000  0.93624000  0.65343000  1.0
  C  C260  1  0.58514000  0.43890000  0.12024000  1.0
  C  C261  1  0.97724000  0.72805000  0.45292000  1.0
  C  C262  1  0.79832000  0.83852000  0.69849000  1.0
  C  C263  1  0.34093000  0.89675000  0.24493000  1.0
  C  C264  1  0.55832000  0.82262000  0.27848000  1.0
  C  C265  1  0.54421000  0.60882000  0.88108000  1.0
  C  C266  1  0.61841000  0.24944000  0.53727000  1.0
  C  C267  1  0.14864000  0.37072000  0.84984000  1.0
  C  C268  1  0.38041000  0.20014000  0.24828000  1.0
  C  C269  1  0.34580000  0.61559000  0.02352000  1.0
  C  C270  1  0.32273000  0.20806000  0.28933000  1.0
  C  C271  1  0.02153000  0.42942000  0.91800000  1.0
  C  C272  1  0.44969000  0.70015000  0.97094000  1.0
  C  C273  1  0.59571000  0.59233000  0.27491000  1.0
  C  C274  1  0.84195000  0.23246000  0.85586000  1.0
  C  C275  1  0.71346000  0.49326000  0.24686000  1.0
  C  C276  1  0.15907000  0.39676000  0.25504000  1.0
  C  C277  1  0.11850000  0.25065000  0.03725000  1.0
  C  C278  1  0.64003000  0.16366000  0.99227000  1.0
  C  C279  1  0.64853000  0.12951000  0.34978000  1.0
  C  C280  1  0.45888000  0.81961000  0.47379000  1.0
  C  C281  1  0.65322000  0.33343000  0.84021000  1.0
  C  C282  1  0.43398000  0.47782000  0.25771000  1.0
  C  C283  1  0.21683000  0.76463000  0.61025000  1.0
  C  C284  1  0.19529000  0.44913000  0.28649000  1.0
  C  C285  1  0.45024000  0.29178000  0.63771000  1.0
  C  C286  1  0.33173000  0.40954000  0.09205000  1.0
  C  C287  1  0.45536000  0.39095000  0.11894000  1.0
  C  C288  1  0.04974000  0.79116000  0.86228000  1.0
  C  C289  1  0.43233000  0.12153000  0.89295000  1.0
  C  C290  1  0.35119000  0.82411000  0.53833000  1.0
  C  C291  1  0.13989000  0.33630000  0.49228000  1.0
  C  C292  1  0.83171000  0.09044000  0.59203000  1.0
  C  C293  1  0.59303000  0.81501000  0.41276000  1.0
  C  C294  1  0.83100000  0.73563000  0.52568000  1.0
  C  C295  1  0.17870000  0.33358000  0.88695000  1.0
  C  C296  1  0.56752000  0.87839000  0.10709000  1.0
  C  C297  1  0.73947000  0.61501000  0.77518000  1.0
  C  C298  1  0.99118000  0.46570000  0.88075000  1.0
  C  C299  1  0.87673000  0.80477000  0.50693000  1.0
  C  C300  1  0.24637000  0.76398000  0.06369000  1.0
  C  C301  1  0.52154000  0.07071000  0.41795000  1.0
  C  C302  1  0.68437000  0.05203000  0.24347000  1.0
  C  C303  1  0.96525000  0.97721000  0.56907000  1.0
  C  C304  1  0.48352000  0.25401000  0.59882000  1.0
  C  C305  1  0.77727000  0.78015000  0.63230000  1.0
  C  C306  1  0.65897000  0.73230000  0.64414000  1.0
  C  C307  1  0.10292000  0.92639000  0.27392000  1.0
  C  C308  1  0.02384000  0.58154000  0.35979000  1.0
  C  C309  1  0.66447000  0.52542000  0.93308000  1.0
  C  C310  1  0.18446000  0.44821000  0.74341000  1.0
  C  C311  1  0.33333333  0.48895000  0.28815000  1.0
  C  C312  1  0.97842000  0.57072000  0.08215000  1.0
  C  C313  1  0.31510000  0.94790000  0.75638000  1.0
  C  C314  1  0.01630000  0.75323000  0.90114000  1.0
  C  C315  1  0.34157000  0.26759000  0.35580000  1.0
  C  C316  1  0.81638000  0.29310000  0.27375000  1.0
  C  C317  1  0.16886000  0.26440000  0.47420000  1.0
  C  C318  1  0.06599000  0.97782000  0.24226000  1.0
  C  C319  1  0.56616000  0.52226000  0.74236000  1.0
  C  C320  1  0.05467000  0.43630000  0.84655000  1.0
  C  C321  1  0.20182000  0.16170000  0.30135000  1.0
  C  C322  1  0.56844000  0.15944000  0.02850000  1.0
  C  C323  1  0.26037000  0.38529000  0.22484000  1.0
  C  C324  1  0.06847000  0.34050000  0.52853000  1.0
  C  C325  1  0.83579000  0.02542000  0.56692000  1.0
  C  C326  1  0.61404000  0.13696000  0.42146000  1.0
  C  C327  1  0.53519000  0.47716000  0.93105000  1.0
  C  C328  1  0.89126000  0.23922000  0.81703000  1.0
  C  C329  1  0.44032000  0.16470000  0.78803000  1.0
  C  C330  1  0.50890000  0.96571000  0.61920000  1.0
  C  C331  1  0.49120000  0.03448000  0.38069000  1.0
  C  C332  1  0.91490000  0.93898000  0.37978000  1.0
  C  C333  1  0.43154000  0.84035000  0.97149000  1.0
  C  C334  1  0.85142000  0.62946000  0.15033000  1.0
  C  C335  1  0.94547000  0.56391000  0.15362000  1.0
  C  C336  1  0.02285000  0.27205000  0.54700000  1.0
  C  C337  1  0.71647000  0.73546000  0.11038000  1.0
  C  C338  1  0.55456000  0.06395000  0.34648000  1.0
  C  C339  1  0.49049000  0.94774000  0.11314000  1.0
  C  C340  1  0.35187000  0.87062000  0.65017000  1.0
  C  C341  1  0.50915000  0.05219000  0.88675000  1.0
  C  C342  1  0.65509000  0.38425000  0.97658000  1.0
  C  C343  1  0.18332000  0.70706000  0.72607000  1.0
  C  C344  1  0.67754000  0.79208000  0.71054000  1.0
  C  C345  1  0.93244000  0.37836000  0.39293000  1.0
  C  C346  1  0.93265000  0.51342000  0.37067000  1.0
  C  C347  1  0.75994000  0.11481000  0.72496000  1.0
  C  C348  1  0.27698000  0.71973000  0.13242000  1.0
  C  C349  1  0.43233000  0.98662000  0.87045000  1.0
  C  C350  1  0.16834000  0.90963000  0.40796000  1.0
  C  C351  1  0.28664000  0.50690000  0.75312000  1.0
  C  C352  1  0.72614000  0.00976000  0.13744000  1.0
  C  C353  1  0.09250000  0.68411000  0.91281000  1.0
  C  C354  1  0.19502000  0.05930000  0.86871000  1.0
  C  C355  1  0.81560000  0.55199000  0.25655000  1.0
  C  C356  1  0.47714000  0.77191000  0.95301000  1.0
  C  C357  1  0.69502000  0.05083000  0.78660000  1.0
  C  C358  1  0.52366000  0.91850000  0.85957000  1.0
  C  C359  1  0.14905000  0.32422000  0.96169000  1.0
  C  C360  1  0.82127000  0.66656000  0.11321000  1.0
  C  C361  1  0.68369000  0.79313000  0.22623000  1.0
  C  C362  1  0.74643000  0.73582000  0.56359000  1.0
  C  C363  1  0.54980000  0.70817000  0.36230000  1.0
  C  C364  1  0.04471000  0.89104000  0.38107000  1.0
  C  C365  1  0.93355000  0.02211000  0.75773000  1.0
  C  C366  1  0.60295000  0.57374000  0.77400000  1.0
  C  C367  1  0.95016000  0.20807000  0.13763000  1.0
  C  C368  1  0.70200000  0.33836000  0.80141000  1.0
  C  C369  1  0.89655000  0.07362000  0.72610000  1.0
  C  C370  1  0.47848000  0.92943000  0.58195000  1.0
  C  C371  1  0.80476000  0.55103000  0.71358000  1.0
  C  C372  1  0.72486000  0.87426000  0.11703000  1.0
  C  C373  1  0.12329000  0.19529000  0.49301000  1.0
  C  C374  1  0.97623000  0.41853000  0.64025000  1.0
  C  C375  1  0.05838000  0.67754000  0.77839000  1.0
  C  C376  1  0.90957000  0.78446000  0.92615000  1.0
  C  C377  1  0.09079000  0.99632000  0.59550000  1.0
  C  C378  1  0.56210000  0.85269000  0.44819000  1.0
  C  C379  1  0.54112000  0.18045000  0.52616000  1.0
  C  C380  1  0.05018000  0.20031000  0.52904000  1.0
  C  C381  1  0.31611000  0.20707000  0.77386000  1.0
  C  C382  1  0.03474000  0.02283000  0.43092000  1.0
  C  C383  1  0.66807000  0.59040000  0.90793000  1.0
  C  C384  1  0.90419000  0.09234000  0.22505000  1.0
  C  C385  1  0.16663000  0.98896000  0.21181000  1.0
  C  C386  1  0.38611000  0.86313000  0.57848000  1.0
  C  C387  1  0.22306000  0.21982000  0.36760000  1.0
  C  C388  1  0.04642000  0.82015000  0.35540000  1.0
  C  C389  1  0.66948000  0.23556000  0.97427000  1.0
  C  C390  1  0.08509000  0.06102000  0.62022000  1.0
  C  C391  1  0.36007000  0.83613000  0.00774000  1.0
  C  C392  1  0.46526000  0.52273000  0.06909000  1.0
  C  C393  1  0.61962000  0.79997000  0.75158000  1.0
  C  C394  1  0.72339000  0.28021000  0.86766000  1.0
  C  C395  1  0.33099000  0.76422000  0.02579000  1.0
  C  C396  1  0.82296000  0.29202000  0.78938000  1.0
  C  C397  1  0.78349000  0.23544000  0.38975000  1.0
  C  C398  1  0.27341000  0.99048000  0.86230000  1.0
  C  C399  1  0.04139000  0.31975000  0.02621000  1.0
  N  N400  1  0.97918000  0.64641000  0.74541000  1.0
  N  N401  1  0.81794000  0.28563000  0.23236000  1.0
  N  N402  1  0.52011000  0.14606000  0.75465000  1.0
  N  N403  1  0.42612000  0.48076000  0.74097000  1.0
  N  N404  1  0.07355000  0.98057000  0.75904000  1.0
  N  N405  1  0.25930000  0.38702000  0.72606000  1.0
  N  N406  1  0.02040000  0.35402000  0.25451000  1.0
  N  N407  1  0.57402000  0.51932000  0.25908000  1.0
  N  N408  1  0.31776000  0.21450000  0.73246000  1.0
  N  N409  1  0.68212000  0.78565000  0.26763000  1.0
  N  N410  1  0.74075000  0.61313000  0.27394000  1.0
  N  N411  1  0.47962000  0.85402000  0.24548000  1.0
  N  N412  1  0.92594000  0.01933000  0.24089000  1.0
  N  N413  1  0.75916000  0.11315000  0.22605000  1.0
  N  N414  1  0.18221000  0.71440000  0.76749000  1.0
  N  N415  1  0.24042000  0.88678000  0.77382000  1.0
  O  O416  1  0.66735000  0.27838000  0.90525000  1.0
  O  O417  1  0.80632000  0.80681000  0.11445000  1.0
  O  O418  1  0.46843000  0.86086000  0.83935000  1.0
  O  O419  1  0.96826000  0.63927000  0.33971000  1.0
  O  O420  1  0.83064000  0.22127000  0.64116000  1.0
  O  O421  1  0.30655000  0.69325000  0.61443000  1.0
  O  O422  1  0.66866000  0.72111000  0.85884000  1.0
  O  O423  1  0.03181000  0.36076000  0.66030000  1.0
  O  O424  1  0.33064000  0.27871000  0.14114000  1.0
  O  O425  1  0.55647000  0.33068000  0.65725000  1.0
  O  O426  1  0.43008000  0.69314000  0.83186000  1.0
  O  O427  1  0.94325000  0.82979000  0.84267000  1.0
  O  O428  1  0.55764000  0.14099000  0.49088000  1.0
  O  O429  1  0.01978000  0.08925000  0.45290000  1.0
  O  O430  1  0.16884000  0.58148000  0.36908000  1.0
  O  O431  1  0.44357000  0.66927000  0.34277000  1.0
  O  O432  1  0.52063000  0.41078000  0.95310000  1.0
  O  O433  1  0.98020000  0.91079000  0.54708000  1.0
  O  O434  1  0.78452000  0.32739000  0.72095000  1.0
  O  O435  1  0.48009000  0.58915000  0.04709000  1.0
  O  O436  1  0.51620000  0.22067000  0.24322000  1.0
  O  O437  1  0.66856000  0.91843000  0.86902000  1.0
  O  O438  1  0.16939000  0.77876000  0.35886000  1.0
  O  O439  1  0.33105000  0.08150000  0.13090000  1.0
  O  O440  1  0.28434000  0.17274000  0.22091000  1.0
  O  O441  1  0.81802000  0.21684000  0.14984000  1.0
  O  O442  1  0.16694000  0.22161000  0.40518000  1.0
  O  O443  1  0.33311000  0.72148000  0.09484000  1.0
  O  O444  1  0.06926000  0.19327000  0.66814000  1.0
  O  O445  1  0.93072000  0.80673000  0.33191000  1.0
  O  O446  1  0.19370000  0.19330000  0.88578000  1.0
  O  O447  1  0.48368000  0.77953000  0.75656000  1.0
  O  O448  1  0.56929000  0.30664000  0.16812000  1.0
  O  O449  1  0.31810000  0.28299000  0.64992000  1.0
  O  O450  1  0.83329000  0.77830000  0.59471000  1.0
  O  O451  1  0.71565000  0.82710000  0.77902000  1.0
  O  O452  1  0.98363000  0.72069000  0.25677000  1.0
  O  O453  1  0.53161000  0.13925000  0.16029000  1.0
  O  O454  1  0.68195000  0.71693000  0.35009000  1.0
  O  O455  1  0.01646000  0.27952000  0.74328000  1.0
  O  O456  1  0.83121000  0.41860000  0.63099000  1.0
  O  O457  1  0.05639000  0.16911000  0.15715000  1.0
  O  O458  1  0.44231000  0.85910000  0.50906000  1.0
  O  O459  1  0.94164000  0.64064000  0.00919000  1.0
  O  O460  1  0.18216000  0.78287000  0.85018000  1.0
  O  O461  1  0.69367000  0.30680000  0.38561000  1.0
  O  O462  1  0.21540000  0.67260000  0.27909000  1.0
  O  O463  1  0.05795000  0.35926000  0.99094000  1.0
