# generated using pymatgen
data_CaH10C13S2N4(OF)6
_symmetry_space_group_name_H-M   'P 1'
_cell_length_a   8.84675000
_cell_length_b   10.21110000
_cell_length_c   11.12330000
_cell_angle_alpha   91.67330000
_cell_angle_beta   98.14300000
_cell_angle_gamma   100.60700000
_symmetry_Int_Tables_number   1
_chemical_formula_structural   CaH10C13S2N4(OF)6
_chemical_formula_sum   'Ca2 H20 C26 S4 N8 O12 F12'
_cell_volume   976.11761015
_cell_formula_units_Z   2
loop_
 _symmetry_equiv_pos_site_id
 _symmetry_equiv_pos_as_xyz
  1  'x, y, z'
loop_
 _atom_site_type_symbol
 _atom_site_label
 _atom_site_symmetry_multiplicity
 _atom_site_fract_x
 _atom_site_fract_y
 _atom_site_fract_z
 _atom_site_occupancy
  Ca  Ca0  1  0.20279000  0.32826000  0.46649000  1.0
  Ca  Ca1  1  0.79721000  0.67174000  0.53351000  1.0
  H  H2  1  0.20834000  0.38432000  0.16190000  1.0
  H  H3  1  0.79166000  0.61568000  0.83810000  1.0
  H  H4  1  0.29733000  0.30395000  0.97476000  1.0
  H  H5  1  0.70267000  0.69605000  0.02524000  1.0
  H  H6  1  0.41691000  0.09780000  0.98430000  1.0
  H  H7  1  0.58309000  0.90220000  0.01570000  1.0
  H  H8  1  0.43688000  0.98067000  0.17925000  1.0
  H  H9  1  0.56312000  0.01933000  0.82075000  1.0
  H  H10  1  0.28266000  0.92515000  0.56616000  1.0
  H  H11  1  0.71735000  0.07485000  0.43384000  1.0
  H  H12  1  0.17598000  0.89446000  0.75687000  1.0
  H  H13  1  0.82402000  0.10554000  0.24313000  1.0
  H  H14  1  0.01625000  0.96466000  0.90697000  1.0
  H  H15  1  0.98374000  0.03534000  0.09303000  1.0
  H  H16  1  0.91303000  0.17825000  0.87563000  1.0
  H  H17  1  0.08697000  0.82175000  0.12436000  1.0
  H  H18  1  0.97569000  0.30885000  0.69693000  1.0
  H  H19  1  0.02431000  0.69115000  0.30307000  1.0
  H  H20  1  0.36005000  0.96059000  0.37699000  1.0
  H  H21  1  0.63995000  0.03941000  0.62301000  1.0
  C  C22  1  0.25892000  0.29481000  0.16148000  1.0
  C  C23  1  0.74108000  0.70519000  0.83852000  1.0
  C  C24  1  0.30871000  0.25005000  0.05744000  1.0
  C  C25  1  0.69129000  0.74995000  0.94256000  1.0
  C  C26  1  0.37492000  0.13545000  0.06344000  1.0
  C  C27  1  0.62509000  0.86455000  0.93656000  1.0
  C  C28  1  0.38612000  0.06993000  0.17068000  1.0
  C  C29  1  0.61388000  0.93007000  0.82932000  1.0
  C  C30  1  0.32943000  0.12163000  0.27025000  1.0
  C  C31  1  0.67057000  0.87837000  0.72975000  1.0
  C  C32  1  0.24080000  0.01951000  0.55653000  1.0
  C  C33  1  0.75920000  0.98049000  0.44347000  1.0
  C  C34  1  0.15581000  0.06312000  0.64803000  1.0
  C  C35  1  0.84419000  0.93688000  0.35197000  1.0
  C  C36  1  0.12912000  0.98542000  0.74745000  1.0
  C  C37  1  0.87088000  0.01459000  0.25255000  1.0
  C  C38  1  0.04111000  0.02575000  0.83078000  1.0
  C  C39  1  0.95889000  0.97425000  0.16922000  1.0
  C  C40  1  0.98335000  0.14302000  0.81346000  1.0
  C  C41  1  0.01665000  0.85699000  0.18654000  1.0
  C  C42  1  0.01764000  0.21627000  0.71328000  1.0
  C  C43  1  0.98236000  0.78373000  0.28672000  1.0
  C  C44  1  0.57013000  0.33571000  0.78481000  1.0
  C  C45  1  0.42986000  0.66429000  0.21518000  1.0
  C  C46  1  0.84205000  0.40574000  0.16174000  1.0
  C  C47  1  0.15795000  0.59426000  0.83826000  1.0
  S  S48  1  0.60930000  0.34460000  0.62493000  1.0
  S  S49  1  0.39070000  0.65540000  0.37507000  1.0
  S  S50  1  0.81734000  0.38102000  0.32453000  1.0
  S  S51  1  0.18266000  0.61898000  0.67548000  1.0
  N  N52  1  0.26868000  0.23329000  0.26706000  1.0
  N  N53  1  0.73132000  0.76671000  0.73294000  1.0
  N  N54  1  0.33214000  0.05419000  0.37617000  1.0
  N  N55  1  0.66786000  0.94581000  0.62383000  1.0
  N  N56  1  0.25891000  0.09281000  0.46431000  1.0
  N  N57  1  0.74109000  0.90719000  0.53569000  1.0
  N  N58  1  0.10203000  0.17882000  0.63214000  1.0
  N  N59  1  0.89797000  0.82118000  0.36786000  1.0
  O  O60  1  0.46098000  0.36023000  0.55736000  1.0
  O  O61  1  0.53902000  0.63978000  0.44264000  1.0
  O  O62  1  0.65633000  0.21831000  0.60218000  1.0
  O  O63  1  0.34367000  0.78169000  0.39782000  1.0
  O  O64  1  0.95295000  0.32286000  0.37005000  1.0
  O  O65  1  0.04705000  0.67714000  0.62995000  1.0
  O  O66  1  0.66974000  0.29088000  0.31783000  1.0
  O  O67  1  0.33026000  0.70912000  0.68217000  1.0
  O  O68  1  0.82616000  0.51657000  0.37442000  1.0
  O  O69  1  0.17384000  0.48343000  0.62558000  1.0
  O  O70  1  0.73295000  0.46195000  0.62947000  1.0
  O  O71  1  0.26705000  0.53805000  0.37053000  1.0
  F  F72  1  0.46188000  0.22415000  0.79528000  1.0
  F  F73  1  0.53812000  0.77585000  0.20471000  1.0
  F  F74  1  0.51567000  0.44250000  0.82152000  1.0
  F  F75  1  0.48433000  0.55750000  0.17848000  1.0
  F  F76  1  0.70203000  0.32721000  0.86070000  1.0
  F  F77  1  0.29797000  0.67279000  0.13930000  1.0
  F  F78  1  0.72368000  0.45688000  0.10274000  1.0
  F  F79  1  0.27632000  0.54312000  0.89726000  1.0
  F  F80  1  0.84399000  0.28651000  0.10414000  1.0
  F  F81  1  0.15601000  0.71349000  0.89586000  1.0
  F  F82  1  0.97742000  0.48958000  0.15154000  1.0
  F  F83  1  0.02258000  0.51041000  0.84846000  1.0
