# generated using pymatgen
data_CsHC8(N2O)2
_symmetry_space_group_name_H-M   'P 1'
_cell_length_a   5.86950000
_cell_length_b   9.27750000
_cell_length_c   9.75158000
_cell_angle_alpha   112.73300000
_cell_angle_beta   90.91960000
_cell_angle_gamma   100.24200000
_symmetry_Int_Tables_number   1
_chemical_formula_structural   CsHC8(N2O)2
_chemical_formula_sum   'Cs2 H2 C16 N8 O4'
_cell_volume   479.85339256
_cell_formula_units_Z   2
loop_
 _symmetry_equiv_pos_site_id
 _symmetry_equiv_pos_as_xyz
  1  'x, y, z'
loop_
 _atom_site_type_symbol
 _atom_site_label
 _atom_site_symmetry_multiplicity
 _atom_site_fract_x
 _atom_site_fract_y
 _atom_site_fract_z
 _atom_site_occupancy
  Cs  Cs0  1  0.11375000  0.27964000  0.01097000  1.0
  Cs  Cs1  1  0.88626000  0.72036000  0.98903000  1.0
  H  H2  1  0.03803000  0.88693000  0.38914000  1.0
  H  H3  1  0.96197000  0.11307000  0.61086000  1.0
  C  C4  1  0.25348000  0.93121000  0.58771000  1.0
  C  C5  1  0.74652000  0.06879000  0.41229000  1.0
  C  C6  1  0.44301000  0.85841000  0.61067000  1.0
  C  C7  1  0.55698000  0.14159000  0.38933000  1.0
  C  C8  1  0.47444000  0.74118000  0.47294000  1.0
  C  C9  1  0.52556000  0.25882000  0.52705000  1.0
  C  C10  1  0.29295000  0.73992000  0.35977000  1.0
  C  C11  1  0.70705000  0.26008000  0.64023000  1.0
  C  C12  1  0.63470000  0.64053000  0.43320000  1.0
  C  C13  1  0.36530000  0.35947000  0.56680000  1.0
  C  C14  1  0.65202000  0.53842000  0.28379000  1.0
  C  C15  1  0.34798000  0.46158000  0.71621000  1.0
  C  C16  1  0.79163000  0.63922000  0.54402000  1.0
  C  C17  1  0.20837000  0.36078000  0.45598000  1.0
  C  C18  1  0.57588000  0.91386000  0.74822000  1.0
  C  C19  1  0.42413000  0.08614000  0.25178000  1.0
  N  N20  1  0.16873000  0.85381000  0.43728000  1.0
  N  N21  1  0.83127000  0.14619000  0.56272000  1.0
  N  N22  1  0.91709000  0.64080000  0.63939000  1.0
  N  N23  1  0.08291000  0.35920000  0.36061000  1.0
  N  N24  1  0.67751000  0.45405000  0.16201000  1.0
  N  N25  1  0.32249000  0.54595000  0.83799000  1.0
  N  N26  1  0.68972000  0.96464000  0.86279000  1.0
  N  N27  1  0.31029000  0.03536000  0.13721000  1.0
  O  O28  1  0.17782000  0.04436000  0.67898000  1.0
  O  O29  1  0.82218000  0.95564000  0.32102000  1.0
  O  O30  1  0.26083000  0.65601000  0.22551000  1.0
  O  O31  1  0.73917000  0.34399000  0.77449000  1.0
