# generated using pymatgen
data_AlH5C10SNO5F
_symmetry_space_group_name_H-M   'P 1'
_cell_length_a   6.61482000
_cell_length_b   10.98961658
_cell_length_c   12.15560000
_cell_angle_alpha   101.18881512
_cell_angle_beta   98.85810000
_cell_angle_gamma   105.37475805
_symmetry_Int_Tables_number   1
_chemical_formula_structural   AlH5C10SNO5F
_chemical_formula_sum   'Al2 H10 C20 S2 N2 O10 F2'
_cell_volume   815.87414651
_cell_formula_units_Z   2
loop_
 _symmetry_equiv_pos_site_id
 _symmetry_equiv_pos_as_xyz
  1  'x, y, z'
loop_
 _atom_site_type_symbol
 _atom_site_label
 _atom_site_symmetry_multiplicity
 _atom_site_fract_x
 _atom_site_fract_y
 _atom_site_fract_z
 _atom_site_occupancy
  Al  Al0  1  0.00514000  0.50477000  0.50517000  1.0
  Al  Al1  1  0.50562000  0.50625000  0.50502000  1.0
  H  H2  1  0.34959000  0.67405000  0.56825000  1.0
  H  H3  1  0.65691000  0.33782000  0.44986000  1.0
  H  H4  1  0.52440000  0.74499000  0.35501000  1.0
  H  H5  1  0.30014000  0.84378000  0.24282000  1.0
  H  H6  1  0.79837000  0.21205000  0.35262000  1.0
  H  H7  1  0.43906000  0.07848000  0.24034000  1.0
  H  H8  1  0.42174000  0.58479000  0.88094000  1.0
  H  H9  1  0.26032000  0.58845000  0.75500000  1.0
  H  H10  1  0.58396000  0.42272000  0.12890000  1.0
  H  H11  1  0.74627000  0.42058000  0.25498000  1.0
  C  C12  1  0.86105000  0.72641000  0.48973000  1.0
  C  C13  1  0.82100000  0.53203000  0.70701000  1.0
  C  C14  1  0.14701000  0.28094000  0.50915000  1.0
  C  C15  1  0.18659000  0.47691000  0.30181000  1.0
  C  C16  1  0.10110000  0.54707000  0.88048000  1.0
  C  C17  1  0.90388000  0.45962000  0.12823000  1.0
  C  C18  1  0.88655000  0.52091000  0.82197000  1.0
  C  C19  1  0.11881000  0.48636000  0.18665000  1.0
  C  C20  1  0.90036000  0.48184000  0.01589000  1.0
  C  C21  1  0.10366000  0.52434000  0.99251000  1.0
  C  C22  1  0.92743000  0.86679000  0.48733000  1.0
  C  C23  1  0.78956000  0.92331000  0.42536000  1.0
  C  C24  1  0.13084000  0.94385000  0.54634000  1.0
  C  C25  1  0.58310000  0.84805000  0.35763000  1.0
  C  C26  1  0.45787000  0.90364000  0.29441000  1.0
  C  C27  1  0.07303000  0.13692000  0.49563000  1.0
  C  C28  1  0.20259000  0.07809000  0.55156000  1.0
  C  C29  1  0.86565000  0.05921000  0.42754000  1.0
  C  C30  1  0.73556000  0.11174000  0.35795000  1.0
  C  C31  1  0.53548000  0.03601000  0.29348000  1.0
  S  S32  1  0.69714000  0.46606000  0.90166000  1.0
  S  S33  1  0.30753000  0.54030000  0.10629000  1.0
  N  N34  1  0.27933000  0.58970000  0.84001000  1.0
  N  N35  1  0.72626000  0.41731000  0.16953000  1.0
  O  O36  1  0.99108000  0.66353000  0.46596000  1.0
  O  O37  1  0.62179000  0.50896000  0.66217000  1.0
  O  O38  1  0.32904000  0.33048000  0.48818000  1.0
  O  O39  1  0.03461000  0.43961000  0.35459000  1.0
  O  O40  1  0.01917000  0.34301000  0.53912000  1.0
  O  O41  1  0.38706000  0.50360000  0.34669000  1.0
  O  O42  1  0.68304000  0.68059000  0.51674000  1.0
  O  O43  1  0.97464000  0.56762000  0.65479000  1.0
  O  O44  1  0.30349000  0.58004000  0.55731000  1.0
  O  O45  1  0.70595000  0.43015000  0.45208000  1.0
  F  F46  1  0.39876000  0.14737000  0.61761000  1.0
  F  F47  1  0.26729000  0.89574000  0.60701000  1.0
