# generated using pymatgen
data_MnH7C7N2ClO4
_symmetry_space_group_name_H-M   'P 1'
_cell_length_a   7.72578000
_cell_length_b   8.18253000
_cell_length_c   16.35090000
_cell_angle_alpha   89.99970000
_cell_angle_beta   89.99970000
_cell_angle_gamma   65.00600000
_symmetry_Int_Tables_number   1
_chemical_formula_structural   MnH7C7N2ClO4
_chemical_formula_sum   'Mn4 H28 C28 N8 Cl4 O16'
_cell_volume   936.84667892
_cell_formula_units_Z   4
loop_
 _symmetry_equiv_pos_site_id
 _symmetry_equiv_pos_as_xyz
  1  'x, y, z'
loop_
 _atom_site_type_symbol
 _atom_site_label
 _atom_site_symmetry_multiplicity
 _atom_site_fract_x
 _atom_site_fract_y
 _atom_site_fract_z
 _atom_site_occupancy
  Mn  Mn0  1  0.75105000  0.52318000  0.25268000  1.0
  Mn  Mn1  1  0.24904000  0.96833000  0.75662000  1.0
  Mn  Mn2  1  0.24904000  0.46834000  0.74338000  1.0
  Mn  Mn3  1  0.75104000  0.02318000  0.24732000  1.0
  H  H4  1  0.16403000  0.46163000  0.35763000  1.0
  H  H5  1  0.83568000  0.03872000  0.85784000  1.0
  H  H6  1  0.83568000  0.53872000  0.64217000  1.0
  H  H7  1  0.16403000  0.96163000  0.14237000  1.0
  H  H8  1  0.31009000  0.36798000  0.44447000  1.0
  H  H9  1  0.68900000  0.13248000  0.94448000  1.0
  H  H10  1  0.68901000  0.63248000  0.55553000  1.0
  H  H11  1  0.31009000  0.86798000  0.05553000  1.0
  H  H12  1  0.25237000  0.76833000  0.30627000  1.0
  H  H13  1  0.74808000  0.73174000  0.80616000  1.0
  H  H14  1  0.74808000  0.23174000  0.69384000  1.0
  H  H15  1  0.25235000  0.26833000  0.19373000  1.0
  H  H16  1  0.26839000  0.58788000  0.55091000  1.0
  H  H17  1  0.73084000  0.91220000  0.05093000  1.0
  H  H18  1  0.73085000  0.41220000  0.44907000  1.0
  H  H19  1  0.26840000  0.08788000  0.94909000  1.0
  H  H20  1  0.23059000  0.94449000  0.55216000  1.0
  H  H21  1  0.76968000  0.55550000  0.05202000  1.0
  H  H22  1  0.76969000  0.05550000  0.44798000  1.0
  H  H23  1  0.23060000  0.44449000  0.94784000  1.0
  H  H24  1  0.33667000  0.07497000  0.35985000  1.0
  H  H25  1  0.66375000  0.42469000  0.86008000  1.0
  H  H26  1  0.66376000  0.92468000  0.63992000  1.0
  H  H27  1  0.33667000  0.57498000  0.14014000  1.0
  H  H28  1  0.18968000  0.16644000  0.44689000  1.0
  H  H29  1  0.81188000  0.33329000  0.94681000  1.0
  H  H30  1  0.81189000  0.83329000  0.55319000  1.0
  H  H31  1  0.18968000  0.66645000  0.05310000  1.0
  C  C32  1  0.46877000  0.36860000  0.33620000  1.0
  C  C33  1  0.53117000  0.13205000  0.83588000  1.0
  C  C34  1  0.53117000  0.63206000  0.66412000  1.0
  C  C35  1  0.46877000  0.86859000  0.16380000  1.0
  C  C36  1  0.29103000  0.45434000  0.39079000  1.0
  C  C37  1  0.70838000  0.04611000  0.89077000  1.0
  C  C38  1  0.70838000  0.54611000  0.60923000  1.0
  C  C39  1  0.29103000  0.95435000  0.10922000  1.0
  C  C40  1  0.25125000  0.76786000  0.37250000  1.0
  C  C41  1  0.74879000  0.73232000  0.87240000  1.0
  C  C42  1  0.74878000  0.23232000  0.62760000  1.0
  C  C43  1  0.25124000  0.26786000  0.12750000  1.0
  C  C44  1  0.25755000  0.68018000  0.50157000  1.0
  C  C45  1  0.74193000  0.82010000  0.00149000  1.0
  C  C46  1  0.74194000  0.32009000  0.49851000  1.0
  C  C47  1  0.25755000  0.18018000  0.99843000  1.0
  C  C48  1  0.24173000  0.85327000  0.50222000  1.0
  C  C49  1  0.75844000  0.64677000  0.00210000  1.0
  C  C50  1  0.75844000  0.14679000  0.49791000  1.0
  C  C51  1  0.24174000  0.35326000  0.99778000  1.0
  C  C52  1  0.20960000  0.08132000  0.39267000  1.0
  C  C53  1  0.79111000  0.41858000  0.89260000  1.0
  C  C54  1  0.79112000  0.91859000  0.60740000  1.0
  C  C55  1  0.20960000  0.58133000  0.10732000  1.0
  C  C56  1  0.03268000  0.16704000  0.33744000  1.0
  C  C57  1  0.96738000  0.33313000  0.83700000  1.0
  C  C58  1  0.96738000  0.83314000  0.66300000  1.0
  C  C59  1  0.03268000  0.66703000  0.16256000  1.0
  N  N60  1  0.26261000  0.63083000  0.42036000  1.0
  N  N61  1  0.73663000  0.86959000  0.92027000  1.0
  N  N62  1  0.73663000  0.36959000  0.57973000  1.0
  N  N63  1  0.26261000  0.13083000  0.07964000  1.0
  N  N64  1  0.23881000  0.90391000  0.42130000  1.0
  N  N65  1  0.76178000  0.59605000  0.92118000  1.0
  N  N66  1  0.76178000  0.09605000  0.57882000  1.0
  N  N67  1  0.23881000  0.40392000  0.07870000  1.0
  Cl  Cl68  1  0.75158000  0.26917000  0.14442000  1.0
  Cl  Cl69  1  0.24822000  0.23471000  0.64128000  1.0
  Cl  Cl70  1  0.24822000  0.73471000  0.85872000  1.0
  Cl  Cl71  1  0.75158000  0.76917000  0.35558000  1.0
  O  O72  1  0.57056000  0.45390000  0.32754000  1.0
  O  O73  1  0.42989000  0.04658000  0.82646000  1.0
  O  O74  1  0.42988000  0.54658000  0.67354000  1.0
  O  O75  1  0.57057000  0.95390000  0.17245000  1.0
  O  O76  1  0.49614000  0.21700000  0.30579000  1.0
  O  O77  1  0.50356000  0.28405000  0.80584000  1.0
  O  O78  1  0.50356000  0.78405000  0.69415000  1.0
  O  O79  1  0.49613000  0.71701000  0.19421000  1.0
  O  O80  1  0.00309000  0.32081000  0.30905000  1.0
  O  O81  1  0.99671000  0.17947000  0.80859000  1.0
  O  O82  1  0.99670000  0.67947000  0.69141000  1.0
  O  O83  1  0.00308000  0.82082000  0.19095000  1.0
  O  O84  1  0.93465000  0.07897000  0.32602000  1.0
  O  O85  1  0.06513000  0.42141000  0.82528000  1.0
  O  O86  1  0.06512000  0.92141000  0.67472000  1.0
  O  O87  1  0.93465000  0.57898000  0.17398000  1.0
