# generated using pymatgen
data_CuH13C15Br2N7O
_symmetry_space_group_name_H-M   'P 1'
_cell_length_a   7.75196000
_cell_length_b   14.77550000
_cell_length_c   16.36930000
_cell_angle_alpha   81.13080000
_cell_angle_beta   89.99990000
_cell_angle_gamma   89.99960000
_symmetry_Int_Tables_number   1
_chemical_formula_structural   CuH13C15Br2N7O
_chemical_formula_sum   'Cu4 H52 C60 Br8 N28 O4'
_cell_volume   1852.50596230
_cell_formula_units_Z   4
loop_
 _symmetry_equiv_pos_site_id
 _symmetry_equiv_pos_as_xyz
  1  'x, y, z'
loop_
 _atom_site_type_symbol
 _atom_site_label
 _atom_site_symmetry_multiplicity
 _atom_site_fract_x
 _atom_site_fract_y
 _atom_site_fract_z
 _atom_site_occupancy
  Cu  Cu0  1  0.98448000  0.27535000  0.20696000  1.0
  Cu  Cu1  1  0.48447000  0.22465000  0.79304000  1.0
  Cu  Cu2  1  0.01552000  0.72465000  0.79305000  1.0
  Cu  Cu3  1  0.51552000  0.77535000  0.20696000  1.0
  H  H4  1  0.78787000  0.28453000  0.05737000  1.0
  H  H5  1  0.28787000  0.21546000  0.94264000  1.0
  H  H6  1  0.21212000  0.71547000  0.94264000  1.0
  H  H7  1  0.71214000  0.78453000  0.05737000  1.0
  H  H8  1  0.65632000  0.40006000  0.95047000  1.0
  H  H9  1  0.15633000  0.09993000  0.04953000  1.0
  H  H10  1  0.34368000  0.59994000  0.04954000  1.0
  H  H11  1  0.84369000  0.90006000  0.95048000  1.0
  H  H12  1  0.69433000  0.56954000  0.96175000  1.0
  H  H13  1  0.19434000  0.93045000  0.03825000  1.0
  H  H14  1  0.30567000  0.43046000  0.03825000  1.0
  H  H15  1  0.80567000  0.06954000  0.96175000  1.0
  H  H16  1  0.86511000  0.60966000  0.08074000  1.0
  H  H17  1  0.36511000  0.89034000  0.91925000  1.0
  H  H18  1  0.13489000  0.39035000  0.91926000  1.0
  H  H19  1  0.63489000  0.10965000  0.08074000  1.0
  H  H20  1  0.15082000  0.46496000  0.19947000  1.0
  H  H21  1  0.65081000  0.03504000  0.80053000  1.0
  H  H22  1  0.84918000  0.53505000  0.80053000  1.0
  H  H23  1  0.34918000  0.96496000  0.19947000  1.0
  H  H24  1  0.02320000  0.56605000  0.20148000  1.0
  H  H25  1  0.52320000  0.93395000  0.79851000  1.0
  H  H26  1  0.97681000  0.43396000  0.79851000  1.0
  H  H27  1  0.47680000  0.06605000  0.20149000  1.0
  H  H28  1  0.82807000  0.56163000  0.32930000  1.0
  H  H29  1  0.32807000  0.93837000  0.67069000  1.0
  H  H30  1  0.17193000  0.43838000  0.67069000  1.0
  H  H31  1  0.67192000  0.06162000  0.32931000  1.0
  H  H32  1  0.61992000  0.47305000  0.46724000  1.0
  H  H33  1  0.11993000  0.02694000  0.53275000  1.0
  H  H34  1  0.38007000  0.52695000  0.53275000  1.0
  H  H35  1  0.88007000  0.97305000  0.46725000  1.0
  H  H36  1  0.62841000  0.34945000  0.48413000  1.0
  H  H37  1  0.12841000  0.15054000  0.51586000  1.0
  H  H38  1  0.37159000  0.65055000  0.51586000  1.0
  H  H39  1  0.87159000  0.84945000  0.48414000  1.0
  H  H40  1  0.43185000  0.42685000  0.83878000  1.0
  H  H41  1  0.93185000  0.07315000  0.16122000  1.0
  H  H42  1  0.56816000  0.57315000  0.16122000  1.0
  H  H43  1  0.06814000  0.92685000  0.83878000  1.0
  H  H44  1  0.45658000  0.59963000  0.82006000  1.0
  H  H45  1  0.95657000  0.90037000  0.17994000  1.0
  H  H46  1  0.54343000  0.40037000  0.17994000  1.0
  H  H47  1  0.04342000  0.09963000  0.82006000  1.0
  H  H48  1  0.60094000  0.68469000  0.70015000  1.0
  H  H49  1  0.10093000  0.81530000  0.29986000  1.0
  H  H50  1  0.39906000  0.31531000  0.29986000  1.0
  H  H51  1  0.89905000  0.18469000  0.70014000  1.0
  H  H52  1  0.74141000  0.60536000  0.59283000  1.0
  H  H53  1  0.24142000  0.89464000  0.40717000  1.0
  H  H54  1  0.25858000  0.39465000  0.40717000  1.0
  H  H55  1  0.75858000  0.10535000  0.59282000  1.0
  C  C56  1  0.80131000  0.35721000  0.06043000  1.0
  C  C57  1  0.30131000  0.14279000  0.93957000  1.0
  C  C58  1  0.19869000  0.64280000  0.93957000  1.0
  C  C59  1  0.69870000  0.85721000  0.06044000  1.0
  C  C60  1  0.72674000  0.42304000  0.00110000  1.0
  C  C61  1  0.22674000  0.07696000  0.99890000  1.0
  C  C62  1  0.27326000  0.57696000  0.99891000  1.0
  C  C63  1  0.77327000  0.92303000  0.00110000  1.0
  C  C64  1  0.74799000  0.51529000  0.00751000  1.0
  C  C65  1  0.24800000  0.98471000  0.99249000  1.0
  C  C66  1  0.25201000  0.48471000  0.99249000  1.0
  C  C67  1  0.75202000  0.01528000  0.00751000  1.0
  C  C68  1  0.84430000  0.53841000  0.07320000  1.0
  C  C69  1  0.34430000  0.96158000  0.92680000  1.0
  C  C70  1  0.15570000  0.46159000  0.92680000  1.0
  C  C71  1  0.65571000  0.03841000  0.07320000  1.0
  C  C72  1  0.91384000  0.46890000  0.13115000  1.0
  C  C73  1  0.41384000  0.03110000  0.86884000  1.0
  C  C74  1  0.08616000  0.53111000  0.86885000  1.0
  C  C75  1  0.58616000  0.96890000  0.13115000  1.0
  C  C76  1  0.01899000  0.49165000  0.20273000  1.0
  C  C77  1  0.51898000  0.00835000  0.79727000  1.0
  C  C78  1  0.98102000  0.50835000  0.79727000  1.0
  C  C79  1  0.48101000  0.99165000  0.20273000  1.0
  C  C80  1  0.85584000  0.48845000  0.33836000  1.0
  C  C81  1  0.35583000  0.01154000  0.66163000  1.0
  C  C82  1  0.14416000  0.51155000  0.66163000  1.0
  C  C83  1  0.64416000  0.98845000  0.33837000  1.0
  C  C84  1  0.81316000  0.41496000  0.39850000  1.0
  C  C85  1  0.31316000  0.08504000  0.60149000  1.0
  C  C86  1  0.18684000  0.58505000  0.60149000  1.0
  C  C87  1  0.68684000  0.91495000  0.39851000  1.0
  C  C88  1  0.70463000  0.41281000  0.47275000  1.0
  C  C89  1  0.20463000  0.08719000  0.52724000  1.0
  C  C90  1  0.29536000  0.58720000  0.52725000  1.0
  C  C91  1  0.79536000  0.91280000  0.47276000  1.0
  C  C92  1  0.66073000  0.47142000  0.65744000  1.0
  C  C93  1  0.16073000  0.02858000  0.34255000  1.0
  C  C94  1  0.33927000  0.52858000  0.34256000  1.0
  C  C95  1  0.83927000  0.97142000  0.65744000  1.0
  C  C96  1  0.57269000  0.42135000  0.72531000  1.0
  C  C97  1  0.07269000  0.07866000  0.27469000  1.0
  C  C98  1  0.42732000  0.57865000  0.27469000  1.0
  C  C99  1  0.92731000  0.92134000  0.72531000  1.0
  C  C100  1  0.49799000  0.46595000  0.78626000  1.0
  C  C101  1  0.99799000  0.03405000  0.21374000  1.0
  C  C102  1  0.50202000  0.53404000  0.21374000  1.0
  C  C103  1  0.00200000  0.96595000  0.78626000  1.0
  C  C104  1  0.51130000  0.56057000  0.77508000  1.0
  C  C105  1  0.01130000  0.93943000  0.22492000  1.0
  C  C106  1  0.48871000  0.43943000  0.22492000  1.0
  C  C107  1  0.98869000  0.06057000  0.77508000  1.0
  C  C108  1  0.59546000  0.61037000  0.70529000  1.0
  C  C109  1  0.09546000  0.88963000  0.29471000  1.0
  C  C110  1  0.40455000  0.38963000  0.29471000  1.0
  C  C111  1  0.90454000  0.11037000  0.70529000  1.0
  C  C112  1  0.67276000  0.56724000  0.64516000  1.0
  C  C113  1  0.17276000  0.93276000  0.35484000  1.0
  C  C114  1  0.32725000  0.43277000  0.35484000  1.0
  C  C115  1  0.82724000  0.06723000  0.64515000  1.0
  Br  Br116  1  0.68461000  0.20998000  0.22474000  1.0
  Br  Br117  1  0.18460000  0.29002000  0.77526000  1.0
  Br  Br118  1  0.31539000  0.79002000  0.77527000  1.0
  Br  Br119  1  0.81540000  0.70998000  0.22474000  1.0
  Br  Br120  1  0.23631000  0.26383000  0.11761000  1.0
  Br  Br121  1  0.73630000  0.23617000  0.88239000  1.0
  Br  Br122  1  0.76368000  0.73618000  0.88239000  1.0
  Br  Br123  1  0.26369000  0.76382000  0.11761000  1.0
  N  N124  1  0.89188000  0.37959000  0.12460000  1.0
  N  N125  1  0.39188000  0.12042000  0.87540000  1.0
  N  N126  1  0.10812000  0.62042000  0.87540000  1.0
  N  N127  1  0.60812000  0.87958000  0.12460000  1.0
  N  N128  1  0.94659000  0.45036000  0.28204000  1.0
  N  N129  1  0.44657000  0.04964000  0.71796000  1.0
  N  N130  1  0.05342000  0.54965000  0.71796000  1.0
  N  N131  1  0.55342000  0.95035000  0.28204000  1.0
  N  N132  1  0.96008000  0.35850000  0.30584000  1.0
  N  N133  1  0.46007000  0.14150000  0.69416000  1.0
  N  N134  1  0.03993000  0.64151000  0.69416000  1.0
  N  N135  1  0.53992000  0.85849000  0.30584000  1.0
  N  N136  1  0.87948000  0.33663000  0.37616000  1.0
  N  N137  1  0.37947000  0.16337000  0.62384000  1.0
  N  N138  1  0.12052000  0.66338000  0.62384000  1.0
  N  N139  1  0.62052000  0.83662000  0.37616000  1.0
  N  N140  1  0.72010000  0.40381000  0.61584000  1.0
  N  N141  1  0.22011000  0.09619000  0.38416000  1.0
  N  N142  1  0.27989000  0.59620000  0.38416000  1.0
  N  N143  1  0.77989000  0.90380000  0.61584000  1.0
  N  N144  1  0.67193000  0.31970000  0.65130000  1.0
  N  N145  1  0.17194000  0.18030000  0.34870000  1.0
  N  N146  1  0.32807000  0.68031000  0.34869000  1.0
  N  N147  1  0.82806000  0.81969000  0.65130000  1.0
  N  N148  1  0.58211000  0.32999000  0.71702000  1.0
  N  N149  1  0.08212000  0.17001000  0.28298000  1.0
  N  N150  1  0.41789000  0.67001000  0.28298000  1.0
  N  N151  1  0.91789000  0.82999000  0.71702000  1.0
  O  O152  1  0.81818000  0.41450000  0.54570000  1.0
  O  O153  1  0.31819000  0.08550000  0.45430000  1.0
  O  O154  1  0.18181000  0.58551000  0.45430000  1.0
  O  O155  1  0.68181000  0.91449000  0.54570000  1.0
