# generated using pymatgen
data_Cr2CdH42C42(N2O3)4
_symmetry_space_group_name_H-M   'P 1'
_cell_length_a   10.62300000
_cell_length_b   10.89970000
_cell_length_c   11.10180000
_cell_angle_alpha   69.83850000
_cell_angle_beta   69.90500000
_cell_angle_gamma   67.26500000
_symmetry_Int_Tables_number   1
_chemical_formula_structural   Cr2CdH42C42(N2O3)4
_chemical_formula_sum   'Cr2 Cd1 H42 C42 N8 O12'
_cell_volume   1079.57235487
_cell_formula_units_Z   1
loop_
 _symmetry_equiv_pos_site_id
 _symmetry_equiv_pos_as_xyz
  1  'x, y, z'
loop_
 _atom_site_type_symbol
 _atom_site_label
 _atom_site_symmetry_multiplicity
 _atom_site_fract_x
 _atom_site_fract_y
 _atom_site_fract_z
 _atom_site_occupancy
  Cr  Cr0  1  0.32557000  0.96658000  0.70149000  1.0
  Cr  Cr1  1  0.67443000  0.03341000  0.29852000  1.0
  Cd  Cd2  1  0.00000000  0.00000000  0.00000000  1.0
  H  H3  1  0.61913000  0.64688000  0.69327000  1.0
  H  H4  1  0.38086000  0.35313000  0.30672000  1.0
  H  H5  1  0.58422000  0.79782000  0.56259000  1.0
  H  H6  1  0.41577000  0.20219000  0.43742000  1.0
  H  H7  1  0.66076000  0.79435000  0.68503000  1.0
  H  H8  1  0.33922000  0.20565000  0.31498000  1.0
  H  H9  1  0.82037000  0.94251000  0.52684000  1.0
  H  H10  1  0.17963000  0.05749000  0.47316000  1.0
  H  H11  1  0.13605000  0.58275000  0.74922000  1.0
  H  H12  1  0.86396000  0.41724000  0.25078000  1.0
  H  H13  1  0.16355000  0.21619000  0.88319000  1.0
  H  H14  1  0.83645000  0.78380000  0.11681000  1.0
  H  H15  1  0.88436000  0.63158000  0.82546000  1.0
  H  H16  1  0.11565000  0.36842000  0.17454000  1.0
  H  H17  1  0.68440000  0.53510000  0.89605000  1.0
  H  H18  1  0.31560000  0.46489000  0.10395000  1.0
  H  H19  1  0.73448000  0.27918000  0.96392000  1.0
  H  H20  1  0.26552000  0.72082000  0.03609000  1.0
  H  H21  1  0.65618000  0.09249000  0.01950000  1.0
  H  H22  1  0.34382000  0.90752000  0.98050000  1.0
  H  H23  1  0.50337000  0.12279000  0.87623000  1.0
  H  H24  1  0.49662000  0.87722000  0.12377000  1.0
  H  H25  1  0.61459000  0.03386000  0.67197000  1.0
  H  H26  1  0.38540000  0.96615000  0.32803000  1.0
  H  H27  1  0.01459000  0.89497000  0.77216000  1.0
  H  H28  1  0.98540000  0.10502000  0.22785000  1.0
  H  H29  1  0.98057000  0.84367000  0.37045000  1.0
  H  H30  1  0.01943000  0.15633000  0.62956000  1.0
  H  H31  1  0.15613000  0.75889000  0.38975000  1.0
  H  H32  1  0.84387000  0.24111000  0.61025000  1.0
  H  H33  1  0.81260000  0.71476000  0.43630000  1.0
  H  H34  1  0.18740000  0.28524000  0.56370000  1.0
  H  H35  1  0.22912000  0.50943000  0.50315000  1.0
  H  H36  1  0.77088000  0.49057000  0.49685000  1.0
  H  H37  1  0.46328000  0.45965000  0.83325000  1.0
  H  H38  1  0.53673000  0.54036000  0.16674000  1.0
  H  H39  1  0.32793000  0.61223000  0.78758000  1.0
  H  H40  1  0.67207000  0.38777000  0.21241000  1.0
  H  H41  1  0.51544000  0.28289000  0.67404000  1.0
  H  H42  1  0.48456000  0.71712000  0.32595000  1.0
  H  H43  1  0.37943000  0.72439000  0.56009000  1.0
  H  H44  1  0.62058000  0.27561000  0.43991000  1.0
  C  C45  1  0.58548000  0.75961000  0.66786000  1.0
  C  C46  1  0.41451000  0.24039000  0.33215000  1.0
  C  C47  1  0.05907000  0.28960000  0.88586000  1.0
  C  C48  1  0.94093000  0.71040000  0.11413000  1.0
  C  C49  1  0.04005000  0.43125000  0.84958000  1.0
  C  C50  1  0.95995000  0.56874000  0.15042000  1.0
  C  C51  1  0.90317000  0.52107000  0.85132000  1.0
  C  C52  1  0.09684000  0.47892000  0.14867000  1.0
  C  C53  1  0.79193000  0.46731000  0.89090000  1.0
  C  C54  1  0.20808000  0.53269000  0.10909000  1.0
  C  C55  1  0.81890000  0.32569000  0.92863000  1.0
  C  C56  1  0.18110000  0.67431000  0.07137000  1.0
  C  C57  1  0.70055000  0.05537000  0.92960000  1.0
  C  C58  1  0.29944000  0.94464000  0.07040000  1.0
  C  C59  1  0.61598000  0.07023000  0.85043000  1.0
  C  C60  1  0.38402000  0.92977000  0.14957000  1.0
  C  C61  1  0.67803000  0.02027000  0.73737000  1.0
  C  C62  1  0.32197000  0.97973000  0.26264000  1.0
  C  C63  1  0.82328000  0.95287000  0.70787000  1.0
  C  C64  1  0.17672000  0.04712000  0.29214000  1.0
  C  C65  1  0.90130000  0.94259000  0.79228000  1.0
  C  C66  1  0.09870000  0.05741000  0.20773000  1.0
  C  C67  1  0.00987000  0.80626000  0.56581000  1.0
  C  C68  1  0.99013000  0.19374000  0.43419000  1.0
  C  C69  1  0.04508000  0.76546000  0.43706000  1.0
  C  C70  1  0.95492000  0.23454000  0.56294000  1.0
  C  C71  1  0.02335000  0.62782000  0.46651000  1.0
  C  C72  1  0.97666000  0.37218000  0.53350000  1.0
  C  C73  1  0.89487000  0.62068000  0.46524000  1.0
  C  C74  1  0.10513000  0.37932000  0.53476000  1.0
  C  C75  1  0.12857000  0.50568000  0.50132000  1.0
  C  C76  1  0.87143000  0.49432000  0.49868000  1.0
  C  C77  1  0.27799000  0.42168000  0.84490000  1.0
  C  C78  1  0.72202000  0.57832000  0.15509000  1.0
  C  C79  1  0.38046000  0.50577000  0.77866000  1.0
  C  C80  1  0.61955000  0.49423000  0.22133000  1.0
  C  C81  1  0.44236000  0.50374000  0.63427000  1.0
  C  C82  1  0.55764000  0.49627000  0.36573000  1.0
  C  C83  1  0.50953000  0.37855000  0.59787000  1.0
  C  C84  1  0.49047000  0.62145000  0.40212000  1.0
  C  C85  1  0.43280000  0.62561000  0.53450000  1.0
  C  C86  1  0.56720000  0.37439000  0.46549000  1.0
  N  N87  1  0.95040000  0.23949000  0.92501000  1.0
  N  N88  1  0.04960000  0.76051000  0.07499000  1.0
  N  N89  1  0.84036000  0.99492000  0.89909000  1.0
  N  N90  1  0.15964000  0.00508000  0.10091000  1.0
  N  N91  1  0.88408000  0.90401000  0.59284000  1.0
  N  N92  1  0.11592000  0.09599000  0.40716000  1.0
  N  N93  1  0.15190000  0.48481000  0.80974000  1.0
  N  N94  1  0.84811000  0.51518000  0.19025000  1.0
  O  O95  1  0.17619000  0.96494000  0.81138000  1.0
  O  O96  1  0.82380000  0.03506000  0.18862000  1.0
  O  O97  1  0.37524000  0.09108000  0.69689000  1.0
  O  O98  1  0.62474000  0.90891000  0.30314000  1.0
  O  O99  1  0.44913000  0.80554000  0.75054000  1.0
  O  O100  1  0.55086000  0.19446000  0.24946000  1.0
  O  O101  1  0.31180000  0.98178000  0.55494000  1.0
  O  O102  1  0.68820000  0.01824000  0.44506000  1.0
  O  O103  1  0.08978000  0.75005000  0.64217000  1.0
  O  O104  1  0.91022000  0.24995000  0.35783000  1.0
  O  O105  1  0.30754000  0.30700000  0.92160000  1.0
  O  O106  1  0.69247000  0.69300000  0.07839000  1.0
