# generated using pymatgen
data_KH7C8(NO2)4
_symmetry_space_group_name_H-M   'P 1'
_cell_length_a   6.84015000
_cell_length_b   11.91540000
_cell_length_c   14.50032332
_cell_angle_alpha   89.99965789
_cell_angle_beta   76.72998867
_cell_angle_gamma   89.99970000
_symmetry_Int_Tables_number   1
_chemical_formula_structural   KH7C8(NO2)4
_chemical_formula_sum   'K4 H28 C32 N16 O32'
_cell_volume   1150.26599469
_cell_formula_units_Z   4
loop_
 _symmetry_equiv_pos_site_id
 _symmetry_equiv_pos_as_xyz
  1  'x, y, z'
loop_
 _atom_site_type_symbol
 _atom_site_label
 _atom_site_symmetry_multiplicity
 _atom_site_fract_x
 _atom_site_fract_y
 _atom_site_fract_z
 _atom_site_occupancy
  K  K0  1  0.57707000  0.13199000  0.23380000  1.0
  K  K1  1  0.42294000  0.63198000  0.26619000  1.0
  K  K2  1  0.42294000  0.86801000  0.76619000  1.0
  K  K3  1  0.57708000  0.36802000  0.73380000  1.0
  H  H4  1  0.99579000  0.54840000  0.38594000  1.0
  H  H5  1  0.00421000  0.04840000  0.11406000  1.0
  H  H6  1  0.00421000  0.45160000  0.61406000  1.0
  H  H7  1  0.99579000  0.95160000  0.88594000  1.0
  H  H8  1  0.48310000  0.36111000  0.42522000  1.0
  H  H9  1  0.51690000  0.86110000  0.07478000  1.0
  H  H10  1  0.51690000  0.63889000  0.57478000  1.0
  H  H11  1  0.48309000  0.13890000  0.92522000  1.0
  H  H12  1  0.29133000  0.96495000  0.51687000  1.0
  H  H13  1  0.70867000  0.46495000  0.98314000  1.0
  H  H14  1  0.70867000  0.03505000  0.48313000  1.0
  H  H15  1  0.29132000  0.53505000  0.01687000  1.0
  H  H16  1  0.06296000  0.21375000  0.70544000  1.0
  H  H17  1  0.93704000  0.71374000  0.79456000  1.0
  H  H18  1  0.93704000  0.78625000  0.29456000  1.0
  H  H19  1  0.06296000  0.28626000  0.20544000  1.0
  H  H20  1  0.08760000  0.14179000  0.32250000  1.0
  H  H21  1  0.91240000  0.64179000  0.17750000  1.0
  H  H22  1  0.91240000  0.85821000  0.67750000  1.0
  H  H23  1  0.08759000  0.35821000  0.82251000  1.0
  H  H24  1  0.46069000  0.38805000  0.21242000  1.0
  H  H25  1  0.53931000  0.88805000  0.28758000  1.0
  H  H26  1  0.53930000  0.61195000  0.78759000  1.0
  H  H27  1  0.46069000  0.11195000  0.71242000  1.0
  H  H28  1  0.68482000  0.41379000  0.17507000  1.0
  H  H29  1  0.31518000  0.91379000  0.32493000  1.0
  H  H30  1  0.31518000  0.58621000  0.82493000  1.0
  H  H31  1  0.68482000  0.08621000  0.67507000  1.0
  C  C32  1  0.05469000  0.37981000  0.40156000  1.0
  C  C33  1  0.94531000  0.87981000  0.09844000  1.0
  C  C34  1  0.94530000  0.62019000  0.59844000  1.0
  C  C35  1  0.05469000  0.12019000  0.90156000  1.0
  C  C36  1  0.72951000  0.46404000  0.39757000  1.0
  C  C37  1  0.27050000  0.96405000  0.10243000  1.0
  C  C38  1  0.27050000  0.53595000  0.60243000  1.0
  C  C39  1  0.72950000  0.03595000  0.89757000  1.0
  C  C40  1  0.72679000  0.26413000  0.43770000  1.0
  C  C41  1  0.27322000  0.76413000  0.06230000  1.0
  C  C42  1  0.27321000  0.73587000  0.56230000  1.0
  C  C43  1  0.72678000  0.23587000  0.93770000  1.0
  C  C44  1  0.15938000  0.09660000  0.45551000  1.0
  C  C45  1  0.84062000  0.59660000  0.04449000  1.0
  C  C46  1  0.84062000  0.90341000  0.54449000  1.0
  C  C47  1  0.15938000  0.40340000  0.95551000  1.0
  C  C48  1  0.19338000  0.08275000  0.61924000  1.0
  C  C49  1  0.80663000  0.58276000  0.88077000  1.0
  C  C50  1  0.80662000  0.91725000  0.38076000  1.0
  C  C51  1  0.19337000  0.41724000  0.11923000  1.0
  C  C52  1  0.00746000  0.23819000  0.57167000  1.0
  C  C53  1  0.99254000  0.73819000  0.92833000  1.0
  C  C54  1  0.99254000  0.76181000  0.42833000  1.0
  C  C55  1  0.00746000  0.26181000  0.07167000  1.0
  C  C56  1  0.95999000  0.26123000  0.40977000  1.0
  C  C57  1  0.04001000  0.76123000  0.09023000  1.0
  C  C58  1  0.04001000  0.73877000  0.59023000  1.0
  C  C59  1  0.95999000  0.23877000  0.90977000  1.0
  C  C60  1  0.04335000  0.19389000  0.47947000  1.0
  C  C61  1  0.95664000  0.69389000  0.02054000  1.0
  C  C62  1  0.95666000  0.80611000  0.52053000  1.0
  C  C63  1  0.04335000  0.30611000  0.97946000  1.0
  N  N64  1  0.93399000  0.46761000  0.39072000  1.0
  N  N65  1  0.06603000  0.96761000  0.10927000  1.0
  N  N66  1  0.06601000  0.53239000  0.60928000  1.0
  N  N67  1  0.93398000  0.03239000  0.89072000  1.0
  N  N68  1  0.63573000  0.36192000  0.42142000  1.0
  N  N69  1  0.36427000  0.86192000  0.07858000  1.0
  N  N70  1  0.36427000  0.63808000  0.57858000  1.0
  N  N71  1  0.63572000  0.13808000  0.92142000  1.0
  N  N72  1  0.22524000  0.04343000  0.52814000  1.0
  N  N73  1  0.77475000  0.54343000  0.97187000  1.0
  N  N74  1  0.77476000  0.95657000  0.47186000  1.0
  N  N75  1  0.22524000  0.45657000  0.02814000  1.0
  N  N76  1  0.08784000  0.18104000  0.63754000  1.0
  N  N77  1  0.91215000  0.68104000  0.86246000  1.0
  N  N78  1  0.91216000  0.81896000  0.36246000  1.0
  N  N79  1  0.08784000  0.31896000  0.13754000  1.0
  O  O80  1  0.23413000  0.39433000  0.39943000  1.0
  O  O81  1  0.76588000  0.89433000  0.10057000  1.0
  O  O82  1  0.76587000  0.60567000  0.60057000  1.0
  O  O83  1  0.23412000  0.10567000  0.89943000  1.0
  O  O84  1  0.63644000  0.54894000  0.38467000  1.0
  O  O85  1  0.36356000  0.04893000  0.11533000  1.0
  O  O86  1  0.36355000  0.45107000  0.61533000  1.0
  O  O87  1  0.63644000  0.95107000  0.88467000  1.0
  O  O88  1  0.62592000  0.17934000  0.46466000  1.0
  O  O89  1  0.37409000  0.67935000  0.03533000  1.0
  O  O90  1  0.37408000  0.82066000  0.53534000  1.0
  O  O91  1  0.62592000  0.32065000  0.96466000  1.0
  O  O92  1  0.20540000  0.05348000  0.37205000  1.0
  O  O93  1  0.79460000  0.55348000  0.12796000  1.0
  O  O94  1  0.79460000  0.94652000  0.62795000  1.0
  O  O95  1  0.20540000  0.44652000  0.87204000  1.0
  O  O96  1  0.25734000  0.03270000  0.68207000  1.0
  O  O97  1  0.74265000  0.53270000  0.81793000  1.0
  O  O98  1  0.74266000  0.96730000  0.31793000  1.0
  O  O99  1  0.25735000  0.46730000  0.18207000  1.0
  O  O100  1  0.90609000  0.32710000  0.59600000  1.0
  O  O101  1  0.09391000  0.82710000  0.90400000  1.0
  O  O102  1  0.09392000  0.67290000  0.40400000  1.0
  O  O103  1  0.90608000  0.17290000  0.09600000  1.0
  O  O104  1  0.00885000  0.21311000  0.31637000  1.0
  O  O105  1  0.99116000  0.71311000  0.18363000  1.0
  O  O106  1  0.99116000  0.78689000  0.68363000  1.0
  O  O107  1  0.00884000  0.28689000  0.81637000  1.0
  O  O108  1  0.59460000  0.35819000  0.21318000  1.0
  O  O109  1  0.40540000  0.85819000  0.28682000  1.0
  O  O110  1  0.40540000  0.64180000  0.78682000  1.0
  O  O111  1  0.59460000  0.14181000  0.71318000  1.0
