# generated using pymatgen
data_Cd3H34C54(NO6)2
_symmetry_space_group_name_H-M   'P 1'
_cell_length_a   9.37219000
_cell_length_b   13.39630000
_cell_length_c   23.37600000
_cell_angle_alpha   94.65240000
_cell_angle_beta   90.00000000
_cell_angle_gamma   89.99990000
_symmetry_Int_Tables_number   1
_chemical_formula_structural   Cd3H34C54(NO6)2
_chemical_formula_sum   'Cd6 H68 C108 N4 O24'
_cell_volume   2925.24896834
_cell_formula_units_Z   2
loop_
 _symmetry_equiv_pos_site_id
 _symmetry_equiv_pos_as_xyz
  1  'x, y, z'
loop_
 _atom_site_type_symbol
 _atom_site_label
 _atom_site_symmetry_multiplicity
 _atom_site_fract_x
 _atom_site_fract_y
 _atom_site_fract_z
 _atom_site_occupancy
  Cd  Cd0  1  0.64902000  0.02842000  0.95478000  1.0
  Cd  Cd1  1  0.64902000  0.47158000  0.54522000  1.0
  Cd  Cd2  1  0.35098000  0.97158000  0.04523000  1.0
  Cd  Cd3  1  0.35098000  0.52842000  0.45478000  1.0
  Cd  Cd4  1  0.00000000  0.50000000  0.50000000  1.0
  Cd  Cd5  1  0.00000000  0.00000000  0.00000000  1.0
  H  H6  1  0.82967000  0.33171000  0.72762000  1.0
  H  H7  1  0.82967000  0.16829000  0.77238000  1.0
  H  H8  1  0.17033000  0.66830000  0.27238000  1.0
  H  H9  1  0.17033000  0.83170000  0.22762000  1.0
  H  H10  1  0.01243000  0.33319000  0.80529000  1.0
  H  H11  1  0.01243000  0.16681000  0.69471000  1.0
  H  H12  1  0.98757000  0.66681000  0.19471000  1.0
  H  H13  1  0.98757000  0.83319000  0.30529000  1.0
  H  H14  1  0.28396000  0.51576000  0.70863000  1.0
  H  H15  1  0.28396000  0.98424000  0.79137000  1.0
  H  H16  1  0.71604000  0.48424000  0.29137000  1.0
  H  H17  1  0.71604000  0.01576000  0.20863000  1.0
  H  H18  1  0.10223000  0.51257000  0.63054000  1.0
  H  H19  1  0.10224000  0.98743000  0.86946000  1.0
  H  H20  1  0.89777000  0.48743000  0.36946000  1.0
  H  H21  1  0.89777000  0.01257000  0.13054000  1.0
  H  H22  1  0.37505000  0.44103000  0.78879000  1.0
  H  H23  1  0.37505000  0.05897000  0.71121000  1.0
  H  H24  1  0.62495000  0.55897000  0.21121000  1.0
  H  H25  1  0.62495000  0.94103000  0.28879000  1.0
  H  H26  1  0.02615000  0.55497000  0.82935000  1.0
  H  H27  1  0.02615000  0.94503000  0.67065000  1.0
  H  H28  1  0.97385000  0.44503000  0.17065000  1.0
  H  H29  1  0.97385000  0.05497000  0.32935000  1.0
  H  H30  1  0.00419000  0.71581000  0.89067000  1.0
  H  H31  1  0.00419000  0.78419000  0.60933000  1.0
  H  H32  1  0.99581000  0.28419000  0.10933000  1.0
  H  H33  1  0.99582000  0.21581000  0.39067000  1.0
  H  H34  1  0.45091000  0.70710000  0.92937000  1.0
  H  H35  1  0.45091000  0.79290000  0.57063000  1.0
  H  H36  1  0.54909000  0.29290000  0.07063000  1.0
  H  H37  1  0.54909000  0.20711000  0.42937000  1.0
  H  H38  1  0.47528000  0.54737000  0.86725000  1.0
  H  H39  1  0.47528000  0.95263000  0.63275000  1.0
  H  H40  1  0.52472000  0.45263000  0.13275000  1.0
  H  H41  1  0.52472000  0.04737000  0.36725000  1.0
  H  H42  1  0.46046000  0.28665000  0.80665000  1.0
  H  H43  1  0.46046000  0.21335000  0.69335000  1.0
  H  H44  1  0.53954000  0.71335000  0.19335000  1.0
  H  H45  1  0.53954000  0.78665000  0.30665000  1.0
  H  H46  1  0.47906000  0.14936000  0.87052000  1.0
  H  H47  1  0.47906000  0.35064000  0.62948000  1.0
  H  H48  1  0.52094000  0.85064000  0.12948000  1.0
  H  H49  1  0.52093000  0.64936000  0.37052000  1.0
  H  H50  1  0.10531000  0.26043000  0.96237000  1.0
  H  H51  1  0.10530000  0.23957000  0.53763000  1.0
  H  H52  1  0.89470000  0.73957000  0.03763000  1.0
  H  H53  1  0.89469000  0.76043000  0.46236000  1.0
  H  H54  1  0.09350000  0.40334000  0.90079000  1.0
  H  H55  1  0.09350000  0.09666000  0.59921000  1.0
  H  H56  1  0.90650000  0.59666000  0.09921000  1.0
  H  H57  1  0.90650000  0.90334000  0.40079000  1.0
  H  H58  1  0.40678000  0.93437000  0.86724000  1.0
  H  H59  1  0.40678000  0.56563000  0.63276000  1.0
  H  H60  1  0.59323000  0.06563000  0.13276000  1.0
  H  H61  1  0.59322000  0.43437000  0.36724000  1.0
  H  H62  1  0.39439000  0.83239000  0.77248000  1.0
  H  H63  1  0.39439000  0.66761000  0.72752000  1.0
  H  H64  1  0.60561000  0.16761000  0.22752000  1.0
  H  H65  1  0.60561000  0.33239000  0.27248000  1.0
  H  H66  1  0.82926000  0.74090000  0.80122000  1.0
  H  H67  1  0.82926000  0.75909000  0.69878000  1.0
  H  H68  1  0.17074000  0.25909000  0.19878000  1.0
  H  H69  1  0.17074000  0.24090000  0.30122000  1.0
  H  H70  1  0.82201000  0.84584000  0.89469000  1.0
  H  H71  1  0.82202000  0.65416000  0.60531000  1.0
  H  H72  1  0.17798000  0.15416000  0.10532000  1.0
  H  H73  1  0.17798000  0.34584000  0.39469000  1.0
  C  C74  1  0.84444000  0.42244000  0.62900000  1.0
  C  C75  1  0.84444000  0.07756000  0.87100000  1.0
  C  C76  1  0.15556000  0.57756000  0.37100000  1.0
  C  C77  1  0.15556000  0.92244000  0.12900000  1.0
  C  C78  1  0.95536000  0.42098000  0.67438000  1.0
  C  C79  1  0.95536000  0.07902000  0.82562000  1.0
  C  C80  1  0.04464000  0.57902000  0.32562000  1.0
  C  C81  1  0.04464000  0.92098000  0.17438000  1.0
  C  C82  1  0.93026000  0.37155000  0.72389000  1.0
  C  C83  1  0.93026000  0.12845000  0.77611000  1.0
  C  C84  1  0.06973000  0.62845000  0.27611000  1.0
  C  C85  1  0.06973000  0.87155000  0.22389000  1.0
  C  C86  1  0.03211000  0.37341000  0.76738000  1.0
  C  C87  1  0.03211000  0.12659000  0.73262000  1.0
  C  C88  1  0.96789000  0.62659000  0.23262000  1.0
  C  C89  1  0.96789000  0.87341000  0.26738000  1.0
  C  C90  1  0.15982000  0.42606000  0.76231000  1.0
  C  C91  1  0.15982000  0.07394000  0.73769000  1.0
  C  C92  1  0.84018000  0.57394000  0.23769000  1.0
  C  C93  1  0.84018000  0.92606000  0.26231000  1.0
  C  C94  1  0.18419000  0.47506000  0.71250000  1.0
  C  C95  1  0.18419000  0.02494000  0.78749000  1.0
  C  C96  1  0.81581000  0.52494000  0.28749000  1.0
  C  C97  1  0.81581000  0.97505000  0.21251000  1.0
  C  C98  1  0.08388000  0.47286000  0.66878000  1.0
  C  C99  1  0.08388000  0.02714000  0.83122000  1.0
  C  C100  1  0.91612000  0.52714000  0.33122000  1.0
  C  C101  1  0.91612000  0.97286000  0.16878000  1.0
  C  C102  1  0.27003000  0.43923000  0.80988000  1.0
  C  C103  1  0.27003000  0.06077000  0.69011000  1.0
  C  C104  1  0.72997000  0.56077000  0.19012000  1.0
  C  C105  1  0.72997000  0.93923000  0.30988000  1.0
  C  C106  1  0.25217000  0.53999000  0.84451000  1.0
  C  C107  1  0.25218000  0.96001000  0.65549000  1.0
  C  C108  1  0.74782000  0.46001000  0.15549000  1.0
  C  C109  1  0.74782000  0.03999000  0.34451000  1.0
  C  C110  1  0.11979000  0.58828000  0.85109000  1.0
  C  C111  1  0.11979000  0.91172000  0.64891000  1.0
  C  C112  1  0.88022000  0.41172000  0.14891000  1.0
  C  C113  1  0.88021000  0.08828000  0.35109000  1.0
  C  C114  1  0.10704000  0.67833000  0.88510000  1.0
  C  C115  1  0.10704000  0.82168000  0.61490000  1.0
  C  C116  1  0.89296000  0.32168000  0.11491000  1.0
  C  C117  1  0.89296000  0.17832000  0.38509000  1.0
  C  C118  1  0.22607000  0.72126000  0.91362000  1.0
  C  C119  1  0.22607000  0.77874000  0.58638000  1.0
  C  C120  1  0.77393000  0.27874000  0.08638000  1.0
  C  C121  1  0.77393000  0.22126000  0.41361000  1.0
  C  C122  1  0.35883000  0.67336000  0.90688000  1.0
  C  C123  1  0.35883000  0.82664000  0.59312000  1.0
  C  C124  1  0.64117000  0.32665000  0.09312000  1.0
  C  C125  1  0.64117000  0.17336000  0.40688000  1.0
  C  C126  1  0.37163000  0.58432000  0.87233000  1.0
  C  C127  1  0.37162000  0.91568000  0.62767000  1.0
  C  C128  1  0.62837000  0.41568000  0.12767000  1.0
  C  C129  1  0.62837000  0.08432000  0.37233000  1.0
  C  C130  1  0.21374000  0.81657000  0.95188000  1.0
  C  C131  1  0.21374000  0.68343000  0.54812000  1.0
  C  C132  1  0.78626000  0.18343000  0.04812000  1.0
  C  C133  1  0.78626000  0.31657000  0.45187000  1.0
  C  C134  1  0.27512000  0.35388000  0.84879000  1.0
  C  C135  1  0.27512000  0.14612000  0.65121000  1.0
  C  C136  1  0.72488000  0.64613000  0.15121000  1.0
  C  C137  1  0.72488000  0.85387000  0.34879000  1.0
  C  C138  1  0.38227000  0.28111000  0.84089000  1.0
  C  C139  1  0.38227000  0.21889000  0.65911000  1.0
  C  C140  1  0.61774000  0.71889000  0.15911000  1.0
  C  C141  1  0.61774000  0.78111000  0.34089000  1.0
  C  C142  1  0.39214000  0.20312000  0.87661000  1.0
  C  C143  1  0.39214000  0.29688000  0.62339000  1.0
  C  C144  1  0.60786000  0.79688000  0.12339000  1.0
  C  C145  1  0.60786000  0.70312000  0.37661000  1.0
  C  C146  1  0.29177000  0.19555000  0.92050000  1.0
  C  C147  1  0.29177000  0.30445000  0.57950000  1.0
  C  C148  1  0.70823000  0.80445000  0.07950000  1.0
  C  C149  1  0.70823000  0.69555000  0.42050000  1.0
  C  C150  1  0.18274000  0.26723000  0.92813000  1.0
  C  C151  1  0.18274000  0.23277000  0.57187000  1.0
  C  C152  1  0.81726000  0.73277000  0.07188000  1.0
  C  C153  1  0.81726000  0.76723000  0.42812000  1.0
  C  C154  1  0.17576000  0.34620000  0.89315000  1.0
  C  C155  1  0.17576000  0.15380000  0.60685000  1.0
  C  C156  1  0.82424000  0.65380000  0.10685000  1.0
  C  C157  1  0.82424000  0.84620000  0.39315000  1.0
  C  C158  1  0.29879000  0.11423000  0.95995000  1.0
  C  C159  1  0.29879000  0.38577000  0.54005000  1.0
  C  C160  1  0.70121000  0.88577000  0.04005000  1.0
  C  C161  1  0.70121000  0.61423000  0.45995000  1.0
  C  C162  1  0.49737000  0.88974000  0.85073000  1.0
  C  C163  1  0.49737000  0.61026000  0.64927000  1.0
  C  C164  1  0.50263000  0.11026000  0.14927000  1.0
  C  C165  1  0.50263000  0.38974000  0.35073000  1.0
  C  C166  1  0.49134000  0.83290000  0.79826000  1.0
  C  C167  1  0.49134000  0.66710000  0.70174000  1.0
  C  C168  1  0.50866000  0.16710000  0.20174000  1.0
  C  C169  1  0.50866000  0.33290000  0.29826000  1.0
  C  C170  1  0.61230000  0.77920000  0.77822000  1.0
  C  C171  1  0.61231000  0.72080000  0.72178000  1.0
  C  C172  1  0.38769000  0.22080000  0.22178000  1.0
  C  C173  1  0.38769000  0.27920000  0.27822000  1.0
  C  C174  1  0.73319000  0.78308000  0.81380000  1.0
  C  C175  1  0.73319000  0.71692000  0.68620000  1.0
  C  C176  1  0.26681000  0.21692000  0.18620000  1.0
  C  C177  1  0.26681000  0.28308000  0.31380000  1.0
  C  C178  1  0.72984000  0.84063000  0.86609000  1.0
  C  C179  1  0.72984000  0.65938000  0.63391000  1.0
  C  C180  1  0.27016000  0.15937000  0.13392000  1.0
  C  C181  1  0.27016000  0.34062000  0.36609000  1.0
  N  N182  1  0.61457000  0.89446000  0.88397000  1.0
  N  N183  1  0.61456000  0.60554000  0.61603000  1.0
  N  N184  1  0.38544000  0.10554000  0.11603000  1.0
  N  N185  1  0.38544000  0.39446000  0.38397000  1.0
  O  O186  1  0.87933000  0.46163000  0.58197000  1.0
  O  O187  1  0.87933000  0.03837000  0.91803000  1.0
  O  O188  1  0.12067000  0.53837000  0.41803000  1.0
  O  O189  1  0.12067000  0.96163000  0.08197000  1.0
  O  O190  1  0.71945000  0.39207000  0.63735000  1.0
  O  O191  1  0.71946000  0.10793000  0.86265000  1.0
  O  O192  1  0.28054000  0.60793000  0.36265000  1.0
  O  O193  1  0.28055000  0.89207000  0.13735000  1.0
  O  O194  1  0.40553000  0.05383000  0.95840000  1.0
  O  O195  1  0.40553000  0.44617000  0.54160000  1.0
  O  O196  1  0.59447000  0.94617000  0.04160000  1.0
  O  O197  1  0.59447000  0.55383000  0.45840000  1.0
  O  O198  1  0.19814000  0.10581000  0.99602000  1.0
  O  O199  1  0.19814000  0.39419000  0.50398000  1.0
  O  O200  1  0.80186000  0.89419000  0.00398000  1.0
  O  O201  1  0.80186000  0.60581000  0.49602000  1.0
  O  O202  1  0.10189000  0.86969000  0.94679000  1.0
  O  O203  1  0.10189000  0.63031000  0.55321000  1.0
  O  O204  1  0.89811000  0.13031000  0.05321000  1.0
  O  O205  1  0.89811000  0.36969000  0.44679000  1.0
  O  O206  1  0.31807000  0.83552000  0.98578000  1.0
  O  O207  1  0.31807000  0.66448000  0.51423000  1.0
  O  O208  1  0.68193000  0.16448000  0.01423000  1.0
  O  O209  1  0.68193000  0.33552000  0.48577000  1.0
