# generated using pymatgen
data_AgH14C19N7O3
_symmetry_space_group_name_H-M   'P 1'
_cell_length_a   9.04624000
_cell_length_b   9.94811000
_cell_length_c   11.66950000
_cell_angle_alpha   90.28880000
_cell_angle_beta   92.36080000
_cell_angle_gamma   97.06210000
_symmetry_Int_Tables_number   1
_chemical_formula_structural   AgH14C19N7O3
_chemical_formula_sum   'Ag2 H28 C38 N14 O6'
_cell_volume   1041.26739559
_cell_formula_units_Z   2
loop_
 _symmetry_equiv_pos_site_id
 _symmetry_equiv_pos_as_xyz
  1  'x, y, z'
loop_
 _atom_site_type_symbol
 _atom_site_label
 _atom_site_symmetry_multiplicity
 _atom_site_fract_x
 _atom_site_fract_y
 _atom_site_fract_z
 _atom_site_occupancy
  Ag  Ag0  1  0.24560000  0.69640000  0.18090000  1.0
  Ag  Ag1  1  0.75439000  0.30360000  0.81910000  1.0
  H  H2  1  0.35321000  0.88646000  0.44578000  1.0
  H  H3  1  0.64679000  0.11355000  0.55422000  1.0
  H  H4  1  0.39497000  0.11534000  0.54826000  1.0
  H  H5  1  0.60503000  0.88467000  0.45174000  1.0
  H  H6  1  0.21596000  0.27677000  0.52638000  1.0
  H  H7  1  0.78404000  0.72324000  0.47361000  1.0
  H  H8  1  0.98514000  0.22890000  0.39976000  1.0
  H  H9  1  0.01486000  0.77110000  0.60024000  1.0
  H  H10  1  0.70387000  0.93009000  0.25999000  1.0
  H  H11  1  0.29613000  0.06991000  0.74001000  1.0
  H  H12  1  0.78177000  0.10294000  0.28171000  1.0
  H  H13  1  0.21824000  0.89706000  0.71829000  1.0
  H  H14  1  0.68769000  0.73961000  0.12368000  1.0
  H  H15  1  0.31230000  0.26040000  0.87633000  1.0
  H  H16  1  0.54923000  0.62194000  0.95376000  1.0
  H  H17  1  0.45075000  0.37807000  0.04624000  1.0
  H  H18  1  0.49587000  0.74557000  0.77866000  1.0
  H  H19  1  0.50415000  0.25444000  0.22133000  1.0
  H  H20  1  0.57646000  0.99676000  0.76483000  1.0
  H  H21  1  0.42359000  0.00325000  0.23515000  1.0
  H  H22  1  0.08341000  0.16936000  0.14105000  1.0
  H  H23  1  0.91656000  0.83062000  0.85899000  1.0
  H  H24  1  0.24205000  0.38157000  0.20475000  1.0
  H  H25  1  0.75794000  0.61842000  0.79527000  1.0
  H  H26  1  0.89582000  0.61217000  0.14706000  1.0
  H  H27  1  0.10417000  0.38783000  0.85293000  1.0
  H  H28  1  0.72079000  0.40985000  0.07997000  1.0
  H  H29  1  0.27922000  0.59014000  0.92002000  1.0
  C  C30  1  0.14553000  0.93367000  0.36585000  1.0
  C  C31  1  0.85447000  0.06632000  0.63416000  1.0
  C  C32  1  0.27499000  0.96120000  0.43673000  1.0
  C  C33  1  0.72501000  0.03880000  0.56326000  1.0
  C  C34  1  0.29713000  0.08656000  0.49165000  1.0
  C  C35  1  0.70287000  0.91345000  0.50835000  1.0
  C  C36  1  0.19329000  0.18170000  0.47817000  1.0
  C  C37  1  0.80671000  0.81831000  0.52182000  1.0
  C  C38  1  0.06441000  0.15517000  0.40872000  1.0
  C  C39  1  0.93559000  0.84482000  0.59127000  1.0
  C  C40  1  0.04294000  0.02922000  0.35209000  1.0
  C  C41  1  0.95707000  0.97078000  0.64790000  1.0
  C  C42  1  0.79433000  0.00815000  0.23707000  1.0
  C  C43  1  0.20567000  0.99184000  0.76293000  1.0
  C  C44  1  0.70484000  0.93345000  0.03750000  1.0
  C  C45  1  0.29516000  0.06655000  0.96250000  1.0
  C  C46  1  0.66034000  0.79491000  0.04704000  1.0
  C  C47  1  0.33967000  0.20510000  0.95295000  1.0
  C  C48  1  0.58390000  0.73068000  0.95189000  1.0
  C  C49  1  0.41609000  0.26933000  0.04810000  1.0
  C  C50  1  0.55352000  0.80201000  0.85118000  1.0
  C  C51  1  0.44650000  0.19800000  0.14881000  1.0
  C  C52  1  0.59852000  0.94050000  0.84222000  1.0
  C  C53  1  0.40151000  0.05951000  0.15777000  1.0
  C  C54  1  0.67551000  0.00653000  0.93719000  1.0
  C  C55  1  0.32451000  0.99347000  0.06280000  1.0
  C  C56  1  0.79735000  0.15126000  0.05811000  1.0
  C  C57  1  0.20265000  0.84874000  0.94189000  1.0
  C  C58  1  0.88828000  0.27262000  0.10503000  1.0
  C  C59  1  0.11171000  0.72737000  0.89498000  1.0
  C  C60  1  0.03619000  0.26490000  0.14262000  1.0
  C  C61  1  0.96379000  0.73509000  0.85741000  1.0
  C  C62  1  0.12578000  0.38307000  0.17691000  1.0
  C  C63  1  0.87420000  0.61692000  0.82312000  1.0
  C  C64  1  0.93269000  0.51209000  0.14299000  1.0
  C  C65  1  0.06730000  0.48791000  0.85701000  1.0
  C  C66  1  0.83549000  0.39928000  0.10649000  1.0
  C  C67  1  0.16450000  0.60071000  0.89351000  1.0
  N  N68  1  0.73455000  0.14146000  0.95323000  1.0
  N  N69  1  0.26547000  0.85854000  0.04677000  1.0
  N  N70  1  0.78178000  0.02796000  0.11398000  1.0
  N  N71  1  0.21822000  0.97204000  0.88602000  1.0
  N  N72  1  0.07621000  0.50500000  0.17566000  1.0
  N  N73  1  0.92378000  0.49499000  0.82434000  1.0
  N  N74  1  0.93485000  0.96588000  0.27745000  1.0
  N  N75  1  0.06515000  0.03411000  0.72255000  1.0
  N  N76  1  0.96713000  0.84022000  0.24848000  1.0
  N  N77  1  0.03287000  0.15977000  0.75152000  1.0
  N  N78  1  0.09312000  0.82072000  0.30026000  1.0
  N  N79  1  0.90689000  0.17928000  0.69973000  1.0
  N  N80  1  0.53944000  0.63340000  0.27555000  1.0
  N  N81  1  0.46056000  0.36660000  0.72445000  1.0
  O  O82  1  0.48792000  0.74465000  0.29984000  1.0
  O  O83  1  0.51208000  0.25536000  0.70015000  1.0
  O  O84  1  0.45868000  0.54610000  0.21228000  1.0
  O  O85  1  0.54131000  0.45390000  0.78772000  1.0
  O  O86  1  0.66750000  0.61334000  0.31088000  1.0
  O  O87  1  0.33249000  0.38666000  0.68912000  1.0
