# generated using pymatgen
data_ZnH13C28I2N(O2F)2
_symmetry_space_group_name_H-M   'P 1'
_cell_length_a   15.49910000
_cell_length_b   18.38490000
_cell_length_c   19.66450000
_cell_angle_alpha   88.56170000
_cell_angle_beta   88.13380000
_cell_angle_gamma   68.14580000
_symmetry_Int_Tables_number   1
_chemical_formula_structural   ZnH13C28I2N(O2F)2
_chemical_formula_sum   'Zn2 H26 C56 I4 N2 O8 F4'
_cell_volume   5197.42794566
_cell_formula_units_Z   2
loop_
 _symmetry_equiv_pos_site_id
 _symmetry_equiv_pos_as_xyz
  1  'x, y, z'
loop_
 _atom_site_type_symbol
 _atom_site_label
 _atom_site_symmetry_multiplicity
 _atom_site_fract_x
 _atom_site_fract_y
 _atom_site_fract_z
 _atom_site_occupancy
  Zn  Zn0  1  0.49822000  0.57748000  0.49607000  1.0
  Zn  Zn1  1  0.50207000  0.42222000  0.50464000  1.0
  H  H2  1  0.88383000  0.70187000  0.57040000  1.0
  H  H3  1  0.11978000  0.28590000  0.51682000  1.0
  H  H4  1  0.59708000  0.55967000  0.06065000  1.0
  H  H5  1  0.40918000  0.43873000  0.93937000  1.0
  H  H6  1  0.59960000  0.55983000  0.93513000  1.0
  H  H7  1  0.40641000  0.43870000  0.06488000  1.0
  H  H8  1  0.40135000  0.85635000  0.56808000  1.0
  H  H9  1  0.59165000  0.14601000  0.42667000  1.0
  H  H10  1  0.41056000  0.71698000  0.56105000  1.0
  H  H11  1  0.58372000  0.28482000  0.43525000  1.0
  H  H12  1  0.37324000  0.10561000  0.43820000  1.0
  H  H13  1  0.62462000  0.89457000  0.55941000  1.0
  H  H14  1  0.76779000  0.52255000  0.52787000  1.0
  H  H15  1  0.22993000  0.47347000  0.50753000  1.0
  H  H16  1  0.81379000  0.28094000  0.50238000  1.0
  H  H17  1  0.18719000  0.71345000  0.53821000  1.0
  H  H18  1  0.01759000  0.74452000  0.56093000  1.0
  H  H19  1  0.98572000  0.24582000  0.50875000  1.0
  H  H20  1  0.81930000  0.59969000  0.56013000  1.0
  H  H21  1  0.18325000  0.38905000  0.52219000  1.0
  H  H22  1  0.50907000  0.37248000  0.28248000  1.0
  H  H23  1  0.49139000  0.62956000  0.71886000  1.0
  H  H24  1  0.51141000  0.37690000  0.15549000  1.0
  H  H25  1  0.49041000  0.62348000  0.84598000  1.0
  H  H26  1  0.48766000  0.61245000  0.28461000  1.0
  H  H27  1  0.52024000  0.38791000  0.71458000  1.0
  C  C28  1  0.50418000  0.51196000  0.63249000  1.0
  C  C29  1  0.49834000  0.49050000  0.36822000  1.0
  C  C30  1  0.89378000  0.58469000  0.55215000  1.0
  C  C31  1  0.10815000  0.40507000  0.52396000  1.0
  C  C32  1  0.92960000  0.64204000  0.55802000  1.0
  C  C33  1  0.07292000  0.34714000  0.52097000  1.0
  C  C34  1  0.50454000  0.42583000  0.25488000  1.0
  C  C35  1  0.49775000  0.57558000  0.74610000  1.0
  C  C36  1  0.50533000  0.42874000  0.18409000  1.0
  C  C37  1  0.49767000  0.57173000  0.81684000  1.0
  C  C38  1  0.50105000  0.49668000  0.14728000  1.0
  C  C39  1  0.50428000  0.50280000  0.85296000  1.0
  C  C40  1  0.49520000  0.56133000  0.18630000  1.0
  C  C41  1  0.51177000  0.43807000  0.81348000  1.0
  C  C42  1  0.49341000  0.56039000  0.25671000  1.0
  C  C43  1  0.51306000  0.43989000  0.74311000  1.0
  C  C44  1  0.49860000  0.49178000  0.29186000  1.0
  C  C45  1  0.50536000  0.50953000  0.70870000  1.0
  C  C46  1  0.55511000  0.53369000  0.03431000  1.0
  C  C47  1  0.45109000  0.46475000  0.96580000  1.0
  C  C48  1  0.55621000  0.53402000  0.96356000  1.0
  C  C49  1  0.44990000  0.46450000  0.03655000  1.0
  C  C50  1  0.31984000  0.56822000  0.50869000  1.0
  C  C51  1  0.67978000  0.42832000  0.50564000  1.0
  C  C52  1  0.50411000  0.49981000  0.92800000  1.0
  C  C53  1  0.50188000  0.49886000  0.07217000  1.0
  C  C54  1  0.57385000  0.70778000  0.44676000  1.0
  C  C55  1  0.43096000  0.28974000  0.55684000  1.0
  C  C56  1  0.57242000  0.78512000  0.44679000  1.0
  C  C57  1  0.42960000  0.21338000  0.55445000  1.0
  C  C58  1  0.50984000  0.83963000  0.49129000  1.0
  C  C59  1  0.48830000  0.16043000  0.50704000  1.0
  C  C60  1  0.45059000  0.81534000  0.53316000  1.0
  C  C61  1  0.54510000  0.18586000  0.46366000  1.0
  C  C62  1  0.45530000  0.73879000  0.52972000  1.0
  C  C63  1  0.54149000  0.26202000  0.46827000  1.0
  C  C64  1  0.43572000  0.98271000  0.46210000  1.0
  C  C65  1  0.56197000  0.01748000  0.53569000  1.0
  C  C66  1  0.42874000  0.06006000  0.46482000  1.0
  C  C67  1  0.56905000  0.94016000  0.53287000  1.0
  C  C68  1  0.49268000  0.07864000  0.50244000  1.0
  C  C69  1  0.50505000  0.92156000  0.49528000  1.0
  C  C70  1  0.21753000  0.59045000  0.52181000  1.0
  C  C71  1  0.78223000  0.40472000  0.51417000  1.0
  C  C72  1  0.06435000  0.68475000  0.54948000  1.0
  C  C73  1  0.93773000  0.30661000  0.51341000  1.0
  C  C74  1  0.15795000  0.66802000  0.53695000  1.0
  C  C75  1  0.84310000  0.32553000  0.50970000  1.0
  C  C76  1  0.18153000  0.53182000  0.52023000  1.0
  C  C77  1  0.81754000  0.46257000  0.52490000  1.0
  C  C78  1  0.08672000  0.54671000  0.53325000  1.0
  C  C79  1  0.91371000  0.44521000  0.52924000  1.0
  C  C80  1  0.02644000  0.62550000  0.54739000  1.0
  C  C81  1  0.97519000  0.36531000  0.52171000  1.0
  C  C82  1  0.04915000  0.48553000  0.53131000  1.0
  C  C83  1  0.95173000  0.50542000  0.53760000  1.0
  I  I84  1  0.66777000  0.62264000  0.38378000  1.0
  I  I85  1  0.34877000  0.37014000  0.62864000  1.0
  I  I86  1  0.65873000  0.82152000  0.38142000  1.0
  I  I87  1  0.34359000  0.17642000  0.61972000  1.0
  N  N88  1  0.51575000  0.68628000  0.48734000  1.0
  N  N89  1  0.48560000  0.31272000  0.51406000  1.0
  O  O90  1  0.49583000  0.57626000  0.60236000  1.0
  O  O91  1  0.50767000  0.42619000  0.39880000  1.0
  O  O92  1  0.51106000  0.44849000  0.60391000  1.0
  O  O93  1  0.48913000  0.55478000  0.39643000  1.0
  O  O94  1  0.35369000  0.62171000  0.50703000  1.0
  O  O95  1  0.64627000  0.37494000  0.50147000  1.0
  O  O96  1  0.36660000  0.49520000  0.50070000  1.0
  O  O97  1  0.63289000  0.50188000  0.50279000  1.0
  F  F98  1  0.37316000  0.96564000  0.42505000  1.0
  F  F99  1  0.62445000  0.03460000  0.57282000  1.0
  F  F100  1  0.48845000  0.63000000  0.15396000  1.0
  F  F101  1  0.52065000  0.36864000  0.84532000  1.0
