# generated using pymatgen
data_Co2H28C42N4O9
_symmetry_space_group_name_H-M   'P 1'
_cell_length_a   16.52500310
_cell_length_b   16.52870000
_cell_length_c   24.04460000
_cell_angle_alpha   90.12160000
_cell_angle_beta   90.06150060
_cell_angle_gamma   60.02181091
_symmetry_Int_Tables_number   1
_chemical_formula_structural   Co2H28C42N4O9
_chemical_formula_sum   'Co6 H84 C126 N12 O27'
_cell_volume   5688.82880903
_cell_formula_units_Z   3
loop_
 _symmetry_equiv_pos_site_id
 _symmetry_equiv_pos_as_xyz
  1  'x, y, z'
loop_
 _atom_site_type_symbol
 _atom_site_label
 _atom_site_symmetry_multiplicity
 _atom_site_fract_x
 _atom_site_fract_y
 _atom_site_fract_z
 _atom_site_occupancy
  Co  Co0  1  0.58064000  0.29999000  0.02252000  1.0
  Co  Co1  1  0.30001000  0.11928000  0.68927000  1.0
  Co  Co2  1  0.12089000  0.58082000  0.35554000  1.0
  Co  Co3  1  0.70158000  0.41912000  0.97789000  1.0
  Co  Co4  1  0.88082000  0.69995000  0.31083000  1.0
  Co  Co5  1  0.41908000  0.87926000  0.64448000  1.0
  H  H6  1  0.45487000  0.33366000  0.86751000  1.0
  H  H7  1  0.33346000  0.21165000  0.53438000  1.0
  H  H8  1  0.21219000  0.45478000  0.20117000  1.0
  H  H9  1  0.66666667  0.54531333  0.13223000  1.0
  H  H10  1  0.78857000  0.66623000  0.46568000  1.0
  H  H11  1  0.54530000  0.78781000  0.79870000  1.0
  H  H12  1  0.35375000  0.50989000  0.72228000  1.0
  H  H13  1  0.50993000  0.13641000  0.38905000  1.0
  H  H14  1  0.13633000  0.35402000  0.05567000  1.0
  H  H15  1  0.49038000  0.64601000  0.27768000  1.0
  H  H16  1  0.86356000  0.49012000  0.61096000  1.0
  H  H17  1  0.64609000  0.86357000  0.94423000  1.0
  H  H18  1  0.49857000  0.56667000  0.85244000  1.0
  H  H19  1  0.56655000  0.93507000  0.51880000  1.0
  H  H20  1  0.93535000  0.49845000  0.18599000  1.0
  H  H21  1  0.43361000  0.50150000  0.14728000  1.0
  H  H22  1  0.06519000  0.43329000  0.48114000  1.0
  H  H23  1  0.50165000  0.06458000  0.81424000  1.0
  H  H24  1  0.38621000  0.72052000  0.82328000  1.0
  H  H25  1  0.72033000  0.89389000  0.48967000  1.0
  H  H26  1  0.89356000  0.38642000  0.15663000  1.0
  H  H27  1  0.27978000  0.61356000  0.17668000  1.0
  H  H28  1  0.10634000  0.27951000  0.51030000  1.0
  H  H29  1  0.61398000  0.10603000  0.84361000  1.0
  H  H30  1  0.37027000  0.85317000  0.76628000  1.0
  H  H31  1  0.85237000  0.77584000  0.43264000  1.0
  H  H32  1  0.77659000  0.37044000  0.09952000  1.0
  H  H33  1  0.14701000  0.62960000  0.23375000  1.0
  H  H34  1  0.22416000  0.14763000  0.56729000  1.0
  H  H35  1  0.62805000  0.22412000  0.90072000  1.0
  H  H36  1  0.41711000  0.70428000  0.62009000  1.0
  H  H37  1  0.70366000  0.87673000  0.28663000  1.0
  H  H38  1  0.87825000  0.41713000  0.95346000  1.0
  H  H39  1  0.29576000  0.58284000  0.37984000  1.0
  H  H40  1  0.12294000  0.29670000  0.71334000  1.0
  H  H41  1  0.58032000  0.12328000  0.04663000  1.0
  H  H42  1  0.43384000  0.56496000  0.67042000  1.0
  H  H43  1  0.56473000  0.00085000  0.33700000  1.0
  H  H44  1  0.00111000  0.43387000  0.00388000  1.0
  H  H45  1  0.43519000  0.56606000  0.32946000  1.0
  H  H46  1  0.99903000  0.43549000  0.66300000  1.0
  H  H47  1  0.56545000  0.99911000  0.99619000  1.0
  H  H48  1  0.33776000  0.26853000  0.64350000  1.0
  H  H49  1  0.26856000  0.39208000  0.31030000  1.0
  H  H50  1  0.39317000  0.33784000  0.97690000  1.0
  H  H51  1  0.73135000  0.66222000  0.35650000  1.0
  H  H52  1  0.60752000  0.73177000  0.68976000  1.0
  H  H53  1  0.66064000  0.60805000  0.02303000  1.0
  H  H54  1  0.38805000  0.37749000  0.68069000  1.0
  H  H55  1  0.37781000  0.23346000  0.34760000  1.0
  H  H56  1  0.23413000  0.38832000  0.01419000  1.0
  H  H57  1  0.62254000  0.61184000  0.31918000  1.0
  H  H58  1  0.76629000  0.62230000  0.65244000  1.0
  H  H59  1  0.61116000  0.76661000  0.98561000  1.0
  H  H60  1  0.34279000  0.30479000  0.84586000  1.0
  H  H61  1  0.30422000  0.35278000  0.51268000  1.0
  H  H62  1  0.35301000  0.34274000  0.17928000  1.0
  H  H63  1  0.69550000  0.65730000  0.15412000  1.0
  H  H64  1  0.64746000  0.69554000  0.48737000  1.0
  H  H65  1  0.65711000  0.64685000  0.82063000  1.0
  H  H66  1  0.29610000  0.19783000  0.80103000  1.0
  H  H67  1  0.19674000  0.50589000  0.46764000  1.0
  H  H68  1  0.50644000  0.29588000  0.13436000  1.0
  H  H69  1  0.80233000  0.70404000  0.19906000  1.0
  H  H70  1  0.49418000  0.80326000  0.53244000  1.0
  H  H71  1  0.70278000  0.49381000  0.86578000  1.0
  H  H72  1  0.91160000  0.07469000  0.13894000  1.0
  H  H73  1  0.07461000  0.01404000  0.80579000  1.0
  H  H74  1  0.01438000  0.91073000  0.47224000  1.0
  H  H75  1  0.92489000  0.08909000  0.86132000  1.0
  H  H76  1  0.98635000  0.92519000  0.19445000  1.0
  H  H77  1  0.08933000  0.98570000  0.52780000  1.0
  H  H78  1  0.65210000  0.07485000  0.13954000  1.0
  H  H79  1  0.07473000  0.27335000  0.80639000  1.0
  H  H80  1  0.27338000  0.65110000  0.47331000  1.0
  H  H81  1  0.92441000  0.34872000  0.86019000  1.0
  H  H82  1  0.72691000  0.92521000  0.19376000  1.0
  H  H83  1  0.34889000  0.72659000  0.52667000  1.0
  H  H84  1  0.74225000  0.25291000  0.96532000  1.0
  H  H85  1  0.25298000  0.00471000  0.63199000  1.0
  H  H86  1  0.00597000  0.74165000  0.29768000  1.0
  H  H87  1  0.74756000  0.25824000  0.03569000  1.0
  H  H88  1  0.99540000  0.74699000  0.36804000  1.0
  H  H89  1  0.25823000  0.99421000  0.70235000  1.0
  C  C90  1  0.53092000  0.42335000  0.91981000  1.0
  C  C91  1  0.42330000  0.04573000  0.58641000  1.0
  C  C92  1  0.04635000  0.52999000  0.25369000  1.0
  C  C93  1  0.57619000  0.47000000  0.07966000  1.0
  C  C94  1  0.95443000  0.57656000  0.41360000  1.0
  C  C95  1  0.46995000  0.95375000  0.74638000  1.0
  C  C96  1  0.47852000  0.44961000  0.86551000  1.0
  C  C97  1  0.44949000  0.07205000  0.53217000  1.0
  C  C98  1  0.07251000  0.47834000  0.19918000  1.0
  C  C99  1  0.55063000  0.52168000  0.13416000  1.0
  C  C100  1  0.92816000  0.55029000  0.46782000  1.0
  C  C101  1  0.52173000  0.92748000  0.80082000  1.0
  C  C102  1  0.44423000  0.39420000  0.84370000  1.0
  C  C103  1  0.39409000  0.16171000  0.51053000  1.0
  C  C104  1  0.16208000  0.44422000  0.17734000  1.0
  C  C105  1  0.60607000  0.55586000  0.15605000  1.0
  C  C106  1  0.83845000  0.60568000  0.48951000  1.0
  C  C107  1  0.55588000  0.83791000  0.82254000  1.0
  C  C108  1  0.40130000  0.41337000  0.79123000  1.0
  C  C109  1  0.41334000  0.18536000  0.45811000  1.0
  C  C110  1  0.18557000  0.40150000  0.12478000  1.0
  C  C111  1  0.58691000  0.59862000  0.20860000  1.0
  C  C112  1  0.81470000  0.58654000  0.54193000  1.0
  C  C113  1  0.59861000  0.81444000  0.87506000  1.0
  C  C114  1  0.39075000  0.49141000  0.76194000  1.0
  C  C115  1  0.49144000  0.11798000  0.42870000  1.0
  C  C116  1  0.11798000  0.39095000  0.09539000  1.0
  C  C117  1  0.50886000  0.60909000  0.23795000  1.0
  C  C118  1  0.88206000  0.50854000  0.57131000  1.0
  C  C119  1  0.60925000  0.88191000  0.90452000  1.0
  C  C120  1  0.46856000  0.52627000  0.83541000  1.0
  C  C121  1  0.52618000  0.00545000  0.50193000  1.0
  C  C122  1  0.00565000  0.46852000  0.16893000  1.0
  C  C123  1  0.47399000  0.53148000  0.16436000  1.0
  C  C124  1  0.99476000  0.47367000  0.49803000  1.0
  C  C125  1  0.53161000  0.99425000  0.83116000  1.0
  C  C126  1  0.42355000  0.54861000  0.78361000  1.0
  C  C127  1  0.54862000  0.02807000  0.45020000  1.0
  C  C128  1  0.02808000  0.42365000  0.11705000  1.0
  C  C129  1  0.45167000  0.57631000  0.21626000  1.0
  C  C130  1  0.97205000  0.45134000  0.54978000  1.0
  C  C131  1  0.57651000  0.97179000  0.88299000  1.0
  C  C132  1  0.41239000  0.62988000  0.75190000  1.0
  C  C133  1  0.62973000  0.95778000  0.41836000  1.0
  C  C134  1  0.95784000  0.41249000  0.08530000  1.0
  C  C135  1  0.37036000  0.58744000  0.24801000  1.0
  C  C136  1  0.04229000  0.37032000  0.58162000  1.0
  C  C137  1  0.58730000  0.04217000  0.91487000  1.0
  C  C138  1  0.39488000  0.71296000  0.77829000  1.0
  C  C139  1  0.71269000  0.89226000  0.44471000  1.0
  C  C140  1  0.89232000  0.39501000  0.11165000  1.0
  C  C141  1  0.28727000  0.60494000  0.22167000  1.0
  C  C142  1  0.10784000  0.28728000  0.55526000  1.0
  C  C143  1  0.60475000  0.10767000  0.88856000  1.0
  C  C144  1  0.38616000  0.78734000  0.74676000  1.0
  C  C145  1  0.78668000  0.82587000  0.41316000  1.0
  C  C146  1  0.82652000  0.38630000  0.08008000  1.0
  C  C147  1  0.21285000  0.61369000  0.25323000  1.0
  C  C148  1  0.17413000  0.21335000  0.58680000  1.0
  C  C149  1  0.61238000  0.17409000  0.92015000  1.0
  C  C150  1  0.41082000  0.70438000  0.66520000  1.0
  C  C151  1  0.70372000  0.88350000  0.33170000  1.0
  C  C152  1  0.88464000  0.41088000  0.99857000  1.0
  C  C153  1  0.29575000  0.58908000  0.33473000  1.0
  C  C154  1  0.11633000  0.29650000  0.66827000  1.0
  C  C155  1  0.58709000  0.11649000  0.00156000  1.0
  C  C156  1  0.41922000  0.62757000  0.69360000  1.0
  C  C157  1  0.62726000  0.95274000  0.36011000  1.0
  C  C158  1  0.95316000  0.41927000  0.02701000  1.0
  C  C159  1  0.37260000  0.58066000  0.30630000  1.0
  C  C160  1  0.04718000  0.37292000  0.63987000  1.0
  C  C161  1  0.57984000  0.04723000  0.97311000  1.0
  C  C162  1  0.33866000  0.28032000  0.68808000  1.0
  C  C163  1  0.28014000  0.37990000  0.35489000  1.0
  C  C164  1  0.38077000  0.33872000  0.02149000  1.0
  C  C165  1  0.71968000  0.66132000  0.31191000  1.0
  C  C166  1  0.61986000  0.72004000  0.64517000  1.0
  C  C167  1  0.66001000  0.62012000  0.97843000  1.0
  C  C168  1  0.36643000  0.34083000  0.70932000  1.0
  C  C169  1  0.34087000  0.29192000  0.37618000  1.0
  C  C170  1  0.29255000  0.36663000  0.04279000  1.0
  C  C171  1  0.65924000  0.63349000  0.29061000  1.0
  C  C172  1  0.70789000  0.65920000  0.62387000  1.0
  C  C173  1  0.63270000  0.70808000  0.95708000  1.0
  C  C174  1  0.36970000  0.35168000  0.76714000  1.0
  C  C175  1  0.35152000  0.27841000  0.43401000  1.0
  C  C176  1  0.27875000  0.36988000  0.10062000  1.0
  C  C177  1  0.64854000  0.63023000  0.23278000  1.0
  C  C178  1  0.72157000  0.64842000  0.56603000  1.0
  C  C179  1  0.62985000  0.72144000  0.89923000  1.0
  C  C180  1  0.34326000  0.29916000  0.80067000  1.0
  C  C181  1  0.29870000  0.35753000  0.46749000  1.0
  C  C182  1  0.35791000  0.34330000  0.13409000  1.0
  C  C183  1  0.70107000  0.65676000  0.19931000  1.0
  C  C184  1  0.64254000  0.70120000  0.53256000  1.0
  C  C185  1  0.65625000  0.64221000  0.86582000  1.0
  C  C186  1  0.31666000  0.23980000  0.77631000  1.0
  C  C187  1  0.23909000  0.44317000  0.44304000  1.0
  C  C188  1  0.44377000  0.31659000  0.10966000  1.0
  C  C189  1  0.76037000  0.68339000  0.22374000  1.0
  C  C190  1  0.55684000  0.76094000  0.55701000  1.0
  C  C191  1  0.68231000  0.55660000  0.89034000  1.0
  C  C192  1  0.73559000  0.17127000  0.10181000  1.0
  C  C193  1  0.17115000  0.09339000  0.76855000  1.0
  C  C194  1  0.09327000  0.73501000  0.43527000  1.0
  C  C195  1  0.82810000  0.26490000  0.89817000  1.0
  C  C196  1  0.90687000  0.82871000  0.23157000  1.0
  C  C197  1  0.26502000  0.90675000  0.56476000  1.0
  C  C198  1  0.77763000  0.08374000  0.13624000  1.0
  C  C199  1  0.08360000  0.13898000  0.80307000  1.0
  C  C200  1  0.13917000  0.77676000  0.46972000  1.0
  C  C201  1  0.91573000  0.22307000  0.86379000  1.0
  C  C202  1  0.86138000  0.91623000  0.19712000  1.0
  C  C203  1  0.22327000  0.86086000  0.53029000  1.0
  C  C204  1  0.87198000  0.04133000  0.15158000  1.0
  C  C205  1  0.04118000  0.08707000  0.81841000  1.0
  C  C206  1  0.08735000  0.87122000  0.48493000  1.0
  C  C207  1  0.95831000  0.12860000  0.84860000  1.0
  C  C208  1  0.91336000  0.95858000  0.18180000  1.0
  C  C209  1  0.12884000  0.91271000  0.51510000  1.0
  C  C210  1  0.72542000  0.04155000  0.15163000  1.0
  C  C211  1  0.04130000  0.23346000  0.81843000  1.0
  C  C212  1  0.23358000  0.72459000  0.48512000  1.0
  C  C213  1  0.95791000  0.27525000  0.84834000  1.0
  C  C214  1  0.76696000  0.95847000  0.18170000  1.0
  C  C215  1  0.27542000  0.76642000  0.51487000  1.0
  N  N216  1  0.39557000  0.78331000  0.69098000  1.0
  N  N217  1  0.78230000  0.81965000  0.35746000  1.0
  N  N218  1  0.82099000  0.39569000  0.02431000  1.0
  N  N219  1  0.21683000  0.60431000  0.30900000  1.0
  N  N220  1  0.18023000  0.21783000  0.64250000  1.0
  N  N221  1  0.60180000  0.18034000  0.97584000  1.0
  N  N222  1  0.31436000  0.22987000  0.72074000  1.0
  N  N223  1  0.22931000  0.45476000  0.38749000  1.0
  N  N224  1  0.45572000  0.31429000  0.05410000  1.0
  N  N225  1  0.77019000  0.68564000  0.27930000  1.0
  N  N226  1  0.54511000  0.77086000  0.61255000  1.0
  N  N227  1  0.68406000  0.54517000  0.94589000  1.0
  O  O228  1  0.58722000  0.45303000  0.92756000  1.0
  O  O229  1  0.45302000  0.95978000  0.59395000  1.0
  O  O230  1  0.96003000  0.58593000  0.26153000  1.0
  O  O231  1  0.54582000  0.41402000  0.07176000  1.0
  O  O232  1  0.04040000  0.54688000  0.40600000  1.0
  O  O233  1  0.41400000  0.04006000  0.73868000  1.0
  O  O234  1  0.51452000  0.37209000  0.95225000  1.0
  O  O235  1  0.37205000  0.11332000  0.61902000  1.0
  O  O236  1  0.11309000  0.51355000  0.28677000  1.0
  O  O237  1  0.62656000  0.48638000  0.04668000  1.0
  O  O238  1  0.88682000  0.62786000  0.38110000  1.0
  O  O239  1  0.48633000  0.88706000  0.71324000  1.0
  O  O240  1  0.78753000  0.20432000  0.08814000  1.0
  O  O241  1  0.20419000  0.00839000  0.75481000  1.0
  O  O242  1  0.00886000  0.78769000  0.42073000  1.0
  O  O243  1  0.79637000  0.21223000  0.91270000  1.0
  O  O244  1  0.99188000  0.79565000  0.24528000  1.0
  O  O245  1  0.21233000  0.99119000  0.57935000  1.0
  O  O246  1  0.64993000  0.20542000  0.08700000  1.0
  O  O247  1  0.20527000  0.14486000  0.75370000  1.0
  O  O248  1  0.14333000  0.64862000  0.42150000  1.0
  O  O249  1  0.79181000  0.35131000  0.91189000  1.0
  O  O250  1  0.85537000  0.79459000  0.24636000  1.0
  O  O251  1  0.35137000  0.85666000  0.57853000  1.0
  O  O252  1  0.70888000  0.29196000  0.00048000  1.0
  O  O253  1  0.29202000  0.99907000  0.66715000  1.0
  O  O254  1  0.00107000  0.70791000  0.33288000  1.0
