# generated using pymatgen
data_CuH7C7N4O
_symmetry_space_group_name_H-M   'P 1'
_cell_length_a   4.82364000
_cell_length_b   8.72381000
_cell_length_c   19.36180000
_cell_angle_alpha   89.99950000
_cell_angle_beta   87.86800000
_cell_angle_gamma   89.99920000
_symmetry_Int_Tables_number   1
_chemical_formula_structural   CuH7C7N4O
_chemical_formula_sum   'Cu4 H28 C28 N16 O4'
_cell_volume   814.19059435
_cell_formula_units_Z   4
loop_
 _symmetry_equiv_pos_site_id
 _symmetry_equiv_pos_as_xyz
  1  'x, y, z'
loop_
 _atom_site_type_symbol
 _atom_site_label
 _atom_site_symmetry_multiplicity
 _atom_site_fract_x
 _atom_site_fract_y
 _atom_site_fract_z
 _atom_site_occupancy
  Cu  Cu0  1  0.26992000  0.25571000  0.73226000  1.0
  Cu  Cu1  1  0.73009000  0.75571000  0.76774000  1.0
  Cu  Cu2  1  0.73007000  0.74429000  0.26774000  1.0
  Cu  Cu3  1  0.26990000  0.24430000  0.23226000  1.0
  H  H4  1  0.36877000  0.08078000  0.60392000  1.0
  H  H5  1  0.63125000  0.58077000  0.89608000  1.0
  H  H6  1  0.63123000  0.91923000  0.39608000  1.0
  H  H7  1  0.36876000  0.41922000  0.10392000  1.0
  H  H8  1  0.23646000  0.09491000  0.48035000  1.0
  H  H9  1  0.76356000  0.59491000  0.01965000  1.0
  H  H10  1  0.76355000  0.90510000  0.51965000  1.0
  H  H11  1  0.23646000  0.40509000  0.98035000  1.0
  H  H12  1  0.63735000  0.44216000  0.54222000  1.0
  H  H13  1  0.36264000  0.94216000  0.95778000  1.0
  H  H14  1  0.36264000  0.55784000  0.45778000  1.0
  H  H15  1  0.63736000  0.05784000  0.04222000  1.0
  H  H16  1  0.80053000  0.41711000  0.66176000  1.0
  H  H17  1  0.19948000  0.91711000  0.83824000  1.0
  H  H18  1  0.19947000  0.58289000  0.33824000  1.0
  H  H19  1  0.80052000  0.08289000  0.16176000  1.0
  H  H20  1  0.22260000  0.26441000  0.38487000  1.0
  H  H21  1  0.77738000  0.76441000  0.11513000  1.0
  H  H22  1  0.77739000  0.73559000  0.61513000  1.0
  H  H23  1  0.22262000  0.23559000  0.88487000  1.0
  H  H24  1  0.83650000  0.38243000  0.30207000  1.0
  H  H25  1  0.16347000  0.88243000  0.19793000  1.0
  H  H26  1  0.16350000  0.61757000  0.69793000  1.0
  H  H27  1  0.83652000  0.11757000  0.80207000  1.0
  H  H28  1  0.78299000  0.19859000  0.29897000  1.0
  H  H29  1  0.21700000  0.69858000  0.20104000  1.0
  H  H30  1  0.21701000  0.80142000  0.70103000  1.0
  H  H31  1  0.78300000  0.30142000  0.79896000  1.0
  C  C32  1  0.20996000  0.16053000  0.58738000  1.0
  C  C33  1  0.79005000  0.66053000  0.91262000  1.0
  C  C34  1  0.79004000  0.83947000  0.41262000  1.0
  C  C35  1  0.20996000  0.33947000  0.08738000  1.0
  C  C36  1  0.13510000  0.16895000  0.51883000  1.0
  C  C37  1  0.86491000  0.66894000  0.98117000  1.0
  C  C38  1  0.86491000  0.83106000  0.48117000  1.0
  C  C39  1  0.13509000  0.33105000  0.01883000  1.0
  C  C40  1  0.92611000  0.27137000  0.50079000  1.0
  C  C41  1  0.07389000  0.77137000  0.99921000  1.0
  C  C42  1  0.07389000  0.72863000  0.49921000  1.0
  C  C43  1  0.92612000  0.22863000  0.00079000  1.0
  C  C44  1  0.80136000  0.36096000  0.55321000  1.0
  C  C45  1  0.19864000  0.86096000  0.94679000  1.0
  C  C46  1  0.19863000  0.63904000  0.44679000  1.0
  C  C47  1  0.80136000  0.13903000  0.05321000  1.0
  C  C48  1  0.89294000  0.34791000  0.62014000  1.0
  C  C49  1  0.10706000  0.84790000  0.87987000  1.0
  C  C50  1  0.10705000  0.65210000  0.37987000  1.0
  C  C51  1  0.89294000  0.15210000  0.12013000  1.0
  C  C52  1  0.82361000  0.28515000  0.42917000  1.0
  C  C53  1  0.17639000  0.78515000  0.07084000  1.0
  C  C54  1  0.17640000  0.71485000  0.57083000  1.0
  C  C55  1  0.82361000  0.21484000  0.92916000  1.0
  C  C56  1  0.43819000  0.43878000  0.75592000  1.0
  C  C57  1  0.56183000  0.93878000  0.74409000  1.0
  C  C58  1  0.56181000  0.56122000  0.24409000  1.0
  C  C59  1  0.43817000  0.06121000  0.25592000  1.0
  N  N60  1  0.09469000  0.24951000  0.63768000  1.0
  N  N61  1  0.90533000  0.74950000  0.86232000  1.0
  N  N62  1  0.90532000  0.75049000  0.36232000  1.0
  N  N63  1  0.09467000  0.25049000  0.13768000  1.0
  N  N64  1  0.01323000  0.26356000  0.37692000  1.0
  N  N65  1  0.98676000  0.76356000  0.12308000  1.0
  N  N66  1  0.98677000  0.73645000  0.62308000  1.0
  N  N67  1  0.01324000  0.23644000  0.87692000  1.0
  N  N68  1  0.93460000  0.27870000  0.30775000  1.0
  N  N69  1  0.06538000  0.77870000  0.19225000  1.0
  N  N70  1  0.06540000  0.72131000  0.69225000  1.0
  N  N71  1  0.93462000  0.22130000  0.80775000  1.0
  N  N72  1  0.55082000  0.55612000  0.76700000  1.0
  N  N73  1  0.44920000  0.05613000  0.73300000  1.0
  N  N74  1  0.44919000  0.44388000  0.23300000  1.0
  N  N75  1  0.55078000  0.94388000  0.26700000  1.0
  O  O76  1  0.57492000  0.31462000  0.41896000  1.0
  O  O77  1  0.42507000  0.81462000  0.08104000  1.0
  O  O78  1  0.42507000  0.68539000  0.58104000  1.0
  O  O79  1  0.57494000  0.18537000  0.91896000  1.0
