# generated using pymatgen
data_HgH7C7(IN)2
_symmetry_space_group_name_H-M   'P 1'
_cell_length_a   4.35369000
_cell_length_b   12.52080000
_cell_length_c   20.02630000
_cell_angle_alpha   89.99990000
_cell_angle_beta   90.00000000
_cell_angle_gamma   95.66090000
_symmetry_Int_Tables_number   1
_chemical_formula_structural   HgH7C7(IN)2
_chemical_formula_sum   'Hg4 H28 C28 I8 N8'
_cell_volume   1086.34335797
_cell_formula_units_Z   4
loop_
 _symmetry_equiv_pos_site_id
 _symmetry_equiv_pos_as_xyz
  1  'x, y, z'
loop_
 _atom_site_type_symbol
 _atom_site_label
 _atom_site_symmetry_multiplicity
 _atom_site_fract_x
 _atom_site_fract_y
 _atom_site_fract_z
 _atom_site_occupancy
  Hg  Hg0  1  0.59592000  0.52049000  0.68895000  1.0
  Hg  Hg1  1  0.40408000  0.97951000  0.18895000  1.0
  Hg  Hg2  1  0.40410000  0.47950000  0.31105000  1.0
  Hg  Hg3  1  0.59590000  0.02049000  0.81105000  1.0
  H  H4  1  0.05403000  0.83965000  0.42928000  1.0
  H  H5  1  0.94597000  0.66036000  0.92927000  1.0
  H  H6  1  0.94596000  0.16034000  0.57073000  1.0
  H  H7  1  0.05404000  0.33966000  0.07072000  1.0
  H  H8  1  0.71076000  0.98296000  0.60728000  1.0
  H  H9  1  0.28923000  0.51704000  0.10728000  1.0
  H  H10  1  0.28923000  0.01704000  0.39272000  1.0
  H  H11  1  0.71077000  0.48297000  0.89271000  1.0
  H  H12  1  0.03602000  0.73189000  0.68977000  1.0
  H  H13  1  0.96398000  0.76811000  0.18977000  1.0
  H  H14  1  0.96399000  0.26812000  0.31024000  1.0
  H  H15  1  0.03600000  0.23188000  0.81023000  1.0
  H  H16  1  0.82346000  0.84519000  0.69127000  1.0
  H  H17  1  0.17653000  0.65480000  0.19127000  1.0
  H  H18  1  0.17654000  0.15481000  0.30873000  1.0
  H  H19  1  0.82343000  0.34519000  0.80872000  1.0
  H  H20  1  0.15749000  0.84719000  0.64063000  1.0
  H  H21  1  0.84251000  0.65280000  0.14063000  1.0
  H  H22  1  0.84251000  0.15281000  0.35937000  1.0
  H  H23  1  0.15749000  0.34719000  0.85936000  1.0
  H  H24  1  0.32178000  0.56519000  0.52756000  1.0
  H  H25  1  0.67824000  0.93480000  0.02757000  1.0
  H  H26  1  0.67823000  0.43480000  0.47244000  1.0
  H  H27  1  0.32179000  0.06521000  0.97244000  1.0
  H  H28  1  0.49044000  0.74749000  0.45089000  1.0
  H  H29  1  0.50956000  0.75251000  0.95089000  1.0
  H  H30  1  0.50956000  0.25250000  0.54911000  1.0
  H  H31  1  0.49046000  0.24751000  0.04911000  1.0
  C  C32  1  0.87029000  0.89971000  0.52081000  1.0
  C  C33  1  0.12971000  0.60030000  0.02081000  1.0
  C  C34  1  0.12970000  0.10028000  0.47919000  1.0
  C  C35  1  0.87031000  0.39972000  0.97918000  1.0
  C  C36  1  0.02885000  0.91000000  0.46012000  1.0
  C  C37  1  0.97115000  0.59000000  0.96011000  1.0
  C  C38  1  0.97113000  0.08999000  0.53989000  1.0
  C  C39  1  0.02887000  0.41001000  0.03988000  1.0
  C  C40  1  0.84070000  0.98958000  0.56069000  1.0
  C  C41  1  0.15930000  0.51043000  0.06068000  1.0
  C  C42  1  0.15928000  0.01041000  0.43932000  1.0
  C  C43  1  0.84074000  0.48959000  0.93931000  1.0
  C  C44  1  0.95595000  0.79578000  0.65871000  1.0
  C  C45  1  0.04405000  0.70422000  0.15871000  1.0
  C  C46  1  0.04405000  0.20422000  0.34130000  1.0
  C  C47  1  0.95594000  0.29577000  0.84129000  1.0
  C  C48  1  0.76762000  0.74843000  0.60239000  1.0
  C  C49  1  0.23237000  0.75157000  0.10239000  1.0
  C  C50  1  0.23237000  0.25157000  0.39762000  1.0
  C  C51  1  0.76763000  0.24843000  0.89761000  1.0
  C  C52  1  0.46934000  0.63744000  0.53972000  1.0
  C  C53  1  0.53066000  0.86256000  0.03972000  1.0
  C  C54  1  0.53068000  0.36255000  0.46029000  1.0
  C  C55  1  0.46933000  0.13745000  0.96028000  1.0
  C  C56  1  0.54875000  0.72654000  0.50147000  1.0
  C  C57  1  0.45122000  0.77347000  0.00146000  1.0
  C  C58  1  0.45123000  0.27345000  0.49854000  1.0
  C  C59  1  0.54878000  0.22655000  0.99854000  1.0
  I  I60  1  0.37449000  0.61089000  0.79836000  1.0
  I  I61  1  0.62551000  0.88911000  0.29836000  1.0
  I  I62  1  0.62551000  0.38911000  0.20164000  1.0
  I  I63  1  0.37449000  0.11088000  0.70164000  1.0
  I  I64  1  0.00879000  0.38899000  0.63869000  1.0
  I  I65  1  0.99121000  0.11100000  0.13869000  1.0
  I  I66  1  0.99123000  0.61101000  0.36131000  1.0
  I  I67  1  0.00878000  0.88899000  0.86131000  1.0
  N  N68  1  0.60748000  0.65195000  0.60160000  1.0
  N  N69  1  0.39253000  0.84805000  0.10160000  1.0
  N  N70  1  0.39253000  0.34805000  0.39841000  1.0
  N  N71  1  0.60747000  0.15195000  0.89840000  1.0
  N  N72  1  0.73475000  0.79679000  0.54146000  1.0
  N  N73  1  0.26523000  0.70321000  0.04146000  1.0
  N  N74  1  0.26524000  0.20320000  0.45854000  1.0
  N  N75  1  0.73477000  0.29680000  0.95854000  1.0
