# generated using pymatgen
data_Cu2H28C21IN9
_symmetry_space_group_name_H-M   'P 1'
_cell_length_a   11.32150000
_cell_length_b   14.58300000
_cell_length_c   16.67670000
_cell_angle_alpha   90.00000000
_cell_angle_beta   89.99990000
_cell_angle_gamma   89.99990000
_symmetry_Int_Tables_number   1
_chemical_formula_structural   Cu2H28C21IN9
_chemical_formula_sum   'Cu8 H112 C84 I4 N36'
_cell_volume   2753.34709272
_cell_formula_units_Z   4
loop_
 _symmetry_equiv_pos_site_id
 _symmetry_equiv_pos_as_xyz
  1  'x, y, z'
loop_
 _atom_site_type_symbol
 _atom_site_label
 _atom_site_symmetry_multiplicity
 _atom_site_fract_x
 _atom_site_fract_y
 _atom_site_fract_z
 _atom_site_occupancy
  Cu  Cu0  1  0.68874000  0.52001000  0.25000000  1.0
  Cu  Cu1  1  0.31126000  0.47999000  0.75000000  1.0
  Cu  Cu2  1  0.18874000  0.97999000  0.25000000  1.0
  Cu  Cu3  1  0.81126000  0.02001000  0.75000000  1.0
  Cu  Cu4  1  0.56779000  0.81505000  0.25000000  1.0
  Cu  Cu5  1  0.43221000  0.18495000  0.75000000  1.0
  Cu  Cu6  1  0.06779000  0.68495000  0.25000000  1.0
  Cu  Cu7  1  0.93221000  0.31505000  0.75000000  1.0
  H  H8  1  0.48333000  0.47246000  0.35333000  1.0
  H  H9  1  0.51667000  0.52754000  0.85333000  1.0
  H  H10  1  0.98333000  0.02754000  0.14667000  1.0
  H  H11  1  0.01666000  0.97246000  0.64667000  1.0
  H  H12  1  0.51667000  0.52754000  0.64667000  1.0
  H  H13  1  0.48333000  0.47246000  0.14667000  1.0
  H  H14  1  0.01667000  0.97246000  0.85333000  1.0
  H  H15  1  0.98333000  0.02754000  0.35333000  1.0
  H  H16  1  0.76218000  0.17384000  0.67291000  1.0
  H  H17  1  0.23782000  0.82616000  0.17291000  1.0
  H  H18  1  0.26218000  0.32616000  0.82709000  1.0
  H  H19  1  0.73782000  0.67384000  0.32709000  1.0
  H  H20  1  0.23781000  0.82616000  0.32709000  1.0
  H  H21  1  0.76218000  0.17384000  0.82709000  1.0
  H  H22  1  0.73782000  0.67384000  0.17291000  1.0
  H  H23  1  0.26218000  0.32616000  0.67291000  1.0
  H  H24  1  0.88038000  0.39335000  0.32497000  1.0
  H  H25  1  0.11962000  0.60666000  0.82497000  1.0
  H  H26  1  0.38037000  0.10665000  0.17503000  1.0
  H  H27  1  0.61962000  0.89335000  0.67503000  1.0
  H  H28  1  0.11962000  0.60666000  0.67503000  1.0
  H  H29  1  0.88038000  0.39335000  0.17503000  1.0
  H  H30  1  0.61962000  0.89335000  0.82497000  1.0
  H  H31  1  0.38037000  0.10666000  0.32496000  1.0
  H  H32  1  0.89982000  0.34387000  0.42238000  1.0
  H  H33  1  0.10018000  0.65613000  0.92238000  1.0
  H  H34  1  0.39982000  0.15613000  0.07762000  1.0
  H  H35  1  0.60017000  0.84387000  0.57762000  1.0
  H  H36  1  0.10018000  0.65613000  0.57762000  1.0
  H  H37  1  0.89982000  0.34387000  0.07762000  1.0
  H  H38  1  0.60018000  0.84387000  0.92238000  1.0
  H  H39  1  0.39982000  0.15613000  0.42238000  1.0
  H  H40  1  0.90990000  0.46415000  0.40817000  1.0
  H  H41  1  0.09010000  0.53585000  0.90817000  1.0
  H  H42  1  0.40990000  0.03585000  0.09183000  1.0
  H  H43  1  0.59010000  0.96415000  0.59183000  1.0
  H  H44  1  0.09010000  0.53585000  0.59183000  1.0
  H  H45  1  0.90990000  0.46415000  0.09183000  1.0
  H  H46  1  0.59011000  0.96415000  0.90817000  1.0
  H  H47  1  0.40990000  0.03585000  0.40816000  1.0
  H  H48  1  0.37620000  0.43108000  0.49564000  1.0
  H  H49  1  0.62380000  0.56892000  0.99564000  1.0
  H  H50  1  0.87620000  0.06892000  0.00436000  1.0
  H  H51  1  0.12380000  0.93108000  0.50437000  1.0
  H  H52  1  0.62380000  0.56892000  0.50437000  1.0
  H  H53  1  0.37620000  0.43108000  0.00437000  1.0
  H  H54  1  0.12380000  0.93108000  0.99563000  1.0
  H  H55  1  0.87620000  0.06892000  0.49563000  1.0
  H  H56  1  0.46101000  0.36301000  0.56300000  1.0
  H  H57  1  0.53899000  0.63699000  0.06300000  1.0
  H  H58  1  0.96100000  0.13699000  0.93700000  1.0
  H  H59  1  0.03899000  0.86301000  0.43700000  1.0
  H  H60  1  0.53900000  0.63699000  0.43700000  1.0
  H  H61  1  0.46101000  0.36301000  0.93700000  1.0
  H  H62  1  0.03899000  0.86301000  0.06300000  1.0
  H  H63  1  0.96101000  0.13699000  0.56300000  1.0
  H  H64  1  0.39530000  0.31192000  0.47747000  1.0
  H  H65  1  0.60471000  0.68807000  0.97746000  1.0
  H  H66  1  0.89529000  0.18807000  0.02254000  1.0
  H  H67  1  0.10471000  0.81192000  0.52254000  1.0
  H  H68  1  0.60471000  0.68807000  0.52254000  1.0
  H  H69  1  0.39529000  0.31192000  0.02254000  1.0
  H  H70  1  0.10471000  0.81192000  0.97746000  1.0
  H  H71  1  0.89529000  0.18807000  0.47746000  1.0
  H  H72  1  0.65283000  0.10044000  0.54840000  1.0
  H  H73  1  0.34717000  0.89956000  0.04840000  1.0
  H  H74  1  0.15283000  0.39956000  0.95160000  1.0
  H  H75  1  0.84717000  0.60044000  0.45160000  1.0
  H  H76  1  0.34717000  0.89956000  0.45160000  1.0
  H  H77  1  0.65283000  0.10044000  0.95160000  1.0
  H  H78  1  0.84717000  0.60044000  0.04840000  1.0
  H  H79  1  0.15283000  0.39956000  0.54840000  1.0
  H  H80  1  0.60285000  0.17784000  0.47274000  1.0
  H  H81  1  0.39715000  0.82216000  0.97274000  1.0
  H  H82  1  0.10285000  0.32217000  0.02726000  1.0
  H  H83  1  0.89715000  0.67783000  0.52726000  1.0
  H  H84  1  0.39715000  0.82217000  0.52725000  1.0
  H  H85  1  0.60285000  0.17784000  0.02726000  1.0
  H  H86  1  0.89715000  0.67783000  0.97275000  1.0
  H  H87  1  0.10285000  0.32217000  0.47274000  1.0
  H  H88  1  0.52757000  0.17070000  0.56652000  1.0
  H  H89  1  0.47243000  0.82930000  0.06652000  1.0
  H  H90  1  0.02757000  0.32930000  0.93348000  1.0
  H  H91  1  0.97243000  0.67070000  0.43348000  1.0
  H  H92  1  0.47243000  0.82930000  0.43348000  1.0
  H  H93  1  0.52757000  0.17070000  0.93348000  1.0
  H  H94  1  0.97243000  0.67070000  0.06652000  1.0
  H  H95  1  0.02757000  0.32930000  0.56652000  1.0
  H  H96  1  0.77512000  0.51238000  0.61927000  1.0
  H  H97  1  0.22487000  0.48762000  0.11927000  1.0
  H  H98  1  0.27513000  0.98762000  0.88073000  1.0
  H  H99  1  0.72487000  0.01238000  0.38073000  1.0
  H  H100  1  0.22487000  0.48762000  0.38073000  1.0
  H  H101  1  0.77513000  0.51238000  0.88073000  1.0
  H  H102  1  0.72488000  0.01238000  0.11927000  1.0
  H  H103  1  0.27513000  0.98762000  0.61927000  1.0
  H  H104  1  0.88119000  0.48531000  0.54494000  1.0
  H  H105  1  0.11880000  0.51469000  0.04493000  1.0
  H  H106  1  0.38120000  0.01469000  0.95506000  1.0
  H  H107  1  0.61881000  0.98531000  0.45507000  1.0
  H  H108  1  0.11880000  0.51469000  0.45507000  1.0
  H  H109  1  0.88119000  0.48531000  0.95506000  1.0
  H  H110  1  0.61881000  0.98531000  0.04493000  1.0
  H  H111  1  0.38120000  0.01469000  0.54493000  1.0
  H  H112  1  0.91428000  0.46656000  0.64848000  1.0
  H  H113  1  0.08571000  0.53344000  0.14848000  1.0
  H  H114  1  0.41429000  0.03344000  0.85152000  1.0
  H  H115  1  0.58571000  0.96656000  0.35152000  1.0
  H  H116  1  0.08571000  0.53344000  0.35152000  1.0
  H  H117  1  0.91429000  0.46656000  0.85152000  1.0
  H  H118  1  0.58572000  0.96656000  0.14848000  1.0
  H  H119  1  0.41429000  0.03344000  0.64848000  1.0
  C  C120  1  0.86245000  0.40203000  0.38920000  1.0
  C  C121  1  0.13755000  0.59797000  0.88920000  1.0
  C  C122  1  0.36245000  0.09797000  0.11080000  1.0
  C  C123  1  0.63754000  0.90203000  0.61080000  1.0
  C  C124  1  0.13755000  0.59797000  0.61080000  1.0
  C  C125  1  0.86245000  0.40203000  0.11080000  1.0
  C  C126  1  0.63754000  0.90203000  0.88920000  1.0
  C  C127  1  0.36246000  0.09797000  0.38920000  1.0
  C  C128  1  0.73299000  0.40863000  0.40431000  1.0
  C  C129  1  0.26701000  0.59137000  0.90431000  1.0
  C  C130  1  0.23299000  0.09137000  0.09569000  1.0
  C  C131  1  0.76701000  0.90863000  0.59569000  1.0
  C  C132  1  0.26701000  0.59137000  0.59569000  1.0
  C  C133  1  0.73299000  0.40863000  0.09569000  1.0
  C  C134  1  0.76701000  0.90863000  0.90431000  1.0
  C  C135  1  0.23299000  0.09137000  0.40431000  1.0
  C  C136  1  0.66763000  0.37461000  0.47088000  1.0
  C  C137  1  0.33238000  0.62539000  0.97088000  1.0
  C  C138  1  0.16763000  0.12539000  0.02912000  1.0
  C  C139  1  0.83237000  0.87460000  0.52912000  1.0
  C  C140  1  0.33238000  0.62539000  0.52912000  1.0
  C  C141  1  0.66763000  0.37461000  0.02912000  1.0
  C  C142  1  0.83237000  0.87461000  0.97088000  1.0
  C  C143  1  0.16763000  0.12539000  0.47088000  1.0
  C  C144  1  0.54917000  0.39421000  0.45365000  1.0
  C  C145  1  0.45083000  0.60579000  0.95365000  1.0
  C  C146  1  0.04917000  0.10579000  0.04635000  1.0
  C  C147  1  0.95083000  0.89421000  0.54635000  1.0
  C  C148  1  0.45084000  0.60579000  0.54635000  1.0
  C  C149  1  0.54917000  0.39421000  0.04635000  1.0
  C  C150  1  0.95083000  0.89421000  0.95365000  1.0
  C  C151  1  0.04917000  0.10579000  0.45365000  1.0
  C  C152  1  0.43962000  0.37421000  0.49951000  1.0
  C  C153  1  0.56038000  0.62578000  0.99951000  1.0
  C  C154  1  0.93962000  0.12578000  0.00049000  1.0
  C  C155  1  0.06038000  0.87421000  0.50049000  1.0
  C  C156  1  0.56038000  0.62579000  0.50049000  1.0
  C  C157  1  0.43962000  0.37421000  0.00049000  1.0
  C  C158  1  0.06038000  0.87421000  0.99951000  1.0
  C  C159  1  0.93962000  0.12579000  0.49951000  1.0
  C  C160  1  0.61481000  0.16851000  0.53754000  1.0
  C  C161  1  0.38519000  0.83149000  0.03754000  1.0
  C  C162  1  0.11481000  0.33149000  0.96245000  1.0
  C  C163  1  0.88519000  0.66851000  0.46245000  1.0
  C  C164  1  0.38519000  0.83149000  0.46245000  1.0
  C  C165  1  0.61481000  0.16851000  0.96246000  1.0
  C  C166  1  0.88519000  0.66851000  0.03755000  1.0
  C  C167  1  0.11481000  0.33149000  0.53754000  1.0
  C  C168  1  0.69298000  0.24142000  0.56977000  1.0
  C  C169  1  0.30702000  0.75858000  0.06977000  1.0
  C  C170  1  0.19298000  0.25858000  0.93023000  1.0
  C  C171  1  0.80702000  0.74141000  0.43023000  1.0
  C  C172  1  0.30702000  0.75858000  0.43023000  1.0
  C  C173  1  0.69298000  0.24142000  0.93023000  1.0
  C  C174  1  0.80702000  0.74141000  0.06977000  1.0
  C  C175  1  0.19298000  0.25859000  0.56977000  1.0
  C  C176  1  0.71550000  0.33038000  0.54237000  1.0
  C  C177  1  0.28450000  0.66962000  0.04237000  1.0
  C  C178  1  0.21550000  0.16961000  0.95763000  1.0
  C  C179  1  0.78450000  0.83038000  0.45763000  1.0
  C  C180  1  0.28450000  0.66962000  0.45763000  1.0
  C  C181  1  0.71550000  0.33038000  0.95763000  1.0
  C  C182  1  0.78450000  0.83038000  0.04237000  1.0
  C  C183  1  0.21550000  0.16962000  0.54237000  1.0
  C  C184  1  0.79630000  0.36827000  0.59850000  1.0
  C  C185  1  0.20370000  0.63172000  0.09850000  1.0
  C  C186  1  0.29630000  0.13172000  0.90149000  1.0
  C  C187  1  0.70370000  0.86827000  0.40150000  1.0
  C  C188  1  0.20370000  0.63172000  0.40150000  1.0
  C  C189  1  0.79630000  0.36827000  0.90150000  1.0
  C  C190  1  0.70370000  0.86827000  0.09850000  1.0
  C  C191  1  0.29630000  0.13173000  0.59850000  1.0
  C  C192  1  0.84468000  0.46308000  0.60272000  1.0
  C  C193  1  0.15532000  0.53692000  0.10272000  1.0
  C  C194  1  0.34468000  0.03692000  0.89727000  1.0
  C  C195  1  0.65532000  0.96308000  0.39728000  1.0
  C  C196  1  0.15532000  0.53692000  0.39728000  1.0
  C  C197  1  0.84468000  0.46308000  0.89728000  1.0
  C  C198  1  0.65532000  0.96308000  0.10272000  1.0
  C  C199  1  0.34468000  0.03692000  0.60272000  1.0
  C  C200  1  0.92878000  0.61938000  0.25000000  1.0
  C  C201  1  0.07122000  0.38062000  0.75000000  1.0
  C  C202  1  0.42878000  0.88062000  0.25000000  1.0
  C  C203  1  0.57121000  0.11938000  0.75000000  1.0
  I  I204  1  0.48912000  0.62292000  0.25000000  1.0
  I  I205  1  0.51088000  0.37708000  0.75000000  1.0
  I  I206  1  0.98912000  0.87707000  0.25000000  1.0
  I  I207  1  0.01089000  0.12292000  0.75000000  1.0
  N  N208  1  0.65968000  0.44785000  0.35101000  1.0
  N  N209  1  0.34032000  0.55215000  0.85101000  1.0
  N  N210  1  0.15968000  0.05215000  0.14899000  1.0
  N  N211  1  0.84032000  0.94785000  0.64899000  1.0
  N  N212  1  0.34032000  0.55215000  0.64899000  1.0
  N  N213  1  0.65968000  0.44785000  0.14899000  1.0
  N  N214  1  0.84032000  0.94785000  0.85101000  1.0
  N  N215  1  0.15968000  0.05215000  0.35101000  1.0
  N  N216  1  0.54957000  0.43728000  0.38147000  1.0
  N  N217  1  0.45043000  0.56272000  0.88147000  1.0
  N  N218  1  0.04957000  0.06272000  0.11853000  1.0
  N  N219  1  0.95043000  0.93728000  0.61853000  1.0
  N  N220  1  0.45043000  0.56272000  0.61853000  1.0
  N  N221  1  0.54957000  0.43728000  0.11853000  1.0
  N  N222  1  0.95043000  0.93728000  0.88147000  1.0
  N  N223  1  0.04957000  0.06272000  0.38147000  1.0
  N  N224  1  0.82271000  0.30571000  0.65512000  1.0
  N  N225  1  0.17729000  0.69429000  0.15512000  1.0
  N  N226  1  0.32271000  0.19429000  0.84488000  1.0
  N  N227  1  0.67729000  0.80571000  0.34488000  1.0
  N  N228  1  0.17729000  0.69429000  0.34488000  1.0
  N  N229  1  0.82271000  0.30571000  0.84488000  1.0
  N  N230  1  0.67729000  0.80571000  0.15512000  1.0
  N  N231  1  0.32271000  0.19429000  0.65512000  1.0
  N  N232  1  0.75909000  0.23025000  0.63645000  1.0
  N  N233  1  0.24091000  0.76975000  0.13645000  1.0
  N  N234  1  0.25909000  0.26975000  0.86355000  1.0
  N  N235  1  0.74091000  0.73025000  0.36355000  1.0
  N  N236  1  0.24091000  0.76975000  0.36355000  1.0
  N  N237  1  0.75909000  0.23025000  0.86355000  1.0
  N  N238  1  0.74091000  0.73025000  0.13645000  1.0
  N  N239  1  0.25909000  0.26975000  0.63645000  1.0
  N  N240  1  0.83554000  0.58251000  0.25000000  1.0
  N  N241  1  0.16447000  0.41749000  0.75000000  1.0
  N  N242  1  0.33553000  0.91749000  0.25000000  1.0
  N  N243  1  0.66447000  0.08251000  0.75000000  1.0
