# generated using pymatgen
data_GaH9C14O5
_symmetry_space_group_name_H-M   'P 1'
_cell_length_a   6.80250000
_cell_length_b   9.40745000
_cell_length_c   10.94630000
_cell_angle_alpha   90.29970000
_cell_angle_beta   90.06490000
_cell_angle_gamma   111.13300000
_symmetry_Int_Tables_number   1
_chemical_formula_structural   GaH9C14O5
_chemical_formula_sum   'Ga2 H18 C28 O10'
_cell_volume   653.37575127
_cell_formula_units_Z   2
loop_
 _symmetry_equiv_pos_site_id
 _symmetry_equiv_pos_as_xyz
  1  'x, y, z'
loop_
 _atom_site_type_symbol
 _atom_site_label
 _atom_site_symmetry_multiplicity
 _atom_site_fract_x
 _atom_site_fract_y
 _atom_site_fract_z
 _atom_site_occupancy
  Ga  Ga0  1  0.50000000  0.50000000  0.50000000  1.0
  Ga  Ga1  1  0.00000000  0.50000000  0.50000000  1.0
  H  H2  1  0.81225000  0.62530000  0.37092000  1.0
  H  H3  1  0.18775000  0.37470000  0.62908000  1.0
  H  H4  1  0.83868000  0.67578000  0.90545000  1.0
  H  H5  1  0.16133000  0.32422000  0.09454000  1.0
  H  H6  1  0.81692000  0.63318000  0.13033000  1.0
  H  H7  1  0.18309000  0.36682000  0.86967000  1.0
  H  H8  1  0.68512000  0.37066000  0.21142000  1.0
  H  H9  1  0.31490000  0.62934000  0.78858000  1.0
  H  H10  1  0.57398000  0.14842000  0.06953000  1.0
  H  H11  1  0.42602000  0.85158000  0.93047000  1.0
  H  H12  1  0.25457000  0.14091000  0.81003000  1.0
  H  H13  1  0.11323000  0.85896000  0.19071000  1.0
  H  H14  1  0.74542000  0.85908000  0.18997000  1.0
  H  H15  1  0.88676000  0.14104000  0.80929000  1.0
  H  H16  1  0.14471000  0.92005000  0.66403000  1.0
  H  H17  1  0.22507000  0.07995000  0.33657000  1.0
  H  H18  1  0.85529000  0.07994000  0.33597000  1.0
  H  H19  1  0.77494000  0.92006000  0.66343000  1.0
  C  C20  1  0.73097000  0.46079000  0.72664000  1.0
  C  C21  1  0.26903000  0.53921000  0.27336000  1.0
  C  C22  1  0.71848000  0.43583000  0.86196000  1.0
  C  C23  1  0.28152000  0.56417000  0.13803000  1.0
  C  C24  1  0.78088000  0.56058000  0.94209000  1.0
  C  C25  1  0.21913000  0.43942000  0.05791000  1.0
  C  C26  1  0.76850000  0.53644000  0.06755000  1.0
  C  C27  1  0.23152000  0.46356000  0.93244000  1.0
  C  C28  1  0.69424000  0.38853000  0.11328000  1.0
  C  C29  1  0.30577000  0.61147000  0.88672000  1.0
  C  C30  1  0.63200000  0.26408000  0.03353000  1.0
  C  C31  1  0.36800000  0.73592000  0.96647000  1.0
  C  C32  1  0.64338000  0.28632000  0.90683000  1.0
  C  C33  1  0.35661000  0.71368000  0.09317000  1.0
  C  C34  1  0.57770000  0.15505000  0.81997000  1.0
  C  C35  1  0.42229000  0.84495000  0.18003000  1.0
  C  C36  1  0.36893000  0.09279000  0.77760000  1.0
  C  C37  1  0.27595000  0.90712000  0.22282000  1.0
  C  C38  1  0.63106000  0.90721000  0.22240000  1.0
  C  C39  1  0.72404000  0.09288000  0.77719000  1.0
  C  C40  1  0.30707000  0.97040000  0.69610000  1.0
  C  C41  1  0.33696000  0.02961000  0.30425000  1.0
  C  C42  1  0.69293000  0.02959000  0.30390000  1.0
  C  C43  1  0.66304000  0.97039000  0.69575000  1.0
  C  C44  1  0.45360000  0.90767000  0.65525000  1.0
  C  C45  1  0.54640000  0.09233000  0.34475000  1.0
  C  C46  1  0.38335000  0.76731000  0.57725000  1.0
  C  C47  1  0.61665000  0.23269000  0.42275000  1.0
  O  O48  1  0.56816000  0.46982000  0.67513000  1.0
  O  O49  1  0.09724000  0.53002000  0.32474000  1.0
  O  O50  1  0.43183000  0.53018000  0.32487000  1.0
  O  O51  1  0.90276000  0.46998000  0.67526000  1.0
  O  O52  1  0.52323000  0.71212000  0.54888000  1.0
  O  O53  1  0.81166000  0.28776000  0.45119000  1.0
  O  O54  1  0.47678000  0.28788000  0.45112000  1.0
  O  O55  1  0.18834000  0.71224000  0.54881000  1.0
  O  O56  1  0.79385000  0.58810000  0.45435000  1.0
  O  O57  1  0.20615000  0.41190000  0.54565000  1.0
