# generated using pymatgen
data_ZnH14C23SO6
_symmetry_space_group_name_H-M   'P 1'
_cell_length_a   7.82115000
_cell_length_b   11.44580000
_cell_length_c   12.64400000
_cell_angle_alpha   87.36740000
_cell_angle_beta   76.67930000
_cell_angle_gamma   82.40190000
_symmetry_Int_Tables_number   1
_chemical_formula_structural   ZnH14C23SO6
_chemical_formula_sum   'Zn2 H28 C46 S2 O12'
_cell_volume   1091.61875365
_cell_formula_units_Z   2
loop_
 _symmetry_equiv_pos_site_id
 _symmetry_equiv_pos_as_xyz
  1  'x, y, z'
loop_
 _atom_site_type_symbol
 _atom_site_label
 _atom_site_symmetry_multiplicity
 _atom_site_fract_x
 _atom_site_fract_y
 _atom_site_fract_z
 _atom_site_occupancy
  Zn  Zn0  1  0.15939000  0.42513000  0.53831000  1.0
  Zn  Zn1  1  0.84086000  0.57460000  0.46164000  1.0
  H  H2  1  0.43684000  0.43211000  0.67678000  1.0
  H  H3  1  0.56236000  0.56815000  0.32344000  1.0
  H  H4  1  0.77389000  0.24555000  0.35683000  1.0
  H  H5  1  0.22656000  0.75423000  0.64311000  1.0
  H  H6  1  0.50290000  0.03597000  0.62161000  1.0
  H  H7  1  0.49758000  0.96388000  0.37838000  1.0
  H  H8  1  0.27796000  0.25382000  0.26663000  1.0
  H  H9  1  0.72203000  0.74641000  0.73342000  1.0
  H  H10  1  0.62740000  0.07783000  0.88383000  1.0
  H  H11  1  0.37263000  0.92220000  0.11595000  1.0
  H  H12  1  0.21088000  0.32244000  0.79448000  1.0
  H  H13  1  0.78861000  0.67755000  0.20575000  1.0
  H  H14  1  0.85410000  0.18870000  0.76294000  1.0
  H  H15  1  0.14564000  0.81153000  0.23675000  1.0
  H  H16  1  0.49680000  0.37476000  0.36037000  1.0
  H  H17  1  0.50383000  0.62520000  0.63979000  1.0
  H  H18  1  0.22485000  0.16414000  0.62261000  1.0
  H  H19  1  0.77580000  0.83585000  0.37748000  1.0
  H  H20  1  0.39018000  0.12765000  0.10158000  1.0
  H  H21  1  0.60987000  0.87252000  0.89853000  1.0
  H  H22  1  0.81437000  0.38871000  0.15036000  1.0
  H  H23  1  0.18551000  0.61112000  0.84956000  1.0
  H  H24  1  0.92012000  0.25789000  0.98691000  1.0
  H  H25  1  0.07992000  0.74183000  0.01314000  1.0
  H  H26  1  0.96845000  0.10989000  0.33062000  1.0
  H  H27  1  0.03202000  0.88987000  0.66936000  1.0
  H  H28  1  0.25287000  0.00264000  0.34035000  1.0
  H  H29  1  0.74760000  0.99711000  0.65963000  1.0
  C  C30  1  0.79060000  0.37598000  0.62752000  1.0
  C  C31  1  0.20878000  0.62428000  0.37246000  1.0
  C  C32  1  0.34923000  0.28510000  0.50019000  1.0
  C  C33  1  0.65107000  0.71492000  0.49986000  1.0
  C  C34  1  0.83246000  0.06376000  0.49462000  1.0
  C  C35  1  0.16805000  0.93605000  0.50532000  1.0
  C  C36  1  0.66338000  0.13277000  0.49129000  1.0
  C  C37  1  0.33711000  0.86707000  0.50870000  1.0
  C  C38  1  0.47806000  0.35496000  0.72234000  1.0
  C  C39  1  0.52131000  0.64526000  0.27779000  1.0
  C  C40  1  0.65440000  0.22629000  0.41460000  1.0
  C  C41  1  0.34604000  0.77357000  0.58540000  1.0
  C  C42  1  0.50356000  0.11006000  0.56421000  1.0
  C  C43  1  0.49693000  0.88984000  0.43580000  1.0
  C  C44  1  0.65852000  0.31468000  0.70946000  1.0
  C  C45  1  0.34091000  0.68554000  0.29052000  1.0
  C  C46  1  0.15912000  0.18658000  0.03655000  1.0
  C  C47  1  0.84090000  0.81335000  0.96352000  1.0
  C  C48  1  0.20179000  0.25425000  0.20443000  1.0
  C  C49  1  0.79819000  0.74589000  0.79560000  1.0
  C  C50  1  0.40756000  0.19104000  0.84207000  1.0
  C  C51  1  0.59224000  0.80898000  0.15790000  1.0
  C  C52  1  0.58720000  0.15426000  0.83665000  1.0
  C  C53  1  0.41266000  0.84578000  0.16318000  1.0
  C  C54  1  0.04049000  0.32831000  0.21723000  1.0
  C  C55  1  0.95939000  0.67173000  0.78273000  1.0
  C  C56  1  0.97762000  0.40489000  0.31489000  1.0
  C  C57  1  0.02193000  0.59526000  0.68497000  1.0
  C  C58  1  0.35115000  0.29352000  0.78876000  1.0
  C  C59  1  0.64841000  0.70657000  0.21138000  1.0
  C  C60  1  0.71334000  0.21681000  0.76985000  1.0
  C  C61  1  0.28634000  0.78333000  0.22997000  1.0
  C  C62  1  0.49798000  0.29978000  0.41665000  1.0
  C  C63  1  0.50249000  0.70016000  0.58347000  1.0
  C  C64  1  0.34574000  0.18233000  0.56491000  1.0
  C  C65  1  0.65483000  0.81765000  0.43515000  1.0
  C  C66  1  0.26298000  0.18346000  0.11351000  1.0
  C  C67  1  0.73698000  0.81659000  0.88656000  1.0
  C  C68  1  0.93881000  0.33028000  0.13912000  1.0
  C  C69  1  0.06112000  0.66963000  0.86085000  1.0
  C  C70  1  0.99733000  0.25862000  0.04839000  1.0
  C  C71  1  0.00263000  0.74122000  0.95166000  1.0
  C  C72  1  0.98132000  0.06368000  0.40605000  1.0
  C  C73  1  0.01919000  0.93610000  0.59391000  1.0
  C  C74  1  0.14360000  0.00279000  0.41147000  1.0
  C  C75  1  0.85691000  0.99700000  0.58850000  1.0
  S  S76  1  0.24418000  0.10454000  0.91513000  1.0
  S  S77  1  0.75583000  0.89536000  0.08495000  1.0
  O  O78  1  0.72600000  0.45115000  0.56541000  1.0
  O  O79  1  0.27319000  0.54915000  0.43462000  1.0
  O  O80  1  0.84459000  0.48333000  0.31838000  1.0
  O  O81  1  0.15501000  0.51683000  0.68130000  1.0
  O  O82  1  0.95335000  0.34606000  0.62741000  1.0
  O  O83  1  0.04601000  0.65429000  0.37249000  1.0
  O  O84  1  0.05945000  0.38861000  0.39134000  1.0
  O  O85  1  0.93976000  0.61173000  0.60868000  1.0
  O  O86  1  0.33324000  0.99109000  0.94153000  1.0
  O  O87  1  0.66699000  0.00888000  0.05849000  1.0
  O  O88  1  0.10503000  0.10923000  0.85574000  1.0
  O  O89  1  0.89489000  0.89052000  0.14441000  1.0
