# generated using pymatgen
data_NdH22C24N15O8
_symmetry_space_group_name_H-M   'P 1'
_cell_length_a   10.68200000
_cell_length_b   11.96970000
_cell_length_c   13.49960000
_cell_angle_alpha   94.36390000
_cell_angle_beta   101.18100000
_cell_angle_gamma   113.39900000
_symmetry_Int_Tables_number   1
_chemical_formula_structural   NdH22C24N15O8
_chemical_formula_sum   'Nd2 H44 C48 N30 O16'
_cell_volume   1531.41478331
_cell_formula_units_Z   2
loop_
 _symmetry_equiv_pos_site_id
 _symmetry_equiv_pos_as_xyz
  1  'x, y, z'
loop_
 _atom_site_type_symbol
 _atom_site_label
 _atom_site_symmetry_multiplicity
 _atom_site_fract_x
 _atom_site_fract_y
 _atom_site_fract_z
 _atom_site_occupancy
  Nd  Nd0  1  0.94779000  0.11463000  0.41020000  1.0
  Nd  Nd1  1  0.05221000  0.88537000  0.58980000  1.0
  H  H2  1  0.04581000  0.12857000  0.18212000  1.0
  H  H3  1  0.95419000  0.87143000  0.81788000  1.0
  H  H4  1  0.63895000  0.95716000  0.21533000  1.0
  H  H5  1  0.36105000  0.04283000  0.78467000  1.0
  H  H6  1  0.00596000  0.36418000  0.51565000  1.0
  H  H7  1  0.99404000  0.63582000  0.48435000  1.0
  H  H8  1  0.98644000  0.28707000  0.60999000  1.0
  H  H9  1  0.01355000  0.71293000  0.39001000  1.0
  H  H10  1  0.23626000  0.57047000  0.32085000  1.0
  H  H11  1  0.76374000  0.42953000  0.67915000  1.0
  H  H12  1  0.32961000  0.48829000  0.37894000  1.0
  H  H13  1  0.67039000  0.51171000  0.62106000  1.0
  H  H14  1  0.00807000  0.44116000  0.95597000  1.0
  H  H15  1  0.99193000  0.55884000  0.04403000  1.0
  H  H16  1  0.93715000  0.40524000  0.76740000  1.0
  H  H17  1  0.06285000  0.59476000  0.23260000  1.0
  H  H18  1  0.14767000  0.18276000  0.74354000  1.0
  H  H19  1  0.85232000  0.81723000  0.25646000  1.0
  H  H20  1  0.23821000  0.21808000  0.93252000  1.0
  H  H21  1  0.76179000  0.78192000  0.06748000  1.0
  H  H22  1  0.61291000  0.60444000  0.34265000  1.0
  H  H23  1  0.38709000  0.39556000  0.65735000  1.0
  H  H24  1  0.53869000  0.66924000  0.42566000  1.0
  H  H25  1  0.46132000  0.33075000  0.57434000  1.0
  H  H26  1  0.20181000  0.74375000  0.00937000  1.0
  H  H27  1  0.79819000  0.25625000  0.99063000  1.0
  H  H28  1  0.13158000  0.70515000  0.81733000  1.0
  H  H29  1  0.86842000  0.29485000  0.18267000  1.0
  H  H30  1  0.42577000  0.56591000  0.79930000  1.0
  H  H31  1  0.57423000  0.43410000  0.20070000  1.0
  H  H32  1  0.50966000  0.59991000  0.98879000  1.0
  H  H33  1  0.49034000  0.40009000  0.01121000  1.0
  H  H34  1  0.77904000  0.13443000  0.64263000  1.0
  H  H35  1  0.22095000  0.86556000  0.35737000  1.0
  H  H36  1  0.64418000  0.99114000  0.57294000  1.0
  H  H37  1  0.35582000  0.00886000  0.42706000  1.0
  H  H38  1  0.53785000  0.91832000  0.02605000  1.0
  H  H39  1  0.46215000  0.08168000  0.97395000  1.0
  H  H40  1  0.96220000  0.09498000  0.99141000  1.0
  H  H41  1  0.03780000  0.90501000  0.00859000  1.0
  H  H42  1  0.75252000  0.21250000  0.44259000  1.0
  H  H43  1  0.24748000  0.78750000  0.55742000  1.0
  H  H44  1  0.62458000  0.11210000  0.35411000  1.0
  H  H45  1  0.37543000  0.88790000  0.64589000  1.0
  C  C46  1  0.93417000  0.08285000  0.14457000  1.0
  C  C47  1  0.06583000  0.91715000  0.85544000  1.0
  C  C48  1  0.70712000  0.98693000  0.16312000  1.0
  C  C49  1  0.29287000  0.01307000  0.83688000  1.0
  C  C50  1  0.11184000  0.40698000  0.37697000  1.0
  C  C51  1  0.88816000  0.59302000  0.62304000  1.0
  C  C52  1  0.23181000  0.47841000  0.32709000  1.0
  C  C53  1  0.76819000  0.52159000  0.67291000  1.0
  C  C54  1  0.18249000  0.35534000  0.07226000  1.0
  C  C55  1  0.81750000  0.64466000  0.92774000  1.0
  C  C56  1  0.13084000  0.33318000  0.96094000  1.0
  C  C57  1  0.86916000  0.66682000  0.03906000  1.0
  C  C58  1  0.04315000  0.38428000  0.91239000  1.0
  C  C59  1  0.95686000  0.61573000  0.08761000  1.0
  C  C60  1  0.00209000  0.36307000  0.80604000  1.0
  C  C61  1  0.99791000  0.63693000  0.19396000  1.0
  C  C62  1  0.12064000  0.24149000  0.79291000  1.0
  C  C63  1  0.87936000  0.75852000  0.20709000  1.0
  C  C64  1  0.16996000  0.25983000  0.89866000  1.0
  C  C65  1  0.83004000  0.74017000  0.10134000  1.0
  C  C66  1  0.73649000  0.79830000  0.40622000  1.0
  C  C67  1  0.26351000  0.20170000  0.59378000  1.0
  C  C68  1  0.59417000  0.68553000  0.36409000  1.0
  C  C69  1  0.40583000  0.31447000  0.63591000  1.0
  C  C70  1  0.40669000  0.69708000  0.12626000  1.0
  C  C71  1  0.59331000  0.30293000  0.87374000  1.0
  C  C72  1  0.36124000  0.67418000  0.01458000  1.0
  C  C73  1  0.63876000  0.32582000  0.98542000  1.0
  C  C74  1  0.25395000  0.70451000  0.96499000  1.0
  C  C75  1  0.74605000  0.29549000  0.03501000  1.0
  C  C76  1  0.21502000  0.68271000  0.85820000  1.0
  C  C77  1  0.78498000  0.31730000  0.14180000  1.0
  C  C78  1  0.37691000  0.60457000  0.84773000  1.0
  C  C79  1  0.62309000  0.39544000  0.15227000  1.0
  C  C80  1  0.42421000  0.62303000  0.95397000  1.0
  C  C81  1  0.57579000  0.37698000  0.04603000  1.0
  C  C82  1  0.84679000  0.98714000  0.62810000  1.0
  C  C83  1  0.15321000  0.01285000  0.37190000  1.0
  C  C84  1  0.73512000  0.03399000  0.63916000  1.0
  C  C85  1  0.26488000  0.96601000  0.36084000  1.0
  C  C86  1  0.69148000  0.98920000  0.88338000  1.0
  C  C87  1  0.30852000  0.01079000  0.11662000  1.0
  C  C88  1  0.74275000  0.00436000  0.99376000  1.0
  C  C89  1  0.25725000  0.99564000  0.00624000  1.0
  C  C90  1  0.65098000  0.96459000  0.05783000  1.0
  C  C91  1  0.34901000  0.03541000  0.94217000  1.0
  C  C92  1  0.88755000  0.06357000  0.03883000  1.0
  C  C93  1  0.11244000  0.93643000  0.96117000  1.0
  N  N94  1  0.84596000  0.04564000  0.20680000  1.0
  N  N95  1  0.15404000  0.95435000  0.79320000  1.0
  N  N96  1  0.15228000  0.42412000  0.13932000  1.0
  N  N97  1  0.84772000  0.57588000  0.86068000  1.0
  N  N98  1  0.22762000  0.41889000  0.22823000  1.0
  N  N99  1  0.77238000  0.58111000  0.77177000  1.0
  N  N100  1  0.30057000  0.35135000  0.21931000  1.0
  N  N101  1  0.69943000  0.64865000  0.78069000  1.0
  N  N102  1  0.27235000  0.31025000  0.12087000  1.0
  N  N103  1  0.72765000  0.68975000  0.87913000  1.0
  N  N104  1  0.03908000  0.29293000  0.74603000  1.0
  N  N105  1  0.96092000  0.70707000  0.25397000  1.0
  N  N106  1  0.49823000  0.65961000  0.18009000  1.0
  N  N107  1  0.50177000  0.34039000  0.81991000  1.0
  N  N108  1  0.50428000  0.70024000  0.27610000  1.0
  N  N109  1  0.49573000  0.29976000  0.72390000  1.0
  N  N110  1  0.42387000  0.76074000  0.28402000  1.0
  N  N111  1  0.57613000  0.23926000  0.71598000  1.0
  N  N112  1  0.36113000  0.75921000  0.18943000  1.0
  N  N113  1  0.63887000  0.24079000  0.81057000  1.0
  N  N114  1  0.27423000  0.63310000  0.79938000  1.0
  N  N115  1  0.72577000  0.36691000  0.20062000  1.0
  N  N116  1  0.77658000  0.03729000  0.82178000  1.0
  N  N117  1  0.22342000  0.96271000  0.17822000  1.0
  N  N118  1  0.68760000  0.00378000  0.73107000  1.0
  N  N119  1  0.31240000  0.99622000  0.26893000  1.0
  N  N120  1  0.55336000  0.93780000  0.73369000  1.0
  N  N121  1  0.44664000  0.06220000  0.26631000  1.0
  N  N122  1  0.55454000  0.92848000  0.83007000  1.0
  N  N123  1  0.44545000  0.07152000  0.16993000  1.0
  O  O124  1  0.81772000  0.77740000  0.47569000  1.0
  O  O125  1  0.18228000  0.22260000  0.52431000  1.0
  O  O126  1  0.85655000  0.90251000  0.67326000  1.0
  O  O127  1  0.14345000  0.09749000  0.32674000  1.0
  O  O128  1  0.11241000  0.46578000  0.45763000  1.0
  O  O129  1  0.88759000  0.53422000  0.54237000  1.0
  O  O130  1  0.02884000  0.29605000  0.33411000  1.0
  O  O131  1  0.97116000  0.70395000  0.66589000  1.0
  O  O132  1  0.75702000  0.89674000  0.37004000  1.0
  O  O133  1  0.24298000  0.10327000  0.62996000  1.0
  O  O134  1  0.92787000  0.03830000  0.57032000  1.0
  O  O135  1  0.07213000  0.96170000  0.42968000  1.0
  O  O136  1  0.94730000  0.28339000  0.53514000  1.0
  O  O137  1  0.05270000  0.71661000  0.46486000  1.0
  O  O138  1  0.71674000  0.13054000  0.40078000  1.0
  O  O139  1  0.28326000  0.86946000  0.59922000  1.0
