# generated using pymatgen
data_Zn4H30C54O13
_symmetry_space_group_name_H-M   'P 1'
_cell_length_a   14.01220000
_cell_length_b   14.01210000
_cell_length_c   17.54101852
_cell_angle_alpha   113.54282669
_cell_angle_beta   113.54063937
_cell_angle_gamma   89.99820000
_symmetry_Int_Tables_number   1
_chemical_formula_structural   Zn4H30C54O13
_chemical_formula_sum   'Zn8 H60 C108 O26'
_cell_volume   2841.97010128
_cell_formula_units_Z   2
loop_
 _symmetry_equiv_pos_site_id
 _symmetry_equiv_pos_as_xyz
  1  'x, y, z'
loop_
 _atom_site_type_symbol
 _atom_site_label
 _atom_site_symmetry_multiplicity
 _atom_site_fract_x
 _atom_site_fract_y
 _atom_site_fract_z
 _atom_site_occupancy
  Zn  Zn0  1  0.57346000  0.64778000  0.07764000  1.0
  Zn  Zn1  1  0.57012000  0.42651000  0.92235000  1.0
  Zn  Zn2  1  0.50416000  0.42985000  0.07764000  1.0
  Zn  Zn3  1  0.35224000  0.49582000  0.92241000  1.0
  Zn  Zn4  1  0.67659000  0.32017000  0.42241000  1.0
  Zn  Zn5  1  0.67986000  0.25417000  0.57764000  1.0
  Zn  Zn6  1  0.74583000  0.10223000  0.42234000  1.0
  Zn  Zn7  1  0.89778000  0.32348000  0.57763000  1.0
  H  H8  1  0.14970000  0.71811000  0.97561000  1.0
  H  H9  1  0.74255000  0.85017000  0.02436000  1.0
  H  H10  1  0.82580000  0.25758000  0.97564000  1.0
  H  H11  1  0.28191000  0.17408000  0.02435000  1.0
  H  H12  1  0.10026000  0.49245000  0.52435000  1.0
  H  H13  1  0.50749000  0.57590000  0.47560000  1.0
  H  H14  1  0.42419000  0.03181000  0.52436000  1.0
  H  H15  1  0.96805000  0.89983000  0.47563000  1.0
  H  H16  1  0.06640000  0.85930000  0.05084000  1.0
  H  H17  1  0.80846000  0.93346000  0.94909000  1.0
  H  H18  1  0.98438000  0.19155000  0.05081000  1.0
  H  H19  1  0.14072000  0.01555000  0.94919000  1.0
  H  H20  1  0.18363000  0.55847000  0.44919000  1.0
  H  H21  1  0.44154000  0.73444000  0.55084000  1.0
  H  H22  1  0.26563000  0.89063000  0.44909000  1.0
  H  H23  1  0.10927000  0.81643000  0.55081000  1.0
  H  H24  1  0.37674000  0.04862000  0.25106000  1.0
  H  H25  1  0.79759000  0.62313000  0.74888000  1.0
  H  H26  1  0.87430000  0.20238000  0.25105000  1.0
  H  H27  1  0.95138000  0.12567000  0.74898000  1.0
  H  H28  1  0.87331000  0.54760000  0.24898000  1.0
  H  H29  1  0.45243000  0.62432000  0.75106000  1.0
  H  H30  1  0.37574000  0.70129000  0.24887000  1.0
  H  H31  1  0.29866000  0.12675000  0.75104000  1.0
  H  H32  1  0.45887000  0.90570000  0.17671000  1.0
  H  H33  1  0.72895000  0.54099000  0.82322000  1.0
  H  H34  1  0.71781000  0.27110000  0.17680000  1.0
  H  H35  1  0.09429000  0.28214000  0.82325000  1.0
  H  H36  1  0.79111000  0.47896000  0.32325000  1.0
  H  H37  1  0.52102000  0.46784000  0.67672000  1.0
  H  H38  1  0.53224000  0.84427000  0.32322000  1.0
  H  H39  1  0.15569000  0.20898000  0.67679000  1.0
  H  H40  1  0.04130000  0.04143000  0.08274000  1.0
  H  H41  1  0.95869000  0.95853000  0.91725000  1.0
  H  H42  1  0.20872000  0.70856000  0.41725000  1.0
  H  H43  1  0.29131000  0.79144000  0.58274000  1.0
  H  H44  1  0.28350000  0.06654000  0.33978000  1.0
  H  H45  1  0.72670000  0.71647000  0.66018000  1.0
  H  H46  1  0.05626000  0.27329000  0.33983000  1.0
  H  H47  1  0.93340000  0.94378000  0.66020000  1.0
  H  H48  1  0.96642000  0.47680000  0.16020000  1.0
  H  H49  1  0.52324000  0.80628000  0.83978000  1.0
  H  H50  1  0.19371000  0.68348000  0.16018000  1.0
  H  H51  1  0.31654000  0.03357000  0.83983000  1.0
  H  H52  1  0.08490000  0.27346000  0.46871000  1.0
  H  H53  1  0.80478000  0.91503000  0.53131000  1.0
  H  H54  1  0.38368000  0.19513000  0.46873000  1.0
  H  H55  1  0.72641000  0.61623000  0.53126000  1.0
  H  H56  1  0.16504000  0.55485000  0.03126000  1.0
  H  H57  1  0.44524000  0.13381000  0.96870000  1.0
  H  H58  1  0.86628000  0.47654000  0.03131000  1.0
  H  H59  1  0.52361000  0.83505000  0.96874000  1.0
  H  H60  1  0.17192000  0.36348000  0.63819000  1.0
  H  H61  1  0.72526000  0.82802000  0.36181000  1.0
  H  H62  1  0.46615000  0.27474000  0.63822000  1.0
  H  H63  1  0.63654000  0.53382000  0.36182000  1.0
  H  H64  1  0.07800000  0.47528000  0.86182000  1.0
  H  H65  1  0.52471000  0.21627000  0.13818000  1.0
  H  H66  1  0.78379000  0.38655000  0.86182000  1.0
  H  H67  1  0.61348000  0.92207000  0.13822000  1.0
  C  C68  1  0.36222000  0.71659000  0.03336000  1.0
  C  C69  1  0.68327000  0.63765000  0.96662000  1.0
  C  C70  1  0.67111000  0.31683000  0.03340000  1.0
  C  C71  1  0.28348000  0.32881000  0.96666000  1.0
  C  C72  1  0.88785000  0.43318000  0.46666000  1.0
  C  C73  1  0.56677000  0.42114000  0.53336000  1.0
  C  C74  1  0.57898000  0.03335000  0.46662000  1.0
  C  C75  1  0.96657000  0.11229000  0.53340000  1.0
  C  C76  1  0.30975000  0.80300000  0.07201000  1.0
  C  C77  1  0.73105000  0.69012000  0.92797000  1.0
  C  C78  1  0.76226000  0.26913000  0.07210000  1.0
  C  C79  1  0.19704000  0.23770000  0.92796000  1.0
  C  C80  1  0.94025000  0.48093000  0.42796000  1.0
  C  C81  1  0.51901000  0.51226000  0.57200000  1.0
  C  C82  1  0.48786000  0.94692000  0.42797000  1.0
  C  C83  1  0.05296000  0.05983000  0.57209000  1.0
  C  C84  1  0.19888000  0.79101000  0.03566000  1.0
  C  C85  1  0.75540000  0.80099000  0.96430000  1.0
  C  C86  1  0.83673000  0.24473000  0.03570000  1.0
  C  C87  1  0.20899000  0.16319000  0.96431000  1.0
  C  C88  1  0.05111000  0.50533000  0.46431000  1.0
  C  C89  1  0.49465000  0.58677000  0.53566000  1.0
  C  C90  1  0.41332000  0.95890000  0.46430000  1.0
  C  C91  1  0.04097000  0.94897000  0.53570000  1.0
  C  C92  1  0.15258000  0.87077000  0.07775000  1.0
  C  C93  1  0.79303000  0.84728000  0.92219000  1.0
  C  C94  1  0.92513000  0.20704000  0.07775000  1.0
  C  C95  1  0.12924000  0.07481000  0.92225000  1.0
  C  C96  1  0.09745000  0.54302000  0.42226000  1.0
  C  C97  1  0.45697000  0.67517000  0.57774000  1.0
  C  C98  1  0.32492000  0.87916000  0.42219000  1.0
  C  C99  1  0.12071000  0.90262000  0.57775000  1.0
  C  C100  1  0.21587000  0.96361000  0.15701000  1.0
  C  C101  1  0.80662000  0.78397000  0.84293000  1.0
  C  C102  1  0.94110000  0.19350000  0.15703000  1.0
  C  C103  1  0.03642000  0.05884000  0.84299000  1.0
  C  C104  1  0.03416000  0.55658000  0.34300000  1.0
  C  C105  1  0.44341000  0.69114000  0.65701000  1.0
  C  C106  1  0.30896000  0.78631000  0.34293000  1.0
  C  C107  1  0.21353000  0.96593000  0.65703000  1.0
  C  C108  1  0.32675000  0.97580000  0.19127000  1.0
  C  C109  1  0.78456000  0.67309000  0.80868000  1.0
  C  C110  1  0.86449000  0.21553000  0.19131000  1.0
  C  C111  1  0.02423000  0.13546000  0.80873000  1.0
  C  C112  1  0.92327000  0.53450000  0.30873000  1.0
  C  C113  1  0.46549000  0.61452000  0.69128000  1.0
  C  C114  1  0.38558000  0.77412000  0.30867000  1.0
  C  C115  1  0.22577000  0.07682000  0.69130000  1.0
  C  C116  1  0.37307000  0.89660000  0.14949000  1.0
  C  C117  1  0.74713000  0.62679000  0.85046000  1.0
  C  C118  1  0.77640000  0.25297000  0.14957000  1.0
  C  C119  1  0.10341000  0.22358000  0.85050000  1.0
  C  C120  1  0.87692000  0.49710000  0.35050000  1.0
  C  C121  1  0.50288000  0.52642000  0.64948000  1.0
  C  C122  1  0.47367000  0.85333000  0.35046000  1.0
  C  C123  1  0.14659000  0.12317000  0.64956000  1.0
  C  C124  1  0.16935000  0.04706000  0.20604000  1.0
  C  C125  1  0.84104000  0.83051000  0.79392000  1.0
  C  C126  1  0.03667000  0.15912000  0.20607000  1.0
  C  C127  1  0.95301000  0.96327000  0.79394000  1.0
  C  C128  1  0.08067000  0.59093000  0.29394000  1.0
  C  C129  1  0.40899000  0.78669000  0.70604000  1.0
  C  C130  1  0.21341000  0.70289000  0.29392000  1.0
  C  C131  1  0.29696000  0.91941000  0.70607000  1.0
  C  C132  1  0.07903000  0.07914000  0.15811000  1.0
  C  C133  1  0.92104000  0.92082000  0.84188000  1.0
  C  C134  1  0.17106000  0.67085000  0.34188000  1.0
  C  C135  1  0.32898000  0.82908000  0.65811000  1.0
  C  C136  1  0.21646000  0.09540000  0.30289000  1.0
  C  C137  1  0.79250000  0.78345000  0.69708000  1.0
  C  C138  1  0.08636000  0.20752000  0.30292000  1.0
  C  C139  1  0.90455000  0.91363000  0.69709000  1.0
  C  C140  1  0.03347000  0.54254000  0.19710000  1.0
  C  C141  1  0.45748000  0.83643000  0.80288000  1.0
  C  C142  1  0.16363000  0.65458000  0.19708000  1.0
  C  C143  1  0.34540000  0.96656000  0.80292000  1.0
  C  C144  1  0.17626000  0.17629000  0.35264000  1.0
  C  C145  1  0.82363000  0.82370000  0.64736000  1.0
  C  C146  1  0.07367000  0.57373000  0.14737000  1.0
  C  C147  1  0.42635000  0.92637000  0.85264000  1.0
  C  C148  1  0.22728000  0.22727000  0.45472000  1.0
  C  C149  1  0.77255000  0.77266000  0.54529000  1.0
  C  C150  1  0.02263000  0.52274000  0.04529000  1.0
  C  C151  1  0.47746000  0.97744000  0.95472000  1.0
  C  C152  1  0.16935000  0.27585000  0.50470000  1.0
  C  C153  1  0.77117000  0.83058000  0.49532000  1.0
  C  C154  1  0.33517000  0.22865000  0.50470000  1.0
  C  C155  1  0.72395000  0.66476000  0.49532000  1.0
  C  C156  1  0.08056000  0.52137000  0.99532000  1.0
  C  C157  1  0.47885000  0.08535000  0.00469000  1.0
  C  C158  1  0.91474000  0.47415000  0.99532000  1.0
  C  C159  1  0.52605000  0.91953000  0.00470000  1.0
  C  C160  1  0.21765000  0.32567000  0.60057000  1.0
  C  C161  1  0.72506000  0.78230000  0.39945000  1.0
  C  C162  1  0.38276000  0.27484000  0.60058000  1.0
  C  C163  1  0.67426000  0.61719000  0.39945000  1.0
  C  C164  1  0.03226000  0.47518000  0.89945000  1.0
  C  C165  1  0.52491000  0.13291000  0.10057000  1.0
  C  C166  1  0.86714000  0.42439000  0.89945000  1.0
  C  C167  1  0.57574000  0.96781000  0.10058000  1.0
  C  C168  1  0.32470000  0.32478000  0.64956000  1.0
  C  C169  1  0.67519000  0.67525000  0.35046000  1.0
  C  C170  1  0.92521000  0.42526000  0.85046000  1.0
  C  C171  1  0.57478000  0.07486000  0.14956000  1.0
  C  C172  1  0.37601000  0.37610000  0.75213000  1.0
  C  C173  1  0.62391000  0.62397000  0.24790000  1.0
  C  C174  1  0.87393000  0.37399000  0.74790000  1.0
  C  C175  1  0.62603000  0.12612000  0.25213000  1.0
  O  O176  1  0.50002000  0.50000000  0.00002000  1.0
  O  O177  1  0.75001000  0.25000000  0.50001000  1.0
  O  O178  1  0.46337000  0.73581000  0.07102000  1.0
  O  O179  1  0.66485000  0.53651000  0.92899000  1.0
  O  O180  1  0.60762000  0.33525000  0.07106000  1.0
  O  O181  1  0.26425000  0.39235000  0.92905000  1.0
  O  O182  1  0.78670000  0.41480000  0.42905000  1.0
  O  O183  1  0.58521000  0.35765000  0.57102000  1.0
  O  O184  1  0.64248000  0.01413000  0.42899000  1.0
  O  O185  1  0.98581000  0.21343000  0.57106000  1.0
  O  O186  1  0.30281000  0.62886000  0.96663000  1.0
  O  O187  1  0.66230000  0.69709000  0.03337000  1.0
  O  O188  1  0.66371000  0.33769000  0.96658000  1.0
  O  O189  1  0.37119000  0.33611000  0.03341000  1.0
  O  O190  1  0.94729000  0.41222000  0.53340000  1.0
  O  O191  1  0.58778000  0.41381000  0.46663000  1.0
  O  O192  1  0.58629000  0.12106000  0.53337000  1.0
  O  O193  1  0.87889000  0.05286000  0.46658000  1.0
  O  O194  1  0.32570000  0.43700000  0.79244000  1.0
  O  O195  1  0.64459000  0.67428000  0.20762000  1.0
  O  O196  1  0.46665000  0.35546000  0.79237000  1.0
  O  O197  1  0.56292000  0.53340000  0.20761000  1.0
  O  O198  1  0.92420000  0.39468000  0.70760000  1.0
  O  O199  1  0.60544000  0.21675000  0.29244000  1.0
  O  O200  1  0.78334000  0.31303000  0.70763000  1.0
  O  O201  1  0.68691000  0.07573000  0.29237000  1.0
