# generated using pymatgen
data_BaH16C12Br2(NO)2
_symmetry_space_group_name_H-M   'P 1'
_cell_length_a   7.39572000
_cell_length_b   10.90340000
_cell_length_c   10.90330000
_cell_angle_alpha   79.19200000
_cell_angle_beta   74.26230000
_cell_angle_gamma   74.26240000
_symmetry_Int_Tables_number   1
_chemical_formula_structural   BaH16C12Br2(NO)2
_chemical_formula_sum   'Ba2 H32 C24 Br4 N4 O4'
_cell_volume   808.35830918
_cell_formula_units_Z   2
loop_
 _symmetry_equiv_pos_site_id
 _symmetry_equiv_pos_as_xyz
  1  'x, y, z'
loop_
 _atom_site_type_symbol
 _atom_site_label
 _atom_site_symmetry_multiplicity
 _atom_site_fract_x
 _atom_site_fract_y
 _atom_site_fract_z
 _atom_site_occupancy
  Ba  Ba0  1  0.25000000  0.12076000  0.87925000  1.0
  Ba  Ba1  1  0.75000000  0.87924000  0.12076000  1.0
  H  H2  1  0.23468000  0.60992000  0.52827000  1.0
  H  H3  1  0.26533000  0.47172000  0.39007000  1.0
  H  H4  1  0.76532000  0.39007000  0.47172000  1.0
  H  H5  1  0.73468000  0.52828000  0.60993000  1.0
  H  H6  1  0.00334000  0.75542000  0.68509000  1.0
  H  H7  1  0.49666000  0.31491000  0.24458000  1.0
  H  H8  1  0.99666000  0.24458000  0.31491000  1.0
  H  H9  1  0.50335000  0.68509000  0.75542000  1.0
  H  H10  1  0.82746000  0.65704000  0.89341000  1.0
  H  H11  1  0.67254000  0.10659000  0.34296000  1.0
  H  H12  1  0.17253000  0.34296000  0.10659000  1.0
  H  H13  1  0.32746000  0.89341000  0.65705000  1.0
  H  H14  1  0.90150000  0.41667000  0.94223000  1.0
  H  H15  1  0.59850000  0.05777000  0.58333000  1.0
  H  H16  1  0.09851000  0.58333000  0.05777000  1.0
  H  H17  1  0.40149000  0.94223000  0.41668000  1.0
  H  H18  1  0.53660000  0.24398000  0.97879000  1.0
  H  H19  1  0.96340000  0.02121000  0.75602000  1.0
  H  H20  1  0.46339000  0.75602000  0.02121000  1.0
  H  H21  1  0.03660000  0.97879000  0.24398000  1.0
  H  H22  1  0.65113000  0.39028000  0.85091000  1.0
  H  H23  1  0.84887000  0.14909000  0.60971000  1.0
  H  H24  1  0.34886000  0.60972000  0.14909000  1.0
  H  H25  1  0.15113000  0.85091000  0.39028000  1.0
  H  H26  1  0.48968000  0.39796000  0.75263000  1.0
  H  H27  1  0.01032000  0.24738000  0.60204000  1.0
  H  H28  1  0.51032000  0.60204000  0.24737000  1.0
  H  H29  1  0.98967000  0.75263000  0.39795000  1.0
  H  H30  1  0.40975000  0.48752000  0.88701000  1.0
  H  H31  1  0.09025000  0.11299000  0.51249000  1.0
  H  H32  1  0.59025000  0.51249000  0.11299000  1.0
  H  H33  1  0.90975000  0.88701000  0.48752000  1.0
  C  C34  1  0.18334000  0.43703000  0.65283000  1.0
  C  C35  1  0.31666000  0.34717000  0.56297000  1.0
  C  C36  1  0.81667000  0.56297000  0.34717000  1.0
  C  C37  1  0.68334000  0.65283000  0.43703000  1.0
  C  C38  1  0.15468000  0.57041000  0.61969000  1.0
  C  C39  1  0.34532000  0.38031000  0.42958000  1.0
  C  C40  1  0.84532000  0.42959000  0.38031000  1.0
  C  C41  1  0.65469000  0.61969000  0.57042000  1.0
  C  C42  1  0.02812000  0.65133000  0.70668000  1.0
  C  C43  1  0.47188000  0.29332000  0.34867000  1.0
  C  C44  1  0.97187000  0.34867000  0.29332000  1.0
  C  C45  1  0.52812000  0.70668000  0.65133000  1.0
  C  C46  1  0.93168000  0.59723000  0.82398000  1.0
  C  C47  1  0.56832000  0.17602000  0.40277000  1.0
  C  C48  1  0.06832000  0.40277000  0.17602000  1.0
  C  C49  1  0.43168000  0.82398000  0.59723000  1.0
  C  C50  1  0.97102000  0.46379000  0.85068000  1.0
  C  C51  1  0.52898000  0.14932000  0.53621000  1.0
  C  C52  1  0.02899000  0.53621000  0.14933000  1.0
  C  C53  1  0.47102000  0.85067000  0.46379000  1.0
  C  C54  1  0.50003000  0.39710000  0.85134000  1.0
  C  C55  1  0.99996000  0.14866000  0.60290000  1.0
  C  C56  1  0.49996000  0.60291000  0.14866000  1.0
  C  C57  1  0.00003000  0.85134000  0.39710000  1.0
  Br  Br58  1  0.30654000  0.05287000  0.18115000  1.0
  Br  Br59  1  0.19346000  0.81886000  0.94712000  1.0
  Br  Br60  1  0.69346000  0.94713000  0.81885000  1.0
  Br  Br61  1  0.80654000  0.18115000  0.05287000  1.0
  N  N62  1  0.09447000  0.38447000  0.76829000  1.0
  N  N63  1  0.40554000  0.23171000  0.61553000  1.0
  N  N64  1  0.90554000  0.61553000  0.23171000  1.0
  N  N65  1  0.59447000  0.76828000  0.38447000  1.0
  O  O66  1  0.43601000  0.28907000  0.93056000  1.0
  O  O67  1  0.06398000  0.06945000  0.71094000  1.0
  O  O68  1  0.56397000  0.71094000  0.06944000  1.0
  O  O69  1  0.93601000  0.93056000  0.28907000  1.0
