# generated using pymatgen
data_Cu3H18C14(N3O7)2
_symmetry_space_group_name_H-M   'P 1'
_cell_length_a   7.25696000
_cell_length_b   8.59908000
_cell_length_c   9.39086000
_cell_angle_alpha   72.97620000
_cell_angle_beta   76.80410000
_cell_angle_gamma   82.45380000
_symmetry_Int_Tables_number   1
_chemical_formula_structural   Cu3H18C14(N3O7)2
_chemical_formula_sum   'Cu3 H18 C14 N6 O14'
_cell_volume   544.23566462
_cell_formula_units_Z   1
loop_
 _symmetry_equiv_pos_site_id
 _symmetry_equiv_pos_as_xyz
  1  'x, y, z'
loop_
 _atom_site_type_symbol
 _atom_site_label
 _atom_site_symmetry_multiplicity
 _atom_site_fract_x
 _atom_site_fract_y
 _atom_site_fract_z
 _atom_site_occupancy
  Cu  Cu0  1  0.49887000  0.99863000  0.99863000  1.0
  Cu  Cu1  1  0.63836000  0.71315000  0.67668000  1.0
  Cu  Cu2  1  0.36053000  0.28203000  0.32786000  1.0
  H  H3  1  0.03087000  0.58278000  0.72322000  1.0
  H  H4  1  0.97561000  0.41532000  0.28419000  1.0
  H  H5  1  0.70119000  0.56717000  0.41955000  1.0
  H  H6  1  0.30407000  0.43227000  0.58820000  1.0
  H  H7  1  0.05765000  0.09874000  0.63361000  1.0
  H  H8  1  0.94307000  0.90172000  0.36198000  1.0
  H  H9  1  0.80493000  0.82284000  0.83177000  1.0
  H  H10  1  0.19442000  0.18013000  0.16608000  1.0
  H  H11  1  0.82994000  0.93785000  0.65928000  1.0
  H  H12  1  0.16865000  0.06591000  0.33869000  1.0
  H  H13  1  0.56810000  0.39954000  0.82767000  1.0
  H  H14  1  0.40698000  0.60667000  0.15414000  1.0
  H  H15  1  0.17005000  0.76476000  0.15377000  1.0
  H  H16  1  0.81790000  0.22987000  0.85027000  1.0
  H  H17  1  0.27601000  0.79195000  0.27751000  1.0
  H  H18  1  0.72002000  0.20407000  0.72279000  1.0
  H  H19  1  0.46701000  0.50720000  0.93862000  1.0
  H  H20  1  0.60491000  0.50488000  0.12055000  1.0
  C  C21  1  0.23904000  0.06421000  0.80546000  1.0
  C  C22  1  0.75771000  0.93296000  0.19321000  1.0
  C  C23  1  0.17799000  0.03950000  0.68345000  1.0
  C  C24  1  0.82232000  0.96050000  0.31242000  1.0
  C  C25  1  0.30952000  0.91982000  0.63911000  1.0
  C  C26  1  0.69343000  0.08264000  0.35426000  1.0
  C  C27  1  0.16540000  0.16683000  0.91011000  1.0
  C  C28  1  0.82731000  0.82541000  0.09319000  1.0
  C  C29  1  0.33404000  0.83481000  0.51995000  1.0
  C  C30  1  0.67170000  0.17183000  0.46938000  1.0
  C  C31  1  0.01775000  0.54465000  0.62568000  1.0
  C  C32  1  0.98748000  0.45395000  0.38173000  1.0
  C  C33  1  0.83646000  0.53678000  0.45617000  1.0
  C  C34  1  0.16907000  0.46188000  0.55105000  1.0
  N  N35  1  0.39889000  0.96549000  0.83014000  1.0
  N  N36  1  0.59818000  0.03162000  0.16798000  1.0
  N  N37  1  0.44044000  0.87799000  0.73029000  1.0
  N  N38  1  0.56046000  0.12320000  0.26491000  1.0
  N  N39  1  0.85216000  0.58201000  0.57788000  1.0
  N  N40  1  0.15293000  0.41621000  0.42952000  1.0
  O  O41  1  0.27473000  0.15860000  0.00566000  1.0
  O  O42  1  0.71694000  0.83024000  0.99893000  1.0
  O  O43  1  0.01253000  0.25237000  0.90923000  1.0
  O  O44  1  0.97742000  0.73631000  0.09756000  1.0
  O  O45  1  0.47238000  0.72621000  0.51629000  1.0
  O  O46  1  0.53845000  0.28732000  0.46563000  1.0
  O  O47  1  0.22041000  0.87086000  0.42782000  1.0
  O  O48  1  0.77980000  0.13558000  0.56469000  1.0
  O  O49  1  0.49736000  0.50784000  0.83019000  1.0
  O  O50  1  0.46892000  0.49882000  0.13286000  1.0
  O  O51  1  0.84163000  0.82203000  0.72129000  1.0
  O  O52  1  0.15793000  0.18255000  0.27682000  1.0
  O  O53  1  0.29727000  0.76638000  0.17739000  1.0
  O  O54  1  0.69280000  0.22513000  0.82465000  1.0
