# generated using pymatgen
data_CuH42C36(N9Cl)2
_symmetry_space_group_name_H-M   'P 1'
_cell_length_a   9.60481000
_cell_length_b   11.27760000
_cell_length_c   12.13900000
_cell_angle_alpha   74.68670000
_cell_angle_beta   71.09020000
_cell_angle_gamma   82.24310000
_symmetry_Int_Tables_number   1
_chemical_formula_structural   CuH42C36(N9Cl)2
_chemical_formula_sum   'Cu1 H42 C36 N18 Cl2'
_cell_volume   1197.99991132
_cell_formula_units_Z   1
loop_
 _symmetry_equiv_pos_site_id
 _symmetry_equiv_pos_as_xyz
  1  'x, y, z'
loop_
 _atom_site_type_symbol
 _atom_site_label
 _atom_site_symmetry_multiplicity
 _atom_site_fract_x
 _atom_site_fract_y
 _atom_site_fract_z
 _atom_site_occupancy
  Cu  Cu0  1  0.50000000  0.50000000  0.00000000  1.0
  H  H1  1  0.92952000  0.36041000  0.58554000  1.0
  H  H2  1  0.07047000  0.63959000  0.41447000  1.0
  H  H3  1  0.74421000  0.39031000  0.58242000  1.0
  H  H4  1  0.25578000  0.60969000  0.41758000  1.0
  H  H5  1  0.88918000  0.39156000  0.44854000  1.0
  H  H6  1  0.11082000  0.60844000  0.55147000  1.0
  H  H7  1  0.90091000  0.09316000  0.83089000  1.0
  H  H8  1  0.09908000  0.90683000  0.16912000  1.0
  H  H9  1  0.96786000  0.23226000  0.72951000  1.0
  H  H10  1  0.03213000  0.76774000  0.27049000  1.0
  H  H11  1  0.39840000  0.29419000  0.90016000  1.0
  H  H12  1  0.60159000  0.70580000  0.09985000  1.0
  H  H13  1  0.82254000  0.37770000  0.87283000  1.0
  H  H14  1  0.17745000  0.62230000  0.12716000  1.0
  H  H15  1  0.78917000  0.89666000  0.85991000  1.0
  H  H16  1  0.21083000  0.10333000  0.14009000  1.0
  H  H17  1  0.97830000  0.92938000  0.80102000  1.0
  H  H18  1  0.02171000  0.07061000  0.19898000  1.0
  H  H19  1  0.91444000  0.81137000  0.76412000  1.0
  H  H20  1  0.08556000  0.18862000  0.23588000  1.0
  H  H21  1  0.80155000  0.80149000  0.51747000  1.0
  H  H22  1  0.19846000  0.19851000  0.48253000  1.0
  H  H23  1  0.91206000  0.77048000  0.61346000  1.0
  H  H24  1  0.08795000  0.22952000  0.38654000  1.0
  H  H25  1  0.79557000  0.60980000  0.80035000  1.0
  H  H26  1  0.20444000  0.39019000  0.19964000  1.0
  H  H27  1  0.35330000  0.73318000  0.84930000  1.0
  H  H28  1  0.64672000  0.26682000  0.15070000  1.0
  H  H29  1  0.80058000  0.97397000  0.33368000  1.0
  H  H30  1  0.19942000  0.02603000  0.66633000  1.0
  H  H31  1  0.63708000  0.06689000  0.37739000  1.0
  H  H32  1  0.36292000  0.93311000  0.62261000  1.0
  H  H33  1  0.64983000  0.91575000  0.45915000  1.0
  H  H34  1  0.35017000  0.08425000  0.54086000  1.0
  H  H35  1  0.84727000  0.32736000  0.32655000  1.0
  H  H36  1  0.15273000  0.67264000  0.67346000  1.0
  H  H37  1  0.76196000  0.21309000  0.30158000  1.0
  H  H38  1  0.23803000  0.78690000  0.69843000  1.0
  H  H39  1  0.63847000  0.48294000  0.25503000  1.0
  H  H40  1  0.36154000  0.51706000  0.74497000  1.0
  H  H41  1  0.29539000  0.35558000  0.56888000  1.0
  H  H42  1  0.70460000  0.64443000  0.43112000  1.0
  C  C43  1  0.85084000  0.34369000  0.54354000  1.0
  C  C44  1  0.14916000  0.65631000  0.45646000  1.0
  C  C45  1  0.83696000  0.20858000  0.55925000  1.0
  C  C46  1  0.16304000  0.79142000  0.44075000  1.0
  C  C47  1  0.79500000  0.16672000  0.47567000  1.0
  C  C48  1  0.20499000  0.83328000  0.52434000  1.0
  C  C49  1  0.77680000  0.04067000  0.49212000  1.0
  C  C50  1  0.22319000  0.95933000  0.50788000  1.0
  C  C51  1  0.81468000  0.95576000  0.58750000  1.0
  C  C52  1  0.18533000  0.04423000  0.41250000  1.0
  C  C53  1  0.85421000  0.99576000  0.67323000  1.0
  C  C54  1  0.14579000  0.00424000  0.32677000  1.0
  C  C55  1  0.85933000  0.12286000  0.66067000  1.0
  C  C56  1  0.14067000  0.87714000  0.33933000  1.0
  C  C57  1  0.87780000  0.16926000  0.76057000  1.0
  C  C58  1  0.12220000  0.83074000  0.23943000  1.0
  C  C59  1  0.51768000  0.28891000  0.87865000  1.0
  C  C60  1  0.48231000  0.71109000  0.12135000  1.0
  C  C61  1  0.73285000  0.33618000  0.86278000  1.0
  C  C62  1  0.26715000  0.66382000  0.13721000  1.0
  C  C63  1  0.88563000  0.90416000  0.77925000  1.0
  C  C64  1  0.11438000  0.09584000  0.22074000  1.0
  C  C65  1  0.81068000  0.81980000  0.59900000  1.0
  C  C66  1  0.18933000  0.18020000  0.40099000  1.0
  C  C67  1  0.69633000  0.66102000  0.78623000  1.0
  C  C68  1  0.30368000  0.33898000  0.21376000  1.0
  C  C69  1  0.47228000  0.72887000  0.81090000  1.0
  C  C70  1  0.52772000  0.27113000  0.18910000  1.0
  C  C71  1  0.71388000  0.99739000  0.41150000  1.0
  C  C72  1  0.28612000  0.00261000  0.58850000  1.0
  C  C73  1  0.76301000  0.25885000  0.37047000  1.0
  C  C74  1  0.23699000  0.74115000  0.62953000  1.0
  C  C75  1  0.57159000  0.43306000  0.34234000  1.0
  C  C76  1  0.42841000  0.56695000  0.65766000  1.0
  C  C77  1  0.40081000  0.36347000  0.49897000  1.0
  C  C78  1  0.59919000  0.63654000  0.50102000  1.0
  N  N79  1  0.56002000  0.63772000  0.85767000  1.0
  N  N80  1  0.43999000  0.36228000  0.14232000  1.0
  N  N81  1  0.54746000  0.80733000  0.71403000  1.0
  N  N82  1  0.45255000  0.19267000  0.28597000  1.0
  N  N83  1  0.68948000  0.76218000  0.69970000  1.0
  N  N84  1  0.31053000  0.23782000  0.30030000  1.0
  N  N85  1  0.51211000  0.28053000  0.50632000  1.0
  N  N86  1  0.48789000  0.71948000  0.49368000  1.0
  N  N87  1  0.62099000  0.32739000  0.40565000  1.0
  N  N88  1  0.37901000  0.67261000  0.59435000  1.0
  N  N89  1  0.43102000  0.45849000  0.39963000  1.0
  N  N90  1  0.56897000  0.54152000  0.60037000  1.0
  N  N91  1  0.74368000  0.23843000  0.81600000  1.0
  N  N92  1  0.25631000  0.76156000  0.18400000  1.0
  N  N93  1  0.60752000  0.20632000  0.82596000  1.0
  N  N94  1  0.39247000  0.79367000  0.17405000  1.0
  N  N95  1  0.59045000  0.37025000  0.90292000  1.0
  N  N96  1  0.40954000  0.62975000  0.09708000  1.0
  Cl  Cl97  1  0.76936000  0.50178000  0.03793000  1.0
  Cl  Cl98  1  0.23063000  0.49821000  0.96207000  1.0
