# generated using pymatgen
data_CdH8C10(SN3)2
_symmetry_space_group_name_H-M   'P 1'
_cell_length_a   7.79366000
_cell_length_b   11.58180000
_cell_length_c   14.82920000
_cell_angle_alpha   90.00010000
_cell_angle_beta   89.99990000
_cell_angle_gamma   89.99960000
_symmetry_Int_Tables_number   1
_chemical_formula_structural   CdH8C10(SN3)2
_chemical_formula_sum   'Cd4 H32 C40 S8 N24'
_cell_volume   1338.55197516
_cell_formula_units_Z   4
loop_
 _symmetry_equiv_pos_site_id
 _symmetry_equiv_pos_as_xyz
  1  'x, y, z'
loop_
 _atom_site_type_symbol
 _atom_site_label
 _atom_site_symmetry_multiplicity
 _atom_site_fract_x
 _atom_site_fract_y
 _atom_site_fract_z
 _atom_site_occupancy
  Cd  Cd0  1  0.30432000  0.22778000  0.25000000  1.0
  Cd  Cd1  1  0.80432000  0.27223000  0.75000000  1.0
  Cd  Cd2  1  0.19568000  0.72778000  0.25000000  1.0
  Cd  Cd3  1  0.69568000  0.77223000  0.75000000  1.0
  H  H4  1  0.39483000  0.06685000  0.57816000  1.0
  H  H5  1  0.89483000  0.43315000  0.42184000  1.0
  H  H6  1  0.10517000  0.56685000  0.92184000  1.0
  H  H7  1  0.60516000  0.93315000  0.07816000  1.0
  H  H8  1  0.60517000  0.93315000  0.42184000  1.0
  H  H9  1  0.10517000  0.56685000  0.57816000  1.0
  H  H10  1  0.89483000  0.43314000  0.07816000  1.0
  H  H11  1  0.39483000  0.06685000  0.92184000  1.0
  H  H12  1  0.40677000  0.25430000  0.66394000  1.0
  H  H13  1  0.90676000  0.24570000  0.33606000  1.0
  H  H14  1  0.09323000  0.75430000  0.83606000  1.0
  H  H15  1  0.59323000  0.74570000  0.16393000  1.0
  H  H16  1  0.59323000  0.74570000  0.33607000  1.0
  H  H17  1  0.09323000  0.75430000  0.66394000  1.0
  H  H18  1  0.90677000  0.24569000  0.16393000  1.0
  H  H19  1  0.40677000  0.25430000  0.83606000  1.0
  H  H20  1  0.35421000  0.43861000  0.57662000  1.0
  H  H21  1  0.85421000  0.06138000  0.42339000  1.0
  H  H22  1  0.14579000  0.93862000  0.92338000  1.0
  H  H23  1  0.64579000  0.56138000  0.07661000  1.0
  H  H24  1  0.64579000  0.56138000  0.42339000  1.0
  H  H25  1  0.14579000  0.93862000  0.57662000  1.0
  H  H26  1  0.85421000  0.06138000  0.07661000  1.0
  H  H27  1  0.35421000  0.43862000  0.92339000  1.0
  H  H28  1  0.29672000  0.41843000  0.40870000  1.0
  H  H29  1  0.79672000  0.08157000  0.59130000  1.0
  H  H30  1  0.20328000  0.91843000  0.09130000  1.0
  H  H31  1  0.70328000  0.58157000  0.90870000  1.0
  H  H32  1  0.70328000  0.58157000  0.59130000  1.0
  H  H33  1  0.20328000  0.91843000  0.40870000  1.0
  H  H34  1  0.79672000  0.08157000  0.90870000  1.0
  H  H35  1  0.29672000  0.41843000  0.09130000  1.0
  C  C36  1  0.48226000  0.50496000  0.25000000  1.0
  C  C37  1  0.98226000  0.99505000  0.75000000  1.0
  C  C38  1  0.01775000  0.00496000  0.25000000  1.0
  C  C39  1  0.51774000  0.49505000  0.75000000  1.0
  C  C40  1  0.46578000  0.96740000  0.25000000  1.0
  C  C41  1  0.96578000  0.53261000  0.75000000  1.0
  C  C42  1  0.03422000  0.46739000  0.25000000  1.0
  C  C43  1  0.53422000  0.03261000  0.75000000  1.0
  C  C44  1  0.37295000  0.14937000  0.54444000  1.0
  C  C45  1  0.87296000  0.35062000  0.45557000  1.0
  C  C46  1  0.12704000  0.64938000  0.95556000  1.0
  C  C47  1  0.62704000  0.85062000  0.04443000  1.0
  C  C48  1  0.62704000  0.85063000  0.45556000  1.0
  C  C49  1  0.12704000  0.64937000  0.54444000  1.0
  C  C50  1  0.87297000  0.35062000  0.04443000  1.0
  C  C51  1  0.37296000  0.14937000  0.95556000  1.0
  C  C52  1  0.37890000  0.25358000  0.59211000  1.0
  C  C53  1  0.87890000  0.24642000  0.40789000  1.0
  C  C54  1  0.12109000  0.75358000  0.90789000  1.0
  C  C55  1  0.62110000  0.74642000  0.09210000  1.0
  C  C56  1  0.62110000  0.74642000  0.40790000  1.0
  C  C57  1  0.12110000  0.75357000  0.59210000  1.0
  C  C58  1  0.87890000  0.24642000  0.09210000  1.0
  C  C59  1  0.37890000  0.25358000  0.90790000  1.0
  C  C60  1  0.35159000  0.35436000  0.54408000  1.0
  C  C61  1  0.85159000  0.14564000  0.45592000  1.0
  C  C62  1  0.14841000  0.85436000  0.95592000  1.0
  C  C63  1  0.64841000  0.64564000  0.04408000  1.0
  C  C64  1  0.64841000  0.64564000  0.45592000  1.0
  C  C65  1  0.14841000  0.85435000  0.54408000  1.0
  C  C66  1  0.85159000  0.14564000  0.04408000  1.0
  C  C67  1  0.35159000  0.35436000  0.95592000  1.0
  C  C68  1  0.32075000  0.34366000  0.45169000  1.0
  C  C69  1  0.82076000  0.15633000  0.54832000  1.0
  C  C70  1  0.17925000  0.84367000  0.04832000  1.0
  C  C71  1  0.67924000  0.65633000  0.95168000  1.0
  C  C72  1  0.67924000  0.65634000  0.54832000  1.0
  C  C73  1  0.17925000  0.84366000  0.45168000  1.0
  C  C74  1  0.82075000  0.15633000  0.95168000  1.0
  C  C75  1  0.32076000  0.34367000  0.04832000  1.0
  S  S76  1  0.58350000  0.38229000  0.25000000  1.0
  S  S77  1  0.08351000  0.11772000  0.75000000  1.0
  S  S78  1  0.91649000  0.88229000  0.25001000  1.0
  S  S79  1  0.41649000  0.61771000  0.75000000  1.0
  S  S80  1  0.57679000  0.08637000  0.25000000  1.0
  S  S81  1  0.07679000  0.41363000  0.75001000  1.0
  S  S82  1  0.92322000  0.58636000  0.25000000  1.0
  S  S83  1  0.42322000  0.91365000  0.75000000  1.0
  N  N84  1  0.41105000  0.59523000  0.25000000  1.0
  N  N85  1  0.91105000  0.90477000  0.75000000  1.0
  N  N86  1  0.08895000  0.09523000  0.25000000  1.0
  N  N87  1  0.58894000  0.40477000  0.75000000  1.0
  N  N88  1  0.38730000  0.88000000  0.25000000  1.0
  N  N89  1  0.88730000  0.62000000  0.75000000  1.0
  N  N90  1  0.11269000  0.38000000  0.25001000  1.0
  N  N91  1  0.61269000  0.12001000  0.75000000  1.0
  N  N92  1  0.31754000  0.24088000  0.41037000  1.0
  N  N93  1  0.81754000  0.25913000  0.58963000  1.0
  N  N94  1  0.18246000  0.74088000  0.08962000  1.0
  N  N95  1  0.68245000  0.75912000  0.91037000  1.0
  N  N96  1  0.68246000  0.75913000  0.58963000  1.0
  N  N97  1  0.18246000  0.74087000  0.41037000  1.0
  N  N98  1  0.81754000  0.25913000  0.91037000  1.0
  N  N99  1  0.31754000  0.24088000  0.08963000  1.0
  N  N100  1  0.34282000  0.14281000  0.45580000  1.0
  N  N101  1  0.84282000  0.35718000  0.54420000  1.0
  N  N102  1  0.15718000  0.64282000  0.04420000  1.0
  N  N103  1  0.65718000  0.85718000  0.95579000  1.0
  N  N104  1  0.65719000  0.85718000  0.54420000  1.0
  N  N105  1  0.15719000  0.64282000  0.45580000  1.0
  N  N106  1  0.84282000  0.35718000  0.95579000  1.0
  N  N107  1  0.34281000  0.14282000  0.04420000  1.0
