# generated using pymatgen
data_CdH8C10(SN)2
_symmetry_space_group_name_H-M   'P 1'
_cell_length_a   7.24577000
_cell_length_b   9.39378000
_cell_length_c   18.09850000
_cell_angle_alpha   79.20620000
_cell_angle_beta   78.46650000
_cell_angle_gamma   67.33610000
_symmetry_Int_Tables_number   1
_chemical_formula_structural   CdH8C10(SN)2
_chemical_formula_sum   'Cd4 H32 C40 S8 N8'
_cell_volume   1105.49093878
_cell_formula_units_Z   4
loop_
 _symmetry_equiv_pos_site_id
 _symmetry_equiv_pos_as_xyz
  1  'x, y, z'
loop_
 _atom_site_type_symbol
 _atom_site_label
 _atom_site_symmetry_multiplicity
 _atom_site_fract_x
 _atom_site_fract_y
 _atom_site_fract_z
 _atom_site_occupancy
  Cd  Cd0  1  0.74989000  0.49244000  0.53054000  1.0
  Cd  Cd1  1  0.77300000  0.00746000  0.96941000  1.0
  Cd  Cd2  1  0.25011000  0.50757000  0.46946000  1.0
  Cd  Cd3  1  0.22700000  0.99254000  0.03059000  1.0
  H  H4  1  0.15038000  0.36003000  0.70109000  1.0
  H  H5  1  0.21117000  0.13981000  0.79898000  1.0
  H  H6  1  0.84963000  0.63997000  0.29891000  1.0
  H  H7  1  0.78883000  0.86020000  0.20102000  1.0
  H  H8  1  0.09185000  0.50961000  0.80989000  1.0
  H  H9  1  0.41056000  0.99027000  0.69019000  1.0
  H  H10  1  0.90815000  0.49038000  0.19011000  1.0
  H  H11  1  0.58944000  0.00973000  0.30981000  1.0
  H  H12  1  0.30654000  0.66844000  0.80645000  1.0
  H  H13  1  0.78059000  0.83160000  0.69350000  1.0
  H  H14  1  0.69347000  0.33155000  0.19355000  1.0
  H  H15  1  0.21940000  0.16840000  0.30650000  1.0
  H  H16  1  0.57432000  0.66583000  0.69241000  1.0
  H  H17  1  0.93206000  0.83423000  0.80750000  1.0
  H  H18  1  0.42568000  0.33417000  0.30759000  1.0
  H  H19  1  0.06793000  0.16577000  0.19250000  1.0
  H  H20  1  0.34205000  0.00498000  0.45263000  1.0
  H  H21  1  0.79934000  0.49506000  0.04762000  1.0
  H  H22  1  0.65796000  0.99502000  0.54737000  1.0
  H  H23  1  0.20066000  0.50494000  0.95238000  1.0
  H  H24  1  0.34405000  0.81691000  0.56945000  1.0
  H  H25  1  0.72991000  0.68314000  0.93084000  1.0
  H  H26  1  0.65595000  0.18309000  0.43055000  1.0
  H  H27  1  0.27008000  0.31685000  0.06916000  1.0
  H  H28  1  0.09950000  0.90565000  0.68605000  1.0
  H  H29  1  0.69094000  0.59437000  0.81418000  1.0
  H  H30  1  0.90050000  0.09436000  0.31395000  1.0
  H  H31  1  0.30905000  0.40563000  0.18582000  1.0
  H  H32  1  0.85513000  0.18326000  0.67881000  1.0
  H  H33  1  0.71708000  0.31668000  0.82137000  1.0
  H  H34  1  0.14487000  0.81674000  0.32119000  1.0
  H  H35  1  0.28292000  0.68332000  0.17863000  1.0
  C  C36  1  0.39939000  0.42718000  0.64226000  1.0
  C  C37  1  0.46861000  0.07275000  0.85776000  1.0
  C  C38  1  0.60061000  0.57283000  0.35773000  1.0
  C  C39  1  0.53139000  0.92725000  0.14225000  1.0
  C  C40  1  0.24243000  0.42741000  0.70244000  1.0
  C  C41  1  0.37190000  0.07247000  0.79761000  1.0
  C  C42  1  0.75758000  0.57258000  0.29755000  1.0
  C  C43  1  0.62809000  0.92753000  0.20239000  1.0
  C  C44  1  0.20962000  0.51223000  0.76210000  1.0
  C  C45  1  0.48330000  0.98767000  0.73795000  1.0
  C  C46  1  0.79039000  0.48777000  0.23790000  1.0
  C  C47  1  0.51669000  0.01234000  0.26205000  1.0
  C  C48  1  0.32868000  0.60033000  0.76054000  1.0
  C  C49  1  0.68889000  0.89963000  0.73945000  1.0
  C  C50  1  0.67132000  0.39966000  0.23946000  1.0
  C  C51  1  0.31111000  0.10037000  0.26055000  1.0
  C  C52  1  0.47743000  0.59824000  0.69851000  1.0
  C  C53  1  0.77368000  0.90173000  0.80145000  1.0
  C  C54  1  0.52258000  0.40175000  0.30149000  1.0
  C  C55  1  0.22632000  0.09827000  0.19855000  1.0
  C  C56  1  0.10185000  0.19551000  0.50487000  1.0
  C  C57  1  0.80209000  0.30443000  0.99535000  1.0
  C  C58  1  0.89815000  0.80449000  0.49513000  1.0
  C  C59  1  0.19791000  0.69557000  0.00465000  1.0
  C  C60  1  0.23953000  0.04167000  0.50410000  1.0
  C  C61  1  0.78494000  0.45832000  0.99616000  1.0
  C  C62  1  0.76047000  0.95833000  0.49590000  1.0
  C  C63  1  0.21506000  0.54168000  0.00384000  1.0
  C  C64  1  0.23985000  0.93709000  0.56946000  1.0
  C  C65  1  0.74603000  0.56294000  0.93080000  1.0
  C  C66  1  0.76015000  0.06291000  0.43055000  1.0
  C  C67  1  0.25396000  0.43706000  0.06920000  1.0
  C  C68  1  0.10399000  0.98599000  0.63456000  1.0
  C  C69  1  0.72433000  0.51400000  0.86565000  1.0
  C  C70  1  0.89601000  0.01402000  0.36545000  1.0
  C  C71  1  0.27567000  0.48599000  0.13435000  1.0
  C  C72  1  0.97018000  0.13925000  0.63100000  1.0
  C  C73  1  0.74038000  0.36069000  0.86917000  1.0
  C  C74  1  0.02983000  0.86076000  0.36900000  1.0
  C  C75  1  0.25962000  0.63931000  0.13083000  1.0
  S  S76  1  0.08052000  0.33596000  0.42544000  1.0
  S  S77  1  0.84213000  0.16390000  0.07473000  1.0
  S  S78  1  0.91948000  0.66404000  0.57456000  1.0
  S  S79  1  0.15787000  0.83610000  0.92527000  1.0
  S  S80  1  0.46270000  0.31478000  0.56815000  1.0
  S  S81  1  0.34561000  0.18515000  0.93186000  1.0
  S  S82  1  0.53731000  0.68522000  0.43185000  1.0
  S  S83  1  0.65438000  0.81485000  0.06814000  1.0
  N  N84  1  0.51308000  0.51336000  0.64157000  1.0
  N  N85  1  0.66772000  0.98660000  0.85841000  1.0
  N  N86  1  0.48692000  0.48664000  0.35843000  1.0
  N  N87  1  0.33227000  0.01340000  0.14159000  1.0
  N  N88  1  0.96988000  0.24091000  0.56810000  1.0
  N  N89  1  0.77883000  0.25902000  0.93207000  1.0
  N  N90  1  0.03012000  0.75909000  0.43190000  1.0
  N  N91  1  0.22117000  0.74098000  0.06793000  1.0
