# generated using pymatgen
data_ZnHC9N5O13
_symmetry_space_group_name_H-M   'P 1'
_cell_length_a   7.91977000
_cell_length_b   8.87152000
_cell_length_c   16.02190000
_cell_angle_alpha   84.92970000
_cell_angle_beta   87.01010000
_cell_angle_gamma   80.87030000
_symmetry_Int_Tables_number   1
_chemical_formula_structural   ZnHC9N5O13
_chemical_formula_sum   'Zn2 H2 C18 N10 O26'
_cell_volume   1106.26251701
_cell_formula_units_Z   2
loop_
 _symmetry_equiv_pos_site_id
 _symmetry_equiv_pos_as_xyz
  1  'x, y, z'
loop_
 _atom_site_type_symbol
 _atom_site_label
 _atom_site_symmetry_multiplicity
 _atom_site_fract_x
 _atom_site_fract_y
 _atom_site_fract_z
 _atom_site_occupancy
  Zn  Zn0  1  0.67770000  0.49053000  0.49018000  1.0
  Zn  Zn1  1  0.32298000  0.50819000  0.51003000  1.0
  H  H2  1  0.36579000  0.85257000  0.03367000  1.0
  H  H3  1  0.63248000  0.14869000  0.96655000  1.0
  C  C4  1  0.45030000  0.79245000  0.49187000  1.0
  C  C5  1  0.55536000  0.20624000  0.50757000  1.0
  C  C6  1  0.47675000  0.49756000  0.33957000  1.0
  C  C7  1  0.52051000  0.50114000  0.66083000  1.0
  C  C8  1  0.43683000  0.96115000  0.49700000  1.0
  C  C9  1  0.56889000  0.03757000  0.50225000  1.0
  C  C10  1  0.57664000  0.62255000  0.97096000  1.0
  C  C11  1  0.42175000  0.37868000  0.02927000  1.0
  C  C12  1  0.40016000  0.63657000  0.02138000  1.0
  C  C13  1  0.59819000  0.36467000  0.97888000  1.0
  C  C14  1  0.46816000  0.49560000  0.24998000  1.0
  C  C15  1  0.52963000  0.50379000  0.75033000  1.0
  C  C16  1  0.65485000  0.48781000  0.03340000  1.0
  C  C17  1  0.34357000  0.51337000  0.96685000  1.0
  C  C18  1  0.47847000  0.49545000  0.08649000  1.0
  C  C19  1  0.51989000  0.50576000  0.91373000  1.0
  C  C20  1  0.46610000  0.49223000  0.17436000  1.0
  C  C21  1  0.53202000  0.50833000  0.82589000  1.0
  N  N22  1  0.05747000  0.49740000  0.52031000  1.0
  N  N23  1  0.94300000  0.50232000  0.47966000  1.0
  N  N24  1  0.65963000  0.75443000  0.94013000  1.0
  N  N25  1  0.33876000  0.24681000  0.06009000  1.0
  N  N26  1  0.18353000  0.52874000  0.92338000  1.0
  N  N27  1  0.81500000  0.47219000  0.07678000  1.0
  N  N28  1  0.25754000  0.04155000  0.49799000  1.0
  N  N29  1  0.74796000  0.95683000  0.50145000  1.0
  N  N30  1  0.00554000  0.45016000  0.66495000  1.0
  N  N31  1  0.99254000  0.55068000  0.33494000  1.0
  O  O32  1  0.60010000  0.72097000  0.48004000  1.0
  O  O33  1  0.40456000  0.27866000  0.51404000  1.0
  O  O34  1  0.31122000  0.73821000  0.50082000  1.0
  O  O35  1  0.69489000  0.25978000  0.50405000  1.0
  O  O36  1  0.62620000  0.48738000  0.36728000  1.0
  O  O37  1  0.37214000  0.50143000  0.63384000  1.0
  O  O38  1  0.33554000  0.50907000  0.38200000  1.0
  O  O39  1  0.66033000  0.49922000  0.61767000  1.0
  O  O40  1  0.30045000  0.76625000  0.04172000  1.0
  O  O41  1  0.69785000  0.23499000  0.95853000  1.0
  O  O42  1  0.61390000  0.87217000  0.97820000  1.0
  O  O43  1  0.76294000  0.74040000  0.88063000  1.0
  O  O44  1  0.38452000  0.12911000  0.02199000  1.0
  O  O45  1  0.23547000  0.26080000  0.11960000  1.0
  O  O46  1  0.10157000  0.41996000  0.93192000  1.0
  O  O47  1  0.14845000  0.65009000  0.87939000  1.0
  O  O48  1  0.85012000  0.35066000  0.12060000  1.0
  O  O49  1  0.89700000  0.58095000  0.06834000  1.0
  O  O50  1  0.18180000  0.04717000  0.56689000  1.0
  O  O51  1  0.19912000  0.08806000  0.42899000  1.0
  O  O52  1  0.82514000  0.95489000  0.43283000  1.0
  O  O53  1  0.80477000  0.90611000  0.57022000  1.0
  O  O54  1  0.98936000  0.56486000  0.70073000  1.0
  O  O55  1  0.00962000  0.31537000  0.68283000  1.0
  O  O56  1  0.01054000  0.43596000  0.29909000  1.0
  O  O57  1  0.98465000  0.68584000  0.31710000  1.0
