# generated using pymatgen
data_CaH12C8(N4O3)2
_symmetry_space_group_name_H-M   'P 1'
_cell_length_a   7.28008000
_cell_length_b   10.18300000
_cell_length_c   11.00778464
_cell_angle_alpha   62.45174408
_cell_angle_beta   83.72888401
_cell_angle_gamma   76.35260000
_symmetry_Int_Tables_number   1
_chemical_formula_structural   CaH12C8(N4O3)2
_chemical_formula_sum   'Ca2 H24 C16 N16 O12'
_cell_volume   703.09157947
_cell_formula_units_Z   2
loop_
 _symmetry_equiv_pos_site_id
 _symmetry_equiv_pos_as_xyz
  1  'x, y, z'
loop_
 _atom_site_type_symbol
 _atom_site_label
 _atom_site_symmetry_multiplicity
 _atom_site_fract_x
 _atom_site_fract_y
 _atom_site_fract_z
 _atom_site_occupancy
  Ca  Ca0  1  0.24987000  0.07336000  0.85324000  1.0
  Ca  Ca1  1  0.75012000  0.92664000  0.14676000  1.0
  H  H2  1  0.04040000  0.37772000  0.67565000  1.0
  H  H3  1  0.45983000  0.94676000  0.67564000  1.0
  H  H4  1  0.95959000  0.62228000  0.32436000  1.0
  H  H5  1  0.54017000  0.05323000  0.32436000  1.0
  H  H6  1  0.00912000  0.28293000  0.59933000  1.0
  H  H7  1  0.49042000  0.11808000  0.59914000  1.0
  H  H8  1  0.99088000  0.71708000  0.40067000  1.0
  H  H9  1  0.50958000  0.88192000  0.40086000  1.0
  H  H10  1  0.84502000  0.02384000  0.59943000  1.0
  H  H11  1  0.65467000  0.37642000  0.59948000  1.0
  H  H12  1  0.15499000  0.97616000  0.40056000  1.0
  H  H13  1  0.34532000  0.62357000  0.40052000  1.0
  H  H14  1  0.80894000  0.00282000  0.45219000  1.0
  H  H15  1  0.69134000  0.54451000  0.45228000  1.0
  H  H16  1  0.19109000  0.99718000  0.54780000  1.0
  H  H17  1  0.30866000  0.45548000  0.54772000  1.0
  H  H18  1  0.85953000  0.66334000  0.95459000  1.0
  H  H19  1  0.64096000  0.38180000  0.95462000  1.0
  H  H20  1  0.14046000  0.33665000  0.04543000  1.0
  H  H21  1  0.35903000  0.61821000  0.04538000  1.0
  H  H22  1  0.72152000  0.83680000  0.83439000  1.0
  H  H23  1  0.77872000  0.32846000  0.83435000  1.0
  H  H24  1  0.27846000  0.16322000  0.16560000  1.0
  H  H25  1  0.22128000  0.67153000  0.16566000  1.0
  C  C26  1  0.98640000  0.85786000  0.88314000  1.0
  C  C27  1  0.51368000  0.25870000  0.88342000  1.0
  C  C28  1  0.01357000  0.14215000  0.11687000  1.0
  C  C29  1  0.48631000  0.74132000  0.11657000  1.0
  C  C30  1  0.90932000  0.97096000  0.53376000  1.0
  C  C31  1  0.59077000  0.49505000  0.53380000  1.0
  C  C32  1  0.09071000  0.02903000  0.46624000  1.0
  C  C33  1  0.40922000  0.50496000  0.46619000  1.0
  C  C34  1  0.94965000  0.80335000  0.61577000  1.0
  C  C35  1  0.55082000  0.58067000  0.61581000  1.0
  C  C36  1  0.05036000  0.19664000  0.38424000  1.0
  C  C37  1  0.44918000  0.41933000  0.38418000  1.0
  C  C38  1  0.86561000  0.76721000  0.85977000  1.0
  C  C39  1  0.63467000  0.37268000  0.85985000  1.0
  C  C40  1  0.13438000  0.23278000  0.14024000  1.0
  C  C41  1  0.36534000  0.62732000  0.14015000  1.0
  N  N42  1  0.98291000  0.57212000  0.78619000  1.0
  N  N43  1  0.51754000  0.64139000  0.78630000  1.0
  N  N44  1  0.01710000  0.42788000  0.21382000  1.0
  N  N45  1  0.48246000  0.35862000  0.21369000  1.0
  N  N46  1  0.93361000  0.72140000  0.75312000  1.0
  N  N47  1  0.56670000  0.52519000  0.75318000  1.0
  N  N48  1  0.06639000  0.27860000  0.24688000  1.0
  N  N49  1  0.43330000  0.47482000  0.24681000  1.0
  N  N50  1  0.00749000  0.70431000  0.56460000  1.0
  N  N51  1  0.49326000  0.73088000  0.56468000  1.0
  N  N52  1  0.99253000  0.29569000  0.43540000  1.0
  N  N53  1  0.50674000  0.26912000  0.43531000  1.0
  N  N54  1  0.02608000  0.56437000  0.67159000  1.0
  N  N55  1  0.47465000  0.76378000  0.67172000  1.0
  N  N56  1  0.97393000  0.43563000  0.32842000  1.0
  N  N57  1  0.52535000  0.23623000  0.32827000  1.0
  O  O58  1  0.02970000  0.27614000  0.69034000  1.0
  O  O59  1  0.47014000  0.03381000  0.69020000  1.0
  O  O60  1  0.97029000  0.72386000  0.30967000  1.0
  O  O61  1  0.52987000  0.96619000  0.30980000  1.0
  O  O62  1  0.10761000  0.91528000  0.79499000  1.0
  O  O63  1  0.39279000  0.28919000  0.79517000  1.0
  O  O64  1  0.89239000  0.08473000  0.20500000  1.0
  O  O65  1  0.60720000  0.71080000  0.20486000  1.0
  O  O66  1  0.94880000  0.87005000  0.99279000  1.0
  O  O67  1  0.55104000  0.13715000  0.99333000  1.0
  O  O68  1  0.05120000  0.12997000  0.00719000  1.0
  O  O69  1  0.44897000  0.86285000  0.00668000  1.0
