# generated using pymatgen
data_Zn4H8C24S4O13
_symmetry_space_group_name_H-M   'P 1'
_cell_length_a   19.65350000
_cell_length_b   19.66210000
_cell_length_c   33.33660000
_cell_angle_alpha   79.28810000
_cell_angle_beta   79.31500000
_cell_angle_gamma   64.02540000
_symmetry_Int_Tables_number   1
_chemical_formula_structural   Zn4H8C24S4O13
_chemical_formula_sum   'Zn16 H32 C96 S16 O52'
_cell_volume   11300.01861998
_cell_formula_units_Z   4
loop_
 _symmetry_equiv_pos_site_id
 _symmetry_equiv_pos_as_xyz
  1  'x, y, z'
loop_
 _atom_site_type_symbol
 _atom_site_label
 _atom_site_symmetry_multiplicity
 _atom_site_fract_x
 _atom_site_fract_y
 _atom_site_fract_z
 _atom_site_occupancy
  Zn  Zn0  1  0.05559000  0.40095000  0.47828000  1.0
  Zn  Zn1  1  0.98328000  0.48319000  0.56024000  1.0
  Zn  Zn2  1  0.06018000  0.56044000  0.48311000  1.0
  Zn  Zn3  1  0.90102000  0.55528000  0.47834000  1.0
  Zn  Zn4  1  0.69434000  0.34909000  0.27171000  1.0
  Zn  Zn5  1  0.68977000  0.18958000  0.26686000  1.0
  Zn  Zn6  1  0.76696000  0.26675000  0.18967000  1.0
  Zn  Zn7  1  0.84873000  0.19477000  0.27174000  1.0
  Zn  Zn8  1  0.26674000  0.76682000  0.68976000  1.0
  Zn  Zn9  1  0.34897000  0.69469000  0.77167000  1.0
  Zn  Zn10  1  0.19437000  0.84905000  0.77175000  1.0
  Zn  Zn11  1  0.18980000  0.68955000  0.76690000  1.0
  Zn  Zn12  1  0.56021000  0.06042000  0.98315000  1.0
  Zn  Zn13  1  0.40127000  0.05519000  0.97827000  1.0
  Zn  Zn14  1  0.55562000  0.90091000  0.97832000  1.0
  Zn  Zn15  1  0.48305000  0.98326000  0.06033000  1.0
  H  H16  1  0.79607000  0.50214000  0.39913000  1.0
  H  H17  1  0.95392000  0.24787000  0.35088000  1.0
  H  H18  1  0.74783000  0.45389000  0.35085000  1.0
  H  H19  1  0.00220000  0.29612000  0.39915000  1.0
  H  H20  1  0.15236000  0.65241000  0.54935000  1.0
  H  H21  1  0.09764000  0.59758000  0.70067000  1.0
  H  H22  1  0.20066000  0.70067000  0.59762000  1.0
  H  H23  1  0.04934000  0.54932000  0.65240000  1.0
  H  H24  1  0.28629000  0.51078000  0.40925000  1.0
  H  H25  1  0.46368000  0.23921000  0.34073000  1.0
  H  H26  1  0.77155000  0.54706000  0.64856000  1.0
  H  H27  1  0.47850000  0.70294000  0.60143000  1.0
  H  H28  1  0.04709000  0.27149000  0.64856000  1.0
  H  H29  1  0.20293000  0.97854000  0.60143000  1.0
  H  H30  1  0.80065000  0.77920000  0.40221000  1.0
  H  H31  1  0.94930000  0.97081000  0.34781000  1.0
  H  H32  1  0.70069000  0.20065000  0.09762000  1.0
  H  H33  1  0.54931000  0.04934000  0.15240000  1.0
  H  H34  1  0.65238000  0.15241000  0.04935000  1.0
  H  H35  1  0.59762000  0.09758000  0.20066000  1.0
  H  H36  1  0.70297000  0.47853000  0.10143000  1.0
  H  H37  1  0.54705000  0.77151000  0.14856000  1.0
  H  H38  1  0.08702000  0.10855000  0.21003000  1.0
  H  H39  1  0.16297000  0.14145000  0.03995000  1.0
  H  H40  1  0.24783000  0.95389000  0.85085000  1.0
  H  H41  1  0.50220000  0.79611000  0.89914000  1.0
  H  H42  1  0.29610000  0.00214000  0.89912000  1.0
  H  H43  1  0.45394000  0.74787000  0.85086000  1.0
  H  H44  1  0.44932000  0.47080000  0.84779000  1.0
  H  H45  1  0.30067000  0.27920000  0.90220000  1.0
  H  H46  1  0.96367000  0.73921000  0.84073000  1.0
  H  H47  1  0.78628000  0.01078000  0.90926000  1.0
  C  C48  1  0.06125000  0.31596000  0.56168000  1.0
  C  C49  1  0.06942000  0.56943000  0.56942000  1.0
  C  C50  1  0.18425000  0.43899000  0.43859000  1.0
  C  C51  1  0.93811000  0.68423000  0.43858000  1.0
  C  C52  1  0.93058000  0.43058000  0.43060000  1.0
  C  C53  1  0.81597000  0.56125000  0.56167000  1.0
  C  C54  1  0.56567000  0.31101000  0.31142000  1.0
  C  C55  1  0.68062000  0.18058000  0.18055000  1.0
  C  C56  1  0.68881000  0.43405000  0.18834000  1.0
  C  C57  1  0.93449000  0.18841000  0.18876000  1.0
  C  C58  1  0.81944000  0.31942000  0.31942000  1.0
  C  C59  1  0.81185000  0.06570000  0.31145000  1.0
  C  C60  1  0.43405000  0.68880000  0.68834000  1.0
  C  C61  1  0.31944000  0.81942000  0.81941000  1.0
  C  C62  1  0.18880000  0.93405000  0.68833000  1.0
  C  C63  1  0.06565000  0.81102000  0.81142000  1.0
  C  C64  1  0.18061000  0.68059000  0.68055000  1.0
  C  C65  1  0.31186000  0.56571000  0.81144000  1.0
  C  C66  1  0.43812000  0.18424000  0.93857000  1.0
  C  C67  1  0.43058000  0.93058000  0.93059000  1.0
  C  C68  1  0.68424000  0.93900000  0.93858000  1.0
  C  C69  1  0.56124000  0.81596000  0.06167000  1.0
  C  C70  1  0.56942000  0.06944000  0.06942000  1.0
  C  C71  1  0.31551000  0.06168000  0.06122000  1.0
  C  C72  1  0.90190000  0.40188000  0.40183000  1.0
  C  C73  1  0.84821000  0.34821000  0.34811000  1.0
  C  C74  1  0.83012000  0.44663000  0.38833000  1.0
  C  C75  1  0.91995000  0.30344000  0.36163000  1.0
  C  C76  1  0.80342000  0.41992000  0.36161000  1.0
  C  C77  1  0.94665000  0.33014000  0.38835000  1.0
  C  C78  1  0.09815000  0.59815000  0.59815000  1.0
  C  C79  1  0.15184000  0.65184000  0.65185000  1.0
  C  C80  1  0.14078000  0.64078000  0.58252000  1.0
  C  C81  1  0.10923000  0.60921000  0.66749000  1.0
  C  C82  1  0.16749000  0.66749000  0.60923000  1.0
  C  C83  1  0.08251000  0.58250000  0.64079000  1.0
  C  C84  1  0.30359000  0.45390000  0.40121000  1.0
  C  C85  1  0.44631000  0.29609000  0.34877000  1.0
  C  C86  1  0.25902000  0.41365000  0.41364000  1.0
  C  C87  1  0.49089000  0.33634000  0.33637000  1.0
  C  C88  1  0.37812000  0.33875000  0.37239000  1.0
  C  C89  1  0.37175000  0.41121000  0.37760000  1.0
  C  C90  1  0.72637000  0.57613000  0.62879000  1.0
  C  C91  1  0.52366000  0.67391000  0.62120000  1.0
  C  C92  1  0.74097000  0.58635000  0.58638000  1.0
  C  C93  1  0.50906000  0.66365000  0.66361000  1.0
  C  C94  1  0.60271000  0.64209000  0.60847000  1.0
  C  C95  1  0.64734000  0.60795000  0.64154000  1.0
  C  C96  1  0.07614000  0.22635000  0.62879000  1.0
  C  C97  1  0.17392000  0.02367000  0.62121000  1.0
  C  C98  1  0.08635000  0.24095000  0.58637000  1.0
  C  C99  1  0.16366000  0.00907000  0.66362000  1.0
  C  C100  1  0.14209000  0.10271000  0.60848000  1.0
  C  C101  1  0.10796000  0.14732000  0.64154000  1.0
  C  C102  1  0.84485000  0.79994000  0.39757000  1.0
  C  C103  1  0.90513000  0.95002000  0.35247000  1.0
  C  C104  1  0.91360000  0.75902000  0.41364000  1.0
  C  C105  1  0.83637000  0.99092000  0.33640000  1.0
  C  C106  1  0.90839000  0.88046000  0.37472000  1.0
  C  C107  1  0.84172000  0.86942000  0.37526000  1.0
  C  C108  1  0.65184000  0.15184000  0.15185000  1.0
  C  C109  1  0.59816000  0.09814000  0.09815000  1.0
  C  C110  1  0.66750000  0.16749000  0.10923000  1.0
  C  C111  1  0.58250000  0.08250000  0.14079000  1.0
  C  C112  1  0.64079000  0.14078000  0.08253000  1.0
  C  C113  1  0.60922000  0.10920000  0.16749000  1.0
  C  C114  1  0.67392000  0.52366000  0.12121000  1.0
  C  C115  1  0.57613000  0.72636000  0.12879000  1.0
  C  C116  1  0.66366000  0.50906000  0.16362000  1.0
  C  C117  1  0.58636000  0.74095000  0.08637000  1.0
  C  C118  1  0.60796000  0.64733000  0.14153000  1.0
  C  C119  1  0.64210000  0.60271000  0.10848000  1.0
  C  C120  1  0.07997000  0.12486000  0.17755000  1.0
  C  C121  1  0.17003000  0.12513000  0.07242000  1.0
  C  C122  1  0.00907000  0.16363000  0.16362000  1.0
  C  C123  1  0.24093000  0.08641000  0.08635000  1.0
  C  C124  1  0.11136000  0.13916000  0.10556000  1.0
  C  C125  1  0.13861000  0.11078000  0.14441000  1.0
  C  C126  1  0.34821000  0.84820000  0.84810000  1.0
  C  C127  1  0.40189000  0.90187000  0.90183000  1.0
  C  C128  1  0.30342000  0.91991000  0.86161000  1.0
  C  C129  1  0.44664000  0.83013000  0.88834000  1.0
  C  C130  1  0.33012000  0.94661000  0.88832000  1.0
  C  C131  1  0.41995000  0.80343000  0.86162000  1.0
  C  C132  1  0.40514000  0.45003000  0.85246000  1.0
  C  C133  1  0.34486000  0.29995000  0.89756000  1.0
  C  C134  1  0.33638000  0.49093000  0.83639000  1.0
  C  C135  1  0.41361000  0.25903000  0.91364000  1.0
  C  C136  1  0.34171000  0.36943000  0.87526000  1.0
  C  C137  1  0.40839000  0.38048000  0.87471000  1.0
  C  C138  1  0.94630000  0.79610000  0.84877000  1.0
  C  C139  1  0.80359000  0.95391000  0.90122000  1.0
  C  C140  1  0.99088000  0.83635000  0.83637000  1.0
  C  C141  1  0.75901000  0.91365000  0.91364000  1.0
  C  C142  1  0.87175000  0.91121000  0.87760000  1.0
  C  C143  1  0.87811000  0.83875000  0.87239000  1.0
  S  S144  1  0.29950000  0.32402000  0.39682000  1.0
  S  S145  1  0.45038000  0.42594000  0.35321000  1.0
  S  S146  1  0.65905000  0.63454000  0.56180000  1.0
  S  S147  1  0.59097000  0.61548000  0.68820000  1.0
  S  S148  1  0.13454000  0.15908000  0.56181000  1.0
  S  S149  1  0.11549000  0.09093000  0.68820000  1.0
  S  S150  1  0.97460000  0.80454000  0.40183000  1.0
  S  S151  1  0.77546000  0.94533000  0.34819000  1.0
  S  S152  1  0.61548000  0.59094000  0.18820000  1.0
  S  S153  1  0.63455000  0.65907000  0.06181000  1.0
  S  S154  1  0.01320000  0.18315000  0.11037000  1.0
  S  S155  1  0.23679000  0.06686000  0.13960000  1.0
  S  S156  1  0.27545000  0.44535000  0.84819000  1.0
  S  S157  1  0.47460000  0.30455000  0.90183000  1.0
  S  S158  1  0.95038000  0.92595000  0.85322000  1.0
  S  S159  1  0.79950000  0.82403000  0.89682000  1.0
  O  O160  1  0.00003000  0.49995000  0.49997000  1.0
  O  O161  1  0.07742000  0.31582000  0.52266000  1.0
  O  O162  1  0.03098000  0.53103000  0.58569000  1.0
  O  O163  1  0.15691000  0.50541000  0.44999000  1.0
  O  O164  1  0.02575000  0.37422000  0.58122000  1.0
  O  O165  1  0.15339000  0.39182000  0.44660000  1.0
  O  O166  1  0.08566000  0.58565000  0.53100000  1.0
  O  O167  1  0.00474000  0.65688000  0.45000000  1.0
  O  O168  1  0.88698000  0.49631000  0.44168000  1.0
  O  O169  1  0.89109000  0.65342000  0.44659000  1.0
  O  O170  1  0.99630000  0.38701000  0.44172000  1.0
  O  O171  1  0.87428000  0.52572000  0.58120000  1.0
  O  O172  1  0.81576000  0.57746000  0.52265000  1.0
  O  O173  1  0.74991000  0.25010000  0.24999000  1.0
  O  O174  1  0.59653000  0.35819000  0.30342000  1.0
  O  O175  1  0.66439000  0.16434000  0.21899000  1.0
  O  O176  1  0.72431000  0.37576000  0.16882000  1.0
  O  O177  1  0.59303000  0.24460000  0.30001000  1.0
  O  O178  1  0.67261000  0.43423000  0.22736000  1.0
  O  O179  1  0.71906000  0.21899000  0.16429000  1.0
  O  O180  1  0.87605000  0.22403000  0.16916000  1.0
  O  O181  1  0.86304000  0.25365000  0.30836000  1.0
  O  O182  1  0.93465000  0.17224000  0.22769000  1.0
  O  O183  1  0.75369000  0.36291000  0.30832000  1.0
  O  O184  1  0.74525000  0.09309000  0.30001000  1.0
  O  O185  1  0.85891000  0.09649000  0.30344000  1.0
  O  O186  1  0.24996000  0.75006000  0.75004000  1.0
  O  O187  1  0.37574000  0.72433000  0.66880000  1.0
  O  O188  1  0.36302000  0.75366000  0.80834000  1.0
  O  O189  1  0.17261000  0.93418000  0.72735000  1.0
  O  O190  1  0.43425000  0.67256000  0.72736000  1.0
  O  O191  1  0.22431000  0.87578000  0.66879000  1.0
  O  O192  1  0.25369000  0.86296000  0.80831000  1.0
  O  O193  1  0.09652000  0.85820000  0.80341000  1.0
  O  O194  1  0.16438000  0.66438000  0.71898000  1.0
  O  O195  1  0.09301000  0.74462000  0.80000000  1.0
  O  O196  1  0.21906000  0.71899000  0.66427000  1.0
  O  O197  1  0.35888000  0.59653000  0.80343000  1.0
  O  O198  1  0.24525000  0.59305000  0.79999000  1.0
  O  O199  1  0.50008000  0.99990000  0.00001000  1.0
  O  O200  1  0.50475000  0.15684000  0.94999000  1.0
  O  O201  1  0.38696000  0.99632000  0.94166000  1.0
  O  O202  1  0.65338000  0.89182000  0.94660000  1.0
  O  O203  1  0.39106000  0.15345000  0.94657000  1.0
  O  O204  1  0.65689000  0.00542000  0.94997000  1.0
  O  O205  1  0.49630000  0.88706000  0.94171000  1.0
  O  O206  1  0.57742000  0.81578000  0.02265000  1.0
  O  O207  1  0.53098000  0.03103000  0.08567000  1.0
  O  O208  1  0.52574000  0.87425000  0.08119000  1.0
  O  O209  1  0.58566000  0.08570000  0.03099000  1.0
  O  O210  1  0.31535000  0.07781000  0.02230000  1.0
  O  O211  1  0.37395000  0.02606000  0.08082000  1.0
