# generated using pymatgen
data_CdH5C2SN3O5
_symmetry_space_group_name_H-M   'P 1'
_cell_length_a   5.49839000
_cell_length_b   7.98446000
_cell_length_c   9.40384000
_cell_angle_alpha   79.15160000
_cell_angle_beta   73.20770000
_cell_angle_gamma   87.06590000
_symmetry_Int_Tables_number   1
_chemical_formula_structural   CdH5C2SN3O5
_chemical_formula_sum   'Cd2 H10 C4 S2 N6 O10'
_cell_volume   388.17423972
_cell_formula_units_Z   2
loop_
 _symmetry_equiv_pos_site_id
 _symmetry_equiv_pos_as_xyz
  1  'x, y, z'
loop_
 _atom_site_type_symbol
 _atom_site_label
 _atom_site_symmetry_multiplicity
 _atom_site_fract_x
 _atom_site_fract_y
 _atom_site_fract_z
 _atom_site_occupancy
  Cd  Cd0  1  0.00000000  0.00000000  0.00000000  1.0
  Cd  Cd1  1  0.50000000  0.50000000  0.50000000  1.0
  H  H2  1  0.47088000  0.81499000  0.72410000  1.0
  H  H3  1  0.52911000  0.18502000  0.27589000  1.0
  H  H4  1  0.89536000  0.47082000  0.75052000  1.0
  H  H5  1  0.10465000  0.52917000  0.24948000  1.0
  H  H6  1  0.73197000  0.66477000  0.95607000  1.0
  H  H7  1  0.26803000  0.33523000  0.04393000  1.0
  H  H8  1  0.03143000  0.27808000  0.56799000  1.0
  H  H9  1  0.96857000  0.72193000  0.43200000  1.0
  H  H10  1  0.25476000  0.20011000  0.62932000  1.0
  H  H11  1  0.74524000  0.79989000  0.37067000  1.0
  C  C12  1  0.29310000  0.74493000  0.75924000  1.0
  C  C13  1  0.70689000  0.25508000  0.24076000  1.0
  C  C14  1  0.00383000  0.56886000  0.77077000  1.0
  C  C15  1  0.99618000  0.43114000  0.22924000  1.0
  S  S16  1  0.42659000  0.79182000  0.19130000  1.0
  S  S17  1  0.57341000  0.20818000  0.80870000  1.0
  N  N18  1  0.24405000  0.61629000  0.69487000  1.0
  N  N19  1  0.75595000  0.38371000  0.30513000  1.0
  N  N20  1  0.09449000  0.77637000  0.87065000  1.0
  N  N21  1  0.90552000  0.22362000  0.12935000  1.0
  N  N22  1  0.91337000  0.66428000  0.87628000  1.0
  N  N23  1  0.08664000  0.33572000  0.12372000  1.0
  O  O24  1  0.21908000  0.26610000  0.53687000  1.0
  O  O25  1  0.78092000  0.73391000  0.46312000  1.0
  O  O26  1  0.29578000  0.69269000  0.34588000  1.0
  O  O27  1  0.70422000  0.30731000  0.65412000  1.0
  O  O28  1  0.67768000  0.85223000  0.19736000  1.0
  O  O29  1  0.32231000  0.14777000  0.80264000  1.0
  O  O30  1  0.26727000  0.94036000  0.15748000  1.0
  O  O31  1  0.73272000  0.05964000  0.84252000  1.0
  O  O32  1  0.46674000  0.67783000  0.07929000  1.0
  O  O33  1  0.53325000  0.32217000  0.92071000  1.0
