# generated using pymatgen
data_CuH16C20S2(N2O3)2
_symmetry_space_group_name_H-M   'P 1'
_cell_length_a   11.12060000
_cell_length_b   11.13500000
_cell_length_c   16.91790000
_cell_angle_alpha   89.99740000
_cell_angle_beta   77.11800000
_cell_angle_gamma   89.99580000
_symmetry_Int_Tables_number   1
_chemical_formula_structural   CuH16C20S2(N2O3)2
_chemical_formula_sum   'Cu2 H32 C40 S4 N8 O12'
_cell_volume   2042.18156062
_cell_formula_units_Z   2
loop_
 _symmetry_equiv_pos_site_id
 _symmetry_equiv_pos_as_xyz
  1  'x, y, z'
loop_
 _atom_site_type_symbol
 _atom_site_label
 _atom_site_symmetry_multiplicity
 _atom_site_fract_x
 _atom_site_fract_y
 _atom_site_fract_z
 _atom_site_occupancy
  Cu  Cu0  1  0.49999000  0.44733000  0.75000000  1.0
  Cu  Cu1  1  0.50000000  0.55772000  0.25001000  1.0
  H  H2  1  0.27289000  0.52608000  0.86512000  1.0
  H  H3  1  0.04577000  0.53511000  0.86961000  1.0
  H  H4  1  0.12564000  0.37571000  0.63033000  1.0
  H  H5  1  0.34580000  0.36859000  0.63683000  1.0
  H  H6  1  0.38825000  0.25677000  0.86543000  1.0
  H  H7  1  0.38515000  0.03215000  0.87134000  1.0
  H  H8  1  0.55426000  0.86030000  0.86552000  1.0
  H  H9  1  0.55774000  0.63822000  0.85884000  1.0
  H  H10  1  0.72708000  0.52609000  0.63488000  1.0
  H  H11  1  0.95420000  0.53513000  0.63039000  1.0
  H  H12  1  0.87435000  0.37570000  0.86967000  1.0
  H  H13  1  0.65418000  0.36859000  0.86318000  1.0
  H  H14  1  0.61171000  0.25675000  0.63458000  1.0
  H  H15  1  0.61479000  0.03213000  0.62869000  1.0
  H  H16  1  0.44564000  0.86037000  0.63453000  1.0
  H  H17  1  0.44217000  0.63828000  0.64117000  1.0
  H  H18  1  0.72703000  0.49102000  0.13157000  1.0
  H  H19  1  0.95362000  0.47626000  0.12694000  1.0
  H  H20  1  0.87398000  0.60762000  0.37398000  1.0
  H  H21  1  0.65448000  0.61701000  0.36850000  1.0
  H  H22  1  0.50026000  0.74989000  0.12680000  1.0
  H  H23  1  0.50209000  0.97075000  0.12163000  1.0
  H  H24  1  0.41977000  0.14668000  0.14409000  1.0
  H  H25  1  0.42249000  0.36700000  0.14861000  1.0
  H  H26  1  0.27300000  0.49098000  0.36843000  1.0
  H  H27  1  0.04641000  0.47621000  0.37306000  1.0
  H  H28  1  0.12601000  0.60767000  0.12604000  1.0
  H  H29  1  0.34551000  0.61706000  0.13151000  1.0
  H  H30  1  0.49974000  0.74991000  0.37320000  1.0
  H  H31  1  0.49806000  0.97077000  0.37832000  1.0
  H  H32  1  0.58043000  0.14665000  0.35585000  1.0
  H  H33  1  0.57754000  0.36697000  0.35141000  1.0
  C  C34  1  0.23481000  0.49421000  0.81488000  1.0
  C  C35  1  0.10935000  0.49760000  0.81690000  1.0
  C  C36  1  0.06635000  0.45510000  0.75007000  1.0
  C  C37  1  0.15324000  0.40986000  0.68396000  1.0
  C  C38  1  0.27710000  0.40596000  0.68698000  1.0
  C  C39  1  0.43732000  0.20277000  0.81481000  1.0
  C  C40  1  0.43671000  0.07806000  0.81748000  1.0
  C  C41  1  0.52968000  0.81538000  0.81410000  1.0
  C  C42  1  0.53123000  0.69064000  0.81122000  1.0
  C  C43  1  0.76516000  0.49422000  0.68512000  1.0
  C  C44  1  0.89061000  0.49761000  0.68311000  1.0
  C  C45  1  0.93362000  0.45510000  0.74993000  1.0
  C  C46  1  0.84674000  0.40986000  0.81604000  1.0
  C  C47  1  0.72287000  0.40596000  0.81302000  1.0
  C  C48  1  0.56264000  0.20276000  0.68521000  1.0
  C  C49  1  0.56323000  0.07804000  0.68255000  1.0
  C  C50  1  0.47024000  0.81541000  0.68593000  1.0
  C  C51  1  0.46869000  0.69067000  0.68879000  1.0
  C  C52  1  0.76523000  0.51554000  0.18335000  1.0
  C  C53  1  0.89047000  0.50915000  0.18142000  1.0
  C  C54  1  0.93371000  0.54287000  0.25011000  1.0
  C  C55  1  0.84674000  0.58084000  0.31858000  1.0
  C  C56  1  0.72299000  0.58682000  0.31588000  1.0
  C  C57  1  0.49996000  0.80180000  0.18144000  1.0
  C  C58  1  0.50005000  0.92642000  0.17929000  1.0
  C  C59  1  0.45615000  0.19042000  0.19138000  1.0
  C  C60  1  0.45693000  0.31499000  0.19339000  1.0
  C  C61  1  0.23478000  0.51552000  0.31665000  1.0
  C  C62  1  0.10955000  0.50913000  0.31859000  1.0
  C  C63  1  0.06629000  0.54287000  0.24990000  1.0
  C  C64  1  0.15326000  0.58087000  0.18144000  1.0
  C  C65  1  0.27700000  0.58685000  0.18413000  1.0
  C  C66  1  0.50008000  0.80181000  0.31854000  1.0
  C  C67  1  0.50006000  0.92643000  0.32066000  1.0
  C  C68  1  0.54404000  0.19041000  0.30857000  1.0
  C  C69  1  0.54316000  0.31498000  0.30660000  1.0
  C  C70  1  0.49997000  0.01293000  0.75002000  1.0
  C  C71  1  0.49996000  0.88024000  0.75002000  1.0
  C  C72  1  0.50008000  0.99235000  0.24997000  1.0
  C  C73  1  0.50011000  0.12488000  0.24997000  1.0
  S  S74  1  0.45028000  0.41771000  0.98134000  1.0
  S  S75  1  0.54971000  0.41771000  0.51866000  1.0
  S  S76  1  0.55208000  0.57182000  0.01589000  1.0
  S  S77  1  0.44790000  0.57184000  0.48410000  1.0
  N  N78  1  0.31699000  0.44799000  0.75118000  1.0
  N  N79  1  0.68298000  0.44799000  0.74883000  1.0
  N  N80  1  0.68307000  0.55508000  0.24942000  1.0
  N  N81  1  0.31693000  0.55508000  0.25058000  1.0
  N  N82  1  0.49998000  0.26407000  0.75001000  1.0
  N  N83  1  0.49997000  0.62970000  0.75000000  1.0
  N  N84  1  0.50000000  0.74016000  0.25000000  1.0
  N  N85  1  0.50002000  0.37599000  0.25001000  1.0
  O  O86  1  0.43660000  0.45161000  0.89901000  1.0
  O  O87  1  0.33309000  0.41424000  0.04160000  1.0
  O  O88  1  0.53008000  0.31279000  0.98134000  1.0
  O  O89  1  0.56338000  0.45159000  0.60099000  1.0
  O  O90  1  0.66690000  0.41425000  0.45840000  1.0
  O  O91  1  0.46992000  0.31280000  0.51865000  1.0
  O  O92  1  0.56033000  0.54341000  0.10009000  1.0
  O  O93  1  0.67108000  0.57359000  0.95774000  1.0
  O  O94  1  0.47259000  0.67639000  0.01177000  1.0
  O  O95  1  0.43968000  0.54343000  0.39989000  1.0
  O  O96  1  0.32888000  0.57361000  0.54223000  1.0
  O  O97  1  0.52738000  0.67639000  0.48824000  1.0
