# generated using pymatgen
data_Cu2H14C20Br3N4
_symmetry_space_group_name_H-M   'P 1'
_cell_length_a   8.76708000
_cell_length_b   9.08665000
_cell_length_c   13.75370000
_cell_angle_alpha   72.21190000
_cell_angle_beta   74.25310000
_cell_angle_gamma   84.89160000
_symmetry_Int_Tables_number   1
_chemical_formula_structural   Cu2H14C20Br3N4
_chemical_formula_sum   'Cu4 H28 C40 Br6 N8'
_cell_volume   1004.10859321
_cell_formula_units_Z   2
loop_
 _symmetry_equiv_pos_site_id
 _symmetry_equiv_pos_as_xyz
  1  'x, y, z'
loop_
 _atom_site_type_symbol
 _atom_site_label
 _atom_site_symmetry_multiplicity
 _atom_site_fract_x
 _atom_site_fract_y
 _atom_site_fract_z
 _atom_site_occupancy
  Cu  Cu0  1  0.17637000  0.61889000  0.36873000  1.0
  Cu  Cu1  1  0.82387000  0.38144000  0.63131000  1.0
  Cu  Cu2  1  0.44927000  0.85585000  0.05812000  1.0
  Cu  Cu3  1  0.55065000  0.14421000  0.94209000  1.0
  H  H4  1  0.06912000  0.25935000  0.18181000  1.0
  H  H5  1  0.93077000  0.74045000  0.81849000  1.0
  H  H6  1  0.76044000  0.66047000  0.17179000  1.0
  H  H7  1  0.23957000  0.33937000  0.82846000  1.0
  H  H8  1  0.41006000  0.39066000  0.47847000  1.0
  H  H9  1  0.58940000  0.60837000  0.52213000  1.0
  H  H10  1  0.53003000  0.13509000  0.46915000  1.0
  H  H11  1  0.47003000  0.86431000  0.53084000  1.0
  H  H12  1  0.75128000  0.89292000  0.19273000  1.0
  H  H13  1  0.24941000  0.10736000  0.80669000  1.0
  H  H14  1  0.25993000  0.13692000  0.24846000  1.0
  H  H15  1  0.74036000  0.86327000  0.75123000  1.0
  H  H16  1  0.06154000  0.91169000  0.43862000  1.0
  H  H17  1  0.93732000  0.08812000  0.56195000  1.0
  H  H18  1  0.44526000  0.00062000  0.35387000  1.0
  H  H19  1  0.55497000  0.99928000  0.64577000  1.0
  H  H20  1  0.86754000  0.12896000  0.39230000  1.0
  H  H21  1  0.13180000  0.87110000  0.60772000  1.0
  H  H22  1  0.71466000  0.11879000  0.26438000  1.0
  H  H23  1  0.28547000  0.88134000  0.73520000  1.0
  H  H24  1  0.58489000  0.49098000  0.16711000  1.0
  H  H25  1  0.41512000  0.50908000  0.83302000  1.0
  H  H26  1  0.86986000  0.15648000  0.95383000  1.0
  H  H27  1  0.13008000  0.84395000  0.04597000  1.0
  H  H28  1  0.02229000  0.27532000  0.03672000  1.0
  H  H29  1  0.97768000  0.72461000  0.96336000  1.0
  H  H30  1  0.45111000  0.35927000  0.07813000  1.0
  H  H31  1  0.54892000  0.64111000  0.92183000  1.0
  C  C32  1  0.11270000  0.42081000  0.25748000  1.0
  C  C33  1  0.88767000  0.57937000  0.74240000  1.0
  C  C34  1  0.92365000  0.78403000  0.27967000  1.0
  C  C35  1  0.07644000  0.21607000  0.72025000  1.0
  C  C36  1  0.23109000  0.33284000  0.31112000  1.0
  C  C37  1  0.76903000  0.66705000  0.68894000  1.0
  C  C38  1  0.03421000  0.36857000  0.19898000  1.0
  C  C39  1  0.96584000  0.63137000  0.80113000  1.0
  C  C40  1  0.86197000  0.59278000  0.19302000  1.0
  C  C41  1  0.13821000  0.40717000  0.80704000  1.0
  C  C42  1  0.37860000  0.32986000  0.42951000  1.0
  C  C43  1  0.62112000  0.66951000  0.57080000  1.0
  C  C44  1  0.44383000  0.18594000  0.42412000  1.0
  C  C45  1  0.55618000  0.81362000  0.57588000  1.0
  C  C46  1  0.90524000  0.45423000  0.16724000  1.0
  C  C47  1  0.09481000  0.54571000  0.83284000  1.0
  C  C48  1  0.81758000  0.90093000  0.24745000  1.0
  C  C49  1  0.18271000  0.09924000  0.75222000  1.0
  C  C50  1  0.95218000  0.64293000  0.24617000  1.0
  C  C51  1  0.04822000  0.35725000  0.75366000  1.0
  C  C52  1  0.29228000  0.18905000  0.30175000  1.0
  C  C53  1  0.70788000  0.81093000  0.69809000  1.0
  C  C54  1  0.98923000  0.91352000  0.38500000  1.0
  C  C55  1  0.01008000  0.08638000  0.61529000  1.0
  C  C56  1  0.81712000  0.39330000  0.11085000  1.0
  C  C57  1  0.18290000  0.60669000  0.88926000  1.0
  C  C58  1  0.39881000  0.11380000  0.36018000  1.0
  C  C59  1  0.60128000  0.88598000  0.63964000  1.0
  C  C60  1  0.88273000  0.03279000  0.35839000  1.0
  C  C61  1  0.11679000  0.96722000  0.64163000  1.0
  C  C62  1  0.79703000  0.02640000  0.28789000  1.0
  C  C63  1  0.20293000  0.97367000  0.71185000  1.0
  C  C64  1  0.65395000  0.41872000  0.12000000  1.0
  C  C65  1  0.34605000  0.58134000  0.88007000  1.0
  C  C66  1  0.81190000  0.23264000  0.00086000  1.0
  C  C67  1  0.18803000  0.76765000  0.99904000  1.0
  C  C68  1  0.89556000  0.29894000  0.04849000  1.0
  C  C69  1  0.10440000  0.70110000  0.95154000  1.0
  C  C70  1  0.57828000  0.34623000  0.07041000  1.0
  C  C71  1  0.42170000  0.65405000  0.92953000  1.0
  Br  Br72  1  0.27299000  0.10236000  0.04733000  1.0
  Br  Br73  1  0.72681000  0.89741000  0.95300000  1.0
  Br  Br74  1  0.44312000  0.76325000  0.24169000  1.0
  Br  Br75  1  0.55706000  0.23680000  0.75832000  1.0
  Br  Br76  1  0.23165000  0.64728000  0.52309000  1.0
  Br  Br77  1  0.76923000  0.35338000  0.47649000  1.0
  N  N78  1  0.07418000  0.55791000  0.27593000  1.0
  N  N79  1  0.92667000  0.44259000  0.72358000  1.0
  N  N80  1  0.27341000  0.40058000  0.37545000  1.0
  N  N81  1  0.72622000  0.59894000  0.62496000  1.0
  N  N82  1  0.00924000  0.79219000  0.34687000  1.0
  N  N83  1  0.99024000  0.20759000  0.65348000  1.0
  N  N84  1  0.65444000  0.25366000  0.01166000  1.0
  N  N85  1  0.34550000  0.74672000  0.98816000  1.0
