# generated using pymatgen
data_Al2H10C21S2(NO7)2
_symmetry_space_group_name_H-M   'P 1'
_cell_length_a   6.62541000
_cell_length_b   11.06587553
_cell_length_c   12.65313449
_cell_angle_alpha   81.99510282
_cell_angle_beta   75.88822144
_cell_angle_gamma   73.78970725
_symmetry_Int_Tables_number   1
_chemical_formula_structural   Al2H10C21S2(NO7)2
_chemical_formula_sum   'Al2 H10 C21 S2 N2 O14'
_cell_volume   861.38489272
_cell_formula_units_Z   1
loop_
 _symmetry_equiv_pos_site_id
 _symmetry_equiv_pos_as_xyz
  1  'x, y, z'
loop_
 _atom_site_type_symbol
 _atom_site_label
 _atom_site_symmetry_multiplicity
 _atom_site_fract_x
 _atom_site_fract_y
 _atom_site_fract_z
 _atom_site_occupancy
  Al  Al0  1  0.48522000  0.49427000  0.50119000  1.0
  Al  Al1  1  0.98607000  0.49014000  0.50248000  1.0
  H  H2  1  0.18581000  0.64503000  0.44166000  1.0
  H  H3  1  0.70745000  0.41958000  0.63461000  1.0
  H  H4  1  0.38914000  0.38902000  0.86558000  1.0
  H  H5  1  0.84576000  0.75693000  0.64882000  1.0
  H  H6  1  0.64026000  0.22682000  0.61881000  1.0
  H  H7  1  0.18954000  0.11288000  0.42514000  1.0
  H  H8  1  0.30576000  0.87704000  0.43152000  1.0
  H  H9  1  0.46525000  0.61832000  0.22388000  1.0
  H  H10  1  0.42682000  0.53750000  0.12251000  1.0
  H  H11  1  0.49768000  0.68252000  0.08393000  1.0
  C  C12  1  0.61745000  0.72043000  0.51179000  1.0
  C  C13  1  0.83724000  0.48521000  0.30786000  1.0
  C  C14  1  0.35413000  0.26745000  0.50073000  1.0
  C  C15  1  0.13963000  0.48583000  0.69945000  1.0
  C  C16  1  0.75705000  0.52691000  0.11523000  1.0
  C  C17  1  0.21733000  0.43102000  0.89148000  1.0
  C  C18  1  0.89048000  0.47845000  0.18928000  1.0
  C  C19  1  0.08365000  0.48029000  0.81873000  1.0
  C  C20  1  0.09873000  0.44400000  0.00017000  1.0
  C  C21  1  0.87895000  0.50530000  0.00771000  1.0
  C  C22  1  0.54989000  0.86025000  0.51985000  1.0
  C  C23  1  0.65003000  0.92446000  0.57428000  1.0
  C  C24  1  0.38404000  0.92829000  0.46966000  1.0
  C  C25  1  0.80025000  0.85962000  0.63967000  1.0
  C  C26  1  0.88134000  0.92545000  0.69651000  1.0
  C  C27  1  0.42192000  0.12648000  0.51110000  1.0
  C  C28  1  0.31914000  0.06057000  0.46560000  1.0
  C  C29  1  0.58561000  0.06008000  0.56875000  1.0
  C  C30  1  0.67839000  0.12448000  0.62581000  1.0
  C  C31  1  0.82208000  0.05917000  0.68844000  1.0
  C  C32  1  0.52449000  0.59587000  0.13863000  1.0
  S  S33  1  0.15696000  0.40841000  0.12808000  1.0
  S  S34  1  0.81575000  0.54174000  0.88113000  1.0
  N  N35  1  0.00900000  0.85321000  0.77587000  1.0
  N  N36  1  0.92505000  0.13271000  0.73725000  1.0
  O  O37  1  0.46668000  0.66717000  0.52004000  1.0
  O  O38  1  0.99389000  0.46325000  0.35629000  1.0
  O  O39  1  0.15317000  0.31849000  0.51756000  1.0
  O  O40  1  0.33825000  0.46423000  0.65159000  1.0
  O  O41  1  0.50247000  0.32497000  0.47614000  1.0
  O  O42  1  0.98108000  0.51229000  0.65153000  1.0
  O  O43  1  0.81856000  0.66713000  0.49300000  1.0
  O  O44  1  0.63887000  0.51422000  0.35558000  1.0
  O  O45  1  0.22757000  0.55385000  0.45411000  1.0
  O  O46  1  0.73565000  0.43696000  0.55562000  1.0
  O  O47  1  0.15854000  0.76185000  0.74377000  1.0
  O  O48  1  0.95000000  0.88756000  0.87000000  1.0
  O  O49  1  0.81836000  0.23903000  0.76522000  1.0
  O  O50  1  0.11484000  0.08473000  0.74371000  1.0
