# generated using pymatgen
data_PrH16C16N10ClO6
_symmetry_space_group_name_H-M   'P 1'
_cell_length_a   8.75346000
_cell_length_b   11.14420000
_cell_length_c   13.08250000
_cell_angle_alpha   64.81100000
_cell_angle_beta   74.36400000
_cell_angle_gamma   89.99160000
_symmetry_Int_Tables_number   1
_chemical_formula_structural   PrH16C16N10ClO6
_chemical_formula_sum   'Pr2 H32 C32 N20 Cl2 O12'
_cell_volume   1102.45662607
_cell_formula_units_Z   2
loop_
 _symmetry_equiv_pos_site_id
 _symmetry_equiv_pos_as_xyz
  1  'x, y, z'
loop_
 _atom_site_type_symbol
 _atom_site_label
 _atom_site_symmetry_multiplicity
 _atom_site_fract_x
 _atom_site_fract_y
 _atom_site_fract_z
 _atom_site_occupancy
  Pr  Pr0  1  0.24997000  0.55292000  0.00002000  1.0
  Pr  Pr1  1  0.75003000  0.44708000  0.99998000  1.0
  H  H2  1  0.47077000  0.29725000  0.34557000  1.0
  H  H3  1  0.02946000  0.64301000  0.65425000  1.0
  H  H4  1  0.52923000  0.70275000  0.65443000  1.0
  H  H5  1  0.97054000  0.35699000  0.34574000  1.0
  H  H6  1  0.52526000  0.46788000  0.30634000  1.0
  H  H7  1  0.97458000  0.77419000  0.69375000  1.0
  H  H8  1  0.47474000  0.53212000  0.69366000  1.0
  H  H9  1  0.02542000  0.22581000  0.30625000  1.0
  H  H10  1  0.99655000  0.06392000  0.61801000  1.0
  H  H11  1  0.50338000  0.68237000  0.38199000  1.0
  H  H12  1  0.00344000  0.93608000  0.38198000  1.0
  H  H13  1  0.49662000  0.31763000  0.61801000  1.0
  H  H14  1  0.60145000  0.99980000  0.92434000  1.0
  H  H15  1  0.89855000  0.92428000  0.07571000  1.0
  H  H16  1  0.39855000  0.00020000  0.07566000  1.0
  H  H17  1  0.10145000  0.07572000  0.92429000  1.0
  H  H18  1  0.88356000  0.36874000  0.73739000  1.0
  H  H19  1  0.61646000  0.10644000  0.26268000  1.0
  H  H20  1  0.11644000  0.63126000  0.26261000  1.0
  H  H21  1  0.38354000  0.89356000  0.73732000  1.0
  H  H22  1  0.75906000  0.91366000  0.78710000  1.0
  H  H23  1  0.74089000  0.70099000  0.21295000  1.0
  H  H24  1  0.24094000  0.08634000  0.21290000  1.0
  H  H25  1  0.25911000  0.29901000  0.78705000  1.0
  H  H26  1  0.98126000  0.72451000  0.00100000  1.0
  H  H27  1  0.51862000  0.72541000  0.99906000  1.0
  H  H28  1  0.01874000  0.27549000  0.99900000  1.0
  H  H29  1  0.48138000  0.27459000  0.00094000  1.0
  H  H30  1  0.14542000  0.82989000  0.93586000  1.0
  H  H31  1  0.35451000  0.76583000  0.06412000  1.0
  H  H32  1  0.85458000  0.17011000  0.06414000  1.0
  H  H33  1  0.64549000  0.23417000  0.93588000  1.0
  C  C34  1  0.37085000  0.43599000  0.21433000  1.0
  C  C35  1  0.12911000  0.65039000  0.78566000  1.0
  C  C36  1  0.62915000  0.56400000  0.78567000  1.0
  C  C37  1  0.87089000  0.34961000  0.21434000  1.0
  C  C38  1  0.42650000  0.39434000  0.32416000  1.0
  C  C39  1  0.07350000  0.71862000  0.67584000  1.0
  C  C40  1  0.57350000  0.60566000  0.67584000  1.0
  C  C41  1  0.92650000  0.28138000  0.32416000  1.0
  C  C42  1  0.09558000  0.31647000  0.56956000  1.0
  C  C43  1  0.40436000  0.88646000  0.43054000  1.0
  C  C44  1  0.90442000  0.68353000  0.43044000  1.0
  C  C45  1  0.59564000  0.11354000  0.56946000  1.0
  C  C46  1  0.95703000  0.22831000  0.66432000  1.0
  C  C47  1  0.54295000  0.89304000  0.33576000  1.0
  C  C48  1  0.04297000  0.77169000  0.33568000  1.0
  C  C49  1  0.45705000  0.10696000  0.66424000  1.0
  C  C50  1  0.92114000  0.09834000  0.67871000  1.0
  C  C51  1  0.57885000  0.77742000  0.32136000  1.0
  C  C52  1  0.07886000  0.90166000  0.32129000  1.0
  C  C53  1  0.42115000  0.22258000  0.67864000  1.0
  C  C54  1  0.70249000  0.06333000  0.84903000  1.0
  C  C55  1  0.79751000  0.91252000  0.15104000  1.0
  C  C56  1  0.29751000  0.93667000  0.15097000  1.0
  C  C57  1  0.20249000  0.08748000  0.84896000  1.0
  C  C58  1  0.86037000  0.26869000  0.74517000  1.0
  C  C59  1  0.63967000  0.01415000  0.25494000  1.0
  C  C60  1  0.13963000  0.73131000  0.25483000  1.0
  C  C61  1  0.36033000  0.98585000  0.74506000  1.0
  C  C62  1  0.79117000  0.01536000  0.77196000  1.0
  C  C63  1  0.70884000  0.78756000  0.22812000  1.0
  C  C64  1  0.20883000  0.98464000  0.22804000  1.0
  C  C65  1  0.29116000  0.21244000  0.77188000  1.0
  N  N66  1  0.18500000  0.28247000  0.48751000  1.0
  N  N67  1  0.31509000  0.77037000  0.51249000  1.0
  N  N68  1  0.81500000  0.71753000  0.51249000  1.0
  N  N69  1  0.68491000  0.22963000  0.48751000  1.0
  N  N70  1  0.30033000  0.38517000  0.42576000  1.0
  N  N71  1  0.19960000  0.81119000  0.57432000  1.0
  N  N72  1  0.69967000  0.61483000  0.57424000  1.0
  N  N73  1  0.80040000  0.18881000  0.42568000  1.0
  N  N74  1  0.28590000  0.48007000  0.46387000  1.0
  N  N75  1  0.21378000  0.94413000  0.53635000  1.0
  N  N76  1  0.71410000  0.51993000  0.53613000  1.0
  N  N77  1  0.78622000  0.05587000  0.46365000  1.0
  N  N78  1  0.15613000  0.43738000  0.55559000  1.0
  N  N79  1  0.34356000  0.99328000  0.44463000  1.0
  N  N80  1  0.84387000  0.56262000  0.44441000  1.0
  N  N81  1  0.65644000  0.00672000  0.55537000  1.0
  N  N82  1  0.73623000  0.18749000  0.83589000  1.0
  N  N83  1  0.76378000  0.02356000  0.16420000  1.0
  N  N84  1  0.26377000  0.81251000  0.16411000  1.0
  N  N85  1  0.23622000  0.97644000  0.83580000  1.0
  Cl  Cl86  1  0.25002000  0.30042000  0.99994000  1.0
  Cl  Cl87  1  0.74998000  0.69958000  0.00006000  1.0
  O  O88  1  0.46781000  0.43654000  0.12170000  1.0
  O  O89  1  0.03219000  0.55829000  0.87823000  1.0
  O  O90  1  0.53219000  0.56346000  0.87830000  1.0
  O  O91  1  0.96781000  0.44171000  0.12177000  1.0
  O  O92  1  0.23263000  0.46985000  0.21695000  1.0
  O  O93  1  0.26733000  0.68680000  0.78307000  1.0
  O  O94  1  0.76737000  0.53015000  0.78305000  1.0
  O  O95  1  0.73267000  0.31320000  0.21694000  1.0
  O  O96  1  0.09425000  0.73453000  0.99971000  1.0
  O  O97  1  0.40564000  0.73417000  0.00033000  1.0
  O  O98  1  0.90575000  0.26547000  0.00029000  1.0
  O  O99  1  0.59436000  0.26583000  0.99967000  1.0
