# generated using pymatgen
data_ZnMo4H24C36N12O13
_symmetry_space_group_name_H-M   'P 1'
_cell_length_a   8.10193000
_cell_length_b   8.92216000
_cell_length_c   13.66760000
_cell_angle_alpha   80.05300000
_cell_angle_beta   84.44480000
_cell_angle_gamma   80.69090000
_symmetry_Int_Tables_number   1
_chemical_formula_structural   ZnMo4H24C36N12O13
_chemical_formula_sum   'Zn1 Mo4 H24 C36 N12 O13'
_cell_volume   957.90526003
_cell_formula_units_Z   1
loop_
 _symmetry_equiv_pos_site_id
 _symmetry_equiv_pos_as_xyz
  1  'x, y, z'
loop_
 _atom_site_type_symbol
 _atom_site_label
 _atom_site_symmetry_multiplicity
 _atom_site_fract_x
 _atom_site_fract_y
 _atom_site_fract_z
 _atom_site_occupancy
  Zn  Zn0  1  0.50000000  0.00000000  0.50000000  1.0
  Mo  Mo1  1  0.15368000  0.31826000  0.42371000  1.0
  Mo  Mo2  1  0.84632000  0.68174000  0.57629000  1.0
  Mo  Mo3  1  0.30714000  0.62085000  0.55179000  1.0
  Mo  Mo4  1  0.69286000  0.37915000  0.44821000  1.0
  H  H5  1  0.34261000  0.25993000  0.60059000  1.0
  H  H6  1  0.65739000  0.74006000  0.39941000  1.0
  H  H7  1  0.19310000  0.30689000  0.76226000  1.0
  H  H8  1  0.80690000  0.69311000  0.23774000  1.0
  H  H9  1  0.40646000  0.84775000  0.88903000  1.0
  H  H10  1  0.59354000  0.15225000  0.11097000  1.0
  H  H11  1  0.53027000  0.81119000  0.71640000  1.0
  H  H12  1  0.46973000  0.18881000  0.28360000  1.0
  H  H13  1  0.00509000  0.08454000  0.28400000  1.0
  H  H14  1  0.99491000  0.91546000  0.71600000  1.0
  H  H15  1  0.06952000  0.91265000  0.44417000  1.0
  H  H16  1  0.93048000  0.08736000  0.55583000  1.0
  H  H17  1  0.40275000  0.60425000  0.30090000  1.0
  H  H18  1  0.59725000  0.39575000  0.69910000  1.0
  H  H19  1  0.35927000  0.76977000  0.13347000  1.0
  H  H20  1  0.64073000  0.23023000  0.86653000  1.0
  H  H21  1  0.79396000  0.34883000  0.17527000  1.0
  H  H22  1  0.20604000  0.65116000  0.82473000  1.0
  H  H23  1  0.57188000  0.57466000  0.16770000  1.0
  H  H24  1  0.42812000  0.42534000  0.83230000  1.0
  H  H25  1  0.65312000  0.68182000  0.86082000  1.0
  H  H26  1  0.34688000  0.31818000  0.13918000  1.0
  H  H27  1  0.87518000  0.45809000  0.85538000  1.0
  H  H28  1  0.12482000  0.54191000  0.14462000  1.0
  C  C29  1  0.34957000  0.16953000  0.66497000  1.0
  C  C30  1  0.65043000  0.83047000  0.33503000  1.0
  C  C31  1  0.26789000  0.19602000  0.75562000  1.0
  C  C32  1  0.73211000  0.80398000  0.24438000  1.0
  C  C33  1  0.28514000  0.07895000  0.83797000  1.0
  C  C34  1  0.71486000  0.92105000  0.16203000  1.0
  C  C35  1  0.38661000  0.93967000  0.82556000  1.0
  C  C36  1  0.61339000  0.06033000  0.17444000  1.0
  C  C37  1  0.45719000  0.92004000  0.73057000  1.0
  C  C38  1  0.54281000  0.07996000  0.26943000  1.0
  C  C39  1  0.19334000  0.10568000  0.93400000  1.0
  C  C40  1  0.80666000  0.89431000  0.06600000  1.0
  C  C41  1  0.14314000  0.04188000  0.10063000  1.0
  C  C42  1  0.85686000  0.95812000  0.89937000  1.0
  C  C43  1  0.98805000  0.25142000  0.01646000  1.0
  C  C44  1  0.01195000  0.74858000  0.98354000  1.0
  C  C45  1  0.17757000  0.93960000  0.19625000  1.0
  C  C46  1  0.82243000  0.06040000  0.80375000  1.0
  C  C47  1  0.09413000  0.97905000  0.28491000  1.0
  C  C48  1  0.90587000  0.02096000  0.71509000  1.0
  C  C49  1  0.12887000  0.88294000  0.37386000  1.0
  C  C50  1  0.87113000  0.11706000  0.62614000  1.0
  C  C51  1  0.31631000  0.71194000  0.29389000  1.0
  C  C52  1  0.68369000  0.28807000  0.70611000  1.0
  C  C53  1  0.29167000  0.80314000  0.20122000  1.0
  C  C54  1  0.70833000  0.19686000  0.79878000  1.0
  C  C55  1  0.76451000  0.41846000  0.10391000  1.0
  C  C56  1  0.23550000  0.58154000  0.89609000  1.0
  C  C57  1  0.64017000  0.54643000  0.09907000  1.0
  C  C58  1  0.35983000  0.45356000  0.90093000  1.0
  C  C59  1  0.68465000  0.60538000  0.92988000  1.0
  C  C60  1  0.31535000  0.39462000  0.07012000  1.0
  C  C61  1  0.81016000  0.47934000  0.92617000  1.0
  C  C62  1  0.18984000  0.52066000  0.07383000  1.0
  C  C63  1  0.85210000  0.38352000  0.01540000  1.0
  C  C64  1  0.14790000  0.61648000  0.98460000  1.0
  N  N65  1  0.43809000  0.03280000  0.65102000  1.0
  N  N66  1  0.56191000  0.96720000  0.34898000  1.0
  N  N67  1  0.23344000  0.00757000  0.01734000  1.0
  N  N68  1  0.76656000  0.99242000  0.98266000  1.0
  N  N69  1  0.07116000  0.22746000  0.92944000  1.0
  N  N70  1  0.92884000  0.77254000  0.07056000  1.0
  N  N71  1  0.02092000  0.16235000  0.10424000  1.0
  N  N72  1  0.97907000  0.83765000  0.89576000  1.0
  N  N73  1  0.23711000  0.75062000  0.37928000  1.0
  N  N74  1  0.76289000  0.24938000  0.62072000  1.0
  N  N75  1  0.59967000  0.64061000  0.01429000  1.0
  N  N76  1  0.40033000  0.35938000  0.98572000  1.0
  O  O77  1  0.26786000  0.13655000  0.46296000  1.0
  O  O78  1  0.73214000  0.86345000  0.53704000  1.0
  O  O79  1  0.93231000  0.29066000  0.42840000  1.0
  O  O80  1  0.06770000  0.70934000  0.57160000  1.0
  O  O81  1  0.22355000  0.38288000  0.30321000  1.0
  O  O82  1  0.77645000  0.61712000  0.69679000  1.0
  O  O83  1  0.18836000  0.44928000  0.50312000  1.0
  O  O84  1  0.81164000  0.55073000  0.49688000  1.0
  O  O85  1  0.50000000  0.50000000  0.50000000  1.0
  O  O86  1  0.31981000  0.54012000  0.67445000  1.0
  O  O87  1  0.68019000  0.45988000  0.32555000  1.0
  O  O88  1  0.39138000  0.79118000  0.54279000  1.0
  O  O89  1  0.60862000  0.20882000  0.45721000  1.0
