# generated using pymatgen
data_Zn2H41C39I3N2O13
_symmetry_space_group_name_H-M   'P 1'
_cell_length_a   9.70022000
_cell_length_b   10.93510000
_cell_length_c   14.03500000
_cell_angle_alpha   88.24040000
_cell_angle_beta   76.95000000
_cell_angle_gamma   81.89720000
_symmetry_Int_Tables_number   1
_chemical_formula_structural   Zn2H41C39I3N2O13
_chemical_formula_sum   'Zn2 H41 C39 I3 N2 O13'
_cell_volume   1435.80439891
_cell_formula_units_Z   1
loop_
 _symmetry_equiv_pos_site_id
 _symmetry_equiv_pos_as_xyz
  1  'x, y, z'
loop_
 _atom_site_type_symbol
 _atom_site_label
 _atom_site_symmetry_multiplicity
 _atom_site_fract_x
 _atom_site_fract_y
 _atom_site_fract_z
 _atom_site_occupancy
  Zn  Zn0  1  0.64234000  0.47571000  0.48313000  1.0
  Zn  Zn1  1  0.34168000  0.51525000  0.50988000  1.0
  H  H2  1  0.83682000  0.38753000  0.61507000  1.0
  H  H3  1  0.20656000  0.57255000  0.27642000  1.0
  H  H4  1  0.30096000  0.89758000  0.45459000  1.0
  H  H5  1  0.83552000  0.07872000  0.48923000  1.0
  H  H6  1  0.73688000  0.09326000  0.61341000  1.0
  H  H7  1  0.83679000  0.85140000  0.49545000  1.0
  H  H8  1  0.91346000  0.46027000  0.95466000  1.0
  H  H9  1  0.79597000  0.54886000  0.05141000  1.0
  H  H10  1  0.83654000  0.62133000  0.83461000  1.0
  H  H11  1  0.74030000  0.71389000  0.93529000  1.0
  H  H12  1  0.97473000  0.71826000  0.99028000  1.0
  H  H13  1  0.97922000  0.78232000  0.87192000  1.0
  H  H14  1  0.06691000  0.63112000  0.88505000  1.0
  H  H15  1  0.88843000  0.36764000  0.32326000  1.0
  H  H16  1  0.07623000  0.34210000  0.26873000  1.0
  H  H17  1  0.82903000  0.35336000  0.16433000  1.0
  H  H18  1  0.01253000  0.33201000  0.10429000  1.0
  H  H19  1  0.05227000  0.13496000  0.19950000  1.0
  H  H20  1  0.91763000  0.12716000  0.13369000  1.0
  H  H21  1  0.86918000  0.15694000  0.26134000  1.0
  H  H22  1  0.80388000  0.67527000  0.17545000  1.0
  H  H23  1  0.95654000  0.75260000  0.16920000  1.0
  H  H24  1  0.65100000  0.85293000  0.27595000  1.0
  H  H25  1  0.80225000  0.93113000  0.26018000  1.0
  H  H26  1  0.82611000  0.92788000  0.07519000  1.0
  H  H27  1  0.65801000  0.00597000  0.13685000  1.0
  H  H28  1  0.67112000  0.85303000  0.09364000  1.0
  H  H29  1  0.59808000  0.97149000  0.71302000  1.0
  H  H30  1  0.71823000  0.90121000  0.78377000  1.0
  H  H31  1  0.50461000  0.77104000  0.70627000  1.0
  H  H32  1  0.62845000  0.69811000  0.77130000  1.0
  H  H33  1  0.51324000  0.83881000  0.91710000  1.0
  H  H34  1  0.38886000  0.75250000  0.88459000  1.0
  H  H35  1  0.38765000  0.91067000  0.85134000  1.0
  H  H36  1  0.16122000  0.23102000  0.69043000  1.0
  H  H37  1  0.00979000  0.24073000  0.63756000  1.0
  H  H38  1  0.02344000  0.36604000  0.82736000  1.0
  H  H39  1  0.86855000  0.38056000  0.77912000  1.0
  H  H40  1  0.86012000  0.15097000  0.79945000  1.0
  H  H41  1  0.85300000  0.22336000  0.91201000  1.0
  H  H42  1  0.01483000  0.13567000  0.84929000  1.0
  C  C43  1  0.49035000  0.72739000  0.50834000  1.0
  C  C44  1  0.54998000  0.51226000  0.20144000  1.0
  C  C45  1  0.60703000  0.91930000  0.52359000  1.0
  C  C46  1  0.49630000  0.86288000  0.50369000  1.0
  C  C47  1  0.38728000  0.94047000  0.47161000  1.0
  C  C48  1  0.39013000  0.06714000  0.45956000  1.0
  C  C49  1  0.50192000  0.12525000  0.47929000  1.0
  C  C50  1  0.60855000  0.04622000  0.51123000  1.0
  C  C51  1  0.74751000  0.04638000  0.54338000  1.0
  C  C52  1  0.75216000  0.90027000  0.55256000  1.0
  C  C53  1  0.07437000  0.55951000  0.42522000  1.0
  C  C54  1  0.53021000  0.51149000  0.30653000  1.0
  C  C55  1  0.04731000  0.44976000  0.56602000  1.0
  C  C56  1  0.90770000  0.43314000  0.55805000  1.0
  C  C57  1  0.94157000  0.53728000  0.41498000  1.0
  C  C58  1  0.95622000  0.59299000  0.31260000  1.0
  C  C59  1  0.11265000  0.61988000  0.32705000  1.0
  C  C60  1  0.50565000  0.26104000  0.47827000  1.0
  C  C61  1  0.46930000  0.47315000  0.68361000  1.0
  C  C62  1  0.46154000  0.47251000  0.78720000  1.0
  C  C63  1  0.45320000  0.48843000  0.97352000  1.0
  C  C64  1  0.57117000  0.48986000  0.01283000  1.0
  C  C65  1  0.56016000  0.50450000  0.11355000  1.0
  C  C66  1  0.46037000  0.47825000  0.87428000  1.0
  C  C67  1  0.81746000  0.52904000  0.97269000  1.0
  C  C68  1  0.83493000  0.64460000  0.91064000  1.0
  C  C69  1  0.97137000  0.69696000  0.91491000  1.0
  C  C70  1  0.96976000  0.38060000  0.25663000  1.0
  C  C71  1  0.93657000  0.31456000  0.17277000  1.0
  C  C72  1  0.94445000  0.17575000  0.19295000  1.0
  C  C73  1  0.84863000  0.74227000  0.21260000  1.0
  C  C74  1  0.75266000  0.86543000  0.22534000  1.0
  C  C75  1  0.72565000  0.91586000  0.12740000  1.0
  C  C76  1  0.66117000  0.88332000  0.72698000  1.0
  C  C77  1  0.56266000  0.78647000  0.76268000  1.0
  C  C78  1  0.45742000  0.82414000  0.85909000  1.0
  C  C79  1  0.06055000  0.28841000  0.68558000  1.0
  C  C80  1  0.96465000  0.31709000  0.78566000  1.0
  C  C81  1  0.92115000  0.19996000  0.83944000  1.0
  I  I82  1  0.14293000  0.81176000  0.32457000  1.0
  I  I83  1  0.24709000  0.50262000  0.06679000  1.0
  I  I84  1  0.22184000  0.16310000  0.40073000  1.0
  N  N85  1  0.13079000  0.51804000  0.50082000  1.0
  N  N86  1  0.85508000  0.47615000  0.48122000  1.0
  O  O87  1  0.60087000  0.65788000  0.52156000  1.0
  O  O88  1  0.37550000  0.69216000  0.49630000  1.0
  O  O89  1  0.63976000  0.52048000  0.34007000  1.0
  O  O90  1  0.40510000  0.50020000  0.35469000  1.0
  O  O91  1  0.62709000  0.29789000  0.44968000  1.0
  O  O92  1  0.38718000  0.32775000  0.51124000  1.0
  O  O93  1  0.58964000  0.42830000  0.62972000  1.0
  O  O94  1  0.35755000  0.51898000  0.65517000  1.0
  O  O95  1  0.70292000  0.46911000  0.95143000  1.0
  O  O96  1  0.96751000  0.51084000  0.23453000  1.0
  O  O97  1  0.85701000  0.69554000  0.30884000  1.0
  O  O98  1  0.76916000  0.84290000  0.64133000  1.0
  O  O99  1  0.10684000  0.40051000  0.63700000  1.0
