# generated using pymatgen
data_CaH10(C5N4)2
_symmetry_space_group_name_H-M   'P 1'
_cell_length_a   7.05951000
_cell_length_b   7.05951000
_cell_length_c   8.82149957
_cell_angle_alpha   113.55897212
_cell_angle_beta   113.55997245
_cell_angle_gamma   90.01270000
_symmetry_Int_Tables_number   1
_chemical_formula_structural   CaH10(C5N4)2
_chemical_formula_sum   'Ca1 H10 C10 N8'
_cell_volume   362.64037686
_cell_formula_units_Z   1
loop_
 _symmetry_equiv_pos_site_id
 _symmetry_equiv_pos_as_xyz
  1  'x, y, z'
loop_
 _atom_site_type_symbol
 _atom_site_label
 _atom_site_symmetry_multiplicity
 _atom_site_fract_x
 _atom_site_fract_y
 _atom_site_fract_z
 _atom_site_occupancy
  Ca  Ca0  1  0.00000000  0.00003000  0.00000000  1.0
  H  H1  1  0.02642000  0.02644000  0.63822000  1.0
  H  H2  1  0.38834000  0.97340000  0.36172000  1.0
  H  H3  1  0.61150000  0.61153000  0.63838000  1.0
  H  H4  1  0.97342000  0.38833000  0.36172000  1.0
  H  H5  1  0.86243000  0.86240000  0.29215000  1.0
  H  H6  1  0.57040000  0.13767000  0.70777000  1.0
  H  H7  1  0.42967000  0.42965000  0.29229000  1.0
  H  H8  1  0.13771000  0.57040000  0.70779000  1.0
  H  H9  1  0.55948000  0.55941000  0.11908000  1.0
  H  H10  1  0.44075000  0.44072000  0.88092000  1.0
  C  C11  1  0.89380000  0.89381000  0.55606000  1.0
  C  C12  1  0.33791000  0.10608000  0.44389000  1.0
  C  C13  1  0.66198000  0.66199000  0.55617000  1.0
  C  C14  1  0.10609000  0.33790000  0.44389000  1.0
  C  C15  1  0.80299000  0.80298000  0.36453000  1.0
  C  C16  1  0.43863000  0.19704000  0.63541000  1.0
  C  C17  1  0.56143000  0.56141000  0.36465000  1.0
  C  C18  1  0.19706000  0.43862000  0.63541000  1.0
  C  C19  1  0.63411000  0.63408000  0.26836000  1.0
  C  C20  1  0.36603000  0.36601000  0.73164000  1.0
  N  N21  1  0.99993000  0.33297000  0.99978000  1.0
  N  N22  1  0.33291000  0.99992000  0.99973000  1.0
  N  N23  1  0.00013000  0.66710000  0.00021000  1.0
  N  N24  1  0.66710000  0.00025000  0.00027000  1.0
  N  N25  1  0.00002000  0.50005000  0.99999000  1.0
  N  N26  1  0.50001000  0.00009000  1.00000000  1.0
  N  N27  1  0.82532000  0.82535000  0.65101000  1.0
  N  N28  1  0.17452000  0.17451000  0.34898000  1.0
