# generated using pymatgen
data_AlH6C24(BrO)6
_symmetry_space_group_name_H-M   'P 1'
_cell_length_a   3.99194000
_cell_length_b   29.03261121
_cell_length_c   29.03210000
_cell_angle_alpha   119.99625270
_cell_angle_beta   89.99890000
_cell_angle_gamma   89.99749981
_symmetry_Int_Tables_number   1
_chemical_formula_structural   AlH6C24(BrO)6
_chemical_formula_sum   'Al2 H12 C48 Br12 O12'
_cell_volume   2914.04049840
_cell_formula_units_Z   2
loop_
 _symmetry_equiv_pos_site_id
 _symmetry_equiv_pos_as_xyz
  1  'x, y, z'
loop_
 _atom_site_type_symbol
 _atom_site_label
 _atom_site_symmetry_multiplicity
 _atom_site_fract_x
 _atom_site_fract_y
 _atom_site_fract_z
 _atom_site_occupancy
  Al  Al0  1  0.00072000  0.49999000  0.99999000  1.0
  Al  Al1  1  0.00017000  0.83336000  0.66669000  1.0
  H  H2  1  0.27588000  0.69257000  0.52020000  1.0
  H  H3  1  0.72423000  0.82759000  0.52019000  1.0
  H  H4  1  0.72485000  0.50577000  0.14647000  1.0
  H  H5  1  0.27572000  0.64075000  0.14647000  1.0
  H  H6  1  0.27546000  0.82765000  0.80744000  1.0
  H  H7  1  0.72402000  0.69261000  0.67243000  1.0
  H  H8  1  0.72474000  0.64070000  0.99420000  1.0
  H  H9  1  0.27547000  0.50571000  0.85926000  1.0
  H  H10  1  0.27547000  0.97980000  0.67236000  1.0
  H  H11  1  0.72398000  0.97984000  0.80741000  1.0
  H  H12  1  0.72482000  0.35348000  0.85928000  1.0
  H  H13  1  0.27538000  0.35355000  0.99429000  1.0
  C  C14  1  0.50062000  0.41839000  0.95925000  1.0
  C  C15  1  0.50058000  0.54084000  0.08160000  1.0
  C  C16  1  0.50061000  0.54075000  0.95915000  1.0
  C  C17  1  0.50017000  0.79252000  0.58508000  1.0
  C  C18  1  0.50012000  0.79258000  0.70751000  1.0
  C  C19  1  0.50006000  0.91495000  0.70744000  1.0
  C  C20  1  0.50007000  0.76293000  0.52590000  1.0
  C  C21  1  0.37419000  0.71100000  0.49832000  1.0
  C  C22  1  0.38189000  0.68321000  0.44314000  1.0
  C  C23  1  0.50001000  0.70677000  0.41356000  1.0
  C  C24  1  0.61814000  0.75990000  0.44313000  1.0
  C  C25  1  0.62590000  0.78729000  0.49832000  1.0
  C  C26  1  0.49999000  0.67878000  0.35758000  1.0
  C  C27  1  0.49999000  0.65454000  0.30908000  1.0
  C  C28  1  0.50005000  0.62657000  0.25312000  1.0
  C  C29  1  0.61847000  0.57344000  0.22353000  1.0
  C  C30  1  0.62632000  0.54607000  0.16835000  1.0
  C  C31  1  0.50032000  0.57041000  0.14077000  1.0
  C  C32  1  0.37415000  0.62233000  0.16835000  1.0
  C  C33  1  0.38172000  0.65011000  0.22353000  1.0
  C  C34  1  0.49976000  0.76298000  0.73708000  1.0
  C  C35  1  0.37364000  0.78733000  0.78900000  1.0
  C  C36  1  0.38098000  0.75993000  0.81680000  1.0
  C  C37  1  0.49898000  0.70679000  0.79323000  1.0
  C  C38  1  0.61739000  0.68323000  0.74011000  1.0
  C  C39  1  0.62550000  0.71104000  0.71272000  1.0
  C  C40  1  0.49891000  0.67880000  0.82122000  1.0
  C  C41  1  0.49899000  0.65454000  0.84545000  1.0
  C  C42  1  0.49916000  0.62655000  0.87343000  1.0
  C  C43  1  0.61779000  0.65010000  0.92655000  1.0
  C  C44  1  0.62600000  0.62228000  0.95392000  1.0
  C  C45  1  0.50015000  0.57035000  0.92958000  1.0
  C  C46  1  0.37378000  0.54602000  0.87768000  1.0
  C  C47  1  0.38104000  0.57342000  0.84989000  1.0
  C  C48  1  0.49977000  0.97412000  0.73703000  1.0
  C  C49  1  0.37364000  0.00168000  0.71267000  1.0
  C  C50  1  0.38104000  0.05687000  0.74008000  1.0
  C  C51  1  0.49903000  0.08645000  0.79322000  1.0
  C  C52  1  0.61744000  0.05689000  0.81678000  1.0
  C  C53  1  0.62549000  0.00170000  0.78897000  1.0
  C  C54  1  0.49897000  0.14242000  0.82121000  1.0
  C  C55  1  0.49900000  0.19091000  0.84545000  1.0
  C  C56  1  0.49912000  0.24688000  0.87344000  1.0
  C  C57  1  0.61781000  0.27644000  0.84989000  1.0
  C  C58  1  0.62604000  0.33163000  0.87772000  1.0
  C  C59  1  0.50016000  0.35922000  0.92965000  1.0
  C  C60  1  0.37370000  0.33166000  0.95399000  1.0
  C  C61  1  0.38098000  0.27647000  0.92658000  1.0
  Br  Br62  1  0.77636000  0.79444000  0.40670000  1.0
  Br  Br63  1  0.22367000  0.61224000  0.40671000  1.0
  Br  Br64  1  0.22313000  0.72106000  0.25996000  1.0
  Br  Br65  1  0.77691000  0.53892000  0.25997000  1.0
  Br  Br66  1  0.77546000  0.61226000  0.70557000  1.0
  Br  Br67  1  0.22259000  0.79446000  0.88775000  1.0
  Br  Br68  1  0.22239000  0.53889000  0.77894000  1.0
  Br  Br69  1  0.77607000  0.72106000  0.96108000  1.0
  Br  Br70  1  0.77548000  0.09332000  0.88776000  1.0
  Br  Br71  1  0.22269000  0.09329000  0.70554000  1.0
  Br  Br72  1  0.22225000  0.24007000  0.96112000  1.0
  Br  Br73  1  0.77618000  0.24001000  0.77894000  1.0
  O  O74  1  0.73551000  0.55104000  0.99276000  1.0
  O  O75  1  0.73555000  0.44170000  0.94894000  1.0
  O  O76  1  0.73546000  0.50722000  0.05827000  1.0
  O  O77  1  0.26608000  0.50707000  0.94886000  1.0
  O  O78  1  0.26600000  0.55113000  0.05821000  1.0
  O  O79  1  0.26608000  0.44179000  0.99293000  1.0
  O  O80  1  0.73488000  0.89162000  0.71775000  1.0
  O  O81  1  0.73493000  0.82616000  0.60842000  1.0
  O  O82  1  0.73499000  0.78229000  0.67389000  1.0
  O  O83  1  0.26543000  0.89157000  0.67378000  1.0
  O  O84  1  0.26550000  0.82625000  0.71780000  1.0
  O  O85  1  0.26549000  0.78223000  0.60844000  1.0
