# generated using pymatgen
data_CuH22C22(NO2)2
_symmetry_space_group_name_H-M   'P 1'
_cell_length_a   10.49150000
_cell_length_b   10.87510000
_cell_length_c   10.87510000
_cell_angle_alpha   105.10800000
_cell_angle_beta   102.06700000
_cell_angle_gamma   102.06700000
_symmetry_Int_Tables_number   1
_chemical_formula_structural   CuH22C22(NO2)2
_chemical_formula_sum   'Cu2 H44 C44 N4 O8'
_cell_volume   1124.88330010
_cell_formula_units_Z   2
loop_
 _symmetry_equiv_pos_site_id
 _symmetry_equiv_pos_as_xyz
  1  'x, y, z'
loop_
 _atom_site_type_symbol
 _atom_site_label
 _atom_site_symmetry_multiplicity
 _atom_site_fract_x
 _atom_site_fract_y
 _atom_site_fract_z
 _atom_site_occupancy
  Cu  Cu0  1  0.99999000  0.00000000  0.00000000  1.0
  Cu  Cu1  1  0.50000000  0.99999000  0.00000000  1.0
  H  H2  1  0.85341000  0.07983000  0.19166000  1.0
  H  H3  1  0.64659000  0.80833000  0.92018000  1.0
  H  H4  1  0.14658000  0.92017000  0.80834000  1.0
  H  H5  1  0.35341000  0.19166000  0.07983000  1.0
  H  H6  1  0.24296000  0.03825000  0.21927000  1.0
  H  H7  1  0.25703000  0.78072000  0.96174000  1.0
  H  H8  1  0.75703000  0.96174000  0.78072000  1.0
  H  H9  1  0.74297000  0.21927000  0.03826000  1.0
  H  H10  1  0.02981000  0.79710000  0.23787000  1.0
  H  H11  1  0.47020000  0.76213000  0.20290000  1.0
  H  H12  1  0.97020000  0.20290000  0.76213000  1.0
  H  H13  1  0.52981000  0.23788000  0.79710000  1.0
  H  H14  1  0.16248000  0.73966000  0.31152000  1.0
  H  H15  1  0.33752000  0.68848000  0.26035000  1.0
  H  H16  1  0.83752000  0.26034000  0.68849000  1.0
  H  H17  1  0.66249000  0.31152000  0.73966000  1.0
  H  H18  1  0.99494000  0.67253000  0.31392000  1.0
  H  H19  1  0.50506000  0.68608000  0.32748000  1.0
  H  H20  1  0.00506000  0.32746000  0.68608000  1.0
  H  H21  1  0.49495000  0.31393000  0.67253000  1.0
  H  H22  1  0.89503000  0.65141000  0.76642000  1.0
  H  H23  1  0.60498000  0.23358000  0.34859000  1.0
  H  H24  1  0.10498000  0.34859000  0.23358000  1.0
  H  H25  1  0.39503000  0.76642000  0.65141000  1.0
  H  H26  1  0.80269000  0.48202000  0.69154000  1.0
  H  H27  1  0.69733000  0.30846000  0.51799000  1.0
  H  H28  1  0.19733000  0.51799000  0.30846000  1.0
  H  H29  1  0.30268000  0.69155000  0.48202000  1.0
  H  H30  1  0.97231000  0.53497000  0.68769000  1.0
  H  H31  1  0.52770000  0.31232000  0.46504000  1.0
  H  H32  1  0.02770000  0.46504000  0.31231000  1.0
  H  H33  1  0.47230000  0.68769000  0.53496000  1.0
  H  H34  1  0.12502000  0.16386000  0.57923000  1.0
  H  H35  1  0.37497000  0.42076000  0.83615000  1.0
  H  H36  1  0.87498000  0.83614000  0.42076000  1.0
  H  H37  1  0.62502000  0.57923000  0.16385000  1.0
  H  H38  1  0.89400000  0.14708000  0.43542000  1.0
  H  H39  1  0.60600000  0.56458000  0.85293000  1.0
  H  H40  1  0.10600000  0.85293000  0.56458000  1.0
  H  H41  1  0.39399000  0.43541000  0.14707000  1.0
  H  H42  1  0.30072000  0.10652000  0.46644000  1.0
  H  H43  1  0.19928000  0.53355000  0.89349000  1.0
  H  H44  1  0.69928000  0.89348000  0.53354000  1.0
  H  H45  1  0.80072000  0.46644000  0.10652000  1.0
  C  C46  1  0.96309000  0.75568000  0.00162000  1.0
  C  C47  1  0.53691000  0.99838000  0.24432000  1.0
  C  C48  1  0.03692000  0.24432000  0.99838000  1.0
  C  C49  1  0.46309000  0.00162000  0.75568000  1.0
  C  C50  1  0.98242000  0.62270000  0.00124000  1.0
  C  C51  1  0.51759000  0.99876000  0.37731000  1.0
  C  C52  1  0.01759000  0.37731000  0.99875000  1.0
  C  C53  1  0.48241000  0.00125000  0.62270000  1.0
  C  C54  1  0.03004000  0.60168000  0.12263000  1.0
  C  C55  1  0.46996000  0.87737000  0.39832000  1.0
  C  C56  1  0.96997000  0.39832000  0.87737000  1.0
  C  C57  1  0.53004000  0.12263000  0.60168000  1.0
  C  C58  1  0.95173000  0.52324000  0.87868000  1.0
  C  C59  1  0.54828000  0.12132000  0.47676000  1.0
  C  C60  1  0.04828000  0.47676000  0.12132000  1.0
  C  C61  1  0.45173000  0.87868000  0.52324000  1.0
  C  C62  1  0.95190000  0.08955000  0.25604000  1.0
  C  C63  1  0.54809000  0.74395000  0.91045000  1.0
  C  C64  1  0.04809000  0.91045000  0.74395000  1.0
  C  C65  1  0.45190000  0.25604000  0.08955000  1.0
  C  C66  1  0.17008000  0.06644000  0.27176000  1.0
  C  C67  1  0.32990000  0.72823000  0.93355000  1.0
  C  C68  1  0.82991000  0.93356000  0.72823000  1.0
  C  C69  1  0.67009000  0.27175000  0.06644000  1.0
  C  C70  1  0.05564000  0.70845000  0.25246000  1.0
  C  C71  1  0.44436000  0.74754000  0.29156000  1.0
  C  C72  1  0.94437000  0.29155000  0.74754000  1.0
  C  C73  1  0.55564000  0.25246000  0.70845000  1.0
  C  C74  1  0.90315000  0.54996000  0.75026000  1.0
  C  C75  1  0.59685000  0.24973000  0.45004000  1.0
  C  C76  1  0.09685000  0.45004000  0.24973000  1.0
  C  C77  1  0.40315000  0.75028000  0.54997000  1.0
  C  C78  1  0.10311000  0.13593000  0.47150000  1.0
  C  C79  1  0.39688000  0.52849000  0.86408000  1.0
  C  C80  1  0.89688000  0.86407000  0.52849000  1.0
  C  C81  1  0.60312000  0.47150000  0.13593000  1.0
  C  C82  1  0.97600000  0.12761000  0.39323000  1.0
  C  C83  1  0.52400000  0.60676000  0.87240000  1.0
  C  C84  1  0.02400000  0.87240000  0.60677000  1.0
  C  C85  1  0.47600000  0.39322000  0.12760000  1.0
  C  C86  1  0.20129000  0.10455000  0.40956000  1.0
  C  C87  1  0.29870000  0.59043000  0.89545000  1.0
  C  C88  1  0.79870000  0.89545000  0.59043000  1.0
  C  C89  1  0.70130000  0.40956000  0.10455000  1.0
  N  N90  1  0.04737000  0.06005000  0.19708000  1.0
  N  N91  1  0.45263000  0.80291000  0.93994000  1.0
  N  N92  1  0.95262000  0.93995000  0.80292000  1.0
  N  N93  1  0.54738000  0.19708000  0.06005000  1.0
  O  O94  1  0.06937000  0.84214000  0.00258000  1.0
  O  O95  1  0.43062000  0.99741000  0.15785000  1.0
  O  O96  1  0.93063000  0.15786000  0.99741000  1.0
  O  O97  1  0.56937000  0.00259000  0.84215000  1.0
  O  O98  1  0.85033000  0.77745000  0.00017000  1.0
  O  O99  1  0.64966000  0.99984000  0.22254000  1.0
  O  O100  1  0.14967000  0.22255000  0.99984000  1.0
  O  O101  1  0.35033000  0.00016000  0.77745000  1.0
