# generated using pymatgen
data_CuH4C16(BrN2)4
_symmetry_space_group_name_H-M   'P 1'
_cell_length_a   3.94530000
_cell_length_b   15.35220000
_cell_length_c   15.35103774
_cell_angle_alpha   89.11402238
_cell_angle_beta   82.63979985
_cell_angle_gamma   82.66930000
_symmetry_Int_Tables_number   1
_chemical_formula_structural   CuH4C16(BrN2)4
_chemical_formula_sum   'Cu2 H8 C32 Br8 N16'
_cell_volume   914.59865593
_cell_formula_units_Z   2
loop_
 _symmetry_equiv_pos_site_id
 _symmetry_equiv_pos_as_xyz
  1  'x, y, z'
loop_
 _atom_site_type_symbol
 _atom_site_label
 _atom_site_symmetry_multiplicity
 _atom_site_fract_x
 _atom_site_fract_y
 _atom_site_fract_z
 _atom_site_occupancy
  Cu  Cu0  1  0.12545000  0.74999000  0.75029000  1.0
  Cu  Cu1  1  0.87456000  0.25002000  0.24970000  1.0
  H  H2  1  0.13488000  0.44533000  0.14701000  1.0
  H  H3  1  0.28180000  0.85297000  0.94522000  1.0
  H  H4  1  0.22775000  0.05425000  0.35282000  1.0
  H  H5  1  0.58154000  0.64703000  0.55474000  1.0
  H  H6  1  0.86517000  0.55467000  0.85298000  1.0
  H  H7  1  0.71815000  0.14703000  0.05478000  1.0
  H  H8  1  0.77229000  0.94576000  0.64718000  1.0
  H  H9  1  0.41840000  0.35297000  0.44526000  1.0
  C  C10  1  0.24892000  0.42458000  0.00644000  1.0
  C  C11  1  0.25549000  0.99352000  0.92455000  1.0
  C  C12  1  0.18072000  0.07537000  0.49336000  1.0
  C  C13  1  0.67415000  0.50645000  0.57539000  1.0
  C  C14  1  0.75115000  0.57542000  0.99355000  1.0
  C  C15  1  0.74447000  0.00646000  0.07545000  1.0
  C  C16  1  0.81930000  0.92463000  0.50665000  1.0
  C  C17  1  0.32580000  0.49355000  0.42461000  1.0
  C  C18  1  0.07503000  0.47051000  0.08326000  1.0
  C  C19  1  0.15830000  0.91672000  0.97045000  1.0
  C  C20  1  0.12920000  0.02923000  0.41662000  1.0
  C  C21  1  0.54631000  0.58330000  0.52955000  1.0
  C  C22  1  0.92505000  0.52949000  0.91672000  1.0
  C  C23  1  0.84166000  0.08328000  0.02955000  1.0
  C  C24  1  0.87084000  0.97077000  0.58338000  1.0
  C  C25  1  0.45364000  0.41670000  0.47045000  1.0
  C  C26  1  0.16207000  0.45695000  0.92220000  1.0
  C  C27  1  0.08446000  0.07778000  0.95704000  1.0
  C  C28  1  0.04190000  0.04320000  0.57772000  1.0
  C  C29  1  0.61899000  0.42219000  0.54291000  1.0
  C  C30  1  0.83800000  0.54305000  0.07779000  1.0
  C  C31  1  0.91550000  0.92221000  0.04296000  1.0
  C  C32  1  0.95815000  0.95681000  0.42228000  1.0
  C  C33  1  0.38095000  0.57781000  0.45709000  1.0
  C  C34  1  0.58110000  0.32041000  0.08108000  1.0
  C  C35  1  0.66297000  0.91879000  0.82048000  1.0
  C  C36  1  0.48349000  0.17949000  0.41847000  1.0
  C  C37  1  0.90282000  0.58113000  0.67963000  1.0
  C  C38  1  0.41895000  0.67959000  0.91891000  1.0
  C  C39  1  0.33699000  0.08120000  0.17952000  1.0
  C  C40  1  0.51653000  0.82052000  0.58153000  1.0
  C  C41  1  0.09717000  0.41887000  0.32036000  1.0
  Br  Br42  1  0.38146000  0.39894000  0.81868000  1.0
  Br  Br43  1  0.20081000  0.18132000  0.89922000  1.0
  Br  Br44  1  0.10085000  0.10146000  0.68106000  1.0
  Br  Br45  1  0.78011000  0.31877000  0.60098000  1.0
  Br  Br46  1  0.61860000  0.60106000  0.18132000  1.0
  Br  Br47  1  0.79912000  0.81868000  0.10078000  1.0
  Br  Br48  1  0.89922000  0.89855000  0.31894000  1.0
  Br  Br49  1  0.21985000  0.68124000  0.39902000  1.0
  N  N50  1  0.68586000  0.28035000  0.14067000  1.0
  N  N51  1  0.82970000  0.85925000  0.78085000  1.0
  N  N52  1  0.60878000  0.21936000  0.35889000  1.0
  N  N53  1  0.96991000  0.64072000  0.71936000  1.0
  N  N54  1  0.31414000  0.71965000  0.85933000  1.0
  N  N55  1  0.17028000  0.14074000  0.21915000  1.0
  N  N56  1  0.39122000  0.78064000  0.64112000  1.0
  N  N57  1  0.03008000  0.35929000  0.28063000  1.0
  N  N58  1  0.48633000  0.35440000  0.00945000  1.0
  N  N59  1  0.49557000  0.99045000  0.85431000  1.0
  N  N60  1  0.35058000  0.14566000  0.49016000  1.0
  N  N61  1  0.84088000  0.50946000  0.64569000  1.0
  N  N62  1  0.51374000  0.64561000  0.99054000  1.0
  N  N63  1  0.50438000  0.00954000  0.14570000  1.0
  N  N64  1  0.64946000  0.85435000  0.50984000  1.0
  N  N65  1  0.15908000  0.49055000  0.35431000  1.0
