# generated using pymatgen
data_CdH12C15S2(NO3)2
_symmetry_space_group_name_H-M   'P 1'
_cell_length_a   8.70314000
_cell_length_b   9.67439000
_cell_length_c   11.50490000
_cell_angle_alpha   66.43350000
_cell_angle_beta   77.82190000
_cell_angle_gamma   78.21920000
_symmetry_Int_Tables_number   1
_chemical_formula_structural   CdH12C15S2(NO3)2
_chemical_formula_sum   'Cd2 H24 C30 S4 N4 O12'
_cell_volume   860.11555168
_cell_formula_units_Z   2
loop_
 _symmetry_equiv_pos_site_id
 _symmetry_equiv_pos_as_xyz
  1  'x, y, z'
loop_
 _atom_site_type_symbol
 _atom_site_label
 _atom_site_symmetry_multiplicity
 _atom_site_fract_x
 _atom_site_fract_y
 _atom_site_fract_z
 _atom_site_occupancy
  Cd  Cd0  1  0.27341000  0.52384000  0.83918000  1.0
  Cd  Cd1  1  0.72659000  0.47616000  0.16082000  1.0
  H  H2  1  0.65113000  0.40915000  0.84269000  1.0
  H  H3  1  0.34886000  0.59085000  0.15732000  1.0
  H  H4  1  0.90824000  0.43766000  0.69731000  1.0
  H  H5  1  0.09176000  0.56233000  0.30270000  1.0
  H  H6  1  0.90177000  0.58538000  0.45851000  1.0
  H  H7  1  0.09823000  0.41461000  0.54150000  1.0
  H  H8  1  0.64463000  0.69874000  0.38153000  1.0
  H  H9  1  0.35537000  0.30126000  0.61848000  1.0
  H  H10  1  0.98217000  0.72003000  0.67574000  1.0
  H  H11  1  0.01783000  0.27997000  0.32425000  1.0
  H  H12  1  0.93306000  0.87080000  0.45084000  1.0
  H  H13  1  0.06694000  0.12920000  0.54915000  1.0
  H  H14  1  0.16577000  0.90500000  0.27310000  1.0
  H  H15  1  0.83423000  0.09501000  0.72689000  1.0
  H  H16  1  0.43440000  0.78924000  0.32876000  1.0
  H  H17  1  0.56560000  0.21076000  0.67124000  1.0
  H  H18  1  0.98436000  0.36878000  0.93990000  1.0
  H  H19  1  0.01564000  0.63123000  0.06010000  1.0
  H  H20  1  0.41128000  0.20444000  0.90173000  1.0
  H  H21  1  0.58871000  0.79557000  0.09827000  1.0
  H  H22  1  0.93966000  0.54314000  0.87358000  1.0
  H  H23  1  0.06034000  0.45686000  0.12641000  1.0
  H  H24  1  0.31298000  0.08972000  0.89606000  1.0
  H  H25  1  0.68703000  0.91027000  0.10395000  1.0
  C  C26  1  0.44825000  0.19271000  0.20347000  1.0
  C  C27  1  0.55175000  0.80731000  0.79653000  1.0
  C  C28  1  0.60751000  0.14972000  0.19310000  1.0
  C  C29  1  0.39249000  0.85028000  0.80690000  1.0
  C  C30  1  0.50397000  0.03396000  0.43509000  1.0
  C  C31  1  0.49603000  0.96603000  0.56490000  1.0
  C  C32  1  0.34975000  0.29112000  0.10252000  1.0
  C  C33  1  0.65025000  0.70888000  0.89747000  1.0
  C  C34  1  0.73183000  0.19118000  0.07489000  1.0
  C  C35  1  0.26818000  0.80882000  0.92511000  1.0
  C  C36  1  0.65504000  0.47325000  0.74004000  1.0
  C  C37  1  0.34495000  0.52674000  0.25997000  1.0
  C  C38  1  0.79800000  0.48859000  0.65747000  1.0
  C  C39  1  0.20199000  0.51140000  0.34253000  1.0
  C  C40  1  0.79348000  0.57071000  0.52721000  1.0
  C  C41  1  0.20652000  0.42929000  0.47280000  1.0
  C  C42  1  0.64837000  0.63553000  0.48359000  1.0
  C  C43  1  0.35164000  0.36447000  0.51642000  1.0
  C  C44  1  0.50913000  0.61841000  0.57260000  1.0
  C  C45  1  0.49087000  0.38160000  0.42740000  1.0
  C  C46  1  0.07977000  0.73599000  0.59655000  1.0
  C  C47  1  0.92023000  0.26402000  0.40345000  1.0
  C  C48  1  0.05287000  0.82047000  0.47072000  1.0
  C  C49  1  0.94713000  0.17953000  0.52928000  1.0
  C  C50  1  0.18167000  0.83986000  0.37302000  1.0
  C  C51  1  0.81834000  0.16014000  0.62697000  1.0
  C  C52  1  0.33276000  0.77389000  0.40450000  1.0
  C  C53  1  0.66724000  0.22611000  0.59549000  1.0
  C  C54  1  0.35130000  0.68993000  0.53305000  1.0
  C  C55  1  0.64870000  0.31007000  0.46695000  1.0
  S  S56  1  0.33926000  0.12746000  0.35693000  1.0
  S  S57  1  0.66074000  0.87254000  0.64306000  1.0
  S  S58  1  0.68363000  0.03207000  0.33265000  1.0
  S  S59  1  0.31637000  0.96792000  0.66735000  1.0
  N  N60  1  0.51461000  0.53664000  0.69863000  1.0
  N  N61  1  0.48539000  0.46336000  0.30137000  1.0
  N  N62  1  0.22494000  0.67204000  0.62719000  1.0
  N  N63  1  0.77506000  0.32796000  0.37281000  1.0
  O  O64  1  0.20198000  0.31069000  0.13852000  1.0
  O  O65  1  0.79802000  0.68931000  0.86148000  1.0
  O  O66  1  0.42096000  0.34734000  0.98729000  1.0
  O  O67  1  0.57903000  0.65266000  0.01271000  1.0
  O  O68  1  0.76412000  0.10777000  0.01171000  1.0
  O  O69  1  0.23589000  0.89223000  0.98829000  1.0
  O  O70  1  0.80005000  0.30657000  0.05573000  1.0
  O  O71  1  0.19995000  0.69344000  0.94428000  1.0
  O  O72  1  0.02567000  0.45818000  0.86949000  1.0
  O  O73  1  0.97433000  0.54182000  0.13050000  1.0
  O  O74  1  0.36042000  0.18401000  0.84311000  1.0
  O  O75  1  0.63958000  0.81598000  0.15689000  1.0
