# generated using pymatgen
data_Zn2H20C25SN8O3
_symmetry_space_group_name_H-M   'P 1'
_cell_length_a   14.83140000
_cell_length_b   14.86160000
_cell_length_c   14.89378620
_cell_angle_alpha   67.95931778
_cell_angle_beta   67.66659561
_cell_angle_gamma   103.94600000
_symmetry_Int_Tables_number   1
_chemical_formula_structural   Zn2H20C25SN8O3
_chemical_formula_sum   'Zn4 H40 C50 S2 N16 O6'
_cell_volume   2517.25305202
_cell_formula_units_Z   2
loop_
 _symmetry_equiv_pos_site_id
 _symmetry_equiv_pos_as_xyz
  1  'x, y, z'
loop_
 _atom_site_type_symbol
 _atom_site_label
 _atom_site_symmetry_multiplicity
 _atom_site_fract_x
 _atom_site_fract_y
 _atom_site_fract_z
 _atom_site_occupancy
  Zn  Zn0  1  0.51099000  0.62590000  0.84528000  1.0
  Zn  Zn1  1  0.64654000  0.48175000  0.84508000  1.0
  Zn  Zn2  1  0.50675000  0.35056000  0.12229000  1.0
  Zn  Zn3  1  0.36597000  0.48664000  0.12089000  1.0
  H  H4  1  0.33681000  0.71764000  0.79544000  1.0
  H  H5  1  0.26100000  0.43296000  0.54854000  1.0
  H  H6  1  0.45508000  0.26513000  0.55320000  1.0
  H  H7  1  0.55339000  0.43641000  0.56741000  1.0
  H  H8  1  0.50552000  0.53452000  0.56160000  1.0
  H  H9  1  0.52849000  0.44945000  0.41662000  1.0
  H  H10  1  0.44951000  0.51901000  0.43761000  1.0
  H  H11  1  0.72991000  0.29883000  0.80947000  1.0
  H  H12  1  0.79703000  0.15550000  0.83141000  1.0
  H  H13  1  0.18843000  0.75982000  0.79937000  1.0
  H  H14  1  0.78208000  0.98689000  0.83207000  1.0
  H  H15  1  0.01958000  0.74266000  0.80048000  1.0
  H  H16  1  0.50369000  0.80149000  0.17409000  1.0
  H  H17  1  0.83401000  0.52681000  0.16427000  1.0
  H  H18  1  0.51903000  0.96919000  0.17387000  1.0
  H  H19  1  0.00230000  0.54430000  0.16317000  1.0
  H  H20  1  0.01822000  0.80902000  0.40364000  1.0
  H  H21  1  0.83307000  0.99175000  0.42443000  1.0
  H  H22  1  0.55061000  0.13115000  0.17670000  1.0
  H  H23  1  0.15320000  0.53849000  0.16312000  1.0
  H  H24  1  0.18361000  0.97693000  0.24903000  1.0
  H  H25  1  0.99809000  0.15920000  0.27094000  1.0
  H  H26  1  0.15533000  0.31961000  0.15485000  1.0
  H  H27  1  0.28064000  0.19473000  0.78859000  1.0
  H  H28  1  0.34387000  0.13742000  0.15864000  1.0
  H  H29  1  0.51763000  0.31466000  0.79668000  1.0
  H  H30  1  0.33678000  0.50441000  0.80073000  1.0
  H  H31  1  0.68686000  0.84432000  0.58843000  1.0
  H  H32  1  0.86946000  0.65717000  0.58105000  1.0
  H  H33  1  0.21162000  0.32732000  0.78102000  1.0
  H  H34  1  0.46340000  0.26603000  0.38292000  1.0
  H  H35  1  0.26405000  0.43610000  0.38796000  1.0
  H  H36  1  0.49541000  0.64142000  0.17673000  1.0
  H  H37  1  0.67446000  0.48465000  0.16546000  1.0
  H  H38  1  0.86109000  0.65931000  0.79708000  1.0
  H  H39  1  0.68313000  0.83994000  0.80874000  1.0
  H  H40  1  0.42071000  0.23038000  0.73226000  1.0
  H  H41  1  0.29420000  0.46605000  0.67412000  1.0
  H  H42  1  0.40470000  0.04241000  0.62655000  1.0
  H  H43  1  0.02291000  0.27615000  0.81128000  1.0
  C  C44  1  0.30616000  0.67114000  0.88576000  1.0
  C  C45  1  0.63010000  0.77658000  0.89793000  1.0
  C  C46  1  0.31844000  0.39975000  0.36835000  1.0
  C  C47  1  0.80056000  0.60889000  0.88742000  1.0
  C  C48  1  0.81863000  0.79136000  0.53519000  1.0
  C  C49  1  0.35634000  0.34466000  0.43315000  1.0
  C  C50  1  0.60954000  0.78283000  0.99531000  1.0
  C  C51  1  0.81165000  0.59437000  0.98103000  1.0
  C  C52  1  0.68394000  0.27299000  0.89869000  1.0
  C  C53  1  0.36224000  0.25391000  0.71393000  1.0
  C  C54  1  0.28263000  0.38352000  0.69447000  1.0
  C  C55  1  0.37217000  0.25096000  0.60808000  1.0
  C  C56  1  0.26224000  0.36217000  0.60764000  1.0
  C  C57  1  0.48395000  0.45341000  0.57266000  1.0
  C  C58  1  0.38253000  0.36892000  0.69272000  1.0
  C  C59  1  0.35519000  0.34399000  0.53474000  1.0
  C  C60  1  0.59161000  0.18693000  0.08574000  1.0
  C  C61  1  0.21237000  0.57956000  0.07290000  1.0
  C  C62  1  0.46086000  0.44875000  0.48235000  1.0
  C  C63  1  0.73199000  0.07786000  0.90702000  1.0
  C  C64  1  0.11073000  0.70760000  0.88003000  1.0
  C  C65  1  0.72345000  0.98229000  0.90732000  1.0
  C  C66  1  0.01485000  0.69797000  0.88062000  1.0
  C  C67  1  0.63849000  0.88080000  0.00141000  1.0
  C  C68  1  0.53375000  0.67598000  0.08556000  1.0
  C  C69  1  0.91236000  0.62809000  0.98169000  1.0
  C  C70  1  0.57000000  0.87875000  0.09926000  1.0
  C  C71  1  0.91150000  0.57881000  0.08348000  1.0
  C  C72  1  0.57853000  0.97387000  0.09904000  1.0
  C  C73  1  0.00719000  0.58855000  0.08284000  1.0
  C  C74  1  0.70568000  0.51964000  0.07517000  1.0
  C  C75  1  0.65624000  0.07602000  0.00090000  1.0
  C  C76  1  0.10883000  0.64825000  0.98036000  1.0
  C  C77  1  0.01290000  0.88570000  0.37489000  1.0
  C  C78  1  0.90959000  0.98731000  0.38616000  1.0
  C  C79  1  0.10683000  0.98105000  0.28701000  1.0
  C  C80  1  0.00335000  0.08253000  0.29853000  1.0
  C  C81  1  0.10552000  0.08265000  0.25052000  1.0
  C  C82  1  0.21621000  0.28977000  0.14792000  1.0
  C  C83  1  0.31242000  0.19708000  0.14950000  1.0
  C  C84  1  0.91288000  0.88705000  0.43036000  1.0
  C  C85  1  0.48073000  0.36816000  0.80518000  1.0
  C  C86  1  0.38882000  0.46492000  0.80694000  1.0
  C  C87  1  0.20482000  0.63837000  0.97911000  1.0
  C  C88  1  0.64900000  0.17407000  0.99526000  1.0
  C  C89  1  0.20598000  0.18416000  0.17958000  1.0
  C  C90  1  0.40682000  0.39075000  0.77408000  1.0
  C  C91  1  0.71723000  0.78391000  0.60309000  1.0
  C  C92  1  0.81013000  0.68866000  0.59933000  1.0
  C  C93  1  0.41962000  0.31281000  0.36583000  1.0
  S  S94  1  0.29241000  0.11065000  0.64800000  1.0
  S  S95  1  0.12389000  0.25832000  0.67786000  1.0
  N  N96  1  0.36807000  0.63447000  0.92144000  1.0
  N  N97  1  0.37877000  0.30117000  0.10649000  1.0
  N  N98  1  0.31960000  0.35814000  0.10551000  1.0
  N  N99  1  0.50555000  0.42619000  0.85099000  1.0
  N  N100  1  0.44908000  0.48556000  0.85217000  1.0
  N  N101  1  0.65429000  0.68553000  0.69891000  1.0
  N  N102  1  0.71207000  0.62596000  0.69670000  1.0
  N  N103  1  0.64959000  0.33851000  0.92956000  1.0
  N  N104  1  0.41863000  0.34578000  0.26891000  1.0
  N  N105  1  0.35581000  0.40001000  0.27033000  1.0
  N  N106  1  0.51000000  0.61304000  0.04433000  1.0
  N  N107  1  0.63893000  0.49101000  0.03948000  1.0
  N  N108  1  0.69707000  0.54571000  0.92415000  1.0
  N  N109  1  0.56896000  0.67481000  0.92903000  1.0
  N  N110  1  0.59231000  0.28481000  0.04617000  1.0
  N  N111  1  0.30939000  0.57744000  0.03807000  1.0
  O  O112  1  0.25407000  0.03633000  0.76504000  1.0
  O  O113  1  0.09968000  0.25446000  0.59455000  1.0
  O  O114  1  0.10150000  0.16215000  0.77423000  1.0
  O  O115  1  0.05650000  0.31727000  0.72868000  1.0
  O  O116  1  0.22323000  0.10705000  0.60238000  1.0
  O  O117  1  0.39202000  0.09109000  0.57210000  1.0
