# generated using pymatgen
data_LiH4C2N4O5
_symmetry_space_group_name_H-M   'P 1'
_cell_length_a   3.51775000
_cell_length_b   7.17183000
_cell_length_c   12.37560000
_cell_angle_alpha   98.96390000
_cell_angle_beta   96.55160000
_cell_angle_gamma   90.29700000
_symmetry_Int_Tables_number   1
_chemical_formula_structural   LiH4C2N4O5
_chemical_formula_sum   'Li2 H8 C4 N8 O10'
_cell_volume   306.30918870
_cell_formula_units_Z   2
loop_
 _symmetry_equiv_pos_site_id
 _symmetry_equiv_pos_as_xyz
  1  'x, y, z'
loop_
 _atom_site_type_symbol
 _atom_site_label
 _atom_site_symmetry_multiplicity
 _atom_site_fract_x
 _atom_site_fract_y
 _atom_site_fract_z
 _atom_site_occupancy
  Li  Li0  1  0.96152000  0.92627000  0.20658000  1.0
  Li  Li1  1  0.03848000  0.07373000  0.79342000  1.0
  H  H2  1  0.55903000  0.76305000  0.32159000  1.0
  H  H3  1  0.44097000  0.23695000  0.67841000  1.0
  H  H4  1  0.12018000  0.83729000  0.00025000  1.0
  H  H5  1  0.87983000  0.16271000  0.99975000  1.0
  H  H6  1  0.45116000  0.67924000  0.19848000  1.0
  H  H7  1  0.54884000  0.32076000  0.80152000  1.0
  H  H8  1  0.78249000  0.70630000  0.01056000  1.0
  H  H9  1  0.21751000  0.29371000  0.98944000  1.0
  C  C10  1  0.03436000  0.40561000  0.47304000  1.0
  C  C11  1  0.96563000  0.59439000  0.52696000  1.0
  C  C12  1  0.92160000  0.32247000  0.35919000  1.0
  C  C13  1  0.07839000  0.67753000  0.64081000  1.0
  N  N14  1  0.04330000  0.14617000  0.34517000  1.0
  N  N15  1  0.95669000  0.85383000  0.65483000  1.0
  N  N16  1  0.72416000  0.42278000  0.28789000  1.0
  N  N17  1  0.27583000  0.57722000  0.71211000  1.0
  N  N18  1  0.22094000  0.27930000  0.52410000  1.0
  N  N19  1  0.77906000  0.72070000  0.47590000  1.0
  N  N20  1  0.64469000  0.34211000  0.18420000  1.0
  N  N21  1  0.35531000  0.65789000  0.81580000  1.0
  O  O22  1  0.22960000  0.12007000  0.44703000  1.0
  O  O23  1  0.77039000  0.87992000  0.55297000  1.0
  O  O24  1  0.48384000  0.80146000  0.24927000  1.0
  O  O25  1  0.51616000  0.19854000  0.75073000  1.0
  O  O26  1  0.46632000  0.44347000  0.12022000  1.0
  O  O27  1  0.53369000  0.55653000  0.87978000  1.0
  O  O28  1  0.96387000  0.80085000  0.05472000  1.0
  O  O29  1  0.03614000  0.19915000  0.94528000  1.0
  O  O30  1  0.73493000  0.17515000  0.14714000  1.0
  O  O31  1  0.26508000  0.82485000  0.85286000  1.0
