# generated using pymatgen
data_AgH3C5N6
_symmetry_space_group_name_H-M   'P 1'
_cell_length_a   3.53741000
_cell_length_b   12.34520000
_cell_length_c   14.60660000
_cell_angle_alpha   89.99980000
_cell_angle_beta   87.55430000
_cell_angle_gamma   89.99800000
_symmetry_Int_Tables_number   1
_chemical_formula_structural   AgH3C5N6
_chemical_formula_sum   'Ag4 H12 C20 N24'
_cell_volume   637.28968822
_cell_formula_units_Z   4
loop_
 _symmetry_equiv_pos_site_id
 _symmetry_equiv_pos_as_xyz
  1  'x, y, z'
loop_
 _atom_site_type_symbol
 _atom_site_label
 _atom_site_symmetry_multiplicity
 _atom_site_fract_x
 _atom_site_fract_y
 _atom_site_fract_z
 _atom_site_occupancy
  Ag  Ag0  1  0.29336000  0.29535000  0.78391000  1.0
  Ag  Ag1  1  0.70666000  0.79535000  0.71608000  1.0
  Ag  Ag2  1  0.70666000  0.70466000  0.21609000  1.0
  Ag  Ag3  1  0.29335000  0.20465000  0.28392000  1.0
  H  H4  1  0.73337000  0.58414000  0.03254000  1.0
  H  H5  1  0.26668000  0.08413000  0.46745000  1.0
  H  H6  1  0.26663000  0.41586000  0.96746000  1.0
  H  H7  1  0.73333000  0.91586000  0.53255000  1.0
  H  H8  1  0.27561000  0.92524000  0.91165000  1.0
  H  H9  1  0.72437000  0.42521000  0.58836000  1.0
  H  H10  1  0.72439000  0.07477000  0.08835000  1.0
  H  H11  1  0.27563000  0.57478000  0.41164000  1.0
  H  H12  1  0.28815000  0.89115000  0.08403000  1.0
  H  H13  1  0.71184000  0.39115000  0.41598000  1.0
  H  H14  1  0.71184000  0.10885000  0.91597000  1.0
  H  H15  1  0.28816000  0.60885000  0.58402000  1.0
  C  C16  1  0.78407000  0.60099000  0.84616000  1.0
  C  C17  1  0.21592000  0.10098000  0.65384000  1.0
  C  C18  1  0.21592000  0.39901000  0.15384000  1.0
  C  C19  1  0.78408000  0.89902000  0.34616000  1.0
  C  C20  1  0.63333000  0.68063000  0.91143000  1.0
  C  C21  1  0.36666000  0.18061000  0.58856000  1.0
  C  C22  1  0.36666000  0.31937000  0.08857000  1.0
  C  C23  1  0.63335000  0.81939000  0.41143000  1.0
  C  C24  1  0.62852000  0.66043000  0.00591000  1.0
  C  C25  1  0.37150000  0.16042000  0.49409000  1.0
  C  C26  1  0.37147000  0.33957000  0.99409000  1.0
  C  C27  1  0.62850000  0.83958000  0.50591000  1.0
  C  C28  1  0.38257000  0.84963000  0.93959000  1.0
  C  C29  1  0.61742000  0.34961000  0.56042000  1.0
  C  C30  1  0.61743000  0.15037000  0.06041000  1.0
  C  C31  1  0.38259000  0.65038000  0.43959000  1.0
  C  C32  1  0.38691000  0.83072000  0.03378000  1.0
  C  C33  1  0.61310000  0.33071000  0.46622000  1.0
  C  C34  1  0.61308000  0.16928000  0.96622000  1.0
  C  C35  1  0.38691000  0.66928000  0.53378000  1.0
  N  N36  1  0.01816000  0.45816000  0.78690000  1.0
  N  N37  1  0.98183000  0.95816000  0.71310000  1.0
  N  N38  1  0.98183000  0.54184000  0.21310000  1.0
  N  N39  1  0.01817000  0.04184000  0.28690000  1.0
  N  N40  1  0.50615000  0.77537000  0.87825000  1.0
  N  N41  1  0.49384000  0.27535000  0.62175000  1.0
  N  N42  1  0.49385000  0.22464000  0.12175000  1.0
  N  N43  1  0.50616000  0.72465000  0.37825000  1.0
  N  N44  1  0.98902000  0.53026000  0.71917000  1.0
  N  N45  1  0.01097000  0.03026000  0.78083000  1.0
  N  N46  1  0.01097000  0.46974000  0.28083000  1.0
  N  N47  1  0.98903000  0.96974000  0.21917000  1.0
  N  N48  1  0.50876000  0.73540000  0.06669000  1.0
  N  N49  1  0.49126000  0.23539000  0.43331000  1.0
  N  N50  1  0.49123000  0.26460000  0.93331000  1.0
  N  N51  1  0.50875000  0.76461000  0.56669000  1.0
  N  N52  1  0.89361000  0.50022000  0.86709000  1.0
  N  N53  1  0.10639000  0.00021000  0.63291000  1.0
  N  N54  1  0.10638000  0.49979000  0.13291000  1.0
  N  N55  1  0.89362000  0.99979000  0.36709000  1.0
  N  N56  1  0.84262000  0.62083000  0.75578000  1.0
  N  N57  1  0.15738000  0.12082000  0.74422000  1.0
  N  N58  1  0.15738000  0.37917000  0.24422000  1.0
  N  N59  1  0.84262000  0.87918000  0.25578000  1.0
