# generated using pymatgen
data_CuH8AuC6SN2
_symmetry_space_group_name_H-M   'P 1'
_cell_length_a   8.83052000
_cell_length_b   8.83053000
_cell_length_c   12.41170000
_cell_angle_alpha   103.49900000
_cell_angle_beta   103.49900000
_cell_angle_gamma   90.25960000
_symmetry_Int_Tables_number   1
_chemical_formula_structural   CuH8AuC6SN2
_chemical_formula_sum   'Cu4 H32 Au4 C24 S4 N8'
_cell_volume   913.32059471
_cell_formula_units_Z   4
loop_
 _symmetry_equiv_pos_site_id
 _symmetry_equiv_pos_as_xyz
  1  'x, y, z'
loop_
 _atom_site_type_symbol
 _atom_site_label
 _atom_site_symmetry_multiplicity
 _atom_site_fract_x
 _atom_site_fract_y
 _atom_site_fract_z
 _atom_site_occupancy
  Cu  Cu0  1  0.46225000  0.64135000  0.35709000  1.0
  Cu  Cu1  1  0.64135000  0.46225000  0.85709000  1.0
  Cu  Cu2  1  0.24036000  0.53627000  0.61888000  1.0
  Cu  Cu3  1  0.53627000  0.24037000  0.11888000  1.0
  H  H4  1  0.72939000  0.26071000  0.37016000  1.0
  H  H5  1  0.26071000  0.72939000  0.87016000  1.0
  H  H6  1  0.72239000  0.45179000  0.45799000  1.0
  H  H7  1  0.45179000  0.72239000  0.95799000  1.0
  H  H8  1  0.65355000  0.20109000  0.53152000  1.0
  H  H9  1  0.20109000  0.65355000  0.03152000  1.0
  H  H10  1  0.52802000  0.35690000  0.54352000  1.0
  H  H11  1  0.35690000  0.52802000  0.04352000  1.0
  H  H12  1  0.35592000  0.12022000  0.44210000  1.0
  H  H13  1  0.12022000  0.35592000  0.94210000  1.0
  H  H14  1  0.47760000  0.06294000  0.34577000  1.0
  H  H15  1  0.06294000  0.47760000  0.84577000  1.0
  H  H16  1  0.27413000  0.34462000  0.36848000  1.0
  H  H17  1  0.34462000  0.27413000  0.86848000  1.0
  H  H18  1  0.27617000  0.19875000  0.24102000  1.0
  H  H19  1  0.19874000  0.27617000  0.74102000  1.0
  H  H20  1  0.31323000  0.90453000  0.47855000  1.0
  H  H21  1  0.90453000  0.31323000  0.97855000  1.0
  H  H22  1  0.20616000  0.86236000  0.57406000  1.0
  H  H23  1  0.86236000  0.20616000  0.07405000  1.0
  H  H24  1  0.37941000  0.06714000  0.70668000  1.0
  H  H25  1  0.06714000  0.37941000  0.20668000  1.0
  H  H26  1  0.52506000  0.03376000  0.62876000  1.0
  H  H27  1  0.03376000  0.52506000  0.12876000  1.0
  H  H28  1  0.44729000  0.83487000  0.78290000  1.0
  H  H29  1  0.83487000  0.44729000  0.28290000  1.0
  H  H30  1  0.62836000  0.93583000  0.79872000  1.0
  H  H31  1  0.93584000  0.62836000  0.29872000  1.0
  H  H32  1  0.60652000  0.63513000  0.69275000  1.0
  H  H33  1  0.63513000  0.60652000  0.19275000  1.0
  H  H34  1  0.66371000  0.76657000  0.61718000  1.0
  H  H35  1  0.76657000  0.66371000  0.11718000  1.0
  Au  Au36  1  0.92107000  0.03391000  0.46572000  1.0
  Au  Au37  1  0.03391000  0.92107000  0.96572000  1.0
  Au  Au38  1  0.92172000  0.99432000  0.71753000  1.0
  Au  Au39  1  0.99432000  0.92172000  0.21753000  1.0
  C  C40  1  0.75712000  0.86339000  0.42486000  1.0
  C  C41  1  0.86339000  0.75712000  0.92486000  1.0
  C  C42  1  0.07073000  0.21629000  0.50944000  1.0
  C  C43  1  0.21629000  0.07073000  0.00944000  1.0
  C  C44  1  0.02632000  0.79809000  0.68233000  1.0
  C  C45  1  0.79809000  0.02632000  0.18233000  1.0
  C  C46  1  0.80853000  0.18337000  0.75422000  1.0
  C  C47  1  0.18337000  0.80853000  0.25423000  1.0
  C  C48  1  0.65450000  0.34231000  0.41111000  1.0
  C  C49  1  0.34231000  0.65450000  0.91111000  1.0
  C  C50  1  0.57146000  0.26726000  0.48219000  1.0
  C  C51  1  0.26726000  0.57146000  0.98219000  1.0
  C  C52  1  0.43492000  0.16385000  0.39832000  1.0
  C  C53  1  0.16385000  0.43491000  0.89832000  1.0
  C  C54  1  0.34669000  0.26510000  0.32364000  1.0
  C  C55  1  0.26509000  0.34669000  0.82364000  1.0
  C  C56  1  0.32274000  0.87036000  0.55890000  1.0
  C  C57  1  0.87037000  0.32274000  0.05890000  1.0
  C  C58  1  0.43982000  0.97560000  0.65992000  1.0
  C  C59  1  0.97560000  0.43982000  0.15992000  1.0
  C  C60  1  0.52500000  0.87369000  0.73591000  1.0
  C  C61  1  0.87369000  0.52500000  0.23590000  1.0
  C  C62  1  0.57129000  0.73378000  0.65486000  1.0
  C  C63  1  0.73379000  0.57129000  0.15487000  1.0
  S  S64  1  0.49856000  0.38467000  0.29626000  1.0
  S  S65  1  0.38467000  0.49856000  0.79626000  1.0
  S  S66  1  0.39436000  0.67234000  0.54066000  1.0
  S  S67  1  0.67234000  0.39436000  0.04066000  1.0
  N  N68  1  0.65393000  0.76840000  0.40153000  1.0
  N  N69  1  0.76840000  0.65392000  0.90154000  1.0
  N  N70  1  0.15132000  0.33166000  0.53824000  1.0
  N  N71  1  0.33165000  0.15132000  0.03824000  1.0
  N  N72  1  0.09002000  0.68264000  0.66037000  1.0
  N  N73  1  0.68265000  0.09002000  0.16038000  1.0
  N  N74  1  0.73462000  0.29031000  0.77885000  1.0
  N  N75  1  0.29031000  0.73462000  0.27885000  1.0
