# generated using pymatgen
data_Cu2H15C24I2(NO2)3
_symmetry_space_group_name_H-M   'P 1'
_cell_length_a   7.85720000
_cell_length_b   16.53460000
_cell_length_c   17.65800000
_cell_angle_alpha   112.75700000
_cell_angle_beta   90.00000000
_cell_angle_gamma   103.74500000
_symmetry_Int_Tables_number   1
_chemical_formula_structural   Cu2H15C24I2(NO2)3
_chemical_formula_sum   'Cu4 H30 C48 I4 N6 O12'
_cell_volume   2044.04061650
_cell_formula_units_Z   2
loop_
 _symmetry_equiv_pos_site_id
 _symmetry_equiv_pos_as_xyz
  1  'x, y, z'
loop_
 _atom_site_type_symbol
 _atom_site_label
 _atom_site_symmetry_multiplicity
 _atom_site_fract_x
 _atom_site_fract_y
 _atom_site_fract_z
 _atom_site_occupancy
  Cu  Cu0  1  0.94509000  0.97141000  0.72162000  1.0
  Cu  Cu1  1  0.97269000  0.02859000  0.27853000  1.0
  Cu  Cu2  1  0.08909000  0.03932000  0.86687000  1.0
  Cu  Cu3  1  0.04868000  0.96064000  0.13326000  1.0
  H  H4  1  0.80919000  0.38873000  0.56866000  1.0
  H  H5  1  0.41988000  0.61131000  0.43161000  1.0
  H  H6  1  0.57695000  0.14867000  0.34927000  1.0
  H  H7  1  0.42613000  0.85141000  0.65070000  1.0
  H  H8  1  0.57375000  0.41291000  0.35953000  1.0
  H  H9  1  0.16003000  0.58711000  0.64067000  1.0
  H  H10  1  0.03172000  0.71109000  0.47206000  1.0
  H  H11  1  0.32102000  0.28884000  0.52776000  1.0
  H  H12  1  0.08421000  0.87108000  0.57429000  1.0
  H  H13  1  0.21333000  0.12884000  0.42550000  1.0
  H  H14  1  0.73468000  0.79500000  0.72605000  1.0
  H  H15  1  0.93977000  0.20505000  0.27389000  1.0
  H  H16  1  0.67794000  0.63117000  0.63327000  1.0
  H  H17  1  0.04671000  0.36884000  0.36677000  1.0
  H  H18  1  0.98904000  0.15975000  0.54684000  1.0
  H  H19  1  0.82732000  0.84012000  0.45315000  1.0
  H  H20  1  0.10469000  0.08458000  0.62712000  1.0
  H  H21  1  0.01860000  0.91538000  0.37309000  1.0
  H  H22  1  0.60673000  0.99358000  0.68783000  1.0
  H  H23  1  0.61188000  0.00623000  0.31190000  1.0
  H  H24  1  0.46926000  0.06172000  0.60807000  1.0
  H  H25  1  0.40597000  0.93821000  0.39161000  1.0
  H  H26  1  0.19568000  0.17960000  0.17958000  1.0
  H  H27  1  0.01478000  0.82065000  0.82053000  1.0
  H  H28  1  0.01679000  0.10556000  0.04261000  1.0
  H  H29  1  0.91001000  0.89458000  0.95756000  1.0
  H  H30  1  0.46325000  0.08605000  0.91772000  1.0
  H  H31  1  0.37610000  0.91402000  0.08230000  1.0
  H  H32  1  0.66121000  0.15866000  0.05026000  1.0
  H  H33  1  0.50132000  0.84143000  0.94971000  1.0
  C  C34  1  0.69642000  0.41038000  0.46858000  1.0
  C  C35  1  0.28535000  0.58962000  0.53163000  1.0
  C  C36  1  0.74193000  0.35748000  0.50643000  1.0
  C  C37  1  0.38360000  0.64258000  0.49378000  1.0
  C  C38  1  0.69987000  0.26388000  0.46255000  1.0
  C  C39  1  0.43460000  0.73620000  0.53755000  1.0
  C  C40  1  0.61231000  0.22202000  0.38329000  1.0
  C  C41  1  0.38861000  0.77805000  0.61675000  1.0
  C  C42  1  0.56832000  0.27768000  0.34838000  1.0
  C  C43  1  0.28917000  0.72235000  0.65168000  1.0
  C  C44  1  0.60928000  0.37171000  0.38914000  1.0
  C  C45  1  0.23656000  0.62828000  0.61100000  1.0
  C  C46  1  0.82420000  0.56326000  0.48402000  1.0
  C  C47  1  0.26072000  0.43670000  0.51608000  1.0
  C  C48  1  0.63496000  0.16080000  0.52839000  1.0
  C  C49  1  0.47230000  0.83901000  0.47137000  1.0
  C  C50  1  0.56370000  0.22356000  0.20323000  1.0
  C  C51  1  0.33874000  0.77661000  0.79679000  1.0
  C  C52  1  0.84985000  0.65824000  0.54438000  1.0
  C  C53  1  0.19170000  0.34174000  0.45560000  1.0
  C  C54  1  0.96312000  0.72714000  0.52745000  1.0
  C  C55  1  0.23625000  0.27281000  0.47240000  1.0
  C  C56  1  0.99137000  0.81620000  0.58390000  1.0
  C  C57  1  0.17537000  0.18375000  0.41595000  1.0
  C  C58  1  0.79961000  0.77333000  0.66965000  1.0
  C  C59  1  0.02636000  0.22669000  0.33029000  1.0
  C  C60  1  0.76787000  0.68212000  0.61750000  1.0
  C  C61  1  0.08581000  0.31789000  0.38248000  1.0
  C  C62  1  0.71856000  0.11649000  0.57113000  1.0
  C  C63  1  0.60029000  0.88337000  0.42869000  1.0
  C  C64  1  0.89961000  0.12257000  0.57631000  1.0
  C  C65  1  0.77527000  0.87733000  0.42364000  1.0
  C  C66  1  0.96454000  0.08086000  0.62066000  1.0
  C  C67  1  0.88214000  0.91908000  0.37939000  1.0
  C  C68  1  0.68603000  0.02905000  0.65395000  1.0
  C  C69  1  0.65559000  0.97084000  0.34589000  1.0
  C  C70  1  0.61041000  0.06779000  0.61036000  1.0
  C  C71  1  0.54100000  0.93207000  0.38941000  1.0
  C  C72  1  0.44412000  0.17685000  0.12534000  1.0
  C  C73  1  0.26594000  0.82330000  0.87470000  1.0
  C  C74  1  0.26050000  0.16064000  0.12318000  1.0
  C  C75  1  0.09859000  0.83956000  0.87691000  1.0
  C  C76  1  0.16017000  0.11965000  0.04688000  1.0
  C  C77  1  0.03929000  0.88049000  0.95325000  1.0
  C  C78  1  0.40987000  0.10810000  0.97727000  1.0
  C  C79  1  0.30063000  0.89200000  0.02277000  1.0
  C  C80  1  0.51925000  0.14878000  0.05069000  1.0
  C  C81  1  0.36925000  0.85135000  0.94931000  1.0
  I  I82  1  0.75845000  0.98899000  0.85408000  1.0
  I  I83  1  0.76879000  0.01127000  0.14596000  1.0
  I  I84  1  0.29087000  0.04144000  0.75408000  1.0
  I  I85  1  0.24802000  0.95815000  0.24587000  1.0
  N  N86  1  0.90974000  0.83984000  0.65371000  1.0
  N  N87  1  0.06987000  0.16013000  0.34620000  1.0
  N  N88  1  0.86051000  0.03518000  0.65991000  1.0
  N  N89  1  0.82397000  0.96475000  0.34008000  1.0
  N  N90  1  0.23287000  0.09435000  0.97476000  1.0
  N  N91  1  0.13736000  0.90574000  0.02533000  1.0
  O  O92  1  0.73390000  0.50326000  0.51622000  1.0
  O  O93  1  0.23033000  0.49674000  0.48396000  1.0
  O  O94  1  0.75895000  0.21295000  0.49945000  1.0
  O  O95  1  0.54440000  0.78716000  0.50060000  1.0
  O  O96  1  0.46995000  0.23668000  0.27108000  1.0
  O  O97  1  0.23164000  0.76334000  0.72895000  1.0
  O  O98  1  0.87690000  0.54004000  0.41598000  1.0
  O  O99  1  0.33635000  0.45982000  0.58415000  1.0
  O  O100  1  0.47743000  0.15451000  0.52102000  1.0
  O  O101  1  0.32086000  0.84503000  0.47850000  1.0
  O  O102  1  0.72360000  0.24811000  0.20801000  1.0
  O  O103  1  0.47416000  0.75213000  0.79197000  1.0
