# generated using pymatgen
data_ZnH14C19N2O7
_symmetry_space_group_name_H-M   'P 1'
_cell_length_a   9.40661000
_cell_length_b   9.49230000
_cell_length_c   11.15080000
_cell_angle_alpha   111.48300000
_cell_angle_beta   90.76940000
_cell_angle_gamma   102.69300000
_symmetry_Int_Tables_number   1
_chemical_formula_structural   ZnH14C19N2O7
_chemical_formula_sum   'Zn2 H28 C38 N4 O14'
_cell_volume   898.99667811
_cell_formula_units_Z   2
loop_
 _symmetry_equiv_pos_site_id
 _symmetry_equiv_pos_as_xyz
  1  'x, y, z'
loop_
 _atom_site_type_symbol
 _atom_site_label
 _atom_site_symmetry_multiplicity
 _atom_site_fract_x
 _atom_site_fract_y
 _atom_site_fract_z
 _atom_site_occupancy
  Zn  Zn0  1  0.45344000  0.26912000  0.30477000  1.0
  Zn  Zn1  1  0.54657000  0.73088000  0.69523000  1.0
  H  H2  1  0.32842000  0.44014000  0.14893000  1.0
  H  H3  1  0.67157000  0.55986000  0.85107000  1.0
  H  H4  1  0.16268000  0.36109000  0.94287000  1.0
  H  H5  1  0.83731000  0.63891000  0.05713000  1.0
  H  H6  1  0.07899000  0.07586000  0.80390000  1.0
  H  H7  1  0.92101000  0.92414000  0.19610000  1.0
  H  H8  1  0.16531000  0.88379000  0.87091000  1.0
  H  H9  1  0.83469000  0.11621000  0.12908000  1.0
  H  H10  1  0.28363000  0.74835000  0.92042000  1.0
  H  H11  1  0.71637000  0.25165000  0.07958000  1.0
  H  H12  1  0.39873000  0.59044000  0.00821000  1.0
  H  H13  1  0.60127000  0.40956000  0.99179000  1.0
  H  H14  1  0.53604000  0.71791000  0.23207000  1.0
  H  H15  1  0.46395000  0.28208000  0.76793000  1.0
  H  H16  1  0.54692000  0.00103000  0.35784000  1.0
  H  H17  1  0.45308000  0.99897000  0.64216000  1.0
  H  H18  1  0.49181000  0.34918000  0.55810000  1.0
  H  H19  1  0.50820000  0.65082000  0.44190000  1.0
  H  H20  1  0.38775000  0.17469000  0.50035000  1.0
  H  H21  1  0.61224000  0.82531000  0.49965000  1.0
  H  H22  1  0.86726000  0.77448000  0.34157000  1.0
  H  H23  1  0.13274000  0.22552000  0.65843000  1.0
  H  H24  1  0.29537000  0.71944000  0.43126000  1.0
  H  H25  1  0.70463000  0.28056000  0.56874000  1.0
  H  H26  1  0.92083000  0.32849000  0.31992000  1.0
  H  H27  1  0.07917000  0.67151000  0.68008000  1.0
  H  H28  1  0.12306000  0.10954000  0.37513000  1.0
  H  H29  1  0.87694000  0.89047000  0.62487000  1.0
  C  C30  1  0.28874000  0.31853000  0.08373000  1.0
  C  C31  1  0.71126000  0.68147000  0.91626000  1.0
  C  C32  1  0.19674000  0.27377000  0.97057000  1.0
  C  C33  1  0.80325000  0.72624000  0.02943000  1.0
  C  C34  1  0.15124000  0.11532000  0.89299000  1.0
  C  C35  1  0.84877000  0.88467000  0.10700000  1.0
  C  C36  1  0.19961000  0.00771000  0.93056000  1.0
  C  C37  1  0.80038000  0.99229000  0.06944000  1.0
  C  C38  1  0.29220000  0.06145000  0.04564000  1.0
  C  C39  1  0.70780000  0.93855000  0.95436000  1.0
  C  C40  1  0.35122000  0.95718000  0.09353000  1.0
  C  C41  1  0.64878000  0.04281000  0.90647000  1.0
  C  C42  1  0.33818000  0.79968000  0.01848000  1.0
  C  C43  1  0.66182000  0.20032000  0.98152000  1.0
  C  C44  1  0.40414000  0.71197000  0.06819000  1.0
  C  C45  1  0.59585000  0.28802000  0.93181000  1.0
  C  C46  1  0.48033000  0.78231000  0.19160000  1.0
  C  C47  1  0.51967000  0.21768000  0.80840000  1.0
  C  C48  1  0.48771000  0.93980000  0.26139000  1.0
  C  C49  1  0.51229000  0.06019000  0.73861000  1.0
  C  C50  1  0.87729000  0.54449000  0.32529000  1.0
  C  C51  1  0.12271000  0.45551000  0.67470000  1.0
  C  C52  1  0.93879000  0.70154000  0.34933000  1.0
  C  C53  1  0.06121000  0.29846000  0.65067000  1.0
  C  C54  1  0.08876000  0.76463000  0.38930000  1.0
  C  C55  1  0.91124000  0.23537000  0.61070000  1.0
  C  C56  1  0.17903000  0.66917000  0.39959000  1.0
  C  C57  1  0.82097000  0.33083000  0.60041000  1.0
  C  C58  1  0.11896000  0.51010000  0.36909000  1.0
  C  C59  1  0.88104000  0.48990000  0.63090000  1.0
  C  C60  1  0.96788000  0.44997000  0.33540000  1.0
  C  C61  1  0.03213000  0.55003000  0.66460000  1.0
  C  C62  1  0.71395000  0.48118000  0.29645000  1.0
  C  C63  1  0.28605000  0.51882000  0.70355000  1.0
  C  C64  1  0.15441000  0.93305000  0.42043000  1.0
  C  C65  1  0.84559000  0.06695000  0.57957000  1.0
  C  C66  1  0.21122000  0.39932000  0.36938000  1.0
  C  C67  1  0.78878000  0.60069000  0.63062000  1.0
  N  N68  1  0.33442000  0.21477000  0.12016000  1.0
  N  N69  1  0.66558000  0.78523000  0.87984000  1.0
  N  N70  1  0.42455000  0.02459000  0.21350000  1.0
  N  N71  1  0.57545000  0.97541000  0.78650000  1.0
  O  O72  1  0.47309000  0.24739000  0.48572000  1.0
  O  O73  1  0.52691000  0.75261000  0.51428000  1.0
  O  O74  1  0.66626000  0.34420000  0.30028000  1.0
  O  O75  1  0.33374000  0.65580000  0.69972000  1.0
  O  O76  1  0.63553000  0.56072000  0.27269000  1.0
  O  O77  1  0.36447000  0.43928000  0.72730000  1.0
  O  O78  1  0.07623000  0.99681000  0.36415000  1.0
  O  O79  1  0.92377000  0.00319000  0.63585000  1.0
  O  O80  1  0.27112000  0.00456000  0.49052000  1.0
  O  O81  1  0.72888000  0.99544000  0.50948000  1.0
  O  O82  1  0.35125000  0.44904000  0.38118000  1.0
  O  O83  1  0.64876000  0.55096000  0.61882000  1.0
  O  O84  1  0.14555000  0.26043000  0.34985000  1.0
  O  O85  1  0.85445000  0.73958000  0.65016000  1.0
