# generated using pymatgen
data_CoH4C6(N3O2)2
_symmetry_space_group_name_H-M   'P 1'
_cell_length_a   14.87812871
_cell_length_b   14.87790000
_cell_length_c   14.87800000
_cell_angle_alpha   109.47100000
_cell_angle_beta   109.47162281
_cell_angle_gamma   109.47107819
_symmetry_Int_Tables_number   1
_chemical_formula_structural   CoH4C6(N3O2)2
_chemical_formula_sum   'Co6 H24 C36 N36 O24'
_cell_volume   2535.20102004
_cell_formula_units_Z   6
loop_
 _symmetry_equiv_pos_site_id
 _symmetry_equiv_pos_as_xyz
  1  'x, y, z'
loop_
 _atom_site_type_symbol
 _atom_site_label
 _atom_site_symmetry_multiplicity
 _atom_site_fract_x
 _atom_site_fract_y
 _atom_site_fract_z
 _atom_site_occupancy
  Co  Co0  1  0.75000000  0.25000000  0.50000000  1.0
  Co  Co1  1  0.25000000  0.75000000  0.50000000  1.0
  Co  Co2  1  0.25000000  0.50000000  0.75000000  1.0
  Co  Co3  1  0.75000000  0.50000000  0.25000000  1.0
  Co  Co4  1  0.50000000  0.75000000  0.25000000  1.0
  Co  Co5  1  0.50000000  0.25000000  0.75000000  1.0
  H  H6  1  0.88566000  0.42665000  0.75444000  1.0
  H  H7  1  0.67221000  0.13122000  0.24556000  1.0
  H  H8  1  0.11434000  0.86879000  0.54099000  1.0
  H  H9  1  0.32779000  0.57334000  0.45901000  1.0
  H  H10  1  0.42665000  0.75444000  0.88565000  1.0
  H  H11  1  0.13121000  0.24555000  0.67221000  1.0
  H  H12  1  0.86879000  0.54100000  0.11435000  1.0
  H  H13  1  0.57335000  0.45900000  0.32779000  1.0
  H  H14  1  0.75444000  0.88565000  0.42665000  1.0
  H  H15  1  0.24556000  0.67221000  0.13121000  1.0
  H  H16  1  0.54100000  0.11435000  0.86879000  1.0
  H  H17  1  0.45900000  0.32779000  0.57335000  1.0
  H  H18  1  0.42666000  0.88567000  0.75445000  1.0
  H  H19  1  0.13122000  0.67221000  0.24555000  1.0
  H  H20  1  0.86878000  0.11433000  0.54099000  1.0
  H  H21  1  0.57334000  0.32779000  0.45901000  1.0
  H  H22  1  0.75444000  0.42665000  0.88565000  1.0
  H  H23  1  0.24556000  0.13121000  0.67221000  1.0
  H  H24  1  0.54099000  0.86878000  0.11434000  1.0
  H  H25  1  0.45900000  0.57334000  0.32779000  1.0
  H  H26  1  0.88565000  0.75444000  0.42665000  1.0
  H  H27  1  0.67221000  0.24556000  0.13121000  1.0
  H  H28  1  0.11435000  0.54100000  0.86879000  1.0
  H  H29  1  0.32779000  0.45900000  0.57335000  1.0
  C  C30  1  0.00000000  0.36370000  0.61616000  1.0
  C  C31  1  0.74754000  0.38384000  0.38384000  1.0
  C  C32  1  0.00000000  0.61616000  0.36370000  1.0
  C  C33  1  0.25246000  0.63630000  0.63630000  1.0
  C  C34  1  0.36370000  0.61615000  0.99999000  1.0
  C  C35  1  0.38384000  0.38384000  0.74755000  1.0
  C  C36  1  0.61616000  0.36370000  0.00000000  1.0
  C  C37  1  0.63629000  0.63629000  0.25245000  1.0
  C  C38  1  0.61616000  1.00000000  0.36370000  1.0
  C  C39  1  0.38384000  0.74754000  0.38384000  1.0
  C  C40  1  0.36370000  0.00000000  0.61616000  1.0
  C  C41  1  0.63630000  0.25246000  0.63630000  1.0
  C  C42  1  0.94271000  0.41942000  0.72636000  1.0
  C  C43  1  0.69306000  0.21635000  0.27365000  1.0
  C  C44  1  0.05730000  0.78366000  0.47671000  1.0
  C  C45  1  0.30694000  0.58059000  0.52329000  1.0
  C  C46  1  0.41941000  0.72635000  0.94270000  1.0
  C  C47  1  0.21635000  0.27364000  0.69306000  1.0
  C  C48  1  0.78365000  0.47672000  0.05730000  1.0
  C  C49  1  0.58058000  0.52328000  0.30693000  1.0
  C  C50  1  0.72635000  0.94270000  0.41941000  1.0
  C  C51  1  0.27365000  0.69306000  0.21635000  1.0
  C  C52  1  0.47671000  0.05730000  0.78365000  1.0
  C  C53  1  0.52329000  0.30695000  0.58059000  1.0
  C  C54  1  0.41941000  0.94270000  0.72635000  1.0
  C  C55  1  0.21635000  0.69306000  0.27365000  1.0
  C  C56  1  0.78365000  0.05730000  0.47671000  1.0
  C  C57  1  0.58059000  0.30694000  0.52329000  1.0
  C  C58  1  0.72635000  0.41941000  0.94270000  1.0
  C  C59  1  0.27365000  0.21635000  0.69306000  1.0
  C  C60  1  0.47671000  0.78365000  0.05730000  1.0
  C  C61  1  0.52329000  0.58059000  0.30694000  1.0
  C  C62  1  0.94270000  0.72635000  0.41941000  1.0
  C  C63  1  0.69306000  0.27365000  0.21635000  1.0
  C  C64  1  0.05730000  0.47671000  0.78365000  1.0
  C  C65  1  0.30694000  0.52329000  0.58059000  1.0
  N  N66  1  0.90678000  0.34762000  0.62016000  1.0
  N  N67  1  0.72746000  0.28662000  0.37984000  1.0
  N  N68  1  0.09322000  0.71338000  0.44084000  1.0
  N  N69  1  0.27254000  0.65239000  0.55916000  1.0
  N  N70  1  0.34762000  0.62016000  0.90677000  1.0
  N  N71  1  0.28662000  0.37985000  0.72747000  1.0
  N  N72  1  0.71338000  0.44084000  0.09322000  1.0
  N  N73  1  0.65238000  0.55915000  0.27254000  1.0
  N  N74  1  0.62016000  0.90678000  0.34762000  1.0
  N  N75  1  0.37984000  0.72745000  0.28662000  1.0
  N  N76  1  0.44084000  0.09322000  0.71338000  1.0
  N  N77  1  0.55916000  0.27254000  0.65238000  1.0
  N  N78  1  0.34762000  0.90678000  0.62016000  1.0
  N  N79  1  0.28662000  0.72746000  0.37984000  1.0
  N  N80  1  0.71338000  0.09322000  0.44084000  1.0
  N  N81  1  0.65238000  0.27254000  0.55915000  1.0
  N  N82  1  0.62016000  0.34762000  0.90678000  1.0
  N  N83  1  0.37984000  0.28662000  0.72746000  1.0
  N  N84  1  0.44084000  0.71338000  0.09322000  1.0
  N  N85  1  0.55916000  0.65238000  0.27254000  1.0
  N  N86  1  0.90677000  0.62016000  0.34761000  1.0
  N  N87  1  0.72746000  0.37984000  0.28662000  1.0
  N  N88  1  0.09323000  0.44084000  0.71339000  1.0
  N  N89  1  0.27254000  0.55916000  0.65239000  1.0
  N  N90  1  0.00001000  0.30638000  0.51885000  1.0
  N  N91  1  0.78753000  0.48116000  0.48115000  1.0
  N  N92  1  0.99999000  0.51884000  0.30637000  1.0
  N  N93  1  0.21247000  0.69362000  0.69363000  1.0
  N  N94  1  0.30638000  0.51884000  0.00000000  1.0
  N  N95  1  0.48116000  0.48116000  0.78754000  1.0
  N  N96  1  0.51884000  0.30638000  0.00000000  1.0
  N  N97  1  0.69362000  0.69362000  0.21246000  1.0
  N  N98  1  0.51884000  0.00000000  0.30637000  1.0
  N  N99  1  0.48116000  0.78753000  0.48115000  1.0
  N  N100  1  0.30638000  0.00001000  0.51884000  1.0
  N  N101  1  0.69362000  0.21246000  0.69363000  1.0
  O  O102  1  0.09118000  0.32817000  0.52445000  1.0
  O  O103  1  0.80373000  0.56674000  0.47555000  1.0
  O  O104  1  0.90882000  0.43327000  0.23699000  1.0
  O  O105  1  0.19628000  0.67183000  0.76301000  1.0
  O  O106  1  0.32817000  0.52444000  0.09117000  1.0
  O  O107  1  0.56673000  0.47556000  0.80372000  1.0
  O  O108  1  0.43327000  0.23700000  0.90883000  1.0
  O  O109  1  0.67183000  0.76301000  0.19627000  1.0
  O  O110  1  0.52443000  0.09116000  0.32816000  1.0
  O  O111  1  0.47557000  0.80373000  0.56673000  1.0
  O  O112  1  0.23700000  0.90884000  0.43327000  1.0
  O  O113  1  0.76300000  0.19627000  0.67184000  1.0
  O  O114  1  0.32818000  0.09119000  0.52445000  1.0
  O  O115  1  0.56673000  0.80372000  0.47554000  1.0
  O  O116  1  0.43327000  0.90882000  0.23700000  1.0
  O  O117  1  0.67182000  0.19627000  0.76300000  1.0
  O  O118  1  0.52444000  0.32817000  0.09117000  1.0
  O  O119  1  0.47556000  0.56674000  0.80373000  1.0
  O  O120  1  0.23700000  0.43327000  0.90883000  1.0
  O  O121  1  0.76300000  0.67183000  0.19627000  1.0
  O  O122  1  0.09116000  0.52443000  0.32816000  1.0
  O  O123  1  0.80373000  0.47557000  0.56673000  1.0
  O  O124  1  0.90884000  0.23700000  0.43327000  1.0
  O  O125  1  0.19627000  0.76300000  0.67184000  1.0
