# generated using pymatgen
data_CuH11C13N2ClO
_symmetry_space_group_name_H-M   'P 1'
_cell_length_a   6.93545000
_cell_length_b   11.16970000
_cell_length_c   15.03960000
_cell_angle_alpha   90.00010000
_cell_angle_beta   90.00010000
_cell_angle_gamma   84.92390000
_symmetry_Int_Tables_number   1
_chemical_formula_structural   CuH11C13N2ClO
_chemical_formula_sum   'Cu4 H44 C52 N8 Cl4 O4'
_cell_volume   1160.50178748
_cell_formula_units_Z   4
loop_
 _symmetry_equiv_pos_site_id
 _symmetry_equiv_pos_as_xyz
  1  'x, y, z'
loop_
 _atom_site_type_symbol
 _atom_site_label
 _atom_site_symmetry_multiplicity
 _atom_site_fract_x
 _atom_site_fract_y
 _atom_site_fract_z
 _atom_site_occupancy
  Cu  Cu0  1  0.81367000  0.43862000  0.29291000  1.0
  Cu  Cu1  1  0.68629000  0.56138000  0.79290000  1.0
  Cu  Cu2  1  0.18629000  0.56139000  0.70709000  1.0
  Cu  Cu3  1  0.31366000  0.43862000  0.20708000  1.0
  H  H4  1  0.75257000  0.54286000  0.53647000  1.0
  H  H5  1  0.74746000  0.45714000  0.03647000  1.0
  H  H6  1  0.24745000  0.45713000  0.46352000  1.0
  H  H7  1  0.25257000  0.54286000  0.96353000  1.0
  H  H8  1  0.62138000  0.35346000  0.60397000  1.0
  H  H9  1  0.87858000  0.64655000  0.10397000  1.0
  H  H10  1  0.37860000  0.64655000  0.39602000  1.0
  H  H11  1  0.12137000  0.35346000  0.89602000  1.0
  H  H12  1  0.07956000  0.78274000  0.20306000  1.0
  H  H13  1  0.42045000  0.21726000  0.70306000  1.0
  H  H14  1  0.92045000  0.21726000  0.79694000  1.0
  H  H15  1  0.57956000  0.78274000  0.29694000  1.0
  H  H16  1  0.82222000  0.73710000  0.51034000  1.0
  H  H17  1  0.67775000  0.26290000  0.01034000  1.0
  H  H18  1  0.17776000  0.26289000  0.48966000  1.0
  H  H19  1  0.32223000  0.73711000  0.98967000  1.0
  H  H20  1  0.68491000  0.17942000  0.30247000  1.0
  H  H21  1  0.81512000  0.82057000  0.80247000  1.0
  H  H22  1  0.31513000  0.82057000  0.69753000  1.0
  H  H23  1  0.18491000  0.17941000  0.19753000  1.0
  H  H24  1  0.54272000  0.14050000  0.58071000  1.0
  H  H25  1  0.95726000  0.85950000  0.08070000  1.0
  H  H26  1  0.45726000  0.85951000  0.41929000  1.0
  H  H27  1  0.04271000  0.14050000  0.91929000  1.0
  H  H28  1  0.17801000  0.97430000  0.24136000  1.0
  H  H29  1  0.32199000  0.02569000  0.74137000  1.0
  H  H30  1  0.82199000  0.02569000  0.75864000  1.0
  H  H31  1  0.67801000  0.97431000  0.25865000  1.0
  H  H32  1  0.18805000  0.01823000  0.35487000  1.0
  H  H33  1  0.31197000  0.98178000  0.85488000  1.0
  H  H34  1  0.81197000  0.98177000  0.64513000  1.0
  H  H35  1  0.68805000  0.01824000  0.14513000  1.0
  H  H36  1  0.97654000  0.05653000  0.29304000  1.0
  H  H37  1  0.52346000  0.94347000  0.79304000  1.0
  H  H38  1  0.02346000  0.94346000  0.70696000  1.0
  H  H39  1  0.47656000  0.05654000  0.20697000  1.0
  H  H40  1  0.93677000  0.93125000  0.46217000  1.0
  H  H41  1  0.56322000  0.06875000  0.96217000  1.0
  H  H42  1  0.06323000  0.06875000  0.53783000  1.0
  H  H43  1  0.43676000  0.93125000  0.03784000  1.0
  H  H44  1  0.58008000  0.04950000  0.42751000  1.0
  H  H45  1  0.91996000  0.95050000  0.92750000  1.0
  H  H46  1  0.41996000  0.95050000  0.57249000  1.0
  H  H47  1  0.08007000  0.04950000  0.07249000  1.0
  C  C48  1  0.88053000  0.65166000  0.38235000  1.0
  C  C49  1  0.61947000  0.34834000  0.88236000  1.0
  C  C50  1  0.11946000  0.34834000  0.61764000  1.0
  C  C51  1  0.38053000  0.65166000  0.11765000  1.0
  C  C52  1  0.75789000  0.49521000  0.47263000  1.0
  C  C53  1  0.74211000  0.50480000  0.97264000  1.0
  C  C54  1  0.24211000  0.50479000  0.52736000  1.0
  C  C55  1  0.25789000  0.49521000  0.02737000  1.0
  C  C56  1  0.63483000  0.31049000  0.53861000  1.0
  C  C57  1  0.86515000  0.68952000  0.03861000  1.0
  C  C58  1  0.36516000  0.68952000  0.46138000  1.0
  C  C59  1  0.13482000  0.31049000  0.96139000  1.0
  C  C60  1  0.01963000  0.77367000  0.26944000  1.0
  C  C61  1  0.48036000  0.22634000  0.76944000  1.0
  C  C62  1  0.98036000  0.22634000  0.73056000  1.0
  C  C63  1  0.51963000  0.77367000  0.23057000  1.0
  C  C64  1  0.87560000  0.74810000  0.44281000  1.0
  C  C65  1  0.62441000  0.25190000  0.94281000  1.0
  C  C66  1  0.12441000  0.25190000  0.55719000  1.0
  C  C67  1  0.37561000  0.74810000  0.05719000  1.0
  C  C68  1  0.94728000  0.66334000  0.29288000  1.0
  C  C69  1  0.55269000  0.33666000  0.79289000  1.0
  C  C70  1  0.05268000  0.33666000  0.70711000  1.0
  C  C71  1  0.44729000  0.66334000  0.20712000  1.0
  C  C72  1  0.67335000  0.21157000  0.37085000  1.0
  C  C73  1  0.82667000  0.78842000  0.87084000  1.0
  C  C74  1  0.32667000  0.78842000  0.62915000  1.0
  C  C75  1  0.17336000  0.21157000  0.12915000  1.0
  C  C76  1  0.70133000  0.37371000  0.46629000  1.0
  C  C77  1  0.79867000  0.62629000  0.96628000  1.0
  C  C78  1  0.29867000  0.62629000  0.53371000  1.0
  C  C79  1  0.20134000  0.37370000  0.03371000  1.0
  C  C80  1  0.01726000  0.86862000  0.32948000  1.0
  C  C81  1  0.48274000  0.13138000  0.82948000  1.0
  C  C82  1  0.98274000  0.13137000  0.67053000  1.0
  C  C83  1  0.51726000  0.86863000  0.17053000  1.0
  C  C84  1  0.59148000  0.19235000  0.52503000  1.0
  C  C85  1  0.90850000  0.80766000  0.02503000  1.0
  C  C86  1  0.40850000  0.80766000  0.47497000  1.0
  C  C87  1  0.09148000  0.19235000  0.97497000  1.0
  C  C88  1  0.09432000  0.98497000  0.30310000  1.0
  C  C89  1  0.40569000  0.01502000  0.80311000  1.0
  C  C90  1  0.90569000  0.01502000  0.69690000  1.0
  C  C91  1  0.59432000  0.98498000  0.19690000  1.0
  C  C92  1  0.94040000  0.85596000  0.41587000  1.0
  C  C93  1  0.55961000  0.14404000  0.91587000  1.0
  C  C94  1  0.05962000  0.14403000  0.58413000  1.0
  C  C95  1  0.44040000  0.85596000  0.08413000  1.0
  C  C96  1  0.61153000  0.14171000  0.44050000  1.0
  C  C97  1  0.88847000  0.85829000  0.94050000  1.0
  C  C98  1  0.38847000  0.85829000  0.55950000  1.0
  C  C99  1  0.11153000  0.14171000  0.05950000  1.0
  N  N100  1  0.81798000  0.54023000  0.39901000  1.0
  N  N101  1  0.68199000  0.45977000  0.89901000  1.0
  N  N102  1  0.18198000  0.45977000  0.60098000  1.0
  N  N103  1  0.31798000  0.54023000  0.10099000  1.0
  N  N104  1  0.71928000  0.32360000  0.38370000  1.0
  N  N105  1  0.78075000  0.67639000  0.88369000  1.0
  N  N106  1  0.28075000  0.67639000  0.61630000  1.0
  N  N107  1  0.21929000  0.32359000  0.11630000  1.0
  Cl  Cl108  1  0.72623000  0.33719000  0.17328000  1.0
  Cl  Cl109  1  0.77385000  0.66281000  0.67328000  1.0
  Cl  Cl110  1  0.27388000  0.66277000  0.82673000  1.0
  Cl  Cl111  1  0.22617000  0.33722000  0.32672000  1.0
  O  O112  1  0.93916000  0.57398000  0.23617000  1.0
  O  O113  1  0.56079000  0.42603000  0.73618000  1.0
  O  O114  1  0.06078000  0.42603000  0.76382000  1.0
  O  O115  1  0.43918000  0.57398000  0.26383000  1.0
