# generated using pymatgen
data_CsH4C14BrN4O
_symmetry_space_group_name_H-M   'P 1'
_cell_length_a   5.43577000
_cell_length_b   15.64190000
_cell_length_c   18.18700000
_cell_angle_alpha   90.00040000
_cell_angle_beta   90.00030000
_cell_angle_gamma   94.05920000
_symmetry_Int_Tables_number   1
_chemical_formula_structural   CsH4C14BrN4O
_chemical_formula_sum   'Cs4 H16 C56 Br4 N16 O4'
_cell_volume   1542.48455128
_cell_formula_units_Z   4
loop_
 _symmetry_equiv_pos_site_id
 _symmetry_equiv_pos_as_xyz
  1  'x, y, z'
loop_
 _atom_site_type_symbol
 _atom_site_label
 _atom_site_symmetry_multiplicity
 _atom_site_fract_x
 _atom_site_fract_y
 _atom_site_fract_z
 _atom_site_occupancy
  Cs  Cs0  1  0.83846000  0.89674000  0.61440000  1.0
  Cs  Cs1  1  0.16154000  0.60326000  0.11440000  1.0
  Cs  Cs2  1  0.16155000  0.10326000  0.38561000  1.0
  Cs  Cs3  1  0.83846000  0.39674000  0.88561000  1.0
  H  H4  1  0.24543000  0.80817000  0.91021000  1.0
  H  H5  1  0.75456000  0.69183000  0.41020000  1.0
  H  H6  1  0.75456000  0.19183000  0.08980000  1.0
  H  H7  1  0.24542000  0.30817000  0.58979000  1.0
  H  H8  1  0.08735000  0.94211000  0.95622000  1.0
  H  H9  1  0.91265000  0.55789000  0.45622000  1.0
  H  H10  1  0.91265000  0.05789000  0.04378000  1.0
  H  H11  1  0.08735000  0.44211000  0.54378000  1.0
  H  H12  1  0.69627000  0.08913000  0.85252000  1.0
  H  H13  1  0.30373000  0.41087000  0.35252000  1.0
  H  H14  1  0.30373000  0.91087000  0.14748000  1.0
  H  H15  1  0.69626000  0.58913000  0.64748000  1.0
  H  H16  1  0.85723000  0.95437000  0.80711000  1.0
  H  H17  1  0.14276000  0.54562000  0.30711000  1.0
  H  H18  1  0.14276000  0.04562000  0.19289000  1.0
  H  H19  1  0.85723000  0.45437000  0.69289000  1.0
  C  C20  1  0.65684000  0.79462000  0.82354000  1.0
  C  C21  1  0.34316000  0.70539000  0.32354000  1.0
  C  C22  1  0.34315000  0.20539000  0.17646000  1.0
  C  C23  1  0.65684000  0.29462000  0.67646000  1.0
  C  C24  1  0.56231000  0.87242000  0.85498000  1.0
  C  C25  1  0.43767000  0.62758000  0.35498000  1.0
  C  C26  1  0.43767000  0.12758000  0.14502000  1.0
  C  C27  1  0.56231000  0.37242000  0.64502000  1.0
  C  C28  1  0.34506000  0.86926000  0.89720000  1.0
  C  C29  1  0.65494000  0.63074000  0.39720000  1.0
  C  C30  1  0.65494000  0.13074000  0.10280000  1.0
  C  C31  1  0.34505000  0.36926000  0.60280000  1.0
  C  C32  1  0.25476000  0.94454000  0.92327000  1.0
  C  C33  1  0.74524000  0.55546000  0.42327000  1.0
  C  C34  1  0.74523000  0.05546000  0.07673000  1.0
  C  C35  1  0.25476000  0.44454000  0.57673000  1.0
  C  C36  1  0.38193000  0.02287000  0.90650000  1.0
  C  C37  1  0.61806000  0.47713000  0.40649000  1.0
  C  C38  1  0.61806000  0.97713000  0.09351000  1.0
  C  C39  1  0.38193000  0.52287000  0.59350000  1.0
  C  C40  1  0.59960000  0.02751000  0.86512000  1.0
  C  C41  1  0.40040000  0.47249000  0.36512000  1.0
  C  C42  1  0.40040000  0.97249000  0.13488000  1.0
  C  C43  1  0.59960000  0.52751000  0.63488000  1.0
  C  C44  1  0.68930000  0.95201000  0.83985000  1.0
  C  C45  1  0.31069000  0.54799000  0.33985000  1.0
  C  C46  1  0.31069000  0.04799000  0.16015000  1.0
  C  C47  1  0.68930000  0.45201000  0.66015000  1.0
  C  C48  1  0.50169000  0.71052000  0.83410000  1.0
  C  C49  1  0.49832000  0.78948000  0.33410000  1.0
  C  C50  1  0.49831000  0.28948000  0.16590000  1.0
  C  C51  1  0.50168000  0.21053000  0.66590000  1.0
  C  C52  1  0.32118000  0.69399000  0.77991000  1.0
  C  C53  1  0.67884000  0.80601000  0.27991000  1.0
  C  C54  1  0.67884000  0.30601000  0.22009000  1.0
  C  C55  1  0.32117000  0.19400000  0.72009000  1.0
  C  C56  1  0.14928000  0.62195000  0.78012000  1.0
  C  C57  1  0.85073000  0.87804000  0.28012000  1.0
  C  C58  1  0.85073000  0.37804000  0.21988000  1.0
  C  C59  1  0.14926000  0.12195000  0.71988000  1.0
  C  C60  1  0.30771000  0.75408000  0.72214000  1.0
  C  C61  1  0.69230000  0.74592000  0.22214000  1.0
  C  C62  1  0.69230000  0.24592000  0.27786000  1.0
  C  C63  1  0.30771000  0.25408000  0.77786000  1.0
  C  C64  1  0.55717000  0.66049000  0.89529000  1.0
  C  C65  1  0.44283000  0.83951000  0.39529000  1.0
  C  C66  1  0.44284000  0.33951000  0.10471000  1.0
  C  C67  1  0.55717000  0.16049000  0.60471000  1.0
  C  C68  1  0.76080000  0.68580000  0.94065000  1.0
  C  C69  1  0.23922000  0.81420000  0.44065000  1.0
  C  C70  1  0.23920000  0.31420000  0.05935000  1.0
  C  C71  1  0.76080000  0.18580000  0.55935000  1.0
  C  C72  1  0.42537000  0.58284000  0.91499000  1.0
  C  C73  1  0.57463000  0.91715000  0.41498000  1.0
  C  C74  1  0.57463000  0.41715000  0.08502000  1.0
  C  C75  1  0.42538000  0.08285000  0.58502000  1.0
  Br  Br76  1  0.25665000  0.12594000  0.94037000  1.0
  Br  Br77  1  0.74335000  0.37406000  0.44037000  1.0
  Br  Br78  1  0.74335000  0.87406000  0.05963000  1.0
  Br  Br79  1  0.25665000  0.62594000  0.55963000  1.0
  N  N80  1  0.00560000  0.56255000  0.78175000  1.0
  N  N81  1  0.99440000  0.93744000  0.28176000  1.0
  N  N82  1  0.99440000  0.43744000  0.21825000  1.0
  N  N83  1  0.00562000  0.06257000  0.71824000  1.0
  N  N84  1  0.30905000  0.80531000  0.67508000  1.0
  N  N85  1  0.69095000  0.69469000  0.17508000  1.0
  N  N86  1  0.69095000  0.19469000  0.32492000  1.0
  N  N87  1  0.30906000  0.30531000  0.82492000  1.0
  N  N88  1  0.93153000  0.70541000  0.97802000  1.0
  N  N89  1  0.06848000  0.79460000  0.47802000  1.0
  N  N90  1  0.06848000  0.29460000  0.02198000  1.0
  N  N91  1  0.93153000  0.20541000  0.52198000  1.0
  N  N92  1  0.32041000  0.51852000  0.93398000  1.0
  N  N93  1  0.67959000  0.98148000  0.43398000  1.0
  N  N94  1  0.67960000  0.48148000  0.06602000  1.0
  N  N95  1  0.32041000  0.01852000  0.56602000  1.0
  O  O96  1  0.84674000  0.79444000  0.78636000  1.0
  O  O97  1  0.15326000  0.70556000  0.28636000  1.0
  O  O98  1  0.15326000  0.20556000  0.21364000  1.0
  O  O99  1  0.84674000  0.29444000  0.71364000  1.0
