# generated using pymatgen
data_CdH22C32N4O7
_symmetry_space_group_name_H-M   'P 1'
_cell_length_a   10.40840000
_cell_length_b   11.80690000
_cell_length_c   13.73000000
_cell_angle_alpha   76.29050000
_cell_angle_beta   73.00580000
_cell_angle_gamma   64.78430000
_symmetry_Int_Tables_number   1
_chemical_formula_structural   CdH22C32N4O7
_chemical_formula_sum   'Cd2 H44 C64 N8 O14'
_cell_volume   1447.46541121
_cell_formula_units_Z   2
loop_
 _symmetry_equiv_pos_site_id
 _symmetry_equiv_pos_as_xyz
  1  'x, y, z'
loop_
 _atom_site_type_symbol
 _atom_site_label
 _atom_site_symmetry_multiplicity
 _atom_site_fract_x
 _atom_site_fract_y
 _atom_site_fract_z
 _atom_site_occupancy
  Cd  Cd0  1  0.98761000  0.98596000  0.21367000  1.0
  Cd  Cd1  1  0.01239000  0.01404000  0.78633000  1.0
  H  H2  1  0.72123000  0.29485000  0.90381000  1.0
  H  H3  1  0.27877000  0.70515000  0.09619000  1.0
  H  H4  1  0.07980000  0.24931000  0.43774000  1.0
  H  H5  1  0.92021000  0.75069000  0.56226000  1.0
  H  H6  1  0.46274000  0.99754000  0.22340000  1.0
  H  H7  1  0.53726000  0.00245000  0.77661000  1.0
  H  H8  1  0.46319000  0.79415000  0.00074000  1.0
  H  H9  1  0.53681000  0.20585000  0.99926000  1.0
  H  H10  1  0.72966000  0.73008000  0.94090000  1.0
  H  H11  1  0.27033000  0.26992000  0.05910000  1.0
  H  H12  1  0.86476000  0.79502000  0.02792000  1.0
  H  H13  1  0.13524000  0.20498000  0.97208000  1.0
  H  H14  1  0.02215000  0.24153000  0.20636000  1.0
  H  H15  1  0.97785000  0.75847000  0.79364000  1.0
  H  H16  1  0.95002000  0.46496000  0.12020000  1.0
  H  H17  1  0.04998000  0.53504000  0.87980000  1.0
  H  H18  1  0.80845000  0.53186000  0.98283000  1.0
  H  H19  1  0.19155000  0.46814000  0.01717000  1.0
  H  H20  1  0.82463000  0.15186000  0.02992000  1.0
  H  H21  1  0.17537000  0.84813000  0.97008000  1.0
  H  H22  1  0.49233000  0.69948000  0.77828000  1.0
  H  H23  1  0.50767000  0.30052000  0.22172000  1.0
  H  H24  1  0.33252000  0.72657000  0.66304000  1.0
  H  H25  1  0.66748000  0.27343000  0.33695000  1.0
  H  H26  1  0.49228000  0.32299000  0.67465000  1.0
  H  H27  1  0.50771000  0.67701000  0.32536000  1.0
  H  H28  1  0.65152000  0.29579000  0.78790000  1.0
  H  H29  1  0.34847000  0.70421000  0.21210000  1.0
  H  H30  1  0.29156000  0.50301000  0.42717000  1.0
  H  H31  1  0.70844000  0.49700000  0.57283000  1.0
  H  H32  1  0.15248000  0.38268000  0.42004000  1.0
  H  H33  1  0.84752000  0.61732000  0.57995000  1.0
  H  H34  1  0.06566000  0.29956000  0.75156000  1.0
  H  H35  1  0.93434000  0.70043000  0.24843000  1.0
  H  H36  1  0.21012000  0.41959000  0.75724000  1.0
  H  H37  1  0.78988000  0.58041000  0.24276000  1.0
  H  H38  1  0.62062000  0.10484000  0.57968000  1.0
  H  H39  1  0.37938000  0.89517000  0.42032000  1.0
  H  H40  1  0.75501000  0.21076000  0.62487000  1.0
  H  H41  1  0.24499000  0.78925000  0.37512000  1.0
  H  H42  1  0.07341000  0.11344000  0.34324000  1.0
  H  H43  1  0.92659000  0.88656000  0.65676000  1.0
  H  H44  1  0.71567000  0.01792000  0.40928000  1.0
  H  H45  1  0.28433000  0.98209000  0.59072000  1.0
  C  C46  1  0.75643000  0.93964000  0.17868000  1.0
  C  C47  1  0.24357000  0.06035000  0.82131000  1.0
  C  C48  1  0.67299000  0.89792000  0.13167000  1.0
  C  C49  1  0.32701000  0.10208000  0.86834000  1.0
  C  C50  1  0.52199000  0.93631000  0.16340000  1.0
  C  C51  1  0.47802000  0.06369000  0.83660000  1.0
  C  C52  1  0.44637000  0.89794000  0.11700000  1.0
  C  C53  1  0.55363000  0.10206000  0.88300000  1.0
  C  C54  1  0.28564000  0.93572000  0.15294000  1.0
  C  C55  1  0.71436000  0.06428000  0.84706000  1.0
  C  C56  1  0.52251000  0.82251000  0.03751000  1.0
  C  C57  1  0.47749000  0.17749000  0.96249000  1.0
  C  C58  1  0.67280000  0.78548000  0.00475000  1.0
  C  C59  1  0.32720000  0.21452000  0.99526000  1.0
  C  C60  1  0.74765000  0.82204000  0.05232000  1.0
  C  C61  1  0.25235000  0.17796000  0.94768000  1.0
  C  C62  1  0.95750000  0.27557000  0.14824000  1.0
  C  C63  1  0.04250000  0.72443000  0.85176000  1.0
  C  C64  1  0.91826000  0.39870000  0.09933000  1.0
  C  C65  1  0.08175000  0.60130000  0.90067000  1.0
  C  C66  1  0.84136000  0.43619000  0.02201000  1.0
  C  C67  1  0.15864000  0.56380000  0.97798000  1.0
  C  C68  1  0.80674000  0.34712000  0.99429000  1.0
  C  C69  1  0.19326000  0.65287000  0.00571000  1.0
  C  C70  1  0.84882000  0.22443000  0.04878000  1.0
  C  C71  1  0.15118000  0.77557000  0.95122000  1.0
  C  C72  1  0.67569000  0.48721000  0.85951000  1.0
  C  C73  1  0.32431000  0.51279000  0.14049000  1.0
  C  C74  1  0.58206000  0.49580000  0.79178000  1.0
  C  C75  1  0.41793000  0.50420000  0.20822000  1.0
  C  C76  1  0.49195000  0.61729000  0.75539000  1.0
  C  C77  1  0.50804000  0.38271000  0.24461000  1.0
  C  C78  1  0.40291000  0.63288000  0.69107000  1.0
  C  C79  1  0.59709000  0.36712000  0.30893000  1.0
  C  C80  1  0.40454000  0.52676000  0.66162000  1.0
  C  C81  1  0.59545000  0.47324000  0.33838000  1.0
  C  C82  1  0.49216000  0.40515000  0.69771000  1.0
  C  C83  1  0.50784000  0.59485000  0.30230000  1.0
  C  C84  1  0.58027000  0.39058000  0.76262000  1.0
  C  C85  1  0.41973000  0.60942000  0.23738000  1.0
  C  C86  1  0.25701000  0.46958000  0.59225000  1.0
  C  C87  1  0.74299000  0.53042000  0.40775000  1.0
  C  C88  1  0.24282000  0.45693000  0.49753000  1.0
  C  C89  1  0.75718000  0.54307000  0.50247000  1.0
  C  C90  1  0.16459000  0.38762000  0.49510000  1.0
  C  C91  1  0.83541000  0.61238000  0.50490000  1.0
  C  C92  1  0.09911000  0.33109000  0.58661000  1.0
  C  C93  1  0.90089000  0.66891000  0.41339000  1.0
  C  C94  1  0.11620000  0.34384000  0.68081000  1.0
  C  C95  1  0.88380000  0.65616000  0.31919000  1.0
  C  C96  1  0.19580000  0.41139000  0.68414000  1.0
  C  C97  1  0.80420000  0.58861000  0.31586000  1.0
  C  C98  1  0.00570000  0.26295000  0.59160000  1.0
  C  C99  1  0.99430000  0.73705000  0.40839000  1.0
  C  C100  1  0.71975000  0.11127000  0.52785000  1.0
  C  C101  1  0.28026000  0.88873000  0.47216000  1.0
  C  C102  1  0.79359000  0.17047000  0.55361000  1.0
  C  C103  1  0.20641000  0.82953000  0.44638000  1.0
  C  C104  1  0.92147000  0.17585000  0.48551000  1.0
  C  C105  1  0.07853000  0.82416000  0.51449000  1.0
  C  C106  1  0.97015000  0.11874000  0.39600000  1.0
  C  C107  1  0.02985000  0.88126000  0.60400000  1.0
  C  C108  1  0.77223000  0.06047000  0.43551000  1.0
  C  C109  1  0.22777000  0.93953000  0.56449000  1.0
  N  N110  1  0.92144000  0.19080000  0.12350000  1.0
  N  N111  1  0.07856000  0.80920000  0.87650000  1.0
  N  N112  1  0.73137000  0.37222000  0.91772000  1.0
  N  N113  1  0.26863000  0.62778000  0.08228000  1.0
  N  N114  1  0.00452000  0.23495000  0.50028000  1.0
  N  N115  1  0.99549000  0.76506000  0.49971000  1.0
  N  N116  1  0.89668000  0.06398000  0.37137000  1.0
  N  N117  1  0.10332000  0.93602000  0.62863000  1.0
  O  O118  1  0.89439000  0.90381000  0.13766000  1.0
  O  O119  1  0.10561000  0.09619000  0.86234000  1.0
  O  O120  1  0.69401000  0.00454000  0.25204000  1.0
  O  O121  1  0.30599000  0.99546000  0.74796000  1.0
  O  O122  1  0.22362000  0.88381000  0.11859000  1.0
  O  O123  1  0.77638000  0.11619000  0.88141000  1.0
  O  O124  1  0.21481000  0.01361000  0.21786000  1.0
  O  O125  1  0.78519000  0.98639000  0.78214000  1.0
  O  O126  1  0.93076000  0.23319000  0.67453000  1.0
  O  O127  1  0.06924000  0.76681000  0.32547000  1.0
  O  O128  1  0.32435000  0.54877000  0.58965000  1.0
  O  O129  1  0.67565000  0.45123000  0.41035000  1.0
  O  O130  1  0.69732000  0.58133000  0.86393000  1.0
  O  O131  1  0.30268000  0.41867000  0.13607000  1.0
