# generated using pymatgen
data_LiBH14C6O3F4
_symmetry_space_group_name_H-M   'P 1'
_cell_length_a   7.16864000
_cell_length_b   10.94330000
_cell_length_c   13.48420000
_cell_angle_alpha   91.28480000
_cell_angle_beta   89.99990000
_cell_angle_gamma   90.00000000
_symmetry_Int_Tables_number   1
_chemical_formula_structural   LiBH14C6O3F4
_chemical_formula_sum   'Li4 B4 H56 C24 O12 F16'
_cell_volume   1057.55037441
_cell_formula_units_Z   4
loop_
 _symmetry_equiv_pos_site_id
 _symmetry_equiv_pos_as_xyz
  1  'x, y, z'
loop_
 _atom_site_type_symbol
 _atom_site_label
 _atom_site_symmetry_multiplicity
 _atom_site_fract_x
 _atom_site_fract_y
 _atom_site_fract_z
 _atom_site_occupancy
  Li  Li0  1  0.96648000  0.49132000  0.33425000  1.0
  Li  Li1  1  0.46648000  0.00868000  0.16575000  1.0
  Li  Li2  1  0.03352000  0.50868000  0.66575000  1.0
  Li  Li3  1  0.53352000  0.99132000  0.83425000  1.0
  B  B4  1  0.12363000  0.30627000  0.50436000  1.0
  B  B5  1  0.62363000  0.19373000  0.99563000  1.0
  B  B6  1  0.87637000  0.69373000  0.49564000  1.0
  B  B7  1  0.37637000  0.80627000  0.00436000  1.0
  H  H8  1  0.49712000  0.60545000  0.37950000  1.0
  H  H9  1  0.99712000  0.89455000  0.12050000  1.0
  H  H10  1  0.50289000  0.39455000  0.62050000  1.0
  H  H11  1  0.00288000  0.10545000  0.87950000  1.0
  H  H12  1  0.33872000  0.52511000  0.45776000  1.0
  H  H13  1  0.83872000  0.97489000  0.04224000  1.0
  H  H14  1  0.66128000  0.47489000  0.54224000  1.0
  H  H15  1  0.16127000  0.02511000  0.95776000  1.0
  H  H16  1  0.30286000  0.68429000  0.43570000  1.0
  H  H17  1  0.80286000  0.81571000  0.06430000  1.0
  H  H18  1  0.69714000  0.31571000  0.56430000  1.0
  H  H19  1  0.19714000  0.18429000  0.93570000  1.0
  H  H20  1  0.37768000  0.67114000  0.21956000  1.0
  H  H21  1  0.87768000  0.82886000  0.28044000  1.0
  H  H22  1  0.62232000  0.32886000  0.78044000  1.0
  H  H23  1  0.12232000  0.17114000  0.71957000  1.0
  H  H24  1  0.17464000  0.73731000  0.27472000  1.0
  H  H25  1  0.67464000  0.76269000  0.22528000  1.0
  H  H26  1  0.82536000  0.26269000  0.72528000  1.0
  H  H27  1  0.32536000  0.23731000  0.77472000  1.0
  H  H28  1  0.11032000  0.66884000  0.10004000  1.0
  H  H29  1  0.61032000  0.83116000  0.39996000  1.0
  H  H30  1  0.88968000  0.33116000  0.89996000  1.0
  H  H31  1  0.38968000  0.16884000  0.60004000  1.0
  H  H32  1  0.18937000  0.51799000  0.12686000  1.0
  H  H33  1  0.68937000  0.98201000  0.37314000  1.0
  H  H34  1  0.81063000  0.48202000  0.87314000  1.0
  H  H35  1  0.31063000  0.01798000  0.62686000  1.0
  H  H36  1  0.91102000  0.42817000  0.09296000  1.0
  H  H37  1  0.41102000  0.07183000  0.40704000  1.0
  H  H38  1  0.08898000  0.57183000  0.90704000  1.0
  H  H39  1  0.58898000  0.92817000  0.59296000  1.0
  H  H40  1  0.76905000  0.56069000  0.07152000  1.0
  H  H41  1  0.26905000  0.93931000  0.42848000  1.0
  H  H42  1  0.23095000  0.43931000  0.92848000  1.0
  H  H43  1  0.73095000  0.06069000  0.57152000  1.0
  H  H44  1  0.57980000  0.51664000  0.22065000  1.0
  H  H45  1  0.07980000  0.98336000  0.27935000  1.0
  H  H46  1  0.42020000  0.48336000  0.77935000  1.0
  H  H47  1  0.92020000  0.01664000  0.72065000  1.0
  H  H48  1  0.59220000  0.38215000  0.14286000  1.0
  H  H49  1  0.09220000  0.11785000  0.35714000  1.0
  H  H50  1  0.40780000  0.61785000  0.85714000  1.0
  H  H51  1  0.90780000  0.88215000  0.64286000  1.0
  H  H52  1  0.59423000  0.22827000  0.26515000  1.0
  H  H53  1  0.09423000  0.27173000  0.23485000  1.0
  H  H54  1  0.40577000  0.77173000  0.73485000  1.0
  H  H55  1  0.90577000  0.72827000  0.76515000  1.0
  H  H56  1  0.51887000  0.34781000  0.34861000  1.0
  H  H57  1  0.01887000  0.15219000  0.15139000  1.0
  H  H58  1  0.48113000  0.65219000  0.65139000  1.0
  H  H59  1  0.98113000  0.84781000  0.84861000  1.0
  H  H60  1  0.72203000  0.26008000  0.37774000  1.0
  H  H61  1  0.22203000  0.23992000  0.12226000  1.0
  H  H62  1  0.27797000  0.73992000  0.62226000  1.0
  H  H63  1  0.77797000  0.76008000  0.87774000  1.0
  C  C64  1  0.35062000  0.59674000  0.40273000  1.0
  C  C65  1  0.85062000  0.90326000  0.09727000  1.0
  C  C66  1  0.64938000  0.40326000  0.59727000  1.0
  C  C67  1  0.14938000  0.09674000  0.90273000  1.0
  C  C68  1  0.23483000  0.65135000  0.24462000  1.0
  C  C69  1  0.73483000  0.84865000  0.25539000  1.0
  C  C70  1  0.76517000  0.34865000  0.75538000  1.0
  C  C71  1  0.26517000  0.15135000  0.74462000  1.0
  C  C72  1  0.12211000  0.60095000  0.15869000  1.0
  C  C73  1  0.62211000  0.89905000  0.34131000  1.0
  C  C74  1  0.87789000  0.39905000  0.84131000  1.0
  C  C75  1  0.37789000  0.10096000  0.65869000  1.0
  C  C76  1  0.82781000  0.50144000  0.12888000  1.0
  C  C77  1  0.32781000  0.99856000  0.37112000  1.0
  C  C78  1  0.17219000  0.49856000  0.87112000  1.0
  C  C79  1  0.67219000  0.00144000  0.62888000  1.0
  C  C80  1  0.67426000  0.44586000  0.18965000  1.0
  C  C81  1  0.17426000  0.05414000  0.31035000  1.0
  C  C82  1  0.32574000  0.55414000  0.81035000  1.0
  C  C83  1  0.82574000  0.94586000  0.68965000  1.0
  C  C84  1  0.64148000  0.30030000  0.31759000  1.0
  C  C85  1  0.14148000  0.19970000  0.18241000  1.0
  C  C86  1  0.35852000  0.69970000  0.68241000  1.0
  C  C87  1  0.85852000  0.80030000  0.81759000  1.0
  O  O88  1  0.23548000  0.56089000  0.32005000  1.0
  O  O89  1  0.73548000  0.93911000  0.17995000  1.0
  O  O90  1  0.76452000  0.43911000  0.67995000  1.0
  O  O91  1  0.26452000  0.06089000  0.82005000  1.0
  O  O92  1  0.94231000  0.57022000  0.19707000  1.0
  O  O93  1  0.44231000  0.92978000  0.30293000  1.0
  O  O94  1  0.05769000  0.42978000  0.80293000  1.0
  O  O95  1  0.55769000  0.07022000  0.69707000  1.0
  O  O96  1  0.76363000  0.38322000  0.26888000  1.0
  O  O97  1  0.26363000  0.11678000  0.23112000  1.0
  O  O98  1  0.23637000  0.61678000  0.73112000  1.0
  O  O99  1  0.73637000  0.88322000  0.76888000  1.0
  F  F100  1  0.01761000  0.37257000  0.43380000  1.0
  F  F101  1  0.51762000  0.12743000  0.06620000  1.0
  F  F102  1  0.98239000  0.62743000  0.56620000  1.0
  F  F103  1  0.48239000  0.87257000  0.93380000  1.0
  F  F104  1  0.15702000  0.38441000  0.58925000  1.0
  F  F105  1  0.65702000  0.11559000  0.91074000  1.0
  F  F106  1  0.84297000  0.61559000  0.41074000  1.0
  F  F107  1  0.34298000  0.88441000  0.08926000  1.0
  F  F108  1  0.29622000  0.27310000  0.46281000  1.0
  F  F109  1  0.79622000  0.22690000  0.03718000  1.0
  F  F110  1  0.70378000  0.72690000  0.53718000  1.0
  F  F111  1  0.20378000  0.77310000  0.96282000  1.0
  F  F112  1  0.02173000  0.20315000  0.53303000  1.0
  F  F113  1  0.52172000  0.29684000  0.96697000  1.0
  F  F114  1  0.97827000  0.79685000  0.46697000  1.0
  F  F115  1  0.47828000  0.70315000  0.03303000  1.0
