# generated using pymatgen
data_ZnH26C30(N3O4)2
_symmetry_space_group_name_H-M   'P 1'
_cell_length_a   10.35650000
_cell_length_b   11.77420000
_cell_length_c   12.97380000
_cell_angle_alpha   75.98310000
_cell_angle_beta   88.00800000
_cell_angle_gamma   69.58650000
_symmetry_Int_Tables_number   1
_chemical_formula_structural   ZnH26C30(N3O4)2
_chemical_formula_sum   'Zn2 H52 C60 N12 O16'
_cell_volume   1436.36809379
_cell_formula_units_Z   2
loop_
 _symmetry_equiv_pos_site_id
 _symmetry_equiv_pos_as_xyz
  1  'x, y, z'
loop_
 _atom_site_type_symbol
 _atom_site_label
 _atom_site_symmetry_multiplicity
 _atom_site_fract_x
 _atom_site_fract_y
 _atom_site_fract_z
 _atom_site_occupancy
  Zn  Zn0  1  0.50000000  0.00000000  0.50000000  1.0
  Zn  Zn1  1  0.00000000  0.00000000  0.00000000  1.0
  H  H2  1  0.81727000  0.09670000  0.14891000  1.0
  H  H3  1  0.18273000  0.90331000  0.85108000  1.0
  H  H4  1  0.91637000  0.95024000  0.18524000  1.0
  H  H5  1  0.08363000  0.04977000  0.81476000  1.0
  H  H6  1  0.69830000  0.91865000  0.35376000  1.0
  H  H7  1  0.30170000  0.08135000  0.64623000  1.0
  H  H8  1  0.61457000  0.06591000  0.33201000  1.0
  H  H9  1  0.38543000  0.93409000  0.66799000  1.0
  H  H10  1  0.68095000  0.62115000  0.38056000  1.0
  H  H11  1  0.31905000  0.37885000  0.61944000  1.0
  H  H12  1  0.47504000  0.72626000  0.06800000  1.0
  H  H13  1  0.52496000  0.27375000  0.93199000  1.0
  H  H14  1  0.04243000  0.11731000  0.47222000  1.0
  H  H15  1  0.95758000  0.88269000  0.52778000  1.0
  H  H16  1  0.24047000  0.71411000  0.30666000  1.0
  H  H17  1  0.75952000  0.28587000  0.69337000  1.0
  H  H18  1  0.81905000  0.13043000  0.39029000  1.0
  H  H19  1  0.18096000  0.86956000  0.60971000  1.0
  H  H20  1  0.83682000  0.65481000  0.16487000  1.0
  H  H21  1  0.16318000  0.34519000  0.83512000  1.0
  H  H22  1  0.00834000  0.43859000  0.17965000  1.0
  H  H23  1  0.99166000  0.56141000  0.82035000  1.0
  H  H24  1  0.62474000  0.33619000  0.34579000  1.0
  H  H25  1  0.37526000  0.66380000  0.65421000  1.0
  H  H26  1  0.89094000  0.49521000  0.46141000  1.0
  H  H27  1  0.10905000  0.50479000  0.53859000  1.0
  H  H28  1  0.50950000  0.05248000  0.16565000  1.0
  H  H29  1  0.49051000  0.94752000  0.83434000  1.0
  H  H30  1  0.92634000  0.27194000  0.14872000  1.0
  H  H31  1  0.07366000  0.72806000  0.85129000  1.0
  H  H32  1  0.10720000  0.94093000  0.30158000  1.0
  H  H33  1  0.89280000  0.05906000  0.69843000  1.0
  H  H34  1  0.22685000  0.05916000  0.37783000  1.0
  H  H35  1  0.77314000  0.94083000  0.62217000  1.0
  H  H36  1  0.52462000  0.52007000  0.08631000  1.0
  H  H37  1  0.47538000  0.47993000  0.91369000  1.0
  H  H38  1  0.29157000  0.23841000  0.11577000  1.0
  H  H39  1  0.70844000  0.76159000  0.88422000  1.0
  H  H40  1  0.08633000  0.21134000  0.03963000  1.0
  H  H41  1  0.91368000  0.78866000  0.96038000  1.0
  H  H42  1  0.58185000  0.75097000  0.45896000  1.0
  H  H43  1  0.41816000  0.24903000  0.54103000  1.0
  H  H44  1  0.17837000  0.36370000  0.40779000  1.0
  H  H45  1  0.82162000  0.63630000  0.59220000  1.0
  H  H46  1  0.25882000  0.61545000  0.06111000  1.0
  H  H47  1  0.74119000  0.38455000  0.93889000  1.0
  H  H48  1  0.03221000  0.59167000  0.34324000  1.0
  H  H49  1  0.96778000  0.40834000  0.65676000  1.0
  H  H50  1  0.41223000  0.39025000  0.12964000  1.0
  H  H51  1  0.58777000  0.60975000  0.87037000  1.0
  H  H52  1  0.29359000  0.83773000  0.06573000  1.0
  H  H53  1  0.70641000  0.16227000  0.93428000  1.0
  C  C54  1  0.95609000  0.20596000  0.45009000  1.0
  C  C55  1  0.04391000  0.79403000  0.54991000  1.0
  C  C56  1  0.28713000  0.77121000  0.33527000  1.0
  C  C57  1  0.71286000  0.22877000  0.66474000  1.0
  C  C58  1  0.83179000  0.21322000  0.40549000  1.0
  C  C59  1  0.16822000  0.78677000  0.59451000  1.0
  C  C60  1  0.80579000  0.58076000  0.14976000  1.0
  C  C61  1  0.19421000  0.41924000  0.85024000  1.0
  C  C62  1  0.90012000  0.46018000  0.15818000  1.0
  C  C63  1  0.09988000  0.53982000  0.84182000  1.0
  C  C64  1  0.72242000  0.32727000  0.38114000  1.0
  C  C65  1  0.27758000  0.67272000  0.61886000  1.0
  C  C66  1  0.87301000  0.41451000  0.44545000  1.0
  C  C67  1  0.12699000  0.58548000  0.55455000  1.0
  C  C68  1  0.41929000  0.04489000  0.13135000  1.0
  C  C69  1  0.58073000  0.95512000  0.86864000  1.0
  C  C70  1  0.85489000  0.36739000  0.14093000  1.0
  C  C71  1  0.14511000  0.63261000  0.85907000  1.0
  C  C72  1  0.21347000  0.89562000  0.33423000  1.0
  C  C73  1  0.78653000  0.10437000  0.66577000  1.0
  C  C74  1  0.55476000  0.81990000  0.14645000  1.0
  C  C75  1  0.44524000  0.18010000  0.85355000  1.0
  C  C76  1  0.50324000  0.58302000  0.37836000  1.0
  C  C77  1  0.49676000  0.41697000  0.62164000  1.0
  C  C78  1  0.27821000  0.96158000  0.37618000  1.0
  C  C79  1  0.72179000  0.03842000  0.62382000  1.0
  C  C80  1  0.63241000  0.50351000  0.10668000  1.0
  C  C81  1  0.36759000  0.49649000  0.89332000  1.0
  C  C82  1  0.74329000  0.43094000  0.40234000  1.0
  C  C83  1  0.25671000  0.56905000  0.59766000  1.0
  C  C84  1  0.29794000  0.14802000  0.10430000  1.0
  C  C85  1  0.70207000  0.85198000  0.89570000  1.0
  C  C86  1  0.18384000  0.13387000  0.06281000  1.0
  C  C87  1  0.81617000  0.86613000  0.93719000  1.0
  C  C88  1  0.42422000  0.71710000  0.37571000  1.0
  C  C89  1  0.57578000  0.28289000  0.62430000  1.0
  C  C90  1  0.42369000  0.93021000  0.11555000  1.0
  C  C91  1  0.57632000  0.06979000  0.88444000  1.0
  C  C92  1  0.05521000  0.75377000  0.16233000  1.0
  C  C93  1  0.94479000  0.24624000  0.83767000  1.0
  C  C94  1  0.66775000  0.60299000  0.12298000  1.0
  C  C95  1  0.33225000  0.39701000  0.87702000  1.0
  C  C96  1  0.47961000  0.78906000  0.41858000  1.0
  C  C97  1  0.52039000  0.21093000  0.58141000  1.0
  C  C98  1  0.30570000  0.36517000  0.27318000  1.0
  C  C99  1  0.69429000  0.63483000  0.72682000  1.0
  C  C100  1  0.40486000  0.23452000  0.31691000  1.0
  C  C101  1  0.59513000  0.76548000  0.68309000  1.0
  C  C102  1  0.19708000  0.42042000  0.33298000  1.0
  C  C103  1  0.80290000  0.57959000  0.66702000  1.0
  C  C104  1  0.24345000  0.55985000  0.13761000  1.0
  C  C105  1  0.75655000  0.44016000  0.86239000  1.0
  C  C106  1  0.13786000  0.61653000  0.19904000  1.0
  C  C107  1  0.86214000  0.38348000  0.80096000  1.0
  C  C108  1  0.11449000  0.54565000  0.29653000  1.0
  C  C109  1  0.88551000  0.45436000  0.70347000  1.0
  C  C110  1  0.32681000  0.43526000  0.17457000  1.0
  C  C111  1  0.67318000  0.56474000  0.82543000  1.0
  C  C112  1  0.30324000  0.92422000  0.07521000  1.0
  C  C113  1  0.69676000  0.07578000  0.92479000  1.0
  N  N114  1  0.64388000  0.55140000  0.38231000  1.0
  N  N115  1  0.35612000  0.44860000  0.61769000  1.0
  N  N116  1  0.97735000  0.30539000  0.46948000  1.0
  N  N117  1  0.02265000  0.69461000  0.53052000  1.0
  N  N118  1  0.72254000  0.38825000  0.11519000  1.0
  N  N119  1  0.27746000  0.61175000  0.88481000  1.0
  N  N120  1  0.18626000  0.02337000  0.04957000  1.0
  N  N121  1  0.81375000  0.97663000  0.95043000  1.0
  N  N122  1  0.40816000  0.90811000  0.41921000  1.0
  N  N123  1  0.59184000  0.09189000  0.58079000  1.0
  N  N124  1  0.56068000  0.71902000  0.10878000  1.0
  N  N125  1  0.43933000  0.28098000  0.89122000  1.0
  O  O126  1  0.44400000  0.50852000  0.37752000  1.0
  O  O127  1  0.55600000  0.49148000  0.62248000  1.0
  O  O128  1  0.64902000  0.82146000  0.20162000  1.0
  O  O129  1  0.35098000  0.17853000  0.79838000  1.0
  O  O130  1  0.96584000  0.80414000  0.22210000  1.0
  O  O131  1  0.03417000  0.19586000  0.77790000  1.0
  O  O132  1  0.51027000  0.19412000  0.26478000  1.0
  O  O133  1  0.48973000  0.80589000  0.73522000  1.0
  O  O134  1  0.91193000  0.03982000  0.15050000  1.0
  O  O135  1  0.08807000  0.96019000  0.84950000  1.0
  O  O136  1  0.67099000  0.98799000  0.38802000  1.0
  O  O137  1  0.32901000  0.01200000  0.61197000  1.0
  O  O138  1  0.37657000  0.17424000  0.40556000  1.0
  O  O139  1  0.62342000  0.82576000  0.59444000  1.0
  O  O140  1  0.08532000  0.81075000  0.07199000  1.0
  O  O141  1  0.91469000  0.18926000  0.92801000  1.0
