# generated using pymatgen
data_LiH5C6N2O5
_symmetry_space_group_name_H-M   'P 1'
_cell_length_a   3.51483000
_cell_length_b   8.44750000
_cell_length_c   12.06470000
_cell_angle_alpha   90.00050000
_cell_angle_beta   90.00010000
_cell_angle_gamma   100.12800000
_symmetry_Int_Tables_number   1
_chemical_formula_structural   LiH5C6N2O5
_chemical_formula_sum   'Li2 H10 C12 N4 O10'
_cell_volume   352.63735628
_cell_formula_units_Z   2
loop_
 _symmetry_equiv_pos_site_id
 _symmetry_equiv_pos_as_xyz
  1  'x, y, z'
loop_
 _atom_site_type_symbol
 _atom_site_label
 _atom_site_symmetry_multiplicity
 _atom_site_fract_x
 _atom_site_fract_y
 _atom_site_fract_z
 _atom_site_occupancy
  Li  Li0  1  0.62352000  0.99662000  0.25000000  1.0
  Li  Li1  1  0.37648000  0.00338000  0.75000000  1.0
  H  H2  1  0.89554000  0.47143000  0.42107000  1.0
  H  H3  1  0.10445000  0.52857000  0.92107000  1.0
  H  H4  1  0.10447000  0.52857000  0.57893000  1.0
  H  H5  1  0.89552000  0.47143000  0.07892000  1.0
  H  H6  1  0.20958000  0.18664000  0.31633000  1.0
  H  H7  1  0.79042000  0.81335000  0.81633000  1.0
  H  H8  1  0.79043000  0.81336000  0.68366000  1.0
  H  H9  1  0.20957000  0.18664000  0.18366000  1.0
  H  H10  1  0.49998000  0.00000000  0.00000000  1.0
  H  H11  1  0.50002000  0.00001000  0.50000000  1.0
  C  C12  1  0.75386000  0.68903000  0.34547000  1.0
  C  C13  1  0.24615000  0.31097000  0.84547000  1.0
  C  C14  1  0.24615000  0.31097000  0.65453000  1.0
  C  C15  1  0.75385000  0.68903000  0.15452000  1.0
  C  C16  1  0.85326000  0.53547000  0.34512000  1.0
  C  C17  1  0.14675000  0.46453000  0.84512000  1.0
  C  C18  1  0.14675000  0.46453000  0.65489000  1.0
  C  C19  1  0.85324000  0.53547000  0.15488000  1.0
  C  C20  1  0.69558000  0.78426000  0.44812000  1.0
  C  C21  1  0.30442000  0.21573000  0.94812000  1.0
  C  C22  1  0.30445000  0.21574000  0.55189000  1.0
  C  C23  1  0.69555000  0.78426000  0.05188000  1.0
  N  N24  1  0.70453000  0.76254000  0.25000000  1.0
  N  N25  1  0.29546000  0.23746000  0.75000000  1.0
  N  N26  1  0.90249000  0.45948000  0.25000000  1.0
  N  N27  1  0.09752000  0.54052000  0.75000000  1.0
  O  O28  1  0.58597000  0.91996000  0.42444000  1.0
  O  O29  1  0.41403000  0.08003000  0.92444000  1.0
  O  O30  1  0.41406000  0.08004000  0.57556000  1.0
  O  O31  1  0.58595000  0.91996000  0.07556000  1.0
  O  O32  1  0.74974000  0.73108000  0.54185000  1.0
  O  O33  1  0.25025000  0.26891000  0.04185000  1.0
  O  O34  1  0.25031000  0.26893000  0.45815000  1.0
  O  O35  1  0.74969000  0.73107000  0.95815000  1.0
  O  O36  1  0.18196000  0.11631000  0.25000000  1.0
  O  O37  1  0.81804000  0.88369000  0.75000000  1.0
