# generated using pymatgen
data_RbH4C7O2
_symmetry_space_group_name_H-M   'P 1'
_cell_length_a   6.98788000
_cell_length_b   7.01451000
_cell_length_c   14.34610000
_cell_angle_alpha   87.28920000
_cell_angle_beta   90.00010000
_cell_angle_gamma   89.99990000
_symmetry_Int_Tables_number   1
_chemical_formula_structural   RbH4C7O2
_chemical_formula_sum   'Rb4 H16 C28 O8'
_cell_volume   702.40949500
_cell_formula_units_Z   4
loop_
 _symmetry_equiv_pos_site_id
 _symmetry_equiv_pos_as_xyz
  1  'x, y, z'
loop_
 _atom_site_type_symbol
 _atom_site_label
 _atom_site_symmetry_multiplicity
 _atom_site_fract_x
 _atom_site_fract_y
 _atom_site_fract_z
 _atom_site_occupancy
  Rb  Rb0  1  0.00960000  0.72586000  0.08258000  1.0
  Rb  Rb1  1  0.50960000  0.77414000  0.91742000  1.0
  Rb  Rb2  1  0.99040000  0.27414000  0.91742000  1.0
  Rb  Rb3  1  0.49040000  0.22586000  0.08258000  1.0
  H  H4  1  0.28030000  0.84576000  0.29399000  1.0
  H  H5  1  0.78030000  0.65424000  0.70601000  1.0
  H  H6  1  0.71970000  0.15424000  0.70601000  1.0
  H  H7  1  0.21970000  0.34576000  0.29399000  1.0
  H  H8  1  0.27596000  0.74347000  0.45956000  1.0
  H  H9  1  0.77596000  0.75653000  0.54044000  1.0
  H  H10  1  0.72404000  0.25653000  0.54044000  1.0
  H  H11  1  0.22404000  0.24347000  0.45956000  1.0
  H  H12  1  0.72961000  0.34017000  0.40980000  1.0
  H  H13  1  0.22961000  0.15983000  0.59020000  1.0
  H  H14  1  0.27038000  0.65983000  0.59020000  1.0
  H  H15  1  0.77039000  0.84017000  0.40980000  1.0
  H  H16  1  0.73071000  0.44631000  0.24524000  1.0
  H  H17  1  0.23071000  0.05369000  0.75476000  1.0
  H  H18  1  0.26929000  0.55369000  0.75476000  1.0
  H  H19  1  0.76929000  0.94631000  0.24524000  1.0
  C  C20  1  0.50428000  0.70789000  0.15418000  1.0
  C  C21  1  0.00428000  0.79211000  0.84582000  1.0
  C  C22  1  0.49572000  0.29211000  0.84582000  1.0
  C  C23  1  0.99572000  0.20789000  0.15418000  1.0
  C  C24  1  0.50364000  0.65077000  0.25722000  1.0
  C  C25  1  0.00363000  0.84923000  0.74278000  1.0
  C  C26  1  0.49637000  0.34923000  0.74278000  1.0
  C  C27  1  0.99636000  0.15077000  0.25722000  1.0
  C  C28  1  0.37797000  0.73405000  0.31971000  1.0
  C  C29  1  0.87796000  0.76595000  0.68029000  1.0
  C  C30  1  0.62204000  0.26595000  0.68029000  1.0
  C  C31  1  0.12203000  0.23405000  0.31971000  1.0
  C  C32  1  0.37706000  0.67562000  0.41385000  1.0
  C  C33  1  0.87707000  0.82438000  0.58615000  1.0
  C  C34  1  0.62293000  0.32438000  0.58615000  1.0
  C  C35  1  0.12293000  0.17562000  0.41385000  1.0
  C  C36  1  0.50156000  0.53182000  0.44990000  1.0
  C  C37  1  0.00156000  0.96818000  0.55010000  1.0
  C  C38  1  0.49844000  0.46817000  0.55010000  1.0
  C  C39  1  0.99844000  0.03182000  0.44990000  1.0
  C  C40  1  0.62919000  0.45116000  0.38658000  1.0
  C  C41  1  0.12919000  0.04884000  0.61342000  1.0
  C  C42  1  0.37080000  0.54884000  0.61342000  1.0
  C  C43  1  0.87081000  0.95116000  0.38658000  1.0
  C  C44  1  0.62999000  0.51004000  0.29268000  1.0
  C  C45  1  0.12998000  0.98996000  0.70733000  1.0
  C  C46  1  0.37001000  0.48996000  0.70732000  1.0
  C  C47  1  0.87001000  0.01004000  0.29268000  1.0
  O  O48  1  0.61831000  0.61825000  0.10224000  1.0
  O  O49  1  0.11831000  0.88174000  0.89776000  1.0
  O  O50  1  0.38169000  0.38174000  0.89776000  1.0
  O  O51  1  0.88169000  0.11826000  0.10224000  1.0
  O  O52  1  0.39106000  0.84005000  0.12509000  1.0
  O  O53  1  0.89106000  0.65995000  0.87491000  1.0
  O  O54  1  0.60894000  0.15995000  0.87491000  1.0
  O  O55  1  0.10894000  0.34005000  0.12509000  1.0
