# generated using pymatgen
data_CuH24C24S3(NO)4
_symmetry_space_group_name_H-M   'P 1'
_cell_length_a   11.71190000
_cell_length_b   11.71160000
_cell_length_c   12.63340000
_cell_angle_alpha   63.36520000
_cell_angle_beta   63.36410000
_cell_angle_gamma   70.32100000
_symmetry_Int_Tables_number   1
_chemical_formula_structural   CuH24C24S3(NO)4
_chemical_formula_sum   'Cu2 H48 C48 S6 N8 O8'
_cell_volume   1364.45222331
_cell_formula_units_Z   2
loop_
 _symmetry_equiv_pos_site_id
 _symmetry_equiv_pos_as_xyz
  1  'x, y, z'
loop_
 _atom_site_type_symbol
 _atom_site_label
 _atom_site_symmetry_multiplicity
 _atom_site_fract_x
 _atom_site_fract_y
 _atom_site_fract_z
 _atom_site_occupancy
  Cu  Cu0  1  0.99999000  0.00001000  0.00000000  1.0
  Cu  Cu1  1  0.00000000  0.99999000  0.50000000  1.0
  H  H2  1  0.27615000  0.98300000  0.83033000  1.0
  H  H3  1  0.98300000  0.27614000  0.33031000  1.0
  H  H4  1  0.72385000  0.01699000  0.16968000  1.0
  H  H5  1  0.01699000  0.72386000  0.66968000  1.0
  H  H6  1  0.46903000  0.07089000  0.78106000  1.0
  H  H7  1  0.07089000  0.46903000  0.28106000  1.0
  H  H8  1  0.53096000  0.92910000  0.21894000  1.0
  H  H9  1  0.92910000  0.53096000  0.71895000  1.0
  H  H10  1  0.02902000  0.21938000  0.03803000  1.0
  H  H11  1  0.21936000  0.02899000  0.53802000  1.0
  H  H12  1  0.97100000  0.78061000  0.96198000  1.0
  H  H13  1  0.78063000  0.97099000  0.46198000  1.0
  H  H14  1  0.09616000  0.36399000  0.06862000  1.0
  H  H15  1  0.36400000  0.09615000  0.56861000  1.0
  H  H16  1  0.90387000  0.63596000  0.93140000  1.0
  H  H17  1  0.63600000  0.90385000  0.43140000  1.0
  H  H18  1  0.22527000  0.44093000  0.93739000  1.0
  H  H19  1  0.44092000  0.22527000  0.43737000  1.0
  H  H20  1  0.77475000  0.55903000  0.06265000  1.0
  H  H21  1  0.55906000  0.77474000  0.56264000  1.0
  H  H22  1  0.25544000  0.31722000  0.07397000  1.0
  H  H23  1  0.31721000  0.25545000  0.57395000  1.0
  H  H24  1  0.74457000  0.68272000  0.92605000  1.0
  H  H25  1  0.68276000  0.74455000  0.42605000  1.0
  H  H26  1  0.77927000  0.20696000  0.46290000  1.0
  H  H27  1  0.20697000  0.77929000  0.96288000  1.0
  H  H28  1  0.22074000  0.79302000  0.53710000  1.0
  H  H29  1  0.79301000  0.22073000  0.03711000  1.0
  H  H30  1  0.88658000  0.95339000  0.77102000  1.0
  H  H31  1  0.95341000  0.88660000  0.27100000  1.0
  H  H32  1  0.11344000  0.04660000  0.22898000  1.0
  H  H33  1  0.04660000  0.11344000  0.72898000  1.0
  H  H34  1  0.68402000  0.04675000  0.92047000  1.0
  H  H35  1  0.04675000  0.68403000  0.42045000  1.0
  H  H36  1  0.31599000  0.95324000  0.07953000  1.0
  H  H37  1  0.95325000  0.31601000  0.57953000  1.0
  H  H38  1  0.59402000  0.36090000  0.47298000  1.0
  H  H39  1  0.36090000  0.59401000  0.97296000  1.0
  H  H40  1  0.40598000  0.63911000  0.52701000  1.0
  H  H41  1  0.63910000  0.40598000  0.02704000  1.0
  H  H42  1  0.54961000  0.43597000  0.58559000  1.0
  H  H43  1  0.43596000  0.54962000  0.08557000  1.0
  H  H44  1  0.45037000  0.56405000  0.41440000  1.0
  H  H45  1  0.56403000  0.45037000  0.91443000  1.0
  H  H46  1  0.45741000  0.32565000  0.61555000  1.0
  H  H47  1  0.32564000  0.45740000  0.11555000  1.0
  H  H48  1  0.54260000  0.67435000  0.38443000  1.0
  H  H49  1  0.67433000  0.54261000  0.88447000  1.0
  C  C50  1  0.26798000  0.05543000  0.86662000  1.0
  C  C51  1  0.05542000  0.26798000  0.36662000  1.0
  C  C52  1  0.73203000  0.94456000  0.13337000  1.0
  C  C53  1  0.94457000  0.73202000  0.63338000  1.0
  C  C54  1  0.37342000  0.10662000  0.83859000  1.0
  C  C55  1  0.10660000  0.37342000  0.33858000  1.0
  C  C56  1  0.62660000  0.89339000  0.16140000  1.0
  C  C57  1  0.89338000  0.62659000  0.66142000  1.0
  C  C58  1  0.35496000  0.20070000  0.88730000  1.0
  C  C59  1  0.20068000  0.35494000  0.38731000  1.0
  C  C60  1  0.64505000  0.79930000  0.11269000  1.0
  C  C61  1  0.79930000  0.64505000  0.61270000  1.0
  C  C62  1  0.22809000  0.24580000  0.95885000  1.0
  C  C63  1  0.24580000  0.22809000  0.45884000  1.0
  C  C64  1  0.77192000  0.75418000  0.04115000  1.0
  C  C65  1  0.75419000  0.77191000  0.54116000  1.0
  C  C66  1  0.12850000  0.18836000  0.98193000  1.0
  C  C67  1  0.18834000  0.12850000  0.48193000  1.0
  C  C68  1  0.87152000  0.81164000  0.01806000  1.0
  C  C69  1  0.81165000  0.87150000  0.51807000  1.0
  C  C70  1  0.19953000  0.34784000  0.01215000  1.0
  C  C71  1  0.34782000  0.19954000  0.51213000  1.0
  C  C72  1  0.80049000  0.65212000  0.98786000  1.0
  C  C73  1  0.65215000  0.80047000  0.48787000  1.0
  C  C74  1  0.61765000  0.18938000  0.76836000  1.0
  C  C75  1  0.18937000  0.61764000  0.26836000  1.0
  C  C76  1  0.38238000  0.81063000  0.23162000  1.0
  C  C77  1  0.81061000  0.38238000  0.73165000  1.0
  C  C78  1  0.64282000  0.23731000  0.63741000  1.0
  C  C79  1  0.23731000  0.64283000  0.13739000  1.0
  C  C80  1  0.35719000  0.76269000  0.36259000  1.0
  C  C81  1  0.76269000  0.35719000  0.86260000  1.0
  C  C82  1  0.75589000  0.17764000  0.56432000  1.0
  C  C83  1  0.17764000  0.75591000  0.06430000  1.0
  C  C84  1  0.24411000  0.82236000  0.43568000  1.0
  C  C85  1  0.82236000  0.24412000  0.93569000  1.0
  C  C86  1  0.81378000  0.03274000  0.73895000  1.0
  C  C87  1  0.03274000  0.81380000  0.23894000  1.0
  C  C88  1  0.18624000  0.96726000  0.26105000  1.0
  C  C89  1  0.96726000  0.18624000  0.76105000  1.0
  C  C90  1  0.70300000  0.08537000  0.81927000  1.0
  C  C91  1  0.08536000  0.70302000  0.31926000  1.0
  C  C92  1  0.29702000  0.91463000  0.18072000  1.0
  C  C93  1  0.91463000  0.29702000  0.68073000  1.0
  C  C94  1  0.55651000  0.34607000  0.57400000  1.0
  C  C95  1  0.34606000  0.55652000  0.07399000  1.0
  C  C96  1  0.44349000  0.65394000  0.42599000  1.0
  C  C97  1  0.65393000  0.44349000  0.92601000  1.0
  S  S98  1  0.17050000  0.82951000  0.75000000  1.0
  S  S99  1  0.82950000  0.17049000  0.25000000  1.0
  S  S100  1  0.48190000  0.26304000  0.86964000  1.0
  S  S101  1  0.26302000  0.48191000  0.36964000  1.0
  S  S102  1  0.51811000  0.73692000  0.13038000  1.0
  S  S103  1  0.73692000  0.51811000  0.63040000  1.0
  N  N104  1  0.14793000  0.09360000  0.93984000  1.0
  N  N105  1  0.09359000  0.14792000  0.43984000  1.0
  N  N106  1  0.85209000  0.90641000  0.06015000  1.0
  N  N107  1  0.90641000  0.85207000  0.56016000  1.0
  N  N108  1  0.83912000  0.07990000  0.61351000  1.0
  N  N109  1  0.07990000  0.83914000  0.11350000  1.0
  N  N110  1  0.16089000  0.92010000  0.38650000  1.0
  N  N111  1  0.92010000  0.16089000  0.88649000  1.0
  O  O112  1  0.13443000  0.92648000  0.81300000  1.0
  O  O113  1  0.92648000  0.13440000  0.31301000  1.0
  O  O114  1  0.86557000  0.07354000  0.18699000  1.0
  O  O115  1  0.07353000  0.86557000  0.68700000  1.0
  O  O116  1  0.30236000  0.83852000  0.65219000  1.0
  O  O117  1  0.83854000  0.30236000  0.15220000  1.0
  O  O118  1  0.69765000  0.16149000  0.34781000  1.0
  O  O119  1  0.16148000  0.69765000  0.84781000  1.0
