# generated using pymatgen
data_HgH14C11S(ClO)2
_symmetry_space_group_name_H-M   'P 1'
_cell_length_a   10.06340000
_cell_length_b   12.23450000
_cell_length_c   15.17140000
_cell_angle_alpha   110.05600000
_cell_angle_beta   99.36750000
_cell_angle_gamma   90.35920000
_symmetry_Int_Tables_number   1
_chemical_formula_structural   HgH14C11S(ClO)2
_chemical_formula_sum   'Hg4 H56 C44 S4 Cl8 O8'
_cell_volume   1727.35105566
_cell_formula_units_Z   4
loop_
 _symmetry_equiv_pos_site_id
 _symmetry_equiv_pos_as_xyz
  1  'x, y, z'
loop_
 _atom_site_type_symbol
 _atom_site_label
 _atom_site_symmetry_multiplicity
 _atom_site_fract_x
 _atom_site_fract_y
 _atom_site_fract_z
 _atom_site_occupancy
  Hg  Hg0  1  0.06736000  0.54291000  0.40150000  1.0
  Hg  Hg1  1  0.93263000  0.45709000  0.59849000  1.0
  Hg  Hg2  1  0.57003000  0.87327000  0.40376000  1.0
  Hg  Hg3  1  0.42997000  0.12673000  0.59624000  1.0
  H  H4  1  0.16892000  0.76532000  0.45517000  1.0
  H  H5  1  0.83108000  0.23468000  0.54484000  1.0
  H  H6  1  0.17652000  0.67796000  0.29893000  1.0
  H  H7  1  0.82349000  0.32205000  0.70107000  1.0
  H  H8  1  0.19323000  0.63797000  0.13195000  1.0
  H  H9  1  0.80678000  0.36204000  0.86805000  1.0
  H  H10  1  0.80719000  0.78078000  0.08735000  1.0
  H  H11  1  0.19281000  0.21922000  0.91265000  1.0
  H  H12  1  0.78589000  0.81498000  0.25588000  1.0
  H  H13  1  0.21411000  0.18502000  0.74412000  1.0
  H  H14  1  0.07653000  0.61266000  0.88534000  1.0
  H  H15  1  0.92348000  0.38735000  0.11466000  1.0
  H  H16  1  0.11679000  0.54067000  0.97096000  1.0
  H  H17  1  0.88321000  0.45933000  0.02905000  1.0
  H  H18  1  0.19834000  0.68030000  0.99236000  1.0
  H  H19  1  0.80167000  0.31970000  0.00764000  1.0
  H  H20  1  0.11773000  0.97537000  0.58310000  1.0
  H  H21  1  0.88227000  0.02463000  0.41690000  1.0
  H  H22  1  0.03190000  0.98092000  0.67988000  1.0
  H  H23  1  0.96810000  0.01908000  0.32013000  1.0
  H  H24  1  0.93393000  0.96721000  0.56639000  1.0
  H  H25  1  0.06608000  0.03279000  0.43361000  1.0
  H  H26  1  0.25869000  0.83111000  0.63336000  1.0
  H  H27  1  0.74132000  0.16889000  0.36664000  1.0
  H  H28  1  0.19850000  0.68422000  0.62026000  1.0
  H  H29  1  0.80150000  0.31578000  0.37974000  1.0
  H  H30  1  0.16038000  0.80702000  0.71587000  1.0
  H  H31  1  0.83963000  0.19298000  0.28413000  1.0
  H  H32  1  0.66806000  0.69781000  0.45989000  1.0
  H  H33  1  0.33194000  0.30219000  0.54010000  1.0
  H  H34  1  0.69647000  0.63682000  0.31827000  1.0
  H  H35  1  0.30352000  0.36317000  0.68173000  1.0
  H  H36  1  0.73698000  0.51866000  0.15904000  1.0
  H  H37  1  0.26302000  0.48132000  0.84096000  1.0
  H  H38  1  0.32396000  0.37241000  0.08397000  1.0
  H  H39  1  0.67604000  0.62758000  0.91603000  1.0
  H  H40  1  0.28573000  0.48743000  0.24488000  1.0
  H  H41  1  0.71426000  0.51257000  0.75512000  1.0
  H  H42  1  0.50987000  0.26564000  0.88861000  1.0
  H  H43  1  0.49012000  0.73436000  0.11138000  1.0
  H  H44  1  0.43041000  0.23215000  0.97448000  1.0
  H  H45  1  0.56958000  0.76784000  0.02552000  1.0
  H  H46  1  0.37776000  0.35163000  0.93632000  1.0
  H  H47  1  0.62224000  0.64837000  0.06368000  1.0
  H  H48  1  0.75606000  0.78386000  0.63632000  1.0
  H  H49  1  0.24394000  0.21614000  0.36367000  1.0
  H  H50  1  0.69757000  0.91991000  0.62406000  1.0
  H  H51  1  0.30243000  0.08009000  0.37594000  1.0
  H  H52  1  0.65791000  0.87720000  0.71885000  1.0
  H  H53  1  0.34209000  0.12279000  0.28115000  1.0
  H  H54  1  0.42964000  0.58869000  0.56524000  1.0
  H  H55  1  0.57036000  0.41132000  0.43476000  1.0
  H  H56  1  0.61375000  0.59739000  0.58651000  1.0
  H  H57  1  0.38625000  0.40261000  0.41349000  1.0
  H  H58  1  0.52263000  0.67164000  0.68057000  1.0
  H  H59  1  0.47737000  0.32836000  0.31943000  1.0
  C  C60  1  0.06541000  0.73506000  0.45389000  1.0
  C  C61  1  0.93459000  0.26494000  0.54612000  1.0
  C  C62  1  0.95817000  0.76321000  0.38721000  1.0
  C  C63  1  0.04183000  0.23679000  0.61279000  1.0
  C  C64  1  0.97763000  0.74570000  0.28909000  1.0
  C  C65  1  0.02237000  0.25430000  0.71091000  1.0
  C  C66  1  0.09311000  0.69889000  0.25303000  1.0
  C  C67  1  0.90689000  0.30111000  0.74697000  1.0
  C  C68  1  0.10377000  0.67666000  0.15821000  1.0
  C  C69  1  0.89623000  0.32333000  0.84179000  1.0
  C  C70  1  0.99777000  0.70354000  0.09778000  1.0
  C  C71  1  0.00224000  0.29645000  0.90221000  1.0
  C  C72  1  0.88521000  0.75652000  0.13464000  1.0
  C  C73  1  0.11480000  0.24348000  0.86536000  1.0
  C  C74  1  0.87447000  0.77573000  0.22834000  1.0
  C  C75  1  0.12554000  0.22427000  0.77166000  1.0
  C  C76  1  0.10395000  0.62534000  0.96122000  1.0
  C  C77  1  0.89606000  0.37467000  0.03879000  1.0
  C  C78  1  0.02768000  0.94503000  0.60246000  1.0
  C  C79  1  0.97233000  0.05497000  0.39755000  1.0
  C  C80  1  0.17812000  0.77701000  0.64219000  1.0
  C  C81  1  0.82188000  0.22300000  0.35782000  1.0
  C  C82  1  0.56483000  0.72645000  0.45679000  1.0
  C  C83  1  0.43517000  0.27355000  0.54321000  1.0
  C  C84  1  0.45838000  0.64102000  0.38818000  1.0
  C  C85  1  0.54161000  0.35899000  0.61182000  1.0
  C  C86  1  0.48666000  0.57218000  0.29299000  1.0
  C  C87  1  0.51333000  0.42782000  0.70701000  1.0
  C  C88  1  0.61432000  0.57926000  0.26765000  1.0
  C  C89  1  0.38567000  0.42074000  0.73235000  1.0
  C  C90  1  0.63820000  0.51291000  0.17828000  1.0
  C  C91  1  0.36180000  0.48708000  0.82172000  1.0
  C  C92  1  0.53411000  0.43830000  0.11072000  1.0
  C  C93  1  0.46588000  0.56170000  0.88928000  1.0
  C  C94  1  0.40619000  0.42964000  0.13481000  1.0
  C  C95  1  0.59380000  0.57036000  0.86519000  1.0
  C  C96  1  0.38408000  0.49586000  0.22553000  1.0
  C  C97  1  0.61592000  0.50414000  0.77447000  1.0
  C  C98  1  0.46413000  0.30288000  0.95221000  1.0
  C  C99  1  0.53587000  0.69712000  0.04779000  1.0
  C  C100  1  0.67604000  0.84520000  0.64525000  1.0
  C  C101  1  0.32396000  0.15479000  0.35475000  1.0
  C  C102  1  0.52253000  0.64269000  0.60364000  1.0
  C  C103  1  0.47746000  0.35731000  0.39636000  1.0
  S  S104  1  0.02243000  0.78864000  0.57054000  1.0
  S  S105  1  0.97757000  0.21136000  0.42946000  1.0
  S  S106  1  0.52010000  0.77254000  0.57279000  1.0
  S  S107  1  0.47990000  0.22746000  0.42721000  1.0
  Cl  Cl108  1  0.19451000  0.47499000  0.54298000  1.0
  Cl  Cl109  1  0.80548000  0.52500000  0.45701000  1.0
  Cl  Cl110  1  0.06871000  0.35937000  0.27338000  1.0
  Cl  Cl111  1  0.93129000  0.64063000  0.72662000  1.0
  Cl  Cl112  1  0.69490000  0.06338000  0.54681000  1.0
  Cl  Cl113  1  0.30510000  0.93662000  0.45318000  1.0
  Cl  Cl114  1  0.57050000  0.94734000  0.27492000  1.0
  Cl  Cl115  1  0.42950000  0.05266000  0.72508000  1.0
  O  O116  1  0.85071000  0.79899000  0.41530000  1.0
  O  O117  1  0.14930000  0.20102000  0.58471000  1.0
  O  O118  1  0.99313000  0.68113000  0.00345000  1.0
  O  O119  1  0.00688000  0.31888000  0.99655000  1.0
  O  O120  1  0.34697000  0.63061000  0.41200000  1.0
  O  O121  1  0.65302000  0.36940000  0.58799000  1.0
  O  O122  1  0.56691000  0.37906000  0.02432000  1.0
  O  O123  1  0.43308000  0.62093000  0.97568000  1.0
