# generated using pymatgen
data_ZnH11C27NO14
_symmetry_space_group_name_H-M   'P 1'
_cell_length_a   13.91980000
_cell_length_b   15.11110000
_cell_length_c   15.96350000
_cell_angle_alpha   89.50890000
_cell_angle_beta   89.96740000
_cell_angle_gamma   89.01110000
_symmetry_Int_Tables_number   1
_chemical_formula_structural   ZnH11C27NO14
_chemical_formula_sum   'Zn2 H22 C54 N2 O28'
_cell_volume   3357.19455353
_cell_formula_units_Z   2
loop_
 _symmetry_equiv_pos_site_id
 _symmetry_equiv_pos_as_xyz
  1  'x, y, z'
loop_
 _atom_site_type_symbol
 _atom_site_label
 _atom_site_symmetry_multiplicity
 _atom_site_fract_x
 _atom_site_fract_y
 _atom_site_fract_z
 _atom_site_occupancy
  Zn  Zn0  1  0.59970000  0.50487000  0.50732000  1.0
  Zn  Zn1  1  0.39365000  0.49645000  0.49116000  1.0
  H  H2  1  0.92179000  0.71123000  0.58967000  1.0
  H  H3  1  0.25097000  0.61780000  0.53111000  1.0
  H  H4  1  0.48507000  0.74904000  0.15326000  1.0
  H  H5  1  0.52975000  0.24798000  0.84359000  1.0
  H  H6  1  0.17202000  0.69573000  0.60136000  1.0
  H  H7  1  0.82103000  0.30752000  0.39317000  1.0
  H  H8  1  0.20161000  0.57068000  0.90772000  1.0
  H  H9  1  0.80319000  0.43475000  0.08944000  1.0
  H  H10  1  0.11564000  0.12089000  0.56306000  1.0
  H  H11  1  0.89081000  0.88245000  0.44160000  1.0
  H  H12  1  0.15080000  0.84022000  0.56620000  1.0
  H  H13  1  0.07150000  0.29290000  0.40484000  1.0
  H  H14  1  0.85008000  0.16210000  0.43220000  1.0
  H  H15  1  0.77552000  0.70698000  0.56274000  1.0
  H  H16  1  0.21816000  0.29551000  0.43710000  1.0
  H  H17  1  0.61391000  0.60076000  0.93773000  1.0
  H  H18  1  0.38873000  0.39467000  0.06141000  1.0
  H  H19  1  0.66980000  0.21411000  0.51662000  1.0
  H  H20  1  0.33509000  0.78658000  0.49042000  1.0
  H  H21  1  0.36462000  0.23581000  0.51448000  1.0
  H  H22  1  0.64008000  0.76482000  0.48381000  1.0
  H  H23  1  0.74214000  0.38718000  0.46151000  1.0
  C  C24  1  0.48248000  0.67006000  0.47975000  1.0
  C  C25  1  0.49974000  0.95352000  0.49987000  1.0
  C  C26  1  0.59720000  0.08837000  0.50496000  1.0
  C  C27  1  0.40770000  0.91236000  0.49940000  1.0
  C  C28  1  0.32723000  0.05779000  0.50714000  1.0
  C  C29  1  0.67777000  0.94304000  0.49568000  1.0
  C  C30  1  0.32194000  0.96687000  0.50519000  1.0
  C  C31  1  0.68291000  0.03402000  0.49826000  1.0
  C  C32  1  0.79103000  0.43995000  0.47797000  1.0
  C  C33  1  0.20210000  0.56476000  0.51523000  1.0
  C  C34  1  0.79751000  0.58244000  0.53378000  1.0
  C  C35  1  0.52115000  0.33102000  0.52085000  1.0
  C  C36  1  0.19561000  0.42125000  0.46179000  1.0
  C  C37  1  0.89962000  0.58227000  0.53049000  1.0
  C  C38  1  0.09347000  0.42212000  0.46347000  1.0
  C  C39  1  0.51615000  0.47948000  0.33979000  1.0
  C  C40  1  0.47164000  0.51882000  0.65901000  1.0
  C  C41  1  0.94569000  0.50517000  0.49793000  1.0
  C  C42  1  0.04735000  0.49959000  0.49519000  1.0
  C  C43  1  0.89036000  0.43288000  0.46943000  1.0
  C  C44  1  0.10272000  0.57187000  0.52355000  1.0
  C  C45  1  0.95572000  0.65317000  0.56151000  1.0
  C  C46  1  0.51741000  0.23185000  0.51711000  1.0
  C  C47  1  0.03747000  0.35121000  0.43250000  1.0
  C  C48  1  0.05402000  0.64757000  0.55872000  1.0
  C  C49  1  0.93911000  0.35697000  0.43464000  1.0
  C  C50  1  0.56325000  0.55437000  0.96517000  1.0
  C  C51  1  0.43922000  0.44095000  0.03359000  1.0
  C  C52  1  0.48814000  0.57877000  0.03467000  1.0
  C  C53  1  0.51411000  0.41648000  0.96410000  1.0
  C  C54  1  0.52388000  0.47933000  0.24952000  1.0
  C  C55  1  0.47081000  0.51714000  0.74950000  1.0
  C  C56  1  0.59257000  0.46758000  0.01432000  1.0
  C  C57  1  0.48734000  0.76897000  0.48561000  1.0
  C  C58  1  0.40981000  0.52765000  0.98446000  1.0
  C  C59  1  0.51697000  0.49149000  0.08550000  1.0
  C  C60  1  0.48545000  0.50399000  0.91323000  1.0
  C  C61  1  0.52572000  0.48439000  0.17346000  1.0
  C  C62  1  0.47449000  0.51118000  0.82545000  1.0
  C  C63  1  0.60131000  0.18063000  0.51341000  1.0
  C  C64  1  0.40357000  0.82015000  0.49163000  1.0
  C  C65  1  0.47250000  0.67192000  0.06184000  1.0
  C  C66  1  0.53050000  0.32334000  0.93706000  1.0
  C  C67  1  0.30821000  0.55943000  0.97997000  1.0
  C  C68  1  0.42763000  0.19240000  0.51331000  1.0
  C  C69  1  0.69415000  0.43606000  0.01936000  1.0
  C  C70  1  0.23693000  0.11301000  0.50880000  1.0
  C  C71  1  0.76817000  0.88819000  0.49369000  1.0
  C  C72  1  0.22557000  0.92304000  0.50401000  1.0
  C  C73  1  0.77869000  0.07908000  0.49775000  1.0
  C  C74  1  0.57727000  0.80825000  0.48792000  1.0
  C  C75  1  0.41934000  0.10053000  0.50735000  1.0
  C  C76  1  0.58570000  0.90005000  0.49575000  1.0
  C  C77  1  0.50530000  0.04704000  0.50415000  1.0
  N  N78  1  0.74709000  0.51224000  0.50917000  1.0
  N  N79  1  0.24608000  0.49175000  0.48550000  1.0
  O  O80  1  0.56165000  0.62940000  0.46746000  1.0
  O  O81  1  0.49780000  0.68609000  0.14249000  1.0
  O  O82  1  0.55286000  0.26451000  0.98661000  1.0
  O  O83  1  0.51661000  0.31094000  0.85404000  1.0
  O  O84  1  0.10607000  0.71589000  0.59086000  1.0
  O  O85  1  0.88748000  0.28832000  0.40274000  1.0
  O  O86  1  0.26498000  0.58910000  0.04038000  1.0
  O  O87  1  0.26835000  0.54933000  0.90312000  1.0
  O  O88  1  0.73569000  0.39894000  0.96178000  1.0
  O  O89  1  0.73640000  0.45608000  0.09339000  1.0
  O  O90  1  0.21868000  0.17598000  0.46193000  1.0
  O  O91  1  0.44063000  0.37070000  0.51259000  1.0
  O  O92  1  0.17544000  0.08605000  0.56899000  1.0
  O  O93  1  0.78603000  0.82393000  0.53918000  1.0
  O  O94  1  0.83092000  0.91711000  0.43543000  1.0
  O  O95  1  0.16623000  0.93313000  0.44830000  1.0
  O  O96  1  0.21291000  0.87024000  0.57184000  1.0
  O  O97  1  0.83864000  0.07203000  0.55329000  1.0
  O  O98  1  0.78917000  0.12986000  0.42827000  1.0
  O  O99  1  0.74374000  0.64911000  0.56370000  1.0
  O  O100  1  0.24960000  0.35342000  0.43450000  1.0
  O  O101  1  0.40066000  0.63496000  0.48889000  1.0
  O  O102  1  0.60229000  0.36691000  0.53020000  1.0
  O  O103  1  0.59298000  0.46736000  0.38184000  1.0
  O  O104  1  0.39181000  0.51097000  0.62157000  1.0
  O  O105  1  0.43164000  0.49288000  0.36821000  1.0
  O  O106  1  0.55441000  0.52739000  0.62573000  1.0
  O  O107  1  0.44203000  0.72948000  0.01419000  1.0
