# generated using pymatgen
data_LaH8C9NO8
_symmetry_space_group_name_H-M   'P 1'
_cell_length_a   8.48471000
_cell_length_b   9.99722000
_cell_length_c   14.99690000
_cell_angle_alpha   90.00000000
_cell_angle_beta   90.00000000
_cell_angle_gamma   98.43990000
_symmetry_Int_Tables_number   1
_chemical_formula_structural   LaH8C9NO8
_chemical_formula_sum   'La4 H32 C36 N4 O32'
_cell_volume   1258.31346447
_cell_formula_units_Z   4
loop_
 _symmetry_equiv_pos_site_id
 _symmetry_equiv_pos_as_xyz
  1  'x, y, z'
loop_
 _atom_site_type_symbol
 _atom_site_label
 _atom_site_symmetry_multiplicity
 _atom_site_fract_x
 _atom_site_fract_y
 _atom_site_fract_z
 _atom_site_occupancy
  La  La0  1  0.00253000  0.11839000  0.38178000  1.0
  La  La1  1  0.49747000  0.88161000  0.88178000  1.0
  La  La2  1  0.99747000  0.88161000  0.61822000  1.0
  La  La3  1  0.50253000  0.11839000  0.11822000  1.0
  H  H4  1  0.32186000  0.55527000  0.16798000  1.0
  H  H5  1  0.17814000  0.44473000  0.66799000  1.0
  H  H6  1  0.67814000  0.44473000  0.83201000  1.0
  H  H7  1  0.82186000  0.55527000  0.33202000  1.0
  H  H8  1  0.26660000  0.77748000  0.23242000  1.0
  H  H9  1  0.23340000  0.22251000  0.73242000  1.0
  H  H10  1  0.73339000  0.22252000  0.76758000  1.0
  H  H11  1  0.76661000  0.77748000  0.26758000  1.0
  H  H12  1  0.14360000  0.56309000  0.47858000  1.0
  H  H13  1  0.35640000  0.43691000  0.97859000  1.0
  H  H14  1  0.85639000  0.43691000  0.52141000  1.0
  H  H15  1  0.64361000  0.56309000  0.02141000  1.0
  H  H16  1  0.49631000  0.87598000  0.51018000  1.0
  H  H17  1  0.00369000  0.12402000  0.01017000  1.0
  H  H18  1  0.50369000  0.12402000  0.48982000  1.0
  H  H19  1  0.99630000  0.87598000  0.98982000  1.0
  H  H20  1  0.61177000  0.74036000  0.51727000  1.0
  H  H21  1  0.88823000  0.25964000  0.01727000  1.0
  H  H22  1  0.38823000  0.25964000  0.48273000  1.0
  H  H23  1  0.11177000  0.74036000  0.98273000  1.0
  H  H24  1  0.50537000  0.76908000  0.41681000  1.0
  H  H25  1  0.99463000  0.23092000  0.91681000  1.0
  H  H26  1  0.49463000  0.23092000  0.58319000  1.0
  H  H27  1  0.00537000  0.76908000  0.08319000  1.0
  H  H28  1  0.84797000  0.98067000  0.20147000  1.0
  H  H29  1  0.65203000  0.01933000  0.70147000  1.0
  H  H30  1  0.15203000  0.01933000  0.79853000  1.0
  H  H31  1  0.34797000  0.98067000  0.29853000  1.0
  H  H32  1  0.03889000  0.99649000  0.19154000  1.0
  H  H33  1  0.46111000  0.00352000  0.69154000  1.0
  H  H34  1  0.96110000  0.00351000  0.80846000  1.0
  H  H35  1  0.53889000  0.99648000  0.30846000  1.0
  C  C36  1  0.28936000  0.31128000  0.24636000  1.0
  C  C37  1  0.21064000  0.68871000  0.74636000  1.0
  C  C38  1  0.71064000  0.68872000  0.75364000  1.0
  C  C39  1  0.78936000  0.31128000  0.25365000  1.0
  C  C40  1  0.25670000  0.44334000  0.28598000  1.0
  C  C41  1  0.24330000  0.55666000  0.78599000  1.0
  C  C42  1  0.74329000  0.55666000  0.71401000  1.0
  C  C43  1  0.75670000  0.44334000  0.21402000  1.0
  C  C44  1  0.27923000  0.56243000  0.23610000  1.0
  C  C45  1  0.22077000  0.43757000  0.73610000  1.0
  C  C46  1  0.72077000  0.43757000  0.76390000  1.0
  C  C47  1  0.77923000  0.56243000  0.26390000  1.0
  C  C48  1  0.24944000  0.68481000  0.27154000  1.0
  C  C49  1  0.25057000  0.31519000  0.77154000  1.0
  C  C50  1  0.75056000  0.31519000  0.72846000  1.0
  C  C51  1  0.74944000  0.68481000  0.22846000  1.0
  C  C52  1  0.20177000  0.68702000  0.36084000  1.0
  C  C53  1  0.29823000  0.31298000  0.86084000  1.0
  C  C54  1  0.79823000  0.31298000  0.63916000  1.0
  C  C55  1  0.70177000  0.68703000  0.13916000  1.0
  C  C56  1  0.17235000  0.81320000  0.40993000  1.0
  C  C57  1  0.32765000  0.18680000  0.90993000  1.0
  C  C58  1  0.82765000  0.18680000  0.59007000  1.0
  C  C59  1  0.67235000  0.81320000  0.09007000  1.0
  C  C60  1  0.18025000  0.56758000  0.40914000  1.0
  C  C61  1  0.31975000  0.43242000  0.90914000  1.0
  C  C62  1  0.81975000  0.43242000  0.59086000  1.0
  C  C63  1  0.68025000  0.56758000  0.09086000  1.0
  C  C64  1  0.71664000  0.91002000  0.43842000  1.0
  C  C65  1  0.78336000  0.08998000  0.93842000  1.0
  C  C66  1  0.28336000  0.08998000  0.56158000  1.0
  C  C67  1  0.21664000  0.91002000  0.06157000  1.0
  C  C68  1  0.57444000  0.81706000  0.47310000  1.0
  C  C69  1  0.92555000  0.18293000  0.97310000  1.0
  C  C70  1  0.42555000  0.18294000  0.52690000  1.0
  C  C71  1  0.07444000  0.81707000  0.02690000  1.0
  N  N72  1  0.20382000  0.44762000  0.37275000  1.0
  N  N73  1  0.29618000  0.55238000  0.87276000  1.0
  N  N74  1  0.79618000  0.55238000  0.62725000  1.0
  N  N75  1  0.70383000  0.44762000  0.12725000  1.0
  O  O76  1  0.17799000  0.34047000  0.42395000  1.0
  O  O77  1  0.32201000  0.65953000  0.92395000  1.0
  O  O78  1  0.82201000  0.65953000  0.57605000  1.0
  O  O79  1  0.67799000  0.34048000  0.07605000  1.0
  O  O80  1  0.21011000  0.20161000  0.27254000  1.0
  O  O81  1  0.28989000  0.79839000  0.77254000  1.0
  O  O82  1  0.78989000  0.79840000  0.72745000  1.0
  O  O83  1  0.71010000  0.20161000  0.22746000  1.0
  O  O84  1  0.39608000  0.32147000  0.18650000  1.0
  O  O85  1  0.10392000  0.67853000  0.68650000  1.0
  O  O86  1  0.60393000  0.67853000  0.81350000  1.0
  O  O87  1  0.89607000  0.32147000  0.31350000  1.0
  O  O88  1  0.17743000  0.92255000  0.36573000  1.0
  O  O89  1  0.32256000  0.07745000  0.86573000  1.0
  O  O90  1  0.82256000  0.07745000  0.63427000  1.0
  O  O91  1  0.67744000  0.92255000  0.13427000  1.0
  O  O92  1  0.14460000  0.79840000  0.49238000  1.0
  O  O93  1  0.35540000  0.20160000  0.99238000  1.0
  O  O94  1  0.85540000  0.20160000  0.50762000  1.0
  O  O95  1  0.64460000  0.79840000  0.00762000  1.0
  O  O96  1  0.70131000  0.99213000  0.37517000  1.0
  O  O97  1  0.79869000  0.00787000  0.87517000  1.0
  O  O98  1  0.29869000  0.00787000  0.62483000  1.0
  O  O99  1  0.20131000  0.99213000  0.12483000  1.0
  O  O100  1  0.94950000  0.99855000  0.23459000  1.0
  O  O101  1  0.55050000  0.00145000  0.73459000  1.0
  O  O102  1  0.05049000  0.00145000  0.76541000  1.0
  O  O103  1  0.44950000  0.99855000  0.26541000  1.0
  O  O104  1  0.85480000  0.90692000  0.47268000  1.0
  O  O105  1  0.64520000  0.09308000  0.97268000  1.0
  O  O106  1  0.14520000  0.09308000  0.52732000  1.0
  O  O107  1  0.35480000  0.90692000  0.02732000  1.0
