# generated using pymatgen
data_UH16C16(NO5)2
_symmetry_space_group_name_H-M   'P 1'
_cell_length_a   9.45434000
_cell_length_b   9.45439000
_cell_length_c   12.79410000
_cell_angle_alpha   96.49970000
_cell_angle_beta   96.49890000
_cell_angle_gamma   113.35800000
_symmetry_Int_Tables_number   1
_chemical_formula_structural   UH16C16(NO5)2
_chemical_formula_sum   'U2 H32 C32 N4 O20'
_cell_volume   1027.34805650
_cell_formula_units_Z   2
loop_
 _symmetry_equiv_pos_site_id
 _symmetry_equiv_pos_as_xyz
  1  'x, y, z'
loop_
 _atom_site_type_symbol
 _atom_site_label
 _atom_site_symmetry_multiplicity
 _atom_site_fract_x
 _atom_site_fract_y
 _atom_site_fract_z
 _atom_site_occupancy
  U  U0  1  0.52884000  0.47344000  0.25003000  1.0
  U  U1  1  0.47345000  0.52882000  0.75003000  1.0
  H  H2  1  0.32324000  0.89707000  0.86219000  1.0
  H  H3  1  0.10257000  0.67656000  0.63762000  1.0
  H  H4  1  0.67656000  0.10257000  0.13763000  1.0
  H  H5  1  0.89708000  0.32324000  0.36218000  1.0
  H  H6  1  0.14190000  0.91494000  0.84797000  1.0
  H  H7  1  0.08301000  0.85708000  0.65273000  1.0
  H  H8  1  0.85707000  0.08299000  0.15273000  1.0
  H  H9  1  0.91495000  0.14191000  0.34796000  1.0
  H  H10  1  0.31735000  0.08030000  0.84134000  1.0
  H  H11  1  0.91833000  0.68030000  0.65804000  1.0
  H  H12  1  0.68029000  0.91833000  0.15804000  1.0
  H  H13  1  0.08031000  0.31736000  0.34133000  1.0
  H  H14  1  0.32336000  0.84466000  0.06072000  1.0
  H  H15  1  0.15674000  0.67951000  0.44010000  1.0
  H  H16  1  0.67950000  0.15674000  0.94011000  1.0
  H  H17  1  0.84466000  0.32336000  0.56072000  1.0
  H  H18  1  0.24795000  0.95720000  0.14172000  1.0
  H  H19  1  0.04409000  0.75449000  0.35880000  1.0
  H  H20  1  0.75447000  0.04410000  0.85880000  1.0
  H  H21  1  0.95720000  0.24795000  0.64172000  1.0
  H  H22  1  0.12525000  0.81736000  0.02647000  1.0
  H  H23  1  0.18248000  0.87710000  0.47473000  1.0
  H  H24  1  0.87709000  0.18248000  0.97474000  1.0
  H  H25  1  0.81737000  0.12525000  0.52646000  1.0
  H  H26  1  0.37741000  0.26006000  0.98213000  1.0
  H  H27  1  0.73943000  0.61999000  0.51646000  1.0
  H  H28  1  0.61999000  0.73942000  0.01645000  1.0
  H  H29  1  0.26006000  0.37742000  0.48212000  1.0
  H  H30  1  0.01425000  0.49013000  0.19340000  1.0
  H  H31  1  0.50684000  0.98585000  0.30611000  1.0
  H  H32  1  0.98585000  0.50684000  0.80611000  1.0
  H  H33  1  0.49014000  0.01425000  0.69341000  1.0
  C  C34  1  0.26804000  0.48708000  0.12546000  1.0
  C  C35  1  0.51109000  0.73240000  0.37441000  1.0
  C  C36  1  0.73237000  0.51108000  0.87440000  1.0
  C  C37  1  0.48709000  0.26806000  0.62547000  1.0
  C  C38  1  0.87760000  0.50331000  0.05081000  1.0
  C  C39  1  0.49385000  0.12257000  0.44875000  1.0
  C  C40  1  0.12257000  0.49385000  0.94875000  1.0
  C  C41  1  0.50332000  0.87760000  0.55081000  1.0
  C  C42  1  0.13027000  0.49013000  0.05876000  1.0
  C  C43  1  0.50669000  0.86974000  0.44075000  1.0
  C  C44  1  0.86973000  0.50668000  0.94074000  1.0
  C  C45  1  0.49014000  0.13028000  0.55877000  1.0
  C  C46  1  0.00702000  0.49396000  0.10825000  1.0
  C  C47  1  0.50284000  0.99298000  0.39124000  1.0
  C  C48  1  0.99298000  0.50284000  0.89124000  1.0
  C  C49  1  0.49396000  0.00702000  0.60826000  1.0
  C  C50  1  0.75252000  0.50408000  0.11250000  1.0
  C  C51  1  0.49540000  0.24909000  0.38781000  1.0
  C  C52  1  0.24910000  0.49539000  0.88780000  1.0
  C  C53  1  0.50411000  0.75252000  0.61251000  1.0
  C  C54  1  0.34787000  0.17727000  0.03860000  1.0
  C  C55  1  0.82311000  0.65187000  0.46073000  1.0
  C  C56  1  0.65186000  0.82310000  0.96073000  1.0
  C  C57  1  0.17728000  0.34788000  0.53859000  1.0
  C  C58  1  0.26790000  0.97763000  0.87978000  1.0
  C  C59  1  0.02138000  0.73124000  0.62021000  1.0
  C  C60  1  0.73124000  0.02137000  0.12021000  1.0
  C  C61  1  0.97764000  0.26791000  0.37978000  1.0
  C  C62  1  0.24440000  0.90430000  0.06027000  1.0
  C  C63  1  0.09641000  0.75784000  0.44036000  1.0
  C  C64  1  0.75783000  0.09641000  0.94037000  1.0
  C  C65  1  0.90430000  0.24439000  0.56027000  1.0
  N  N66  1  0.29109000  0.02649000  0.99504000  1.0
  N  N67  1  0.97348000  0.70941000  0.50492000  1.0
  N  N68  1  0.70941000  0.97348000  0.00492000  1.0
  N  N69  1  0.02649000  0.29110000  0.49504000  1.0
  O  O70  1  0.25709000  0.45077000  0.21848000  1.0
  O  O71  1  0.54546000  0.74282000  0.28077000  1.0
  O  O72  1  0.74281000  0.54547000  0.78076000  1.0
  O  O73  1  0.45074000  0.25709000  0.71849000  1.0
  O  O74  1  0.67686000  0.37554000  0.14558000  1.0
  O  O75  1  0.62512000  0.32523000  0.35648000  1.0
  O  O76  1  0.32522000  0.62511000  0.85647000  1.0
  O  O77  1  0.37555000  0.67685000  0.64556000  1.0
  O  O78  1  0.39654000  0.52150000  0.08961000  1.0
  O  O79  1  0.48054000  0.60512000  0.41121000  1.0
  O  O80  1  0.60509000  0.48052000  0.91121000  1.0
  O  O81  1  0.52152000  0.39656000  0.58961000  1.0
  O  O82  1  0.36478000  0.22351000  0.13774000  1.0
  O  O83  1  0.77802000  0.63664000  0.36149000  1.0
  O  O84  1  0.63663000  0.77802000  0.86148000  1.0
  O  O85  1  0.22351000  0.36477000  0.63773000  1.0
  O  O86  1  0.72984000  0.62523000  0.13905000  1.0
  O  O87  1  0.37510000  0.27286000  0.36041000  1.0
  O  O88  1  0.27286000  0.37507000  0.86041000  1.0
  O  O89  1  0.62527000  0.72987000  0.63906000  1.0
