# generated using pymatgen
data_MnH20C20(N2O)4
_symmetry_space_group_name_H-M   'P 1'
_cell_length_a   8.13036000
_cell_length_b   8.44194000
_cell_length_c   8.87454000
_cell_angle_alpha   72.98960000
_cell_angle_beta   64.81790000
_cell_angle_gamma   76.90260000
_symmetry_Int_Tables_number   1
_chemical_formula_structural   MnH20C20(N2O)4
_chemical_formula_sum   'Mn1 H20 C20 N8 O4'
_cell_volume   523.42407740
_cell_formula_units_Z   1
loop_
 _symmetry_equiv_pos_site_id
 _symmetry_equiv_pos_as_xyz
  1  'x, y, z'
loop_
 _atom_site_type_symbol
 _atom_site_label
 _atom_site_symmetry_multiplicity
 _atom_site_fract_x
 _atom_site_fract_y
 _atom_site_fract_z
 _atom_site_occupancy
  Mn  Mn0  1  0.50000000  0.50000000  0.50000000  1.0
  H  H1  1  0.55380000  0.29764000  0.88946000  1.0
  H  H2  1  0.44620000  0.70237000  0.11054000  1.0
  H  H3  1  0.98715000  0.35234000  0.77087000  1.0
  H  H4  1  0.01284000  0.64766000  0.22913000  1.0
  H  H5  1  0.98682000  0.14878000  0.09330000  1.0
  H  H6  1  0.01318000  0.85123000  0.90669000  1.0
  H  H7  1  0.86565000  0.28971000  0.57113000  1.0
  H  H8  1  0.13435000  0.71029000  0.42887000  1.0
  H  H9  1  0.24992000  0.90348000  0.97108000  1.0
  H  H10  1  0.75009000  0.09652000  0.02892000  1.0
  H  H11  1  0.81676000  0.62529000  0.86456000  1.0
  H  H12  1  0.18323000  0.37471000  0.13546000  1.0
  H  H13  1  0.82964000  0.43128000  0.14601000  1.0
  H  H14  1  0.17036000  0.56872000  0.85399000  1.0
  H  H15  1  0.55490000  0.73032000  0.72258000  1.0
  H  H16  1  0.44510000  0.26968000  0.27743000  1.0
  H  H17  1  0.58696000  0.08493000  0.60323000  1.0
  H  H18  1  0.41304000  0.91507000  0.39676000  1.0
  H  H19  1  0.85533000  0.91398000  0.36641000  1.0
  H  H20  1  0.14467000  0.08602000  0.63359000  1.0
  C  C21  1  0.53263000  0.16666000  0.93616000  1.0
  C  C22  1  0.46737000  0.83334000  0.06384000  1.0
  C  C23  1  0.28060000  0.23357000  0.82761000  1.0
  C  C24  1  0.71940000  0.76643000  0.17239000  1.0
  C  C25  1  0.81617000  0.39630000  0.62959000  1.0
  C  C26  1  0.18383000  0.60370000  0.37041000  1.0
  C  C27  1  0.39076000  0.11372000  0.91902000  1.0
  C  C28  1  0.60923000  0.88628000  0.08098000  1.0
  C  C29  1  0.35847000  0.94568000  0.98525000  1.0
  C  C30  1  0.64153000  0.05432000  0.01475000  1.0
  C  C31  1  0.78718000  0.57187000  0.78317000  1.0
  C  C32  1  0.21282000  0.42813000  0.21683000  1.0
  C  C33  1  0.79950000  0.31560000  0.24014000  1.0
  C  C34  1  0.20050000  0.68440000  0.75986000  1.0
  C  C35  1  0.65852000  0.62333000  0.71109000  1.0
  C  C36  1  0.34147000  0.37667000  0.28892000  1.0
  C  C37  1  0.67780000  0.13242000  0.47365000  1.0
  C  C38  1  0.32220000  0.86758000  0.52635000  1.0
  C  C39  1  0.81205000  0.04612000  0.35823000  1.0
  C  C40  1  0.18795000  0.95388000  0.64176000  1.0
  N  N41  1  0.67712000  0.51184000  0.61577000  1.0
  N  N42  1  0.32289000  0.48816000  0.38422000  1.0
  N  N43  1  0.67086000  0.30177000  0.39852000  1.0
  N  N44  1  0.32914000  0.69823000  0.60148000  1.0
  N  N45  1  0.88542000  0.42866000  0.73011000  1.0
  N  N46  1  0.11458000  0.57134000  0.26989000  1.0
  N  N47  1  0.88720000  0.16381000  0.21199000  1.0
  N  N48  1  0.11280000  0.83619000  0.78801000  1.0
  O  O49  1  0.11117000  0.21559000  0.87550000  1.0
  O  O50  1  0.88884000  0.78440000  0.12450000  1.0
  O  O51  1  0.35884000  0.35018000  0.70606000  1.0
  O  O52  1  0.64116000  0.64982000  0.29394000  1.0
