# generated using pymatgen
data_Zn3H33C35N11O18
_symmetry_space_group_name_H-M   'P 1'
_cell_length_a   12.29640000
_cell_length_b   13.11780000
_cell_length_c   15.99870000
_cell_angle_alpha   100.90100000
_cell_angle_beta   90.00000000
_cell_angle_gamma   90.00000000
_symmetry_Int_Tables_number   1
_chemical_formula_structural   Zn3H33C35N11O18
_chemical_formula_sum   'Zn6 H66 C70 N22 O36'
_cell_volume   2534.05157872
_cell_formula_units_Z   2
loop_
 _symmetry_equiv_pos_site_id
 _symmetry_equiv_pos_as_xyz
  1  'x, y, z'
loop_
 _atom_site_type_symbol
 _atom_site_label
 _atom_site_symmetry_multiplicity
 _atom_site_fract_x
 _atom_site_fract_y
 _atom_site_fract_z
 _atom_site_occupancy
  Zn  Zn0  1  0.68905000  0.47406000  0.87290000  1.0
  Zn  Zn1  1  0.68905000  0.02594000  0.62710000  1.0
  Zn  Zn2  1  0.31095000  0.52594000  0.12711000  1.0
  Zn  Zn3  1  0.31095000  0.97406000  0.37290000  1.0
  Zn  Zn4  1  0.68602000  0.25000000  0.75000000  1.0
  Zn  Zn5  1  0.31398000  0.75000000  0.25000000  1.0
  H  H6  1  0.51198000  0.62393000  0.98064000  1.0
  H  H7  1  0.51198000  0.87607000  0.51936000  1.0
  H  H8  1  0.48802000  0.37607000  0.01936000  1.0
  H  H9  1  0.48802000  0.12393000  0.48064000  1.0
  H  H10  1  0.56393000  0.73927000  0.13951000  1.0
  H  H11  1  0.56393000  0.76073000  0.36049000  1.0
  H  H12  1  0.43607000  0.26073000  0.86049000  1.0
  H  H13  1  0.43607000  0.23927000  0.63951000  1.0
  H  H14  1  0.83885000  0.56175000  0.03424000  1.0
  H  H15  1  0.83885000  0.93825000  0.46576000  1.0
  H  H16  1  0.16115000  0.43825000  0.96576000  1.0
  H  H17  1  0.16115000  0.06175000  0.53424000  1.0
  H  H18  1  0.94214000  0.67897000  0.11728000  1.0
  H  H19  1  0.94214000  0.82103000  0.38272000  1.0
  H  H20  1  0.05786000  0.32103000  0.88272000  1.0
  H  H21  1  0.05786000  0.17897000  0.61728000  1.0
  H  H22  1  0.04309000  0.75000000  0.25000000  1.0
  H  H23  1  0.95691000  0.25000000  0.75000000  1.0
  H  H24  1  0.36339000  0.56698000  0.81784000  1.0
  H  H25  1  0.36339000  0.93302000  0.68216000  1.0
  H  H26  1  0.63661000  0.43302000  0.18216000  1.0
  H  H27  1  0.63661000  0.06698000  0.31784000  1.0
  H  H28  1  0.44182000  0.62994000  0.74949000  1.0
  H  H29  1  0.44183000  0.87005000  0.75051000  1.0
  H  H30  1  0.55817000  0.37006000  0.25051000  1.0
  H  H31  1  0.55818000  0.12994000  0.24949000  1.0
  H  H32  1  0.44307000  0.46505000  0.63899000  1.0
  H  H33  1  0.44307000  0.03494000  0.86100000  1.0
  H  H34  1  0.55693000  0.53495000  0.36101000  1.0
  H  H35  1  0.55693000  0.96506000  0.13900000  1.0
  H  H36  1  0.35612000  0.40534000  0.70384000  1.0
  H  H37  1  0.35612000  0.09466000  0.79616000  1.0
  H  H38  1  0.64388000  0.59466000  0.29616000  1.0
  H  H39  1  0.64388000  0.90534000  0.20384000  1.0
  H  H40  1  0.27005000  0.81928000  0.58463000  1.0
  H  H41  1  0.27005000  0.68072000  0.91537000  1.0
  H  H42  1  0.72994000  0.18072000  0.41537000  1.0
  H  H43  1  0.72995000  0.31928000  0.08463000  1.0
  H  H44  1  0.12515000  0.82339000  0.58040000  1.0
  H  H45  1  0.12515000  0.67661000  0.91959000  1.0
  H  H46  1  0.87485000  0.17661000  0.41960000  1.0
  H  H47  1  0.87485000  0.32339000  0.08041000  1.0
  H  H48  1  0.26858000  0.67311000  0.45605000  1.0
  H  H49  1  0.26858000  0.82689000  0.04395000  1.0
  H  H50  1  0.73142000  0.32689000  0.54395000  1.0
  H  H51  1  0.73142000  0.17311000  0.95605000  1.0
  H  H52  1  0.12291000  0.68355000  0.45395000  1.0
  H  H53  1  0.12291000  0.81645000  0.04605000  1.0
  H  H54  1  0.87709000  0.31645000  0.54605000  1.0
  H  H55  1  0.87709000  0.18355000  0.95395000  1.0
  H  H56  1  0.92925000  0.64445000  0.74388000  1.0
  H  H57  1  0.92925000  0.85555000  0.75612000  1.0
  H  H58  1  0.07075000  0.35555000  0.25612000  1.0
  H  H59  1  0.07075000  0.14445000  0.24388000  1.0
  H  H60  1  0.99844000  0.56965000  0.80880000  1.0
  H  H61  1  0.99844000  0.93035000  0.69120000  1.0
  H  H62  1  0.00156000  0.43035000  0.19120000  1.0
  H  H63  1  0.00156000  0.06965000  0.30880000  1.0
  H  H64  1  0.90963000  0.49162000  0.62859000  1.0
  H  H65  1  0.90963000  0.00838000  0.87141000  1.0
  H  H66  1  0.09037000  0.50838000  0.37141000  1.0
  H  H67  1  0.09038000  0.99162000  0.12859000  1.0
  H  H68  1  0.99615000  0.41625000  0.68147000  1.0
  H  H69  1  0.99615000  0.08375000  0.81853000  1.0
  H  H70  1  0.00385000  0.58375000  0.31853000  1.0
  H  H71  1  0.00385000  0.91625000  0.18147000  1.0
  C  C72  1  0.58779000  0.62891000  0.01574000  1.0
  C  C73  1  0.58779000  0.87109000  0.48426000  1.0
  C  C74  1  0.41222000  0.37109000  0.98426000  1.0
  C  C75  1  0.41222000  0.12891000  0.51574000  1.0
  C  C76  1  0.61269000  0.68678000  0.09380000  1.0
  C  C77  1  0.61269000  0.81322000  0.40620000  1.0
  C  C78  1  0.38731000  0.31322000  0.90620000  1.0
  C  C79  1  0.38731000  0.18678000  0.59380000  1.0
  C  C80  1  0.75823000  0.59577000  0.03983000  1.0
  C  C81  1  0.75823000  0.90423000  0.46017000  1.0
  C  C82  1  0.24177000  0.40423000  0.96017000  1.0
  C  C83  1  0.24176000  0.09577000  0.53983000  1.0
  C  C84  1  0.78471000  0.70973000  0.18029000  1.0
  C  C85  1  0.78471000  0.79027000  0.31971000  1.0
  C  C86  1  0.21529000  0.29027000  0.81971000  1.0
  C  C87  1  0.21529000  0.20973000  0.68029000  1.0
  C  C88  1  0.89805000  0.70977000  0.17567000  1.0
  C  C89  1  0.89804000  0.79023000  0.32433000  1.0
  C  C90  1  0.10196000  0.29023000  0.82434000  1.0
  C  C91  1  0.10196000  0.20977000  0.67567000  1.0
  C  C92  1  0.95458000  0.75000000  0.25000000  1.0
  C  C93  1  0.04542000  0.25000000  0.75000000  1.0
  C  C94  1  0.18272000  0.56823000  0.74229000  1.0
  C  C95  1  0.18272000  0.93177000  0.75771000  1.0
  C  C96  1  0.81728000  0.43177000  0.25771000  1.0
  C  C97  1  0.81728000  0.06823000  0.24229000  1.0
  C  C98  1  0.29013000  0.66532000  0.65338000  1.0
  C  C99  1  0.29013000  0.83468000  0.84662000  1.0
  C  C100  1  0.70987000  0.33468000  0.34662000  1.0
  C  C101  1  0.70987000  0.16532000  0.15338000  1.0
  C  C102  1  0.08911000  0.66761000  0.64756000  1.0
  C  C103  1  0.08911000  0.83239000  0.85243000  1.0
  C  C104  1  0.91089000  0.33239000  0.35243000  1.0
  C  C105  1  0.91089000  0.16761000  0.14757000  1.0
  C  C106  1  0.38111000  0.56957000  0.75134000  1.0
  C  C107  1  0.38111000  0.93043000  0.74866000  1.0
  C  C108  1  0.61889000  0.43043000  0.24866000  1.0
  C  C109  1  0.61889000  0.06957000  0.25134000  1.0
  C  C110  1  0.42066000  0.46375000  0.70531000  1.0
  C  C111  1  0.42066000  0.03625000  0.79469000  1.0
  C  C112  1  0.57934000  0.53625000  0.29469000  1.0
  C  C113  1  0.57934000  0.96375000  0.20531000  1.0
  C  C114  1  0.51795000  0.42694000  0.74990000  1.0
  C  C115  1  0.51795000  0.07306000  0.75010000  1.0
  C  C116  1  0.48205000  0.57306000  0.25010000  1.0
  C  C117  1  0.48205000  0.92694000  0.24990000  1.0
  C  C118  1  0.19650000  0.77323000  0.56700000  1.0
  C  C119  1  0.19650000  0.72677000  0.93300000  1.0
  C  C120  1  0.80350000  0.22677000  0.43300000  1.0
  C  C121  1  0.80350000  0.27323000  0.06700000  1.0
  C  C122  1  0.19907000  0.72544000  0.47204000  1.0
  C  C123  1  0.19907000  0.77456000  0.02796000  1.0
  C  C124  1  0.80093000  0.27456000  0.52796000  1.0
  C  C125  1  0.80093000  0.22544000  0.97204000  1.0
  C  C126  1  0.20708000  0.81642000  0.42624000  1.0
  C  C127  1  0.20708000  0.68358000  0.07376000  1.0
  C  C128  1  0.79292000  0.18358000  0.57376000  1.0
  C  C129  1  0.79292000  0.31642000  0.92624000  1.0
  C  C130  1  0.98395000  0.57866000  0.74314000  1.0
  C  C131  1  0.98395000  0.92134000  0.75686000  1.0
  C  C132  1  0.01605000  0.42134000  0.25686000  1.0
  C  C133  1  0.01606000  0.07866000  0.24314000  1.0
  C  C134  1  0.93574000  0.47898000  0.69170000  1.0
  C  C135  1  0.93574000  0.02102000  0.80830000  1.0
  C  C136  1  0.06426000  0.52102000  0.30830000  1.0
  C  C137  1  0.06426000  0.97898000  0.19170000  1.0
  C  C138  1  0.83816000  0.44324000  0.73703000  1.0
  C  C139  1  0.83816000  0.05676000  0.76297000  1.0
  C  C140  1  0.16184000  0.55676000  0.26297000  1.0
  C  C141  1  0.16185000  0.94324000  0.23703000  1.0
  N  N142  1  0.67884000  0.57248000  0.98311000  1.0
  N  N143  1  0.67884000  0.92752000  0.51689000  1.0
  N  N144  1  0.32116000  0.42752000  0.01689000  1.0
  N  N145  1  0.32116000  0.07248000  0.48311000  1.0
  N  N146  1  0.72145000  0.66574000  0.10807000  1.0
  N  N147  1  0.72145000  0.83426000  0.39193000  1.0
  N  N148  1  0.27855000  0.33426000  0.89193000  1.0
  N  N149  1  0.27855000  0.16574000  0.60807000  1.0
  N  N150  1  0.72833000  0.75000000  0.25000000  1.0
  N  N151  1  0.27167000  0.25000000  0.75000000  1.0
  N  N152  1  0.28081000  0.60203000  0.71381000  1.0
  N  N153  1  0.28081000  0.89797000  0.78619000  1.0
  N  N154  1  0.71919000  0.39797000  0.28619000  1.0
  N  N155  1  0.71919000  0.10203000  0.21381000  1.0
  N  N156  1  0.19166000  0.69755000  0.62363000  1.0
  N  N157  1  0.19166000  0.80245000  0.87637000  1.0
  N  N158  1  0.80834000  0.30245000  0.37637000  1.0
  N  N159  1  0.80834000  0.19755000  0.12363000  1.0
  N  N160  1  0.08924000  0.60565000  0.70938000  1.0
  N  N161  1  0.08924000  0.89435000  0.79062000  1.0
  N  N162  1  0.91076000  0.39435000  0.29062000  1.0
  N  N163  1  0.91075000  0.10565000  0.20938000  1.0
  O  O164  1  0.56348000  0.34314000  0.71454000  1.0
  O  O165  1  0.56348000  0.15686000  0.78546000  1.0
  O  O166  1  0.43652000  0.65686000  0.28546000  1.0
  O  O167  1  0.43652000  0.84314000  0.21454000  1.0
  O  O168  1  0.54531000  0.48413000  0.82054000  1.0
  O  O169  1  0.54531000  0.01587000  0.67946000  1.0
  O  O170  1  0.45469000  0.51587000  0.17946000  1.0
  O  O171  1  0.45469000  0.98413000  0.32054000  1.0
  O  O172  1  0.13438000  0.88345000  0.43428000  1.0
  O  O173  1  0.13438000  0.61655000  0.06572000  1.0
  O  O174  1  0.86562000  0.11656000  0.56572000  1.0
  O  O175  1  0.86562000  0.38345000  0.93429000  1.0
  O  O176  1  0.29913000  0.82548000  0.38569000  1.0
  O  O177  1  0.29913000  0.67452000  0.11431000  1.0
  O  O178  1  0.70087000  0.17452000  0.61431000  1.0
  O  O179  1  0.70087000  0.32548000  0.88569000  1.0
  O  O180  1  0.81216000  0.34821000  0.71965000  1.0
  O  O181  1  0.81216000  0.15179000  0.78035000  1.0
  O  O182  1  0.18784000  0.65179000  0.28035000  1.0
  O  O183  1  0.18785000  0.84821000  0.21965000  1.0
  O  O184  1  0.79057000  0.51406000  0.79053000  1.0
  O  O185  1  0.79057000  0.98594000  0.70947000  1.0
  O  O186  1  0.20943000  0.48594000  0.20947000  1.0
  O  O187  1  0.20943000  0.01406000  0.29053000  1.0
  O  O188  1  0.17911000  0.51026000  0.79432000  1.0
  O  O189  1  0.17911000  0.98974000  0.70568000  1.0
  O  O190  1  0.82089000  0.48974000  0.20568000  1.0
  O  O191  1  0.82089000  0.01026000  0.29432000  1.0
  O  O192  1  0.37844000  0.69213000  0.62899000  1.0
  O  O193  1  0.37844000  0.80787000  0.87100000  1.0
  O  O194  1  0.62156000  0.30787000  0.37100000  1.0
  O  O195  1  0.62156000  0.19213000  0.12899000  1.0
  O  O196  1  0.00476000  0.69535000  0.61743000  1.0
  O  O197  1  0.00476000  0.80465000  0.88257000  1.0
  O  O198  1  0.99524000  0.30464000  0.38257000  1.0
  O  O199  1  0.99524000  0.19535000  0.11743000  1.0
