# generated using pymatgen
data_CdH12C13Br2(NO3)2
_symmetry_space_group_name_H-M   'P 1'
_cell_length_a   8.04619000
_cell_length_b   13.83010000
_cell_length_c   15.35550000
_cell_angle_alpha   90.00000000
_cell_angle_beta   89.99990000
_cell_angle_gamma   105.06400000
_symmetry_Int_Tables_number   1
_chemical_formula_structural   CdH12C13Br2(NO3)2
_chemical_formula_sum   'Cd4 H48 C52 Br8 N8 O24'
_cell_volume   1650.03466674
_cell_formula_units_Z   4
loop_
 _symmetry_equiv_pos_site_id
 _symmetry_equiv_pos_as_xyz
  1  'x, y, z'
loop_
 _atom_site_type_symbol
 _atom_site_label
 _atom_site_symmetry_multiplicity
 _atom_site_fract_x
 _atom_site_fract_y
 _atom_site_fract_z
 _atom_site_occupancy
  Cd  Cd0  1  0.39175000  0.63897000  0.05905000  1.0
  Cd  Cd1  1  0.60825000  0.86103000  0.55904000  1.0
  Cd  Cd2  1  0.60826000  0.36103000  0.94096000  1.0
  Cd  Cd3  1  0.39175000  0.13897000  0.44096000  1.0
  H  H4  1  0.27155000  0.43170000  0.03108000  1.0
  H  H5  1  0.72845000  0.06830000  0.53109000  1.0
  H  H6  1  0.72845000  0.56830000  0.96891000  1.0
  H  H7  1  0.27155000  0.93170000  0.46891000  1.0
  H  H8  1  0.40674000  0.44235000  0.10317000  1.0
  H  H9  1  0.59326000  0.05765000  0.60317000  1.0
  H  H10  1  0.59326000  0.55765000  0.89683000  1.0
  H  H11  1  0.40674000  0.94235000  0.39683000  1.0
  H  H12  1  0.55326000  0.85963000  0.06961000  1.0
  H  H13  1  0.44673000  0.64037000  0.56961000  1.0
  H  H14  1  0.44673000  0.14037000  0.93039000  1.0
  H  H15  1  0.55327000  0.35963000  0.43039000  1.0
  H  H16  1  0.47301000  0.60575000  0.74317000  1.0
  H  H17  1  0.52699000  0.89425000  0.24317000  1.0
  H  H18  1  0.52699000  0.39425000  0.25683000  1.0
  H  H19  1  0.47300000  0.10575000  0.75683000  1.0
  H  H20  1  0.09887000  0.56229000  0.55050000  1.0
  H  H21  1  0.90113000  0.93771000  0.05050000  1.0
  H  H22  1  0.90112000  0.43771000  0.44949000  1.0
  H  H23  1  0.09887000  0.06228000  0.94949000  1.0
  H  H24  1  0.94589000  0.57542000  0.82020000  1.0
  H  H25  1  0.05411000  0.92458000  0.32020000  1.0
  H  H26  1  0.05411000  0.42459000  0.17980000  1.0
  H  H27  1  0.94589000  0.07541000  0.67980000  1.0
  H  H28  1  0.81864000  0.68730000  0.31283000  1.0
  H  H29  1  0.18136000  0.81270000  0.81282000  1.0
  H  H30  1  0.18136000  0.31270000  0.68718000  1.0
  H  H31  1  0.81864000  0.18730000  0.18718000  1.0
  H  H32  1  0.34576000  0.68054000  0.26101000  1.0
  H  H33  1  0.65425000  0.81946000  0.76101000  1.0
  H  H34  1  0.65425000  0.31946000  0.73899000  1.0
  H  H35  1  0.34575000  0.18054000  0.23899000  1.0
  H  H36  1  0.99892000  0.63933000  0.05623000  1.0
  H  H37  1  0.00108000  0.86067000  0.55623000  1.0
  H  H38  1  0.00108000  0.36067000  0.94377000  1.0
  H  H39  1  0.99892000  0.13933000  0.44377000  1.0
  H  H40  1  0.47437000  0.82975000  0.90102000  1.0
  H  H41  1  0.52563000  0.67025000  0.40102000  1.0
  H  H42  1  0.52563000  0.17025000  0.09898000  1.0
  H  H43  1  0.47437000  0.32975000  0.59898000  1.0
  H  H44  1  0.45649000  0.93793000  0.96004000  1.0
  H  H45  1  0.54351000  0.56206000  0.46004000  1.0
  H  H46  1  0.54351000  0.06206000  0.03996000  1.0
  H  H47  1  0.45649000  0.43794000  0.53996000  1.0
  H  H48  1  0.27347000  0.83383000  0.94998000  1.0
  H  H49  1  0.72653000  0.66617000  0.44998000  1.0
  H  H50  1  0.72653000  0.16617000  0.05002000  1.0
  H  H51  1  0.27347000  0.33383000  0.55002000  1.0
  C  C52  1  0.27034000  0.60620000  0.88639000  1.0
  C  C53  1  0.72967000  0.89380000  0.38639000  1.0
  C  C54  1  0.72966000  0.39380000  0.11361000  1.0
  C  C55  1  0.27034000  0.10620000  0.61361000  1.0
  C  C56  1  0.21563000  0.59016000  0.79289000  1.0
  C  C57  1  0.78437000  0.90984000  0.29289000  1.0
  C  C58  1  0.78437000  0.40984000  0.20711000  1.0
  C  C59  1  0.21563000  0.09016000  0.70711000  1.0
  C  C60  1  0.33713000  0.59345000  0.72699000  1.0
  C  C61  1  0.66287000  0.90655000  0.22699000  1.0
  C  C62  1  0.66287000  0.40655000  0.27301000  1.0
  C  C63  1  0.33713000  0.09345000  0.77301000  1.0
  C  C64  1  0.12888000  0.56942000  0.61986000  1.0
  C  C65  1  0.87113000  0.93058000  0.11986000  1.0
  C  C66  1  0.87112000  0.43058000  0.38014000  1.0
  C  C67  1  0.12888000  0.06942000  0.88014000  1.0
  C  C68  1  0.00102000  0.56643000  0.68198000  1.0
  C  C69  1  0.99898000  0.93357000  0.18198000  1.0
  C  C70  1  0.99898000  0.43357000  0.31802000  1.0
  C  C71  1  0.00102000  0.06643000  0.81802000  1.0
  C  C72  1  0.04278000  0.57674000  0.77002000  1.0
  C  C73  1  0.95722000  0.92326000  0.27002000  1.0
  C  C74  1  0.95723000  0.42326000  0.22998000  1.0
  C  C75  1  0.04277000  0.07674000  0.72998000  1.0
  C  C76  1  0.70911000  0.65559000  0.14619000  1.0
  C  C77  1  0.29088000  0.84442000  0.64619000  1.0
  C  C78  1  0.29089000  0.34442000  0.85381000  1.0
  C  C79  1  0.70912000  0.15558000  0.35381000  1.0
  C  C80  1  0.88655000  0.66271000  0.18076000  1.0
  C  C81  1  0.11345000  0.83729000  0.68076000  1.0
  C  C82  1  0.11346000  0.33729000  0.81924000  1.0
  C  C83  1  0.88654000  0.16270000  0.31924000  1.0
  C  C84  1  0.92114000  0.67945000  0.26941000  1.0
  C  C85  1  0.07886000  0.82055000  0.76941000  1.0
  C  C86  1  0.07886000  0.32055000  0.73059000  1.0
  C  C87  1  0.92114000  0.17945000  0.23059000  1.0
  C  C88  1  0.08703000  0.68617000  0.29908000  1.0
  C  C89  1  0.91297000  0.81383000  0.79908000  1.0
  C  C90  1  0.91297000  0.31383000  0.70092000  1.0
  C  C91  1  0.08703000  0.18617000  0.20092000  1.0
  C  C92  1  0.21425000  0.67598000  0.24057000  1.0
  C  C93  1  0.78575000  0.82403000  0.74056000  1.0
  C  C94  1  0.78575000  0.32403000  0.75944000  1.0
  C  C95  1  0.21425000  0.17597000  0.25944000  1.0
  C  C96  1  0.01956000  0.65301000  0.12570000  1.0
  C  C97  1  0.98044000  0.84700000  0.62570000  1.0
  C  C98  1  0.98044000  0.34700000  0.87430000  1.0
  C  C99  1  0.01956000  0.15300000  0.37430000  1.0
  C  C100  1  0.41404000  0.85582000  0.95759000  1.0
  C  C101  1  0.58595000  0.64418000  0.45759000  1.0
  C  C102  1  0.58595000  0.14418000  0.04241000  1.0
  C  C103  1  0.41404000  0.35582000  0.54241000  1.0
  Br  Br104  1  0.77237000  0.55423000  0.64426000  1.0
  Br  Br105  1  0.22763000  0.94577000  0.14425000  1.0
  Br  Br106  1  0.22763000  0.44579000  0.35575000  1.0
  Br  Br107  1  0.77237000  0.05421000  0.85575000  1.0
  Br  Br108  1  0.14430000  0.71117000  0.41781000  1.0
  Br  Br109  1  0.85569000  0.78884000  0.91781000  1.0
  Br  Br110  1  0.85570000  0.28883000  0.58219000  1.0
  Br  Br111  1  0.14429000  0.21118000  0.08219000  1.0
  N  N112  1  0.29468000  0.58352000  0.64234000  1.0
  N  N113  1  0.70532000  0.91648000  0.14234000  1.0
  N  N114  1  0.70532000  0.41647000  0.35766000  1.0
  N  N115  1  0.29468000  0.08353000  0.85766000  1.0
  N  N116  1  0.17902000  0.65927000  0.15555000  1.0
  N  N117  1  0.82098000  0.84073000  0.65554000  1.0
  N  N118  1  0.82098000  0.34073000  0.84446000  1.0
  N  N119  1  0.17902000  0.15927000  0.34445000  1.0
  O  O120  1  0.42931000  0.61543000  0.90443000  1.0
  O  O121  1  0.57069000  0.88457000  0.40444000  1.0
  O  O122  1  0.57069000  0.38458000  0.09556000  1.0
  O  O123  1  0.42931000  0.11542000  0.59556000  1.0
  O  O124  1  0.15979000  0.61261000  0.94301000  1.0
  O  O125  1  0.84021000  0.88738000  0.44301000  1.0
  O  O126  1  0.84021000  0.38739000  0.05699000  1.0
  O  O127  1  0.15979000  0.11261000  0.55699000  1.0
  O  O128  1  0.68477000  0.64003000  0.06406000  1.0
  O  O129  1  0.31522000  0.85996000  0.56406000  1.0
  O  O130  1  0.31522000  0.35996000  0.93594000  1.0
  O  O131  1  0.68478000  0.14004000  0.43594000  1.0
  O  O132  1  0.59305000  0.66579000  0.19783000  1.0
  O  O133  1  0.40696000  0.83421000  0.69783000  1.0
  O  O134  1  0.40696000  0.33421000  0.80217000  1.0
  O  O135  1  0.59304000  0.16578000  0.30217000  1.0
  O  O136  1  0.30528000  0.46702000  0.08686000  1.0
  O  O137  1  0.69472000  0.03297000  0.58686000  1.0
  O  O138  1  0.69472000  0.53298000  0.91314000  1.0
  O  O139  1  0.30528000  0.96702000  0.41314000  1.0
  O  O140  1  0.45560000  0.81302000  0.03678000  1.0
  O  O141  1  0.54440000  0.68698000  0.53678000  1.0
  O  O142  1  0.54440000  0.18698000  0.96322000  1.0
  O  O143  1  0.45560000  0.31302000  0.46322000  1.0
