# generated using pymatgen
data_ZnH19C25SN5O2
_symmetry_space_group_name_H-M   'P 1'
_cell_length_a   8.69036000
_cell_length_b   9.03145000
_cell_length_c   16.14130000
_cell_angle_alpha   77.53100000
_cell_angle_beta   88.83400000
_cell_angle_gamma   64.49870000
_symmetry_Int_Tables_number   1
_chemical_formula_structural   ZnH19C25SN5O2
_chemical_formula_sum   'Zn2 H38 C50 S2 N10 O4'
_cell_volume   1112.68406704
_cell_formula_units_Z   2
loop_
 _symmetry_equiv_pos_site_id
 _symmetry_equiv_pos_as_xyz
  1  'x, y, z'
loop_
 _atom_site_type_symbol
 _atom_site_label
 _atom_site_symmetry_multiplicity
 _atom_site_fract_x
 _atom_site_fract_y
 _atom_site_fract_z
 _atom_site_occupancy
  Zn  Zn0  1  0.96914000  0.09865000  0.08932000  1.0
  Zn  Zn1  1  0.03086000  0.90135000  0.91069000  1.0
  H  H2  1  0.62865000  0.77139000  0.03507000  1.0
  H  H3  1  0.37137000  0.22861000  0.96494000  1.0
  H  H4  1  0.53849000  0.92518000  0.09880000  1.0
  H  H5  1  0.46152000  0.07481000  0.90121000  1.0
  H  H6  1  0.72019000  0.73363000  0.14041000  1.0
  H  H7  1  0.27983000  0.26636000  0.85960000  1.0
  H  H8  1  0.98377000  0.75449000  0.19455000  1.0
  H  H9  1  0.01623000  0.24552000  0.80545000  1.0
  H  H10  1  0.16980000  0.51645000  0.31187000  1.0
  H  H11  1  0.83020000  0.48355000  0.68812000  1.0
  H  H12  1  0.52238000  0.74125000  0.29048000  1.0
  H  H13  1  0.47761000  0.25875000  0.70952000  1.0
  H  H14  1  0.31518000  0.97766000  0.17836000  1.0
  H  H15  1  0.68482000  0.02234000  0.82164000  1.0
  H  H16  1  0.58570000  0.48673000  0.40510000  1.0
  H  H17  1  0.41430000  0.51327000  0.59490000  1.0
  H  H18  1  0.18367000  0.35213000  0.49732000  1.0
  H  H19  1  0.81633000  0.64787000  0.50268000  1.0
  H  H20  1  0.03464000  0.24834000  0.61230000  1.0
  H  H21  1  0.96536000  0.75166000  0.38770000  1.0
  H  H22  1  0.20291000  0.01104000  0.73414000  1.0
  H  H23  1  0.79709000  0.98896000  0.26586000  1.0
  H  H24  1  0.78947000  0.84550000  0.67381000  1.0
  H  H25  1  0.21053000  0.15450000  0.32619000  1.0
  H  H26  1  0.93701000  0.95800000  0.56348000  1.0
  H  H27  1  0.06299000  0.04200000  0.43652000  1.0
  H  H28  1  0.76911000  0.20282000  0.44358000  1.0
  H  H29  1  0.23089000  0.79719000  0.55642000  1.0
  H  H30  1  0.37760000  0.72766000  0.76537000  1.0
  H  H31  1  0.62240000  0.27233000  0.23463000  1.0
  H  H32  1  0.42456000  0.47314000  0.86921000  1.0
  H  H33  1  0.57545000  0.52685000  0.13079000  1.0
  H  H34  1  0.61384000  0.22701000  0.98392000  1.0
  H  H35  1  0.38617000  0.77299000  0.01608000  1.0
  H  H36  1  0.96968000  0.41444000  0.98587000  1.0
  H  H37  1  0.03032000  0.58557000  0.01413000  1.0
  H  H38  1  0.79496000  0.67285000  0.87295000  1.0
  H  H39  1  0.20504000  0.32715000  0.12706000  1.0
  C  C40  1  0.90637000  0.33329000  0.21953000  1.0
  C  C41  1  0.09362000  0.66666667  0.78048000  1.0
  C  C42  1  0.65682000  0.83012000  0.08159000  1.0
  C  C43  1  0.34319000  0.16988000  0.91842000  1.0
  C  C44  1  0.77234000  0.91023000  0.04677000  1.0
  C  C45  1  0.22767000  0.08977000  0.95324000  1.0
  C  C46  1  0.10358000  0.74780000  0.21799000  1.0
  C  C47  1  0.89641000  0.25220000  0.78200000  1.0
  C  C48  1  0.20716000  0.61570000  0.28338000  1.0
  C  C49  1  0.79283000  0.38430000  0.71661000  1.0
  C  C50  1  0.36041000  0.61155000  0.31247000  1.0
  C  C51  1  0.63959000  0.38845000  0.68753000  1.0
  C  C52  1  0.40295000  0.74093000  0.27192000  1.0
  C  C53  1  0.59705000  0.25907000  0.72807000  1.0
  C  C54  1  0.28969000  0.87105000  0.20820000  1.0
  C  C55  1  0.71031000  0.12896000  0.79180000  1.0
  C  C56  1  0.46951000  0.47947000  0.38440000  1.0
  C  C57  1  0.53049000  0.52053000  0.61560000  1.0
  C  C58  1  0.52553000  0.23364000  0.48885000  1.0
  C  C59  1  0.47447000  0.76636000  0.51114000  1.0
  C  C60  1  0.43688000  0.17071000  0.55258000  1.0
  C  C61  1  0.56313000  0.82928000  0.44742000  1.0
  C  C62  1  0.25599000  0.24718000  0.55042000  1.0
  C  C63  1  0.74401000  0.75281000  0.44958000  1.0
  C  C64  1  0.17390000  0.18853000  0.61421000  1.0
  C  C65  1  0.82611000  0.81147000  0.38579000  1.0
  C  C66  1  0.26814000  0.05197000  0.68219000  1.0
  C  C67  1  0.73186000  0.94802000  0.31781000  1.0
  C  C68  1  0.44613000  0.97163000  0.68592000  1.0
  C  C69  1  0.55387000  0.02837000  0.31408000  1.0
  C  C70  1  0.53502000  0.03025000  0.62068000  1.0
  C  C71  1  0.46498000  0.96974000  0.37932000  1.0
  C  C72  1  0.71579000  0.95435000  0.62277000  1.0
  C  C73  1  0.28421000  0.04565000  0.37723000  1.0
  C  C74  1  0.79763000  0.01778000  0.56077000  1.0
  C  C75  1  0.20237000  0.98222000  0.43923000  1.0
  C  C76  1  0.70368000  0.15700000  0.49388000  1.0
  C  C77  1  0.29632000  0.84300000  0.50612000  1.0
  C  C78  1  0.49422000  0.72992000  0.78944000  1.0
  C  C79  1  0.50579000  0.27008000  0.21056000  1.0
  C  C80  1  0.59534000  0.59279000  0.86123000  1.0
  C  C81  1  0.40467000  0.40721000  0.13877000  1.0
  C  C82  1  0.54375000  0.46596000  0.89415000  1.0
  C  C83  1  0.45626000  0.53403000  0.10585000  1.0
  C  C84  1  0.64863000  0.32861000  0.95743000  1.0
  C  C85  1  0.35138000  0.67138000  0.04257000  1.0
  C  C86  1  0.84645000  0.43520000  0.95879000  1.0
  C  C87  1  0.15355000  0.56480000  0.04121000  1.0
  C  C88  1  0.74983000  0.57729000  0.89630000  1.0
  C  C89  1  0.25018000  0.42271000  0.10370000  1.0
  S  S90  1  0.86777000  0.45251000  0.28621000  1.0
  S  S91  1  0.13222000  0.54750000  0.71380000  1.0
  N  N92  1  0.93371000  0.24618000  0.17015000  1.0
  N  N93  1  0.06629000  0.75382000  0.82985000  1.0
  N  N94  1  0.14212000  0.87529000  0.18098000  1.0
  N  N95  1  0.85788000  0.12471000  0.81902000  1.0
  N  N96  1  0.42500000  0.36474000  0.42173000  1.0
  N  N97  1  0.57499000  0.63526000  0.57827000  1.0
  N  N98  1  0.54491000  0.84127000  0.75413000  1.0
  N  N99  1  0.45510000  0.15872000  0.24587000  1.0
  N  N100  1  0.79900000  0.31089000  0.98881000  1.0
  N  N101  1  0.20101000  0.68910000  0.01119000  1.0
  O  O102  1  0.82790000  0.89061000  0.97446000  1.0
  O  O103  1  0.17211000  0.10940000  0.02554000  1.0
  O  O104  1  0.80522000  0.99216000  0.09334000  1.0
  O  O105  1  0.19478000  0.00785000  0.90667000  1.0
