# generated using pymatgen
data_Zr3H3C26S5N5(O13F)2
_symmetry_space_group_name_H-M   'P 1'
_cell_length_a   16.40200000
_cell_length_b   16.47920000
_cell_length_c   16.47833143
_cell_angle_alpha   88.84095948
_cell_angle_beta   60.29681964
_cell_angle_gamma   60.29830000
_symmetry_Int_Tables_number   1
_chemical_formula_structural   Zr3H3C26S5N5(O13F)2
_chemical_formula_sum   'Zr6 H6 C52 S10 N10 O52 F4'
_cell_volume   3207.13274636
_cell_formula_units_Z   2
loop_
 _symmetry_equiv_pos_site_id
 _symmetry_equiv_pos_as_xyz
  1  'x, y, z'
loop_
 _atom_site_type_symbol
 _atom_site_label
 _atom_site_symmetry_multiplicity
 _atom_site_fract_x
 _atom_site_fract_y
 _atom_site_fract_z
 _atom_site_occupancy
  Zr  Zr0  1  0.51304000  0.09704000  0.59960000  1.0
  Zr  Zr1  1  0.49045000  0.89689000  0.39944000  1.0
  Zr  Zr2  1  0.28963000  0.10516000  0.60853000  1.0
  Zr  Zr3  1  0.71381000  0.88787000  0.39135000  1.0
  Zr  Zr4  1  0.50179000  0.10578000  0.39072000  1.0
  Zr  Zr5  1  0.50168000  0.88775000  0.60883000  1.0
  H  H6  1  0.34460000  0.24646000  0.57671000  1.0
  H  H7  1  0.65897000  0.91953000  0.25011000  1.0
  H  H8  1  0.32688000  0.91610000  0.59116000  1.0
  H  H9  1  0.67641000  0.90548000  0.58057000  1.0
  H  H10  1  0.30677000  0.35053000  0.83774000  1.0
  H  H11  1  0.69677000  0.65973000  0.14470000  1.0
  C  C12  1  0.52191000  0.25940000  0.48666000  1.0
  C  C13  1  0.48168000  0.00997000  0.23708000  1.0
  C  C14  1  0.49854000  0.72608000  0.50311000  1.0
  C  C15  1  0.50471000  0.99357000  0.77055000  1.0
  C  C16  1  0.25084000  0.26137000  0.76177000  1.0
  C  C17  1  0.78224000  0.99056000  0.48890000  1.0
  C  C18  1  0.75265000  0.73457000  0.23502000  1.0
  C  C19  1  0.22122000  0.00755000  0.50585000  1.0
  C  C20  1  0.23103000  0.26682000  0.49586000  1.0
  C  C21  1  0.23260000  0.99891000  0.77727000  1.0
  C  C22  1  0.77077000  0.71945000  0.49778000  1.0
  C  C23  1  0.77255000  0.00051000  0.22979000  1.0
  C  C24  1  0.51013000  0.57714000  0.56166000  1.0
  C  C25  1  0.51677000  0.40512000  0.42476000  1.0
  C  C26  1  0.50346000  0.63455000  0.49982000  1.0
  C  C27  1  0.52297000  0.34805000  0.48689000  1.0
  C  C28  1  0.51302000  0.48859000  0.45058000  1.0
  C  C29  1  0.51647000  0.49259000  0.53436000  1.0
  C  C30  1  0.48626000  0.07219000  0.09160000  1.0
  C  C31  1  0.49302000  0.93515000  0.91958000  1.0
  C  C32  1  0.48035000  0.00991000  0.14855000  1.0
  C  C33  1  0.49970000  0.99693000  0.86212000  1.0
  C  C34  1  0.48683000  0.96242000  0.00405000  1.0
  C  C35  1  0.49021000  0.04623000  0.00805000  1.0
  C  C36  1  0.02698000  0.06488000  0.91550000  1.0
  C  C37  1  0.97927000  0.93652000  0.09383000  1.0
  C  C38  1  0.14314000  0.99883000  0.86595000  1.0
  C  C39  1  0.86290000  0.00237000  0.14356000  1.0
  C  C40  1  0.03984000  0.95796000  0.00992000  1.0
  C  C41  1  0.96604000  0.04305000  0.99881000  1.0
  C  C42  1  0.02437000  0.40274000  0.55981000  1.0
  C  C43  1  0.97650000  0.58182000  0.43226000  1.0
  C  C44  1  0.14074000  0.35321000  0.49411000  1.0
  C  C45  1  0.86032000  0.63104000  0.49804000  1.0
  C  C46  1  0.03750000  0.49839000  0.45393000  1.0
  C  C47  1  0.96374000  0.48689000  0.53868000  1.0
  C  C48  1  0.05368000  0.40726000  0.88844000  1.0
  C  C49  1  0.21542000  0.39038000  0.87471000  1.0
  C  C50  1  0.14527000  0.47341000  0.95168000  1.0
  C  C51  1  0.02518000  0.52616000  0.00414000  1.0
  C  C52  1  0.94992000  0.60723000  0.08969000  1.0
  C  C53  1  0.78814000  0.62232000  0.10529000  1.0
  C  C54  1  0.85833000  0.54564000  0.02199000  1.0
  C  C55  1  0.97843000  0.49261000  0.96974000  1.0
  C  C56  1  0.17032000  0.35455000  0.84267000  1.0
  C  C57  1  0.83323000  0.65362000  0.14183000  1.0
  C  C58  1  0.15083000  0.93894000  0.43814000  1.0
  C  C59  1  0.85267000  0.05817000  0.55749000  1.0
  C  C60  1  0.13354000  0.00580000  0.50442000  1.0
  C  C61  1  0.86997000  0.99194000  0.49059000  1.0
  C  C62  1  0.95454000  0.04029000  0.53869000  1.0
  C  C63  1  0.04895000  0.95773000  0.45605000  1.0
  S  S64  1  0.50361000  0.58643000  0.40681000  1.0
  S  S65  1  0.52527000  0.39514000  0.57864000  1.0
  S  S66  1  0.47831000  0.91803000  0.10138000  1.0
  S  S67  1  0.49957000  0.08997000  0.91019000  1.0
  S  S68  1  0.18033000  0.90716000  0.92014000  1.0
  S  S69  1  0.82555000  0.09319000  0.08860000  1.0
  S  S70  1  0.17802000  0.40870000  0.40377000  1.0
  S  S71  1  0.82320000  0.57643000  0.58932000  1.0
  S  S72  1  0.99139000  0.09339000  0.59121000  1.0
  S  S73  1  0.01212000  0.90524000  0.40290000  1.0
  N  N74  1  0.50941000  0.60090000  0.64780000  1.0
  N  N75  1  0.51285000  0.38254000  0.34116000  1.0
  N  N76  1  0.48948000  0.15616000  0.11442000  1.0
  N  N77  1  0.49345000  0.84914000  0.89599000  1.0
  N  N78  1  0.96985000  0.14916000  0.88632000  1.0
  N  N79  1  0.03849000  0.85218000  0.12158000  1.0
  N  N80  1  0.96524000  0.37442000  0.64363000  1.0
  N  N81  1  0.03358000  0.61144000  0.34840000  1.0
  N  N82  1  0.26224000  0.85563000  0.35756000  1.0
  N  N83  1  0.74124000  0.13870000  0.64082000  1.0
  O  O84  1  0.52464000  0.22234000  0.55478000  1.0
  O  O85  1  0.47901000  0.94180000  0.27408000  1.0
  O  O86  1  0.49165000  0.76518000  0.43709000  1.0
  O  O87  1  0.51171000  0.05951000  0.73138000  1.0
  O  O88  1  0.21255000  0.22667000  0.73245000  1.0
  O  O89  1  0.81334000  0.92275000  0.42298000  1.0
  O  O90  1  0.79092000  0.76393000  0.26970000  1.0
  O  O91  1  0.19004000  0.07347000  0.57372000  1.0
  O  O92  1  0.33314000  0.23455000  0.42681000  1.0
  O  O93  1  0.33480000  0.92797000  0.74236000  1.0
  O  O94  1  0.66860000  0.75427000  0.56867000  1.0
  O  O95  1  0.67048000  0.06964000  0.26208000  1.0
  O  O96  1  0.20013000  0.06945000  0.74232000  1.0
  O  O97  1  0.80319000  0.75423000  0.42707000  1.0
  O  O98  1  0.80432000  0.92863000  0.26336000  1.0
  O  O99  1  0.19918000  0.23309000  0.56759000  1.0
  O  O100  1  0.35587000  0.22234000  0.72623000  1.0
  O  O101  1  0.32291000  0.94019000  0.43770000  1.0
  O  O102  1  0.64761000  0.77018000  0.27401000  1.0
  O  O103  1  0.68059000  0.05873000  0.55630000  1.0
  O  O104  1  0.50215000  0.92567000  0.73836000  1.0
  O  O105  1  0.51537000  0.22906000  0.42077000  1.0
  O  O106  1  0.48839000  0.07575000  0.26734000  1.0
  O  O107  1  0.50114000  0.75827000  0.57097000  1.0
  O  O108  1  0.62714000  0.93073000  0.55730000  1.0
  O  O109  1  0.37621000  0.93932000  0.56583000  1.0
  O  O110  1  0.61362000  0.94197000  0.32108000  1.0
  O  O111  1  0.38988000  0.17550000  0.55444000  1.0
  O  O112  1  0.40890000  0.04571000  0.45811000  1.0
  O  O113  1  0.59460000  0.03834000  0.45079000  1.0
  O  O114  1  0.58427000  0.86564000  0.45898000  1.0
  O  O115  1  0.41916000  0.03755000  0.63079000  1.0
  O  O116  1  0.41682000  0.66238000  0.72241000  1.0
  O  O117  1  0.60186000  0.55461000  0.63823000  1.0
  O  O118  1  0.41784000  0.42251000  0.35653000  1.0
  O  O119  1  0.60457000  0.32789000  0.26280000  1.0
  O  O120  1  0.58416000  0.14180000  0.07301000  1.0
  O  O121  1  0.39758000  0.23380000  0.17069000  1.0
  O  O122  1  0.58602000  0.77428000  0.83483000  1.0
  O  O123  1  0.40082000  0.85908000  0.94206000  1.0
  O  O124  1  0.95921000  0.13215000  0.82074000  1.0
  O  O125  1  0.93376000  0.22997000  0.93284000  1.0
  O  O126  1  0.09306000  0.77083000  0.06346000  1.0
  O  O127  1  0.03312000  0.86925000  0.19721000  1.0
  O  O128  1  0.91105000  0.43176000  0.72531000  1.0
  O  O129  1  0.97028000  0.29914000  0.62577000  1.0
  O  O130  1  0.04214000  0.67824000  0.36616000  1.0
  O  O131  1  0.07170000  0.56407000  0.26713000  1.0
  O  O132  1  0.30617000  0.77977000  0.37787000  1.0
  O  O133  1  0.30025000  0.86764000  0.27573000  1.0
  O  O134  1  0.69728000  0.11835000  0.71663000  1.0
  O  O135  1  0.70325000  0.22056000  0.62885000  1.0
  F  F136  1  0.81072000  0.51924000  0.99009000  1.0
  F  F137  1  0.00860000  0.37722000  0.85749000  1.0
  F  F138  1  0.19285000  0.50453000  0.97897000  1.0
  F  F139  1  0.99502000  0.63737000  0.12052000  1.0
