# generated using pymatgen
data_CdH15C20N5O7
_symmetry_space_group_name_H-M   'P 1'
_cell_length_a   10.24110000
_cell_length_b   10.71530000
_cell_length_c   11.66040000
_cell_angle_alpha   115.69800000
_cell_angle_beta   104.01900000
_cell_angle_gamma   102.28900000
_symmetry_Int_Tables_number   1
_chemical_formula_structural   CdH15C20N5O7
_chemical_formula_sum   'Cd2 H30 C40 N10 O14'
_cell_volume   1042.09845852
_cell_formula_units_Z   2
loop_
 _symmetry_equiv_pos_site_id
 _symmetry_equiv_pos_as_xyz
  1  'x, y, z'
loop_
 _atom_site_type_symbol
 _atom_site_label
 _atom_site_symmetry_multiplicity
 _atom_site_fract_x
 _atom_site_fract_y
 _atom_site_fract_z
 _atom_site_occupancy
  Cd  Cd0  1  0.90170000  0.23419000  0.18712000  1.0
  Cd  Cd1  1  0.09830000  0.76580000  0.81288000  1.0
  H  H2  1  0.80887000  0.90984000  0.99286000  1.0
  H  H3  1  0.19112000  0.09016000  0.00714000  1.0
  H  H4  1  0.70113000  0.96653000  0.06463000  1.0
  H  H5  1  0.29886000  0.03347000  0.93537000  1.0
  H  H6  1  0.40310000  0.20103000  0.18347000  1.0
  H  H7  1  0.59689000  0.79897000  0.81653000  1.0
  H  H8  1  0.74175000  0.35119000  0.56575000  1.0
  H  H9  1  0.25825000  0.64881000  0.43424000  1.0
  H  H10  1  0.32598000  0.37913000  0.55974000  1.0
  H  H11  1  0.67402000  0.62088000  0.44026000  1.0
  H  H12  1  0.00612000  0.61761000  0.43352000  1.0
  H  H13  1  0.99389000  0.38239000  0.56649000  1.0
  H  H14  1  0.73283000  0.67322000  0.13467000  1.0
  H  H15  1  0.26719000  0.32679000  0.86533000  1.0
  H  H16  1  0.99471000  0.82537000  0.58682000  1.0
  H  H17  1  0.00531000  0.17463000  0.41318000  1.0
  H  H18  1  0.89535000  0.90653000  0.24885000  1.0
  H  H19  1  0.10468000  0.09347000  0.75115000  1.0
  H  H20  1  0.71047000  0.38052000  0.02057000  1.0
  H  H21  1  0.28954000  0.61948000  0.97944000  1.0
  H  H22  1  0.04787000  0.32417000  0.99456000  1.0
  H  H23  1  0.95213000  0.67583000  0.00544000  1.0
  H  H24  1  0.61756000  0.04585000  0.86444000  1.0
  H  H25  1  0.38243000  0.95415000  0.13555000  1.0
  H  H26  1  0.89091000  0.26173000  0.73216000  1.0
  H  H27  1  0.10909000  0.73827000  0.26784000  1.0
  H  H28  1  0.75147000  0.01958000  0.51816000  1.0
  H  H29  1  0.24852000  0.98043000  0.48184000  1.0
  H  H30  1  0.44372000  0.09746000  0.71125000  1.0
  H  H31  1  0.55628000  0.90254000  0.28874000  1.0
  C  C32  1  0.67392000  0.21624000  0.28629000  1.0
  C  C33  1  0.32607000  0.78375000  0.71371000  1.0
  C  C34  1  0.19668000  0.26213000  0.28016000  1.0
  C  C35  1  0.80332000  0.73788000  0.71984000  1.0
  C  C36  1  0.34718000  0.28622000  0.36195000  1.0
  C  C37  1  0.65282000  0.71378000  0.63805000  1.0
  C  C38  1  0.43975000  0.24636000  0.29394000  1.0
  C  C39  1  0.56024000  0.75364000  0.70606000  1.0
  C  C40  1  0.58030000  0.26568000  0.36505000  1.0
  C  C41  1  0.41970000  0.73432000  0.63494000  1.0
  C  C42  1  0.63115000  0.33020000  0.50779000  1.0
  C  C43  1  0.36885000  0.66980000  0.49221000  1.0
  C  C44  1  0.53761000  0.36799000  0.57464000  1.0
  C  C45  1  0.46239000  0.63200000  0.42536000  1.0
  C  C46  1  0.39597000  0.34695000  0.50454000  1.0
  C  C47  1  0.60403000  0.65305000  0.49546000  1.0
  C  C48  1  0.92765000  0.58961000  0.33622000  1.0
  C  C49  1  0.07237000  0.41039000  0.66378000  1.0
  C  C50  1  0.78643000  0.61818000  0.17832000  1.0
  C  C51  1  0.21358000  0.38182000  0.82169000  1.0
  C  C52  1  0.93841000  0.84764000  0.40770000  1.0
  C  C53  1  0.06160000  0.15236000  0.59231000  1.0
  C  C54  1  0.99843000  0.90182000  0.54881000  1.0
  C  C55  1  0.00158000  0.09817000  0.45119000  1.0
  C  C56  1  0.93952000  0.94579000  0.35843000  1.0
  C  C57  1  0.06050000  0.05420000  0.64157000  1.0
  C  C58  1  0.77620000  0.47315000  0.12355000  1.0
  C  C59  1  0.22381000  0.52685000  0.87646000  1.0
  C  C60  1  0.93605000  0.25512000  0.92726000  1.0
  C  C61  1  0.06394000  0.74488000  0.07274000  1.0
  C  C62  1  0.71476000  0.11230000  0.86559000  1.0
  C  C63  1  0.28523000  0.88770000  0.13441000  1.0
  C  C64  1  0.86145000  0.22372000  0.79752000  1.0
  C  C65  1  0.13855000  0.77627000  0.20248000  1.0
  C  C66  1  0.60914000  0.06573000  0.62823000  1.0
  C  C67  1  0.39085000  0.93427000  0.37176000  1.0
  C  C68  1  0.64160000  0.01236000  0.51001000  1.0
  C  C69  1  0.35839000  0.98764000  0.48999000  1.0
  C  C70  1  0.46778000  0.05343000  0.61853000  1.0
  C  C71  1  0.53222000  0.94657000  0.38146000  1.0
  N  N72  1  0.84356000  0.18419000  0.96731000  1.0
  N  N73  1  0.15643000  0.81581000  0.03269000  1.0
  N  N74  1  0.86475000  0.45687000  0.22223000  1.0
  N  N75  1  0.13526000  0.54313000  0.77778000  1.0
  N  N76  1  0.88258000  0.69199000  0.31395000  1.0
  N  N77  1  0.11744000  0.30802000  0.68606000  1.0
  N  N78  1  0.72143000  0.13253000  0.75873000  1.0
  N  N79  1  0.27857000  0.86747000  0.24127000  1.0
  N  N80  1  0.59170000  0.43414000  0.72501000  1.0
  N  N81  1  0.40830000  0.56585000  0.27498000  1.0
  O  O82  1  0.14903000  0.18984000  0.15018000  1.0
  O  O83  1  0.85096000  0.81016000  0.84982000  1.0
  O  O84  1  0.12267000  0.31741000  0.34928000  1.0
  O  O85  1  0.87733000  0.68259000  0.65072000  1.0
  O  O86  1  0.50819000  0.46841000  0.78417000  1.0
  O  O87  1  0.49180000  0.53159000  0.21583000  1.0
  O  O88  1  0.71844000  0.45209000  0.78496000  1.0
  O  O89  1  0.28157000  0.54792000  0.21503000  1.0
  O  O90  1  0.79899000  0.96428000  0.08278000  1.0
  O  O91  1  0.20100000  0.03571000  0.91722000  1.0
  O  O92  1  0.80897000  0.26148000  0.35647000  1.0
  O  O93  1  0.19102000  0.73851000  0.64352000  1.0
  O  O94  1  0.61448000  0.13501000  0.15641000  1.0
  O  O95  1  0.38551000  0.86500000  0.84358000  1.0
