# generated using pymatgen
data_ZnH12C18N2O3
_symmetry_space_group_name_H-M   'P 1'
_cell_length_a   5.18582000
_cell_length_b   18.79033331
_cell_length_c   18.80510000
_cell_angle_alpha   88.95119731
_cell_angle_beta   82.07500000
_cell_angle_gamma   82.09251961
_symmetry_Int_Tables_number   1
_chemical_formula_structural   ZnH12C18N2O3
_chemical_formula_sum   'Zn4 H48 C72 N8 O12'
_cell_volume   1797.67227075
_cell_formula_units_Z   4
loop_
 _symmetry_equiv_pos_site_id
 _symmetry_equiv_pos_as_xyz
  1  'x, y, z'
loop_
 _atom_site_type_symbol
 _atom_site_label
 _atom_site_symmetry_multiplicity
 _atom_site_fract_x
 _atom_site_fract_y
 _atom_site_fract_z
 _atom_site_occupancy
  Zn  Zn0  1  0.35603000  0.51068000  0.05960000  1.0
  Zn  Zn1  1  0.92693000  0.48938000  0.94023000  1.0
  Zn  Zn2  1  0.13850000  0.93998000  0.51061000  1.0
  Zn  Zn3  1  0.58973000  0.05961000  0.48918000  1.0
  H  H4  1  0.23825000  0.84149000  0.15360000  1.0
  H  H5  1  0.55219000  0.91552000  0.09264000  1.0
  H  H6  1  0.02955000  0.70295000  0.95200000  1.0
  H  H7  1  0.82056000  0.87331000  0.35386000  1.0
  H  H8  1  0.32606000  0.70946000  0.34824000  1.0
  H  H9  1  0.96668000  0.59018000  0.19386000  1.0
  H  H10  1  0.19210000  0.82160000  0.93658000  1.0
  H  H11  1  0.70890000  0.62732000  0.00751000  1.0
  H  H12  1  0.12559000  0.81668000  0.25189000  1.0
  H  H13  1  0.61532000  0.65472000  0.24114000  1.0
  H  H14  1  0.94939000  0.92737000  0.00653000  1.0
  H  H15  1  0.23367000  0.15841000  0.84641000  1.0
  H  H16  1  0.56059000  0.08445000  0.90733000  1.0
  H  H17  1  0.68517000  0.29707000  0.04801000  1.0
  H  H18  1  0.04986000  0.12664000  0.64586000  1.0
  H  H19  1  0.38498000  0.29008000  0.65163000  1.0
  H  H20  1  0.75059000  0.40960000  0.80632000  1.0
  H  H21  1  0.95118000  0.17847000  0.06326000  1.0
  H  H22  1  0.34425000  0.37266000  0.99250000  1.0
  H  H23  1  0.19581000  0.18345000  0.74784000  1.0
  H  H24  1  0.51149000  0.34482000  0.75885000  1.0
  H  H25  1  0.88405000  0.07271000  0.99327000  1.0
  H  H26  1  0.92110000  0.84555000  0.84093000  1.0
  H  H27  1  0.53390000  0.90665000  0.91468000  1.0
  H  H28  1  0.27049000  0.04763000  0.70243000  1.0
  H  H29  1  0.30990000  0.64551000  0.87294000  1.0
  H  H30  1  0.96716000  0.65092000  0.70894000  1.0
  H  H31  1  0.44749000  0.80564000  0.59012000  1.0
  H  H32  1  0.98815000  0.06272000  0.82081000  1.0
  H  H33  1  0.66808000  0.99205000  0.62690000  1.0
  H  H34  1  0.06099000  0.74733000  0.81637000  1.0
  H  H35  1  0.73240000  0.75787000  0.65427000  1.0
  H  H36  1  0.12444000  0.99274000  0.92649000  1.0
  H  H37  1  0.60850000  0.15424000  0.15888000  1.0
  H  H38  1  0.35533000  0.09331000  0.08514000  1.0
  H  H39  1  0.02001000  0.95228000  0.29737000  1.0
  H  H40  1  0.82736000  0.35461000  0.12711000  1.0
  H  H41  1  0.32707000  0.34900000  0.29083000  1.0
  H  H42  1  0.84362000  0.19411000  0.40971000  1.0
  H  H43  1  0.87163000  0.93710000  0.17890000  1.0
  H  H44  1  0.28685000  0.00769000  0.37283000  1.0
  H  H45  1  0.62395000  0.25263000  0.18360000  1.0
  H  H46  1  0.14483000  0.24190000  0.34539000  1.0
  H  H47  1  0.04396000  0.00710000  0.07325000  1.0
  H  H48  1  0.10875000  0.06974000  0.54083000  1.0
  H  H49  1  0.35792000  0.54053000  0.92972000  1.0
  H  H50  1  0.82738000  0.45952000  0.07009000  1.0
  H  H51  1  0.71919000  0.92976000  0.45908000  1.0
  C  C52  1  0.89031000  0.73249000  0.23867000  1.0
  C  C53  1  0.33952000  0.79421000  0.12422000  1.0
  C  C54  1  0.37148000  0.82871000  0.42031000  1.0
  C  C55  1  0.26421000  0.72660000  0.13415000  1.0
  C  C56  1  0.56078000  0.80170000  0.07276000  1.0
  C  C57  1  0.65663000  0.86908000  0.06188000  1.0
  C  C58  1  0.92549000  0.74998000  0.98171000  1.0
  C  C59  1  0.39651000  0.66705000  0.09119000  1.0
  C  C60  1  0.69818000  0.74083000  0.03089000  1.0
  C  C61  1  0.77642000  0.82568000  0.32855000  1.0
  C  C62  1  0.55348000  0.79528000  0.35720000  1.0
  C  C63  1  0.50050000  0.73281000  0.32562000  1.0
  C  C64  1  0.08941000  0.62638000  0.16476000  1.0
  C  C65  1  0.01476000  0.81563000  0.97345000  1.0
  C  C66  1  0.60957000  0.67314000  0.03988000  1.0
  C  C67  1  0.94568000  0.79449000  0.27026000  1.0
  C  C68  1  0.66441000  0.70207000  0.26612000  1.0
  C  C69  1  0.87751000  0.87557000  0.01374000  1.0
  C  C70  1  0.86237000  0.26736000  0.76125000  1.0
  C  C71  1  0.25812000  0.20570000  0.87584000  1.0
  C  C72  1  0.62216000  0.17097000  0.57940000  1.0
  C  C73  1  0.12536000  0.27329000  0.86586000  1.0
  C  C74  1  0.43544000  0.19826000  0.92730000  1.0
  C  C75  1  0.58786000  0.13090000  0.93813000  1.0
  C  C76  1  0.65776000  0.25004000  0.01829000  1.0
  C  C77  1  0.15498000  0.33286000  0.90886000  1.0
  C  C78  1  0.47019000  0.25914000  0.96919000  1.0
  C  C79  1  0.93255000  0.17423000  0.67118000  1.0
  C  C80  1  0.70759000  0.20443000  0.64256000  1.0
  C  C81  1  0.56017000  0.26679000  0.67424000  1.0
  C  C82  1  0.88056000  0.37343000  0.83536000  1.0
  C  C83  1  0.80460000  0.18442000  0.02645000  1.0
  C  C84  1  0.32281000  0.32680000  0.96020000  1.0
  C  C85  1  0.01196000  0.20553000  0.72951000  1.0
  C  C86  1  0.63330000  0.29756000  0.73383000  1.0
  C  C87  1  0.76740000  0.12447000  0.98618000  1.0
  C  C88  1  0.38007000  0.76058000  0.73210000  1.0
  C  C89  1  0.86845000  0.87519000  0.79370000  1.0
  C  C90  1  0.80415000  0.57907000  0.82834000  1.0
  C  C91  1  0.01225000  0.86528000  0.72625000  1.0
  C  C92  1  0.64000000  0.92680000  0.80110000  1.0
  C  C93  1  0.47625000  0.93758000  0.86835000  1.0
  C  C94  1  0.32736000  0.01789000  0.74939000  1.0
  C  C95  1  0.94033000  0.90838000  0.66678000  1.0
  C  C96  1  0.56410000  0.96878000  0.74029000  1.0
  C  C97  1  0.40144000  0.67071000  0.82524000  1.0
  C  C98  1  0.65475000  0.64202000  0.79485000  1.0
  C  C99  1  0.76954000  0.67355000  0.73235000  1.0
  C  C100  1  0.28838000  0.83476000  0.62624000  1.0
  C  C101  1  0.17179000  0.02597000  0.81490000  1.0
  C  C102  1  0.72115000  0.95976000  0.67277000  1.0
  C  C103  1  0.26300000  0.72897000  0.79405000  1.0
  C  C104  1  0.63620000  0.73301000  0.70164000  1.0
  C  C105  1  0.24865000  0.98567000  0.87481000  1.0
  C  C106  1  0.87260000  0.23928000  0.26772000  1.0
  C  C107  1  0.53769000  0.12466000  0.20611000  1.0
  C  C108  1  0.21108000  0.42094000  0.17155000  1.0
  C  C109  1  0.60417000  0.13448000  0.27356000  1.0
  C  C110  1  0.36780000  0.07313000  0.19872000  1.0
  C  C111  1  0.28202000  0.06239000  0.13147000  1.0
  C  C112  1  0.09422000  0.98201000  0.25041000  1.0
  C  C113  1  0.51588000  0.09133000  0.33302000  1.0
  C  C114  1  0.27297000  0.03112000  0.25950000  1.0
  C  C115  1  0.89655000  0.32931000  0.17473000  1.0
  C  C116  1  0.09119000  0.35795000  0.20503000  1.0
  C  C117  1  0.17536000  0.32637000  0.26745000  1.0
  C  C118  1  0.74982000  0.16497000  0.37357000  1.0
  C  C119  1  0.01249000  0.97389000  0.18487000  1.0
  C  C120  1  0.35380000  0.04000000  0.32701000  1.0
  C  C121  1  0.78538000  0.27098000  0.20587000  1.0
  C  C122  1  0.07099000  0.26682000  0.29808000  1.0
  C  C123  1  0.10906000  0.01424000  0.12498000  1.0
  N  N124  1  0.27892000  0.60630000  0.11200000  1.0
  N  N125  1  0.06769000  0.69817000  0.18104000  1.0
  N  N126  1  0.99730000  0.39357000  0.88810000  1.0
  N  N127  1  0.94720000  0.30167000  0.81900000  1.0
  N  N128  1  0.11934000  0.88762000  0.60616000  1.0
  N  N129  1  0.23724000  0.81830000  0.69790000  1.0
  N  N130  1  0.61364000  0.11206000  0.39365000  1.0
  N  N131  1  0.75379000  0.18146000  0.30193000  1.0
  O  O132  1  0.71562000  0.46809000  0.03171000  1.0
  O  O133  1  0.43332000  0.88861000  0.44392000  1.0
  O  O134  1  0.17422000  0.80126000  0.44627000  1.0
  O  O135  1  0.21584000  0.53216000  0.96805000  1.0
  O  O136  1  0.76695000  0.11100000  0.55586000  1.0
  O  O137  1  0.42393000  0.19854000  0.55332000  1.0
  O  O138  1  0.82278000  0.96814000  0.46752000  1.0
  O  O139  1  0.68426000  0.55609000  0.88874000  1.0
  O  O140  1  0.02775000  0.55270000  0.80049000  1.0
  O  O141  1  0.25912000  0.03138000  0.53232000  1.0
  O  O142  1  0.12892000  0.44388000  0.11112000  1.0
  O  O143  1  0.38034000  0.44734000  0.19947000  1.0
