# generated using pymatgen
data_Zn3H44C66(N2O5)3
_symmetry_space_group_name_H-M   'P 1'
_cell_length_a   11.15410000
_cell_length_b   11.15410000
_cell_length_c   25.63490000
_cell_angle_alpha   92.57710000
_cell_angle_beta   92.57770000
_cell_angle_gamma   100.57300000
_symmetry_Int_Tables_number   1
_chemical_formula_structural   Zn3H44C66(N2O5)3
_chemical_formula_sum   'Zn6 H88 C132 N12 O30'
_cell_volume   3127.41586958
_cell_formula_units_Z   2
loop_
 _symmetry_equiv_pos_site_id
 _symmetry_equiv_pos_as_xyz
  1  'x, y, z'
loop_
 _atom_site_type_symbol
 _atom_site_label
 _atom_site_symmetry_multiplicity
 _atom_site_fract_x
 _atom_site_fract_y
 _atom_site_fract_z
 _atom_site_occupancy
  Zn  Zn0  1  0.50000000  0.00000000  0.50000000  1.0
  Zn  Zn1  1  0.00000000  0.50000000  0.00000000  1.0
  Zn  Zn2  1  0.18341000  0.84482000  0.49239000  1.0
  Zn  Zn3  1  0.15518000  0.81660000  0.00761000  1.0
  Zn  Zn4  1  0.81660000  0.15518000  0.50761000  1.0
  Zn  Zn5  1  0.84482000  0.18341000  0.99239000  1.0
  H  H6  1  0.05262000  0.09379000  0.58637000  1.0
  H  H7  1  0.90621000  0.94738000  0.91363000  1.0
  H  H8  1  0.94738000  0.90621000  0.41362000  1.0
  H  H9  1  0.09379000  0.05262000  0.08637000  1.0
  H  H10  1  0.64178000  0.36396000  0.52528000  1.0
  H  H11  1  0.63604000  0.35822000  0.97472000  1.0
  H  H12  1  0.35822000  0.63603000  0.47472000  1.0
  H  H13  1  0.36397000  0.64178000  0.02528000  1.0
  H  H14  1  0.62419000  0.61224000  0.68635000  1.0
  H  H15  1  0.38776000  0.37581000  0.81365000  1.0
  H  H16  1  0.37581000  0.38776000  0.31365000  1.0
  H  H17  1  0.61224000  0.62419000  0.18635000  1.0
  H  H18  1  0.59922000  0.71718000  0.60319000  1.0
  H  H19  1  0.28282000  0.40078000  0.89682000  1.0
  H  H20  1  0.40078000  0.28282000  0.39681000  1.0
  H  H21  1  0.71718000  0.59922000  0.10319000  1.0
  H  H22  1  0.56546000  0.67060000  0.44209000  1.0
  H  H23  1  0.32941000  0.43454000  0.05791000  1.0
  H  H24  1  0.43454000  0.32940000  0.55791000  1.0
  H  H25  1  0.67060000  0.56546000  0.94209000  1.0
  H  H26  1  0.98785000  0.23267000  0.65354000  1.0
  H  H27  1  0.76733000  0.01215000  0.84646000  1.0
  H  H28  1  0.01215000  0.76733000  0.34646000  1.0
  H  H29  1  0.23267000  0.98785000  0.15354000  1.0
  H  H30  1  0.29576000  0.70026000  0.39571000  1.0
  H  H31  1  0.29974000  0.70424000  0.10429000  1.0
  H  H32  1  0.70424000  0.29974000  0.60429000  1.0
  H  H33  1  0.70026000  0.29576000  0.89571000  1.0
  H  H34  1  0.97051000  0.48707000  0.86655000  1.0
  H  H35  1  0.51293000  0.02949000  0.63345000  1.0
  H  H36  1  0.02950000  0.51293000  0.13345000  1.0
  H  H37  1  0.48707000  0.97051000  0.36655000  1.0
  H  H38  1  0.71546000  0.72138000  0.53413000  1.0
  H  H39  1  0.27862000  0.28454000  0.96587000  1.0
  H  H40  1  0.28454000  0.27862000  0.46587000  1.0
  H  H41  1  0.72138000  0.71546000  0.03413000  1.0
  H  H42  1  0.12596000  0.17300000  0.75760000  1.0
  H  H43  1  0.82700000  0.87405000  0.74240000  1.0
  H  H44  1  0.87403000  0.82700000  0.24239000  1.0
  H  H45  1  0.17300000  0.12596000  0.25760000  1.0
  H  H46  1  0.42913000  0.22399000  0.63585000  1.0
  H  H47  1  0.77601000  0.57087000  0.86415000  1.0
  H  H48  1  0.57087000  0.77601000  0.36415000  1.0
  H  H49  1  0.22399000  0.42913000  0.13585000  1.0
  H  H50  1  0.22320000  0.71339000  0.63235000  1.0
  H  H51  1  0.28662000  0.77680000  0.86765000  1.0
  H  H52  1  0.77680000  0.28662000  0.36765000  1.0
  H  H53  1  0.71338000  0.22321000  0.13235000  1.0
  H  H54  1  0.04557000  0.12474000  0.84520000  1.0
  H  H55  1  0.87527000  0.95443000  0.65480000  1.0
  H  H56  1  0.95442000  0.87526000  0.15480000  1.0
  H  H57  1  0.12474000  0.04558000  0.34520000  1.0
  H  H58  1  0.24704000  0.60955000  0.71545000  1.0
  H  H59  1  0.39045000  0.75295000  0.78454000  1.0
  H  H60  1  0.75295000  0.39045000  0.28454000  1.0
  H  H61  1  0.60955000  0.24705000  0.21546000  1.0
  H  H62  1  0.90252000  0.43342000  0.42092000  1.0
  H  H63  1  0.56658000  0.09747000  0.07909000  1.0
  H  H64  1  0.09747000  0.56658000  0.57909000  1.0
  H  H65  1  0.43342000  0.90253000  0.92091000  1.0
  H  H66  1  0.36412000  0.36304000  0.70454000  1.0
  H  H67  1  0.63695000  0.63588000  0.79547000  1.0
  H  H68  1  0.63588000  0.63695000  0.29546000  1.0
  H  H69  1  0.36305000  0.36412000  0.20453000  1.0
  H  H70  1  0.04702000  0.53561000  0.77765000  1.0
  H  H71  1  0.46439000  0.95297000  0.72235000  1.0
  H  H72  1  0.95298000  0.46439000  0.22235000  1.0
  H  H73  1  0.53561000  0.04702000  0.27765000  1.0
  H  H74  1  0.77621000  0.44721000  0.46614000  1.0
  H  H75  1  0.55279000  0.22379000  0.03386000  1.0
  H  H76  1  0.22380000  0.55279000  0.53386000  1.0
  H  H77  1  0.44721000  0.77620000  0.96614000  1.0
  H  H78  1  0.74066000  0.55063000  0.41935000  1.0
  H  H79  1  0.44938000  0.25934000  0.08065000  1.0
  H  H80  1  0.25934000  0.44937000  0.58065000  1.0
  H  H81  1  0.55063000  0.74066000  0.91935000  1.0
  H  H82  1  0.93089000  0.88706000  0.55850000  1.0
  H  H83  1  0.11294000  0.06911000  0.94150000  1.0
  H  H84  1  0.06911000  0.11294000  0.44150000  1.0
  H  H85  1  0.88706000  0.93090000  0.05850000  1.0
  H  H86  1  0.23664000  0.50448000  0.34029000  1.0
  H  H87  1  0.49552000  0.76336000  0.15971000  1.0
  H  H88  1  0.76336000  0.49552000  0.65971000  1.0
  H  H89  1  0.50448000  0.23664000  0.84029000  1.0
  H  H90  1  0.03667000  0.36667000  0.35608000  1.0
  H  H91  1  0.63333000  0.96332000  0.14392000  1.0
  H  H92  1  0.96333000  0.63333000  0.64393000  1.0
  H  H93  1  0.36667000  0.03667000  0.85607000  1.0
  C  C94  1  0.00416000  0.30308000  0.86129000  1.0
  C  C95  1  0.69693000  0.99584000  0.63871000  1.0
  C  C96  1  0.99584000  0.69693000  0.13871000  1.0
  C  C97  1  0.30308000  0.00416000  0.36129000  1.0
  C  C98  1  0.40908000  0.72058000  0.61237000  1.0
  C  C99  1  0.27942000  0.59092000  0.88763000  1.0
  C  C100  1  0.59092000  0.27942000  0.38763000  1.0
  C  C101  1  0.72058000  0.40908000  0.11237000  1.0
  C  C102  1  0.09148000  0.35765000  0.76308000  1.0
  C  C103  1  0.64236000  0.90852000  0.73692000  1.0
  C  C104  1  0.90852000  0.64235000  0.23692000  1.0
  C  C105  1  0.35765000  0.09148000  0.26308000  1.0
  C  C106  1  0.24512000  0.15130000  0.60622000  1.0
  C  C107  1  0.84870000  0.75488000  0.89378000  1.0
  C  C108  1  0.75487000  0.84870000  0.39378000  1.0
  C  C109  1  0.15130000  0.24512000  0.10622000  1.0
  C  C110  1  0.12096000  0.15282000  0.61210000  1.0
  C  C111  1  0.84718000  0.87903000  0.88790000  1.0
  C  C112  1  0.87904000  0.84718000  0.38790000  1.0
  C  C113  1  0.15282000  0.12096000  0.11210000  1.0
  C  C114  1  0.58009000  0.42509000  0.51501000  1.0
  C  C115  1  0.57492000  0.41991000  0.98499000  1.0
  C  C116  1  0.41991000  0.57491000  0.48499000  1.0
  C  C117  1  0.42509000  0.58009000  0.01501000  1.0
  C  C118  1  0.02677000  0.60507000  0.44212000  1.0
  C  C119  1  0.39493000  0.97323000  0.05788000  1.0
  C  C120  1  0.97322000  0.39493000  0.55788000  1.0
  C  C121  1  0.60507000  0.02678000  0.94212000  1.0
  C  C122  1  0.27989000  0.06861000  0.56355000  1.0
  C  C123  1  0.93139000  0.72010000  0.93645000  1.0
  C  C124  1  0.72010000  0.93139000  0.43645000  1.0
  C  C125  1  0.06861000  0.27990000  0.06355000  1.0
  C  C126  1  0.53652000  0.63429000  0.67385000  1.0
  C  C127  1  0.36571000  0.46348000  0.82615000  1.0
  C  C128  1  0.46348000  0.36571000  0.32615000  1.0
  C  C129  1  0.63429000  0.53652000  0.17385000  1.0
  C  C130  1  0.52217000  0.69217000  0.62761000  1.0
  C  C131  1  0.30783000  0.47783000  0.87239000  1.0
  C  C132  1  0.47783000  0.30783000  0.37239000  1.0
  C  C133  1  0.69217000  0.52217000  0.12761000  1.0
  C  C134  1  0.95554000  0.66241000  0.47897000  1.0
  C  C135  1  0.33759000  0.04447000  0.02103000  1.0
  C  C136  1  0.04446000  0.33759000  0.52103000  1.0
  C  C137  1  0.66241000  0.95554000  0.97897000  1.0
  C  C138  1  0.43766000  0.60641000  0.70557000  1.0
  C  C139  1  0.39358000  0.56234000  0.79443000  1.0
  C  C140  1  0.56233000  0.39359000  0.29443000  1.0
  C  C141  1  0.60641000  0.43767000  0.20557000  1.0
  C  C142  1  0.53719000  0.59477000  0.46691000  1.0
  C  C143  1  0.40523000  0.46282000  0.03309000  1.0
  C  C144  1  0.46282000  0.40523000  0.53309000  1.0
  C  C145  1  0.59477000  0.53719000  0.96691000  1.0
  C  C146  1  0.08436000  0.23060000  0.64963000  1.0
  C  C147  1  0.76940000  0.91564000  0.85037000  1.0
  C  C148  1  0.91564000  0.76941000  0.35037000  1.0
  C  C149  1  0.23060000  0.08436000  0.14963000  1.0
  C  C150  1  0.20892000  0.63852000  0.39963000  1.0
  C  C151  1  0.36148000  0.79108000  0.10037000  1.0
  C  C152  1  0.79108000  0.36148000  0.60037000  1.0
  C  C153  1  0.63852000  0.20892000  0.89963000  1.0
  C  C154  1  0.00360000  0.41889000  0.84206000  1.0
  C  C155  1  0.58111000  0.99639000  0.65794000  1.0
  C  C156  1  0.99640000  0.58111000  0.15794000  1.0
  C  C157  1  0.41889000  0.00360000  0.34206000  1.0
  C  C158  1  0.80760000  0.72170000  0.52252000  1.0
  C  C159  1  0.27830000  0.19240000  0.97748000  1.0
  C  C160  1  0.19240000  0.27830000  0.47748000  1.0
  C  C161  1  0.72170000  0.80760000  0.02252000  1.0
  C  C162  1  0.17310000  0.30695000  0.68193000  1.0
  C  C163  1  0.69305000  0.82690000  0.81807000  1.0
  C  C164  1  0.82690000  0.69305000  0.31807000  1.0
  C  C165  1  0.30695000  0.17310000  0.18193000  1.0
  C  C166  1  0.09169000  0.24135000  0.78143000  1.0
  C  C167  1  0.75866000  0.90831000  0.71858000  1.0
  C  C168  1  0.90830000  0.75865000  0.21857000  1.0
  C  C169  1  0.24135000  0.09170000  0.28143000  1.0
  C  C170  1  0.33269000  0.22661000  0.63988000  1.0
  C  C171  1  0.77339000  0.66731000  0.86012000  1.0
  C  C172  1  0.66731000  0.77339000  0.36012000  1.0
  C  C173  1  0.22661000  0.33269000  0.13988000  1.0
  C  C174  1  0.31078000  0.69060000  0.64449000  1.0
  C  C175  1  0.30940000  0.68922000  0.85551000  1.0
  C  C176  1  0.68922000  0.30940000  0.35551000  1.0
  C  C177  1  0.69060000  0.31078000  0.14449000  1.0
  C  C178  1  0.04752000  0.21501000  0.83028000  1.0
  C  C179  1  0.78499000  0.95247000  0.66972000  1.0
  C  C180  1  0.95247000  0.78499000  0.16972000  1.0
  C  C181  1  0.21501000  0.04753000  0.33028000  1.0
  C  C182  1  0.32404000  0.63417000  0.69106000  1.0
  C  C183  1  0.36583000  0.67596000  0.80894000  1.0
  C  C184  1  0.67596000  0.36583000  0.30894000  1.0
  C  C185  1  0.63417000  0.32404000  0.19106000  1.0
  C  C186  1  0.98888000  0.49206000  0.41433000  1.0
  C  C187  1  0.50794000  0.01112000  0.08567000  1.0
  C  C188  1  0.01112000  0.50795000  0.58567000  1.0
  C  C189  1  0.49205000  0.98888000  0.91433000  1.0
  C  C190  1  0.29705000  0.30415000  0.67811000  1.0
  C  C191  1  0.69585000  0.70295000  0.82189000  1.0
  C  C192  1  0.70295000  0.69585000  0.32189000  1.0
  C  C193  1  0.30416000  0.29705000  0.17811000  1.0
  C  C194  1  0.04595000  0.44588000  0.79300000  1.0
  C  C195  1  0.55412000  0.95405000  0.70700000  1.0
  C  C196  1  0.95405000  0.55412000  0.20700000  1.0
  C  C197  1  0.44588000  0.04595000  0.29300000  1.0
  C  C198  1  0.38961000  0.78270000  0.56289000  1.0
  C  C199  1  0.21730000  0.61039000  0.93711000  1.0
  C  C200  1  0.61039000  0.21730000  0.43711000  1.0
  C  C201  1  0.78270000  0.38961000  0.06290000  1.0
  C  C202  1  0.74391000  0.53325000  0.46125000  1.0
  C  C203  1  0.46675000  0.25609000  0.03875000  1.0
  C  C204  1  0.25609000  0.46675000  0.53875000  1.0
  C  C205  1  0.53325000  0.74391000  0.96125000  1.0
  C  C206  1  0.61846000  0.51939000  0.48189000  1.0
  C  C207  1  0.48061000  0.38154000  0.01811000  1.0
  C  C208  1  0.38155000  0.48061000  0.51811000  1.0
  C  C209  1  0.51940000  0.61846000  0.98189000  1.0
  C  C210  1  0.91562000  0.80304000  0.53419000  1.0
  C  C211  1  0.19696000  0.08438000  0.96581000  1.0
  C  C212  1  0.08438000  0.19696000  0.46581000  1.0
  C  C213  1  0.80304000  0.91562000  0.03419000  1.0
  C  C214  1  0.17578000  0.52962000  0.36919000  1.0
  C  C215  1  0.47038000  0.82421000  0.13081000  1.0
  C  C216  1  0.82422000  0.47037000  0.63081000  1.0
  C  C217  1  0.52962000  0.17578000  0.86919000  1.0
  C  C218  1  0.06485000  0.45446000  0.37776000  1.0
  C  C219  1  0.54554000  0.93514000  0.12224000  1.0
  C  C220  1  0.93515000  0.54554000  0.62225000  1.0
  C  C221  1  0.45446000  0.06485000  0.87775000  1.0
  C  C222  1  0.95484000  0.26973000  0.91251000  1.0
  C  C223  1  0.73027000  0.04515000  0.58749000  1.0
  C  C224  1  0.04516000  0.73027000  0.08749000  1.0
  C  C225  1  0.26973000  0.95485000  0.41251000  1.0
  N  N226  1  0.13780000  0.67448000  0.43551000  1.0
  N  N227  1  0.32552000  0.86220000  0.06449000  1.0
  N  N228  1  0.86220000  0.32552000  0.56449000  1.0
  N  N229  1  0.67447000  0.13780000  0.93551000  1.0
  N  N230  1  0.83372000  0.63331000  0.48794000  1.0
  N  N231  1  0.36669000  0.16628000  0.01206000  1.0
  N  N232  1  0.16628000  0.36669000  0.51206000  1.0
  N  N233  1  0.63331000  0.83372000  0.98794000  1.0
  N  N234  1  0.00573000  0.76544000  0.50704000  1.0
  N  N235  1  0.23456000  0.99427000  0.99296000  1.0
  N  N236  1  0.99427000  0.23456000  0.49296000  1.0
  N  N237  1  0.76544000  0.00573000  0.00704000  1.0
  O  O238  1  0.48127000  0.84814000  0.54434000  1.0
  O  O239  1  0.15186000  0.51873000  0.95566000  1.0
  O  O240  1  0.51873000  0.15186000  0.45566000  1.0
  O  O241  1  0.84814000  0.48127000  0.04434000  1.0
  O  O242  1  0.45619000  0.54380000  0.75000000  1.0
  O  O243  1  0.54380000  0.45620000  0.25000000  1.0
  O  O244  1  0.39131000  0.08418000  0.55228000  1.0
  O  O245  1  0.91583000  0.60869000  0.94772000  1.0
  O  O246  1  0.60869000  0.91583000  0.44772000  1.0
  O  O247  1  0.08417000  0.39131000  0.05228000  1.0
  O  O248  1  0.13828000  0.39351000  0.71633000  1.0
  O  O249  1  0.60649000  0.86172000  0.78367000  1.0
  O  O250  1  0.86171000  0.60649000  0.28367000  1.0
  O  O251  1  0.39351000  0.13828000  0.21633000  1.0
  O  O252  1  0.27930000  0.76139000  0.54376000  1.0
  O  O253  1  0.23861000  0.72070000  0.95624000  1.0
  O  O254  1  0.72070000  0.23861000  0.45624000  1.0
  O  O255  1  0.76139000  0.27930000  0.04376000  1.0
  O  O256  1  0.19115000  0.99068000  0.54263000  1.0
  O  O257  1  0.00932000  0.80885000  0.95737000  1.0
  O  O258  1  0.80885000  0.00932000  0.45737000  1.0
  O  O259  1  0.99068000  0.19115000  0.04262000  1.0
  O  O260  1  0.91548000  0.34770000  0.94269000  1.0
  O  O261  1  0.65230000  0.08452000  0.55731000  1.0
  O  O262  1  0.08452000  0.65230000  0.05731000  1.0
  O  O263  1  0.34770000  0.91548000  0.44269000  1.0
  O  O264  1  0.94511000  0.15883000  0.92487000  1.0
  O  O265  1  0.84117000  0.05489000  0.57513000  1.0
  O  O266  1  0.05489000  0.84117000  0.07513000  1.0
  O  O267  1  0.15883000  0.94511000  0.42487000  1.0
