# generated using pymatgen
data_Ag3H14C14N5O11
_symmetry_space_group_name_H-M   'P 1'
_cell_length_a   8.35756000
_cell_length_b   11.43800000
_cell_length_c   11.92378635
_cell_angle_alpha   70.60519172
_cell_angle_beta   69.49358529
_cell_angle_gamma   68.58000000
_symmetry_Int_Tables_number   1
_chemical_formula_structural   Ag3H14C14N5O11
_chemical_formula_sum   'Ag6 H28 C28 N10 O22'
_cell_volume   966.24711600
_cell_formula_units_Z   2
loop_
 _symmetry_equiv_pos_site_id
 _symmetry_equiv_pos_as_xyz
  1  'x, y, z'
loop_
 _atom_site_type_symbol
 _atom_site_label
 _atom_site_symmetry_multiplicity
 _atom_site_fract_x
 _atom_site_fract_y
 _atom_site_fract_z
 _atom_site_occupancy
  Ag  Ag0  1  0.09827000  0.03332000  0.88067000  1.0
  Ag  Ag1  1  0.01247000  0.46646000  0.61934000  1.0
  Ag  Ag2  1  0.90173000  0.96668000  0.11933000  1.0
  Ag  Ag3  1  0.98753000  0.53354000  0.38066000  1.0
  Ag  Ag4  1  0.37936000  0.25016000  0.74997000  1.0
  Ag  Ag5  1  0.62064000  0.74984000  0.25003000  1.0
  H  H6  1  0.45488000  0.04466000  0.12392000  1.0
  H  H7  1  0.62366000  0.45532000  0.37615000  1.0
  H  H8  1  0.54513000  0.95534000  0.87607000  1.0
  H  H9  1  0.37634000  0.54468000  0.62385000  1.0
  H  H10  1  0.34747000  0.20779000  0.05982000  1.0
  H  H11  1  0.61486000  0.29225000  0.44036000  1.0
  H  H12  1  0.65253000  0.79221000  0.94018000  1.0
  H  H13  1  0.38514000  0.70774000  0.55964000  1.0
  H  H14  1  0.39493000  0.97602000  0.35474000  1.0
  H  H15  1  0.72597000  0.52396000  0.14515000  1.0
  H  H16  1  0.60507000  0.02398000  0.64526000  1.0
  H  H17  1  0.27403000  0.47604000  0.85485000  1.0
  H  H18  1  0.02388000  0.30912000  0.20665000  1.0
  H  H19  1  0.53976000  0.19089000  0.29341000  1.0
  H  H20  1  0.97612000  0.69088000  0.79335000  1.0
  H  H21  1  0.46024000  0.80911000  0.70659000  1.0
  H  H22  1  0.92627000  0.26814000  0.46708000  1.0
  H  H23  1  0.66137000  0.23183000  0.03294000  1.0
  H  H24  1  0.07373000  0.73186000  0.53292000  1.0
  H  H25  1  0.33863000  0.76817000  0.96706000  1.0
  H  H26  1  0.21366000  0.95519000  0.59774000  1.0
  H  H27  1  0.76629000  0.54487000  0.90214000  1.0
  H  H28  1  0.78634000  0.04481000  0.40226000  1.0
  H  H29  1  0.23371000  0.45513000  0.09786000  1.0
  H  H30  1  0.04767000  0.09826000  0.63301000  1.0
  H  H31  1  0.77868000  0.40170000  0.86697000  1.0
  H  H32  1  0.95233000  0.90174000  0.36699000  1.0
  H  H33  1  0.22131000  0.59830000  0.13303000  1.0
  C  C34  1  0.21343000  0.07263000  0.07779000  1.0
  C  C35  1  0.36399000  0.42756000  0.42204000  1.0
  C  C36  1  0.78657000  0.92736000  0.92221000  1.0
  C  C37  1  0.63601000  0.57244000  0.57796000  1.0
  C  C38  1  0.32536000  0.11750000  0.12368000  1.0
  C  C39  1  0.56668000  0.38253000  0.37632000  1.0
  C  C40  1  0.67465000  0.88250000  0.87631000  1.0
  C  C41  1  0.43332000  0.61747000  0.62368000  1.0
  C  C42  1  0.27986000  0.06024000  0.35032000  1.0
  C  C43  1  0.69076000  0.43966000  0.14966000  1.0
  C  C44  1  0.72015000  0.93976000  0.64967000  1.0
  C  C45  1  0.30924000  0.56034000  0.85034000  1.0
  C  C46  1  0.08357000  0.23740000  0.27768000  1.0
  C  C47  1  0.59881000  0.26257000  0.22234000  1.0
  C  C48  1  0.91643000  0.76260000  0.72232000  1.0
  C  C49  1  0.40119000  0.73743000  0.77766000  1.0
  C  C50  1  0.03599000  0.21701000  0.40318000  1.0
  C  C51  1  0.65603000  0.28302000  0.09683000  1.0
  C  C52  1  0.96401000  0.78299000  0.59682000  1.0
  C  C53  1  0.34397000  0.71698000  0.90317000  1.0
  C  C54  1  0.17672000  0.06108000  0.57169000  1.0
  C  C55  1  0.80917000  0.43897000  0.92827000  1.0
  C  C56  1  0.82328000  0.93892000  0.42831000  1.0
  C  C57  1  0.19083000  0.56103000  0.07173000  1.0
  C  C58  1  0.32050000  0.10617000  0.58519000  1.0
  C  C59  1  0.01143000  0.39394000  0.91479000  1.0
  C  C60  1  0.67950000  0.89383000  0.41481000  1.0
  C  C61  1  0.98856000  0.60606000  0.08521000  1.0
  N  N62  1  0.23640000  0.13926000  0.24711000  1.0
  N  N63  1  0.62319000  0.36063000  0.25291000  1.0
  N  N64  1  0.76360000  0.86074000  0.75289000  1.0
  N  N65  1  0.37681000  0.63937000  0.74709000  1.0
  N  N66  1  0.15935000  0.10576000  0.44625000  1.0
  N  N67  1  0.71118000  0.39428000  0.05374000  1.0
  N  N68  1  0.84065000  0.89424000  0.55375000  1.0
  N  N69  1  0.28882000  0.60572000  0.94626000  1.0
  N  N70  1  0.72909000  0.25011000  0.74992000  1.0
  N  N71  1  0.27091000  0.74989000  0.25008000  1.0
  O  O72  1  0.27074000  0.06805000  0.96509000  1.0
  O  O73  1  0.30416000  0.43189000  0.53483000  1.0
  O  O74  1  0.72925000  0.93195000  0.03492000  1.0
  O  O75  1  0.69584000  0.56811000  0.46517000  1.0
  O  O76  1  0.07730000  0.04380000  0.15577000  1.0
  O  O77  1  0.27694000  0.45657000  0.34407000  1.0
  O  O78  1  0.92269000  0.95621000  0.84423000  1.0
  O  O79  1  0.72306000  0.54343000  0.65593000  1.0
  O  O80  1  0.43002000  0.14756000  0.49194000  1.0
  O  O81  1  0.06925000  0.35247000  0.00799000  1.0
  O  O82  1  0.56999000  0.85244000  0.50806000  1.0
  O  O83  1  0.93075000  0.64753000  0.99201000  1.0
  O  O84  1  0.31705000  0.09294000  0.69754000  1.0
  O  O85  1  0.10706000  0.40732000  0.80240000  1.0
  O  O86  1  0.68296000  0.90706000  0.30246000  1.0
  O  O87  1  0.89294000  0.59268000  0.19760000  1.0
  O  O88  1  0.59954000  0.25725000  0.84655000  1.0
  O  O89  1  0.70308000  0.24318000  0.65326000  1.0
  O  O90  1  0.40046000  0.74275000  0.15345000  1.0
  O  O91  1  0.29692000  0.75682000  0.34674000  1.0
  O  O92  1  0.88002000  0.24989000  0.74993000  1.0
  O  O93  1  0.11998000  0.75011000  0.25007000  1.0
