# generated using pymatgen
data_CdH4C7(N3O)2
_symmetry_space_group_name_H-M   'P 1'
_cell_length_a   3.57557000
_cell_length_b   11.46570000
_cell_length_c   12.00520000
_cell_angle_alpha   70.78050000
_cell_angle_beta   82.82550000
_cell_angle_gamma   87.40360000
_symmetry_Int_Tables_number   1
_chemical_formula_structural   CdH4C7(N3O)2
_chemical_formula_sum   'Cd2 H8 C14 N12 O4'
_cell_volume   461.09540201
_cell_formula_units_Z   2
loop_
 _symmetry_equiv_pos_site_id
 _symmetry_equiv_pos_as_xyz
  1  'x, y, z'
loop_
 _atom_site_type_symbol
 _atom_site_label
 _atom_site_symmetry_multiplicity
 _atom_site_fract_x
 _atom_site_fract_y
 _atom_site_fract_z
 _atom_site_occupancy
  Cd  Cd0  1  0.31516000  0.50063000  0.36581000  1.0
  Cd  Cd1  1  0.68484000  0.49937000  0.63419000  1.0
  H  H2  1  0.11068000  0.52439000  0.09147000  1.0
  H  H3  1  0.88932000  0.47561000  0.90853000  1.0
  H  H4  1  0.72699000  0.99828000  0.40360000  1.0
  H  H5  1  0.27301000  0.00172000  0.59640000  1.0
  H  H6  1  0.68290000  0.95797000  0.21284000  1.0
  H  H7  1  0.31710000  0.04203000  0.78716000  1.0
  H  H8  1  0.43955000  0.13186000  0.04092000  1.0
  H  H9  1  0.56045000  0.86814000  0.95908000  1.0
  C  C10  1  0.21549000  0.43080000  0.12813000  1.0
  C  C11  1  0.78451000  0.56920000  0.87187000  1.0
  C  C12  1  0.42384000  0.26731000  0.25130000  1.0
  C  C13  1  0.57616000  0.73269000  0.74870000  1.0
  C  C14  1  0.63014000  0.07139000  0.32853000  1.0
  C  C15  1  0.36986000  0.92861000  0.67147000  1.0
  C  C16  1  0.60350000  0.04745000  0.22148000  1.0
  C  C17  1  0.39650000  0.95256000  0.77851000  1.0
  C  C18  1  0.47561000  0.13866000  0.12729000  1.0
  C  C19  1  0.52439000  0.86134000  0.87271000  1.0
  C  C20  1  0.80853000  0.27867000  0.54036000  1.0
  C  C21  1  0.19147000  0.72133000  0.45964000  1.0
  C  C22  1  0.87586000  0.72284000  0.18927000  1.0
  C  C23  1  0.12414000  0.27716000  0.81073000  1.0
  N  N24  1  0.24799000  0.35226000  0.06625000  1.0
  N  N25  1  0.75201000  0.64774000  0.93375000  1.0
  N  N26  1  0.31822000  0.38483000  0.23946000  1.0
  N  N27  1  0.68178000  0.61517000  0.76054000  1.0
  N  N28  1  0.54546000  0.17992000  0.34398000  1.0
  N  N29  1  0.45454000  0.82008000  0.65602000  1.0
  N  N30  1  0.38262000  0.24829000  0.14449000  1.0
  N  N31  1  0.61738000  0.75171000  0.85551000  1.0
  N  N32  1  0.76932000  0.38890000  0.48943000  1.0
  N  N33  1  0.23068000  0.61110000  0.51057000  1.0
  N  N34  1  0.83482000  0.62249000  0.26463000  1.0
  N  N35  1  0.16518000  0.37751000  0.73537000  1.0
  O  O36  1  0.85303000  0.17210000  0.59308000  1.0
  O  O37  1  0.14697000  0.82790000  0.40692000  1.0
  O  O38  1  0.92048000  0.82258000  0.11417000  1.0
  O  O39  1  0.07952000  0.17742000  0.88583000  1.0
