# generated using pymatgen
data_ZnPH9C7NO3
_symmetry_space_group_name_H-M   'P 1'
_cell_length_a   5.22453000
_cell_length_b   8.56631000
_cell_length_c   11.23951354
_cell_angle_alpha   112.07198306
_cell_angle_beta   96.45112776
_cell_angle_gamma   96.26600000
_symmetry_Int_Tables_number   1
_chemical_formula_structural   ZnPH9C7NO3
_chemical_formula_sum   'Zn2 P2 H18 C14 N2 O6'
_cell_volume   456.90611358
_cell_formula_units_Z   2
loop_
 _symmetry_equiv_pos_site_id
 _symmetry_equiv_pos_as_xyz
  1  'x, y, z'
loop_
 _atom_site_type_symbol
 _atom_site_label
 _atom_site_symmetry_multiplicity
 _atom_site_fract_x
 _atom_site_fract_y
 _atom_site_fract_z
 _atom_site_occupancy
  Zn  Zn0  1  0.23448000  0.30343000  0.39790000  1.0
  Zn  Zn1  1  0.76552000  0.69657000  0.60210000  1.0
  P  P2  1  0.78399000  0.32126000  0.55689000  1.0
  P  P3  1  0.21602000  0.67873000  0.44311000  1.0
  H  H4  1  0.73110000  0.23784000  0.73598000  1.0
  H  H5  1  0.26890000  0.76215000  0.26402000  1.0
  H  H6  1  0.66035000  0.05895000  0.58435000  1.0
  H  H7  1  0.33965000  0.94105000  0.41565000  1.0
  H  H8  1  0.42973000  0.20295000  0.62886000  1.0
  H  H9  1  0.57028000  0.79705000  0.37113000  1.0
  H  H10  1  0.41128000  0.10240000  0.14539000  1.0
  H  H11  1  0.58870000  0.89759000  0.85460000  1.0
  H  H12  1  0.30613000  0.80307000  0.97551000  1.0
  H  H13  1  0.69385000  0.19694000  0.02449000  1.0
  H  H14  1  0.96879000  0.53105000  0.87163000  1.0
  H  H15  1  0.03120000  0.46894000  0.12837000  1.0
  H  H16  1  0.71142000  0.49960000  0.95375000  1.0
  H  H17  1  0.28858000  0.50041000  0.04625000  1.0
  H  H18  1  0.64945000  0.72472000  0.15914000  1.0
  H  H19  1  0.35056000  0.27528000  0.84087000  1.0
  H  H20  1  0.77064000  0.02998000  0.31475000  1.0
  H  H21  1  0.22937000  0.97003000  0.68525000  1.0
  C  C22  1  0.63789000  0.19239000  0.63425000  1.0
  C  C23  1  0.36212000  0.80761000  0.36575000  1.0
  C  C24  1  0.24069000  0.01463000  0.14228000  1.0
  C  C25  1  0.75932000  0.98536000  0.85771000  1.0
  C  C26  1  0.18309000  0.84794000  0.04967000  1.0
  C  C27  1  0.81690000  0.15205000  0.95033000  1.0
  C  C28  1  0.97019000  0.73694000  0.05459000  1.0
  C  C29  1  0.02980000  0.26306000  0.94541000  1.0
  C  C30  1  0.92053000  0.55023000  0.96847000  1.0
  C  C31  1  0.07947000  0.44978000  0.03154000  1.0
  C  C32  1  0.81677000  0.80478000  0.15001000  1.0
  C  C33  1  0.18321000  0.19523000  0.85000000  1.0
  C  C34  1  0.88377000  0.97361000  0.23816000  1.0
  C  C35  1  0.11625000  0.02640000  0.76184000  1.0
  N  N36  1  0.09581000  0.07652000  0.23610000  1.0
  N  N37  1  0.90419000  0.92349000  0.76389000  1.0
  O  O38  1  0.60430000  0.28099000  0.42611000  1.0
  O  O39  1  0.39572000  0.71901000  0.57389000  1.0
  O  O40  1  0.05305000  0.26947000  0.53107000  1.0
  O  O41  1  0.94696000  0.73054000  0.46894000  1.0
  O  O42  1  0.80574000  0.50836000  0.65390000  1.0
  O  O43  1  0.19427000  0.49164000  0.34610000  1.0
