# generated using pymatgen
data_DyAg3H6C14N2O11
_symmetry_space_group_name_H-M   'P 1'
_cell_length_a   8.13670000
_cell_length_b   13.83460000
_cell_length_c   14.56710000
_cell_angle_alpha   89.99990000
_cell_angle_beta   89.99990000
_cell_angle_gamma   89.99990000
_symmetry_Int_Tables_number   1
_chemical_formula_structural   DyAg3H6C14N2O11
_chemical_formula_sum   'Dy4 Ag12 H24 C56 N8 O44'
_cell_volume   1639.78916450
_cell_formula_units_Z   4
loop_
 _symmetry_equiv_pos_site_id
 _symmetry_equiv_pos_as_xyz
  1  'x, y, z'
loop_
 _atom_site_type_symbol
 _atom_site_label
 _atom_site_symmetry_multiplicity
 _atom_site_fract_x
 _atom_site_fract_y
 _atom_site_fract_z
 _atom_site_occupancy
  Dy  Dy0  1  0.02619000  0.75000000  0.75000000  1.0
  Dy  Dy1  1  0.47382000  0.75000000  0.25000000  1.0
  Dy  Dy2  1  0.97382000  0.25000000  0.25000000  1.0
  Dy  Dy3  1  0.52619000  0.25000000  0.75000000  1.0
  Ag  Ag4  1  0.44750000  0.82441000  0.98567000  1.0
  Ag  Ag5  1  0.05250000  0.82441000  0.01433000  1.0
  Ag  Ag6  1  0.05250000  0.67559000  0.48567000  1.0
  Ag  Ag7  1  0.44750000  0.67559000  0.51434000  1.0
  Ag  Ag8  1  0.55250000  0.17559000  0.01434000  1.0
  Ag  Ag9  1  0.94750000  0.17559000  0.98567000  1.0
  Ag  Ag10  1  0.94750000  0.32441000  0.51433000  1.0
  Ag  Ag11  1  0.55250000  0.32441000  0.48566000  1.0
  Ag  Ag12  1  0.75000000  0.55622000  0.50000000  1.0
  Ag  Ag13  1  0.75000000  0.94378000  0.00000000  1.0
  Ag  Ag14  1  0.25000000  0.44378000  0.50000000  1.0
  Ag  Ag15  1  0.25001000  0.05622000  0.00000000  1.0
  H  H16  1  0.77366000  0.73117000  0.94436000  1.0
  H  H17  1  0.72634000  0.73117000  0.05564000  1.0
  H  H18  1  0.72634000  0.76883000  0.44436000  1.0
  H  H19  1  0.77366000  0.76883000  0.55564000  1.0
  H  H20  1  0.22634000  0.26884000  0.05564000  1.0
  H  H21  1  0.27366000  0.26883000  0.94436000  1.0
  H  H22  1  0.27366000  0.23117000  0.55564000  1.0
  H  H23  1  0.22634000  0.23117000  0.44436000  1.0
  H  H24  1  0.38494000  0.47481000  0.93228000  1.0
  H  H25  1  0.11505000  0.47482000  0.06773000  1.0
  H  H26  1  0.11506000  0.02518000  0.43227000  1.0
  H  H27  1  0.38494000  0.02519000  0.56772000  1.0
  H  H28  1  0.61505000  0.52518000  0.06773000  1.0
  H  H29  1  0.88494000  0.52518000  0.93227000  1.0
  H  H30  1  0.88494000  0.97481000  0.56772000  1.0
  H  H31  1  0.61505000  0.97481000  0.43227000  1.0
  H  H32  1  0.10020000  0.35363000  0.70856000  1.0
  H  H33  1  0.39980000  0.35363000  0.29144000  1.0
  H  H34  1  0.39980000  0.14637000  0.20856000  1.0
  H  H35  1  0.10020000  0.14637000  0.79144000  1.0
  H  H36  1  0.89980000  0.64637000  0.29144000  1.0
  H  H37  1  0.60020000  0.64637000  0.70856000  1.0
  H  H38  1  0.60020000  0.85363000  0.79144000  1.0
  H  H39  1  0.89980000  0.85363000  0.20856000  1.0
  C  C40  1  0.30051000  0.66434000  0.89259000  1.0
  C  C41  1  0.19950000  0.66434000  0.10741000  1.0
  C  C42  1  0.19949000  0.83566000  0.39259000  1.0
  C  C43  1  0.30051000  0.83566000  0.60741000  1.0
  C  C44  1  0.69949000  0.33566000  0.10741000  1.0
  C  C45  1  0.80051000  0.33566000  0.89259000  1.0
  C  C46  1  0.80051000  0.16434000  0.60741000  1.0
  C  C47  1  0.69949000  0.16434000  0.39259000  1.0
  C  C48  1  0.24212000  0.57229000  0.84918000  1.0
  C  C49  1  0.25787000  0.57230000  0.15082000  1.0
  C  C50  1  0.25787000  0.92771000  0.34918000  1.0
  C  C51  1  0.24212000  0.92771000  0.65082000  1.0
  C  C52  1  0.75787000  0.42771000  0.15082000  1.0
  C  C53  1  0.74212000  0.42771000  0.84918000  1.0
  C  C54  1  0.74213000  0.07229000  0.65082000  1.0
  C  C55  1  0.75787000  0.07229000  0.34918000  1.0
  C  C56  1  0.29823000  0.48174000  0.87569000  1.0
  C  C57  1  0.20177000  0.48175000  0.12432000  1.0
  C  C58  1  0.20177000  0.01826000  0.37568000  1.0
  C  C59  1  0.29823000  0.01826000  0.62432000  1.0
  C  C60  1  0.70177000  0.51826000  0.12432000  1.0
  C  C61  1  0.79823000  0.51826000  0.87568000  1.0
  C  C62  1  0.79823000  0.98174000  0.62431000  1.0
  C  C63  1  0.70177000  0.98174000  0.37568000  1.0
  C  C64  1  0.25167000  0.39927000  0.82413000  1.0
  C  C65  1  0.24833000  0.39927000  0.17587000  1.0
  C  C66  1  0.24833000  0.10073000  0.32413000  1.0
  C  C67  1  0.25167000  0.10073000  0.67587000  1.0
  C  C68  1  0.74833000  0.60073000  0.17587000  1.0
  C  C69  1  0.75167000  0.60073000  0.82413000  1.0
  C  C70  1  0.75167000  0.89927000  0.67587000  1.0
  C  C71  1  0.74833000  0.89927000  0.32413000  1.0
  C  C72  1  0.13984000  0.41456000  0.75051000  1.0
  C  C73  1  0.36017000  0.41456000  0.24949000  1.0
  C  C74  1  0.36016000  0.08544000  0.25051000  1.0
  C  C75  1  0.13984000  0.08544000  0.74949000  1.0
  C  C76  1  0.86016000  0.58544000  0.24949000  1.0
  C  C77  1  0.63984000  0.58544000  0.75051000  1.0
  C  C78  1  0.63984000  0.91456000  0.74949000  1.0
  C  C79  1  0.86016000  0.91456000  0.25051000  1.0
  C  C80  1  0.08960000  0.50795000  0.73028000  1.0
  C  C81  1  0.41040000  0.50795000  0.26973000  1.0
  C  C82  1  0.41040000  0.99205000  0.23027000  1.0
  C  C83  1  0.08960000  0.99205000  0.76973000  1.0
  C  C84  1  0.91040000  0.49205000  0.26973000  1.0
  C  C85  1  0.58960000  0.49205000  0.73027000  1.0
  C  C86  1  0.58960000  0.00795000  0.76973000  1.0
  C  C87  1  0.91040000  0.00795000  0.23027000  1.0
  C  C88  1  0.98016000  0.53372000  0.65168000  1.0
  C  C89  1  0.51984000  0.53372000  0.34832000  1.0
  C  C90  1  0.51983000  0.96628000  0.15168000  1.0
  C  C91  1  0.98017000  0.96628000  0.84832000  1.0
  C  C92  1  0.01984000  0.46628000  0.34832000  1.0
  C  C93  1  0.48017000  0.46628000  0.65168000  1.0
  C  C94  1  0.48017000  0.03372000  0.84832000  1.0
  C  C95  1  0.01983000  0.03372000  0.15168000  1.0
  N  N96  1  0.13913000  0.58613000  0.77827000  1.0
  N  N97  1  0.36087000  0.58613000  0.22173000  1.0
  N  N98  1  0.36086000  0.91387000  0.27827000  1.0
  N  N99  1  0.13914000  0.91387000  0.72173000  1.0
  N  N100  1  0.86087000  0.41387000  0.22173000  1.0
  N  N101  1  0.63913000  0.41387000  0.77827000  1.0
  N  N102  1  0.63914000  0.08613000  0.72173000  1.0
  N  N103  1  0.86086000  0.08613000  0.27827000  1.0
  O  O104  1  0.22762000  0.74271000  0.86639000  1.0
  O  O105  1  0.27238000  0.74272000  0.13361000  1.0
  O  O106  1  0.27238000  0.75729000  0.36639000  1.0
  O  O107  1  0.22762000  0.75729000  0.63361000  1.0
  O  O108  1  0.77238000  0.25728000  0.13361000  1.0
  O  O109  1  0.72762000  0.25729000  0.86639000  1.0
  O  O110  1  0.72762000  0.24271000  0.63361000  1.0
  O  O111  1  0.77238000  0.24271000  0.36639000  1.0
  O  O112  1  0.41701000  0.66180000  0.94914000  1.0
  O  O113  1  0.08300000  0.66181000  0.05086000  1.0
  O  O114  1  0.08299000  0.83820000  0.44914000  1.0
  O  O115  1  0.41701000  0.83820000  0.55086000  1.0
  O  O116  1  0.58299000  0.33820000  0.05086000  1.0
  O  O117  1  0.91701000  0.33820000  0.94914000  1.0
  O  O118  1  0.91701000  0.16180000  0.55086000  1.0
  O  O119  1  0.58299000  0.16180000  0.44914000  1.0
  O  O120  1  0.31620000  0.31379000  0.84010000  1.0
  O  O121  1  0.18380000  0.31379000  0.15990000  1.0
  O  O122  1  0.18380000  0.18621000  0.34010000  1.0
  O  O123  1  0.31620000  0.18621000  0.65990000  1.0
  O  O124  1  0.68380000  0.68621000  0.15990000  1.0
  O  O125  1  0.81620000  0.68621000  0.84010000  1.0
  O  O126  1  0.81620000  0.81379000  0.65990000  1.0
  O  O127  1  0.68380000  0.81379000  0.34010000  1.0
  O  O128  1  0.91936000  0.46904000  0.59953000  1.0
  O  O129  1  0.58064000  0.46904000  0.40047000  1.0
  O  O130  1  0.58064000  0.03096000  0.09953000  1.0
  O  O131  1  0.91936000  0.03096000  0.90047000  1.0
  O  O132  1  0.08064000  0.53096000  0.40047000  1.0
  O  O133  1  0.41936000  0.53096000  0.59953000  1.0
  O  O134  1  0.41937000  0.96904000  0.90047000  1.0
  O  O135  1  0.08064000  0.96904000  0.09953000  1.0
  O  O136  1  0.95149000  0.62397000  0.64003000  1.0
  O  O137  1  0.54851000  0.62397000  0.35997000  1.0
  O  O138  1  0.54852000  0.87602000  0.14003000  1.0
  O  O139  1  0.95149000  0.87603000  0.85997000  1.0
  O  O140  1  0.04852000  0.37603000  0.35997000  1.0
  O  O141  1  0.45149000  0.37602000  0.64003000  1.0
  O  O142  1  0.45149000  0.12397000  0.85997000  1.0
  O  O143  1  0.04851000  0.12398000  0.14003000  1.0
  O  O144  1  0.75000000  0.77160000  0.00000000  1.0
  O  O145  1  0.75000000  0.72840000  0.50000000  1.0
  O  O146  1  0.25000000  0.22840000  0.00000000  1.0
  O  O147  1  0.25000000  0.27160000  0.50000000  1.0
