# generated using pymatgen
data_ZnH26C27NClO4
_symmetry_space_group_name_H-M   'P 1'
_cell_length_a   13.92980000
_cell_length_b   15.30140000
_cell_length_c   16.13970000
_cell_angle_alpha   90.20910000
_cell_angle_beta   89.92360000
_cell_angle_gamma   89.85330000
_symmetry_Int_Tables_number   1
_chemical_formula_structural   ZnH26C27NClO4
_chemical_formula_sum   'Zn2 H52 C54 N2 Cl2 O8'
_cell_volume   3440.06619953
_cell_formula_units_Z   2
loop_
 _symmetry_equiv_pos_site_id
 _symmetry_equiv_pos_as_xyz
  1  'x, y, z'
loop_
 _atom_site_type_symbol
 _atom_site_label
 _atom_site_symmetry_multiplicity
 _atom_site_fract_x
 _atom_site_fract_y
 _atom_site_fract_z
 _atom_site_occupancy
  Zn  Zn0  1  0.59911000  0.50277000  0.49989000  1.0
  Zn  Zn1  1  0.40119000  0.49833000  0.49934000  1.0
  H  H2  1  0.24969000  0.42911000  0.61023000  1.0
  H  H3  1  0.93339000  0.57748000  0.61019000  1.0
  H  H4  1  0.24796000  0.56945000  0.39127000  1.0
  H  H5  1  0.75247000  0.57718000  0.60592000  1.0
  H  H6  1  0.43670000  0.74489000  0.96238000  1.0
  H  H7  1  0.32807000  0.68534000  0.95511000  1.0
  H  H8  1  0.33828000  0.77275000  0.02720000  1.0
  H  H9  1  0.35272000  0.63247000  0.10379000  1.0
  H  H10  1  0.46355000  0.68687000  0.10710000  1.0
  H  H11  1  0.67207000  0.30864000  0.04370000  1.0
  H  H12  1  0.56303000  0.24980000  0.03597000  1.0
  H  H13  1  0.75039000  0.42458000  0.39343000  1.0
  H  H14  1  0.66120000  0.22195000  0.97091000  1.0
  H  H15  1  0.53659000  0.30914000  0.89170000  1.0
  H  H16  1  0.64773000  0.36286000  0.89536000  1.0
  H  H17  1  0.60325000  0.73332000  0.04065000  1.0
  H  H18  1  0.70098000  0.65932000  0.04735000  1.0
  H  H19  1  0.70524000  0.74756000  0.97627000  1.0
  H  H20  1  0.66850000  0.61151000  0.89785000  1.0
  H  H21  1  0.56764000  0.68056000  0.89534000  1.0
  H  H22  1  0.29900000  0.33659000  0.95311000  1.0
  H  H23  1  0.39677000  0.26255000  0.95910000  1.0
  H  H24  1  0.33431000  0.50967000  0.95092000  1.0
  H  H25  1  0.29525000  0.24824000  0.02407000  1.0
  H  H26  1  0.43337000  0.31501000  0.10442000  1.0
  H  H27  1  0.33270000  0.38430000  0.10235000  1.0
  H  H28  1  0.59593000  0.93316000  0.27050000  1.0
  H  H29  1  0.58228000  0.03765000  0.31745000  1.0
  H  H30  1  0.69612000  0.00447000  0.27902000  1.0
  H  H31  1  0.68889000  0.99380000  0.43382000  1.0
  H  H32  1  0.71154000  0.89160000  0.38683000  1.0
  H  H33  1  0.41735000  0.06714000  0.26693000  1.0
  H  H34  1  0.42752000  0.96278000  0.31395000  1.0
  H  H35  1  0.66656000  0.48570000  0.04861000  1.0
  H  H36  1  0.31634000  0.99642000  0.27083000  1.0
  H  H37  1  0.31430000  0.00754000  0.42583000  1.0
  H  H38  1  0.29509000  0.10966000  0.37834000  1.0
  H  H39  1  0.25955000  0.72333000  0.49825000  1.0
  H  H40  1  0.22489000  0.83124000  0.52772000  1.0
  H  H41  1  0.19976000  0.74182000  0.59447000  1.0
  H  H42  1  0.37438000  0.71738000  0.61782000  1.0
  H  H43  1  0.34176000  0.82522000  0.64644000  1.0
  H  H44  1  0.64123000  0.27996000  0.72557000  1.0
  H  H45  1  0.53804000  0.30488000  0.66619000  1.0
  H  H46  1  0.62390000  0.77042000  0.42083000  1.0
  H  H47  1  0.55068000  0.19942000  0.71044000  1.0
  H  H48  1  0.69423000  0.17011000  0.61865000  1.0
  H  H49  1  0.68084000  0.27535000  0.57403000  1.0
  H  H50  1  0.38182000  0.23059000  0.41582000  1.0
  H  H51  1  0.37716000  0.94945000  0.56040000  1.0
  H  H52  1  0.61894000  0.05111000  0.56511000  1.0
  H  H53  1  0.06706000  0.57134000  0.38729000  1.0
  C  C54  1  0.49986000  0.67120000  0.49826000  1.0
  C  C55  1  0.56838000  0.09139000  0.53022000  1.0
  C  C56  1  0.50024000  0.95174000  0.48066000  1.0
  C  C57  1  0.50000000  0.04897000  0.48083000  1.0
  C  C58  1  0.10499000  0.53898000  0.43762000  1.0
  C  C59  1  0.89535000  0.54286000  0.56118000  1.0
  C  C60  1  0.20460000  0.53883000  0.43935000  1.0
  C  C61  1  0.79573000  0.54343000  0.55934000  1.0
  C  C62  1  0.20630000  0.45947000  0.56196000  1.0
  C  C63  1  0.79386000  0.45739000  0.44029000  1.0
  C  C64  1  0.10612000  0.45692000  0.56393000  1.0
  C  C65  1  0.50173000  0.32975000  0.49849000  1.0
  C  C66  1  0.89404000  0.45416000  0.43839000  1.0
  C  C67  1  0.05327000  0.49743000  0.50065000  1.0
  C  C68  1  0.94700000  0.49772000  0.49991000  1.0
  C  C69  1  0.49945000  0.49924000  0.33670000  1.0
  C  C70  1  0.49994000  0.50064000  0.66279000  1.0
  C  C71  1  0.55260000  0.56754000  0.97171000  1.0
  C  C72  1  0.44824000  0.42795000  0.02787000  1.0
  C  C73  1  0.46024000  0.57372000  0.02899000  1.0
  C  C74  1  0.54054000  0.42172000  0.97049000  1.0
  C  C75  1  0.50051000  0.49818000  0.24745000  1.0
  C  C76  1  0.56866000  0.81115000  0.44975000  1.0
  C  C77  1  0.49948000  0.49972000  0.75204000  1.0
  C  C78  1  0.59261000  0.49108000  0.02601000  1.0
  C  C79  1  0.40825000  0.50435000  0.97352000  1.0
  C  C80  1  0.50268000  0.49710000  0.08449000  1.0
  C  C81  1  0.49814000  0.49849000  0.91503000  1.0
  C  C82  1  0.50254000  0.49732000  0.17193000  1.0
  C  C83  1  0.49805000  0.49897000  0.82759000  1.0
  C  C84  1  0.57312000  0.90189000  0.44173000  1.0
  C  C85  1  0.43000000  0.09894000  0.43902000  1.0
  C  C86  1  0.41323000  0.65393000  0.06465000  1.0
  C  C87  1  0.43485000  0.18984000  0.44721000  1.0
  C  C88  1  0.37716000  0.71775000  0.99873000  1.0
  C  C89  1  0.58709000  0.34149000  0.93441000  1.0
  C  C90  1  0.62274000  0.27692000  0.99983000  1.0
  C  C91  1  0.61203000  0.64071000  0.93730000  1.0
  C  C92  1  0.65783000  0.69840000  0.00406000  1.0
  C  C93  1  0.38882000  0.35494000  0.06261000  1.0
  C  C94  1  0.34248000  0.29739000  0.99607000  1.0
  C  C95  1  0.65625000  0.94238000  0.39526000  1.0
  C  C96  1  0.63099000  0.98162000  0.31072000  1.0
  C  C97  1  0.34951000  0.05868000  0.38893000  1.0
  C  C98  1  0.49655000  0.76888000  0.49508000  1.0
  C  C99  1  0.37960000  0.01903000  0.30541000  1.0
  C  C100  1  0.35026000  0.78048000  0.59326000  1.0
  C  C101  1  0.25268000  0.76858000  0.55083000  1.0
  C  C102  1  0.64156000  0.22077000  0.60193000  1.0
  C  C103  1  0.58997000  0.25304000  0.68057000  1.0
  C  C104  1  0.50444000  0.23193000  0.49549000  1.0
  C  C105  1  0.42583000  0.81846000  0.53662000  1.0
  C  C106  1  0.57246000  0.18210000  0.53979000  1.0
  C  C107  1  0.42963000  0.90923000  0.52721000  1.0
  N  N108  1  0.25346000  0.49955000  0.50067000  1.0
  N  N109  1  0.74679000  0.50123000  0.49970000  1.0
  Cl  Cl110  1  0.05074000  0.40169000  0.64353000  1.0
  Cl  Cl111  1  0.94929000  0.39445000  0.36111000  1.0
  O  O112  1  0.58253000  0.63523000  0.49685000  1.0
  O  O113  1  0.41920000  0.36593000  0.49630000  1.0
  O  O114  1  0.42000000  0.63072000  0.50073000  1.0
  O  O115  1  0.58164000  0.37007000  0.50160000  1.0
  O  O116  1  0.58096000  0.49750000  0.37259000  1.0
  O  O117  1  0.41848000  0.49501000  0.62706000  1.0
  O  O118  1  0.41728000  0.50190000  0.37162000  1.0
  O  O119  1  0.58159000  0.50689000  0.62748000  1.0
