# generated using pymatgen
data_Al2H25C32NO13
_symmetry_space_group_name_H-M   'P 1'
_cell_length_a   6.66326000
_cell_length_b   18.72490000
_cell_length_c   22.30770000
_cell_angle_alpha   80.67850000
_cell_angle_beta   89.99800000
_cell_angle_gamma   89.99890000
_symmetry_Int_Tables_number   1
_chemical_formula_structural   Al2H25C32NO13
_chemical_formula_sum   'Al4 H50 C64 N2 O26'
_cell_volume   2746.55313075
_cell_formula_units_Z   2
loop_
 _symmetry_equiv_pos_site_id
 _symmetry_equiv_pos_as_xyz
  1  'x, y, z'
loop_
 _atom_site_type_symbol
 _atom_site_label
 _atom_site_symmetry_multiplicity
 _atom_site_fract_x
 _atom_site_fract_y
 _atom_site_fract_z
 _atom_site_occupancy
  Al  Al0  1  0.86444000  0.49799000  0.50150000  1.0
  Al  Al1  1  0.36443000  0.50205000  0.49851000  1.0
  Al  Al2  1  0.35559000  0.00067000  0.99758000  1.0
  Al  Al3  1  0.85555000  0.99934000  0.00242000  1.0
  H  H4  1  0.95557000  0.23961000  0.95461000  1.0
  H  H5  1  0.45505000  0.76047000  0.04541000  1.0
  H  H6  1  0.94022000  0.42357000  0.77991000  1.0
  H  H7  1  0.43990000  0.57649000  0.22009000  1.0
  H  H8  1  0.91630000  0.35501000  0.88202000  1.0
  H  H9  1  0.41585000  0.64504000  0.11799000  1.0
  H  H10  1  0.20332000  0.13725000  0.81247000  1.0
  H  H11  1  0.70345000  0.86274000  0.18750000  1.0
  H  H12  1  0.23972000  0.26278000  0.54443000  1.0
  H  H13  1  0.74023000  0.73720000  0.45552000  1.0
  H  H14  1  0.22868000  0.13838000  0.72401000  1.0
  H  H15  1  0.72854000  0.86164000  0.27596000  1.0
  H  H16  1  0.28878000  0.14572000  0.61460000  1.0
  H  H17  1  0.78888000  0.85430000  0.38536000  1.0
  H  H18  1  0.00434000  0.42926000  0.67077000  1.0
  H  H19  1  0.50430000  0.57077000  0.32920000  1.0
  H  H20  1  0.11709000  0.68201000  0.85757000  1.0
  H  H21  1  0.61726000  0.31798000  0.14244000  1.0
  H  H22  1  0.81309000  0.82008000  0.75414000  1.0
  H  H23  1  0.31300000  0.17994000  0.24581000  1.0
  H  H24  1  0.78697000  0.75092000  0.81782000  1.0
  H  H25  1  0.28708000  0.24912000  0.18212000  1.0
  H  H26  1  0.83793000  0.65919000  0.76195000  1.0
  H  H27  1  0.33780000  0.34082000  0.23803000  1.0
  H  H28  1  0.36066000  0.83759000  0.75279000  1.0
  H  H29  1  0.86055000  0.16239000  0.24730000  1.0
  H  H30  1  0.13068000  0.87493000  0.72313000  1.0
  H  H31  1  0.63049000  0.12509000  0.27692000  1.0
  H  H32  1  0.36819000  0.75934000  0.68175000  1.0
  H  H33  1  0.86800000  0.24069000  0.31831000  1.0
  H  H34  1  0.35289000  0.72366000  0.83795000  1.0
  H  H35  1  0.85303000  0.27632000  0.16210000  1.0
  H  H36  1  0.38205000  0.66337000  0.75367000  1.0
  H  H37  1  0.88203000  0.33661000  0.24638000  1.0
  H  H38  1  0.15159000  0.80077000  0.64766000  1.0
  H  H39  1  0.65132000  0.19927000  0.35238000  1.0
  H  H40  1  0.87887000  0.80904000  0.63789000  1.0
  H  H41  1  0.63051000  0.82651000  0.65970000  1.0
  H  H42  1  0.50460000  0.73839000  0.59155000  1.0
  H  H43  1  0.63933000  0.81278000  0.55021000  1.0
  H  H44  1  0.75606000  0.72591000  0.56960000  1.0
  H  H45  1  0.37865000  0.19090000  0.36204000  1.0
  H  H46  1  0.13020000  0.17352000  0.34027000  1.0
  H  H47  1  0.00464000  0.26162000  0.40845000  1.0
  H  H48  1  0.13927000  0.18721000  0.44977000  1.0
  H  H49  1  0.25613000  0.27407000  0.43038000  1.0
  H  H50  1  0.60650000  0.46489000  0.57764000  1.0
  H  H51  1  0.10664000  0.53492000  0.42230000  1.0
  H  H52  1  0.61486000  0.04601000  0.92622000  1.0
  H  H53  1  0.11487000  0.95408000  0.07382000  1.0
  C  C54  1  0.61483000  0.42123000  0.42373000  1.0
  C  C55  1  0.11527000  0.57877000  0.57628000  1.0
  C  C56  1  0.61943000  0.61155000  0.42816000  1.0
  C  C57  1  0.11896000  0.38848000  0.57187000  1.0
  C  C58  1  0.97611000  0.30681000  0.86668000  1.0
  C  C59  1  0.47568000  0.69325000  0.13332000  1.0
  C  C60  1  0.08506000  0.18254000  0.88684000  1.0
  C  C61  1  0.58484000  0.81748000  0.11315000  1.0
  C  C62  1  0.20752000  0.25878000  0.59279000  1.0
  C  C63  1  0.70789000  0.74123000  0.40717000  1.0
  C  C64  1  0.23684000  0.19339000  0.63243000  1.0
  C  C65  1  0.73695000  0.80663000  0.36753000  1.0
  C  C66  1  0.20275000  0.18957000  0.69410000  1.0
  C  C67  1  0.70277000  0.81045000  0.30588000  1.0
  C  C68  1  0.13556000  0.25039000  0.71862000  1.0
  C  C69  1  0.63555000  0.74964000  0.28137000  1.0
  C  C70  1  0.09841000  0.31646000  0.67813000  1.0
  C  C71  1  0.59844000  0.68355000  0.32186000  1.0
  C  C72  1  0.10082000  0.24787000  0.78323000  1.0
  C  C73  1  0.60071000  0.75217000  0.21676000  1.0
  C  C74  1  0.02354000  0.31044000  0.80441000  1.0
  C  C75  1  0.52328000  0.68961000  0.19559000  1.0
  C  C76  1  0.99271000  0.37575000  0.76237000  1.0
  C  C77  1  0.49247000  0.62429000  0.23762000  1.0
  C  C78  1  0.02929000  0.37880000  0.70185000  1.0
  C  C79  1  0.52925000  0.62121000  0.29813000  1.0
  C  C80  1  0.13788000  0.18532000  0.82640000  1.0
  C  C81  1  0.63782000  0.81469000  0.17359000  1.0
  C  C82  1  0.99986000  0.24336000  0.90715000  1.0
  C  C83  1  0.49940000  0.75669000  0.09286000  1.0
  C  C84  1  0.13762000  0.31898000  0.61524000  1.0
  C  C85  1  0.63784000  0.68102000  0.38475000  1.0
  C  C86  1  0.20440000  0.71252000  0.82022000  1.0
  C  C87  1  0.70450000  0.28746000  0.17981000  1.0
  C  C88  1  0.87915000  0.76924000  0.77742000  1.0
  C  C89  1  0.37914000  0.23078000  0.22255000  1.0
  C  C90  1  0.87969000  0.71160000  0.73529000  1.0
  C  C91  1  0.37958000  0.28843000  0.26469000  1.0
  C  C92  1  0.11236000  0.62408000  0.62285000  1.0
  C  C93  1  0.61215000  0.37594000  0.37715000  1.0
  C  C94  1  0.09608000  0.78504000  0.79671000  1.0
  C  C95  1  0.59611000  0.21497000  0.20330000  1.0
  C  C96  1  0.22675000  0.66717000  0.76904000  1.0
  C  C97  1  0.72676000  0.33281000  0.23099000  1.0
  C  C98  1  0.09976000  0.70181000  0.71250000  1.0
  C  C99  1  0.59963000  0.29822000  0.28750000  1.0
  C  C100  1  0.21358000  0.77417000  0.69102000  1.0
  C  C101  1  0.71340000  0.22585000  0.30902000  1.0
  C  C102  1  0.20816000  0.82375000  0.73978000  1.0
  C  C103  1  0.70803000  0.17626000  0.26025000  1.0
  C  C104  1  0.10526000  0.65845000  0.66447000  1.0
  C  C105  1  0.60503000  0.34158000  0.33552000  1.0
  C  C106  1  0.09558000  0.83083000  0.84328000  1.0
  C  C107  1  0.59571000  0.16917000  0.15674000  1.0
  C  C108  1  0.09776000  0.87072000  0.88111000  1.0
  C  C109  1  0.59788000  0.12930000  0.11891000  1.0
  C  C110  1  0.60141000  0.88702000  0.07008000  1.0
  C  C111  1  0.10168000  0.11300000  0.92992000  1.0
  C  C112  1  0.60172000  0.07964000  0.07561000  1.0
  C  C113  1  0.10154000  0.92038000  0.92440000  1.0
  C  C114  1  0.72830000  0.78525000  0.64434000  1.0
  C  C115  1  0.65242000  0.76451000  0.58535000  1.0
  C  C116  1  0.22814000  0.21474000  0.35563000  1.0
  C  C117  1  0.15241000  0.23548000  0.41464000  1.0
  N  N118  1  0.16735000  0.58821000  0.78956000  1.0
  N  N119  1  0.66740000  0.41179000  0.21044000  1.0
  O  O120  1  0.44569000  0.58638000  0.44277000  1.0
  O  O121  1  0.94516000  0.41324000  0.55684000  1.0
  O  O122  1  0.78622000  0.43687000  0.44305000  1.0
  O  O123  1  0.28666000  0.56374000  0.55658000  1.0
  O  O124  1  0.78519000  0.58299000  0.44730000  1.0
  O  O125  1  0.28469000  0.41746000  0.55314000  1.0
  O  O126  1  0.94457000  0.55738000  0.56068000  1.0
  O  O127  1  0.44392000  0.44203000  0.43971000  1.0
  O  O128  1  0.61267000  0.49123000  0.53652000  1.0
  O  O129  1  0.11267000  0.50880000  0.46349000  1.0
  O  O130  1  0.77470000  0.05887000  0.06141000  1.0
  O  O131  1  0.27442000  0.94136000  0.93846000  1.0
  O  O132  1  0.43539000  0.91374000  0.04906000  1.0
  O  O133  1  0.93559000  0.08617000  0.95080000  1.0
  O  O134  1  0.43211000  0.06087000  0.05705000  1.0
  O  O135  1  0.93193000  0.93891000  0.94313000  1.0
  O  O136  1  0.27418000  0.08522000  0.94214000  1.0
  O  O137  1  0.77385000  0.91493000  0.05800000  1.0
  O  O138  1  0.60841000  0.01066000  0.96311000  1.0
  O  O139  1  0.10839000  0.98937000  0.03689000  1.0
  O  O140  1  0.72945000  0.72081000  0.68931000  1.0
  O  O141  1  0.22932000  0.27920000  0.31066000  1.0
  O  O142  1  0.02328000  0.57470000  0.82489000  1.0
  O  O143  1  0.26535000  0.54269000  0.76781000  1.0
  O  O144  1  0.52333000  0.42529000  0.17512000  1.0
  O  O145  1  0.76547000  0.45731000  0.23218000  1.0
