# generated using pymatgen
data_ZnH20C28(NO5)2
_symmetry_space_group_name_H-M   'P 1'
_cell_length_a   8.05947000
_cell_length_b   12.11730000
_cell_length_c   13.47010000
_cell_angle_alpha   63.33300000
_cell_angle_beta   83.66110000
_cell_angle_gamma   89.87160000
_symmetry_Int_Tables_number   1
_chemical_formula_structural   ZnH20C28(NO5)2
_chemical_formula_sum   'Zn2 H40 C56 N4 O20'
_cell_volume   1166.70364737
_cell_formula_units_Z   2
loop_
 _symmetry_equiv_pos_site_id
 _symmetry_equiv_pos_as_xyz
  1  'x, y, z'
loop_
 _atom_site_type_symbol
 _atom_site_label
 _atom_site_symmetry_multiplicity
 _atom_site_fract_x
 _atom_site_fract_y
 _atom_site_fract_z
 _atom_site_occupancy
  Zn  Zn0  1  0.99990000  0.00002000  0.99998000  1.0
  Zn  Zn1  1  0.49993000  0.99998000  0.00002000  1.0
  H  H2  1  0.10504000  0.34011000  0.01219000  1.0
  H  H3  1  0.39527000  0.35181000  0.98769000  1.0
  H  H4  1  0.89496000  0.65990000  0.98780000  1.0
  H  H5  1  0.60474000  0.64818000  0.01232000  1.0
  H  H6  1  0.22381000  0.72891000  0.80760000  1.0
  H  H7  1  0.27674000  0.53679000  0.19234000  1.0
  H  H8  1  0.77620000  0.27110000  0.19240000  1.0
  H  H9  1  0.72334000  0.46326000  0.80762000  1.0
  H  H10  1  0.12541000  0.70949000  0.64543000  1.0
  H  H11  1  0.37471000  0.35507000  0.35460000  1.0
  H  H12  1  0.87469000  0.29053000  0.35454000  1.0
  H  H13  1  0.62536000  0.64498000  0.64538000  1.0
  H  H14  1  0.15388000  0.14229000  0.10366000  1.0
  H  H15  1  0.34508000  0.24603000  0.89596000  1.0
  H  H16  1  0.84604000  0.85767000  0.89630000  1.0
  H  H17  1  0.65480000  0.75397000  0.10405000  1.0
  H  H18  1  0.11481000  0.15773000  0.28294000  1.0
  H  H19  1  0.38404000  0.44047000  0.71696000  1.0
  H  H20  1  0.88521000  0.84224000  0.71703000  1.0
  H  H21  1  0.61601000  0.55953000  0.28307000  1.0
  H  H22  1  0.77488000  0.83503000  0.41594000  1.0
  H  H23  1  0.72678000  0.25093000  0.58409000  1.0
  H  H24  1  0.22509000  0.16496000  0.58406000  1.0
  H  H25  1  0.27325000  0.74899000  0.41602000  1.0
  H  H26  1  0.82150000  0.83884000  0.22792000  1.0
  H  H27  1  0.68061000  0.06712000  0.77193000  1.0
  H  H28  1  0.17839000  0.16115000  0.77207000  1.0
  H  H29  1  0.31926000  0.93281000  0.22816000  1.0
  H  H30  1  0.84756000  0.07916000  0.47069000  1.0
  H  H31  1  0.65286000  0.54910000  0.52930000  1.0
  H  H32  1  0.15249000  0.92083000  0.52928000  1.0
  H  H33  1  0.34724000  0.45086000  0.47077000  1.0
  H  H34  1  0.83917000  0.91636000  0.53774000  1.0
  H  H35  1  0.66057000  0.45336000  0.46208000  1.0
  H  H36  1  0.16085000  0.08365000  0.46224000  1.0
  H  H37  1  0.33954000  0.54662000  0.53798000  1.0
  H  H38  1  0.98174000  0.60079000  0.48117000  1.0
  H  H39  1  0.51781000  0.08199000  0.51888000  1.0
  H  H40  1  0.01829000  0.39921000  0.51881000  1.0
  H  H41  1  0.48220000  0.91806000  0.48112000  1.0
  C  C42  1  0.06308000  0.51397000  0.73713000  1.0
  C  C43  1  0.43706000  0.25090000  0.26284000  1.0
  C  C44  1  0.93700000  0.48604000  0.26285000  1.0
  C  C45  1  0.56297000  0.74912000  0.73716000  1.0
  C  C46  1  0.05435000  0.40960000  0.84287000  1.0
  C  C47  1  0.44573000  0.25205000  0.15709000  1.0
  C  C48  1  0.94570000  0.59042000  0.15711000  1.0
  C  C49  1  0.55426000  0.74795000  0.84291000  1.0
  C  C50  1  0.11493000  0.42070000  0.93093000  1.0
  C  C51  1  0.38540000  0.35126000  0.06897000  1.0
  C  C52  1  0.88510000  0.57931000  0.06905000  1.0
  C  C53  1  0.61462000  0.64874000  0.93102000  1.0
  C  C54  1  0.18430000  0.53339000  0.91594000  1.0
  C  C55  1  0.31621000  0.44924000  0.08399000  1.0
  C  C56  1  0.81574000  0.46662000  0.08405000  1.0
  C  C57  1  0.68382000  0.55078000  0.91599000  1.0
  C  C58  1  0.18013000  0.64009000  0.81485000  1.0
  C  C59  1  0.32040000  0.45505000  0.18509000  1.0
  C  C60  1  0.81992000  0.35992000  0.18514000  1.0
  C  C61  1  0.67968000  0.54498000  0.81489000  1.0
  C  C62  1  0.12179000  0.62859000  0.72650000  1.0
  C  C63  1  0.37847000  0.35509000  0.27350000  1.0
  C  C64  1  0.87829000  0.37142000  0.27348000  1.0
  C  C65  1  0.62160000  0.64495000  0.72646000  1.0
  C  C66  1  0.97254000  0.28305000  0.87419000  1.0
  C  C67  1  0.52707000  0.15653000  0.12561000  1.0
  C  C68  1  0.02746000  0.71701000  0.12574000  1.0
  C  C69  1  0.47286000  0.84346000  0.87441000  1.0
  C  C70  1  0.02471000  0.50487000  0.63624000  1.0
  C  C71  1  0.47545000  0.14097000  0.36365000  1.0
  C  C72  1  0.97537000  0.49514000  0.36373000  1.0
  C  C73  1  0.52456000  0.85907000  0.63635000  1.0
  C  C74  1  0.06798000  0.07866000  0.17449000  1.0
  C  C75  1  0.43165000  0.25317000  0.82526000  1.0
  C  C76  1  0.93196000  0.92133000  0.82547000  1.0
  C  C77  1  0.56825000  0.74680000  0.17478000  1.0
  C  C78  1  0.04699000  0.08459000  0.27563000  1.0
  C  C79  1  0.45246000  0.36010000  0.72421000  1.0
  C  C80  1  0.95302000  0.91539000  0.72433000  1.0
  C  C81  1  0.54753000  0.63988000  0.27584000  1.0
  C  C82  1  0.94141000  0.99624000  0.36605000  1.0
  C  C83  1  0.55876000  0.36211000  0.63388000  1.0
  C  C84  1  0.05862000  0.00375000  0.63393000  1.0
  C  C85  1  0.44128000  0.63784000  0.36619000  1.0
  C  C86  1  0.85992000  0.90561000  0.34898000  1.0
  C  C87  1  0.64128000  0.25461000  0.65101000  1.0
  C  C88  1  0.14006000  0.09439000  0.65101000  1.0
  C  C89  1  0.35869000  0.74534000  0.34908000  1.0
  C  C90  1  0.88490000  0.90651000  0.24485000  1.0
  C  C91  1  0.61653000  0.15158000  0.75509000  1.0
  C  C92  1  0.11499000  0.09347000  0.75515000  1.0
  C  C93  1  0.38338000  0.84834000  0.24501000  1.0
  C  C94  1  0.91714000  0.99811000  0.47747000  1.0
  C  C95  1  0.58290000  0.47522000  0.52246000  1.0
  C  C96  1  0.08290000  0.00188000  0.52250000  1.0
  C  C97  1  0.41720000  0.52476000  0.47759000  1.0
  N  N98  1  0.98837000  0.99100000  0.15994000  1.0
  N  N99  1  0.51227000  0.15114000  0.83989000  1.0
  N  N100  1  0.01152000  0.00900000  0.84003000  1.0
  N  N101  1  0.48758000  0.84883000  0.16017000  1.0
  O  O102  1  0.06411000  0.19390000  0.92574000  1.0
  O  O103  1  0.43475000  0.11885000  0.07463000  1.0
  O  O104  1  0.93583000  0.80611000  0.07422000  1.0
  O  O105  1  0.56512000  0.88113000  0.92541000  1.0
  O  O106  1  0.25015000  0.96807000  0.99898000  1.0
  O  O107  1  0.74969000  0.03188000  0.00109000  1.0
  O  O108  1  0.82607000  0.27909000  0.85329000  1.0
  O  O109  1  0.67403000  0.13179000  0.14556000  1.0
  O  O110  1  0.17399000  0.72102000  0.14656000  1.0
  O  O111  1  0.32590000  0.86819000  0.85444000  1.0
  O  O112  1  0.03289000  0.40587000  0.62879000  1.0
  O  O113  1  0.46794000  0.03468000  0.37087000  1.0
  O  O114  1  0.96724000  0.59415000  0.37116000  1.0
  O  O115  1  0.53203000  0.96535000  0.62915000  1.0
  O  O116  1  0.98944000  0.61120000  0.55287000  1.0
  O  O117  1  0.51009000  0.16393000  0.44720000  1.0
  O  O118  1  0.01057000  0.38880000  0.44712000  1.0
  O  O119  1  0.48994000  0.83611000  0.55279000  1.0
  O  O120  1  0.25037000  0.54740000  0.99995000  1.0
  O  O121  1  0.74967000  0.45262000  0.00003000  1.0
