# generated using pymatgen
data_Ag2H10C4S3O5
_symmetry_space_group_name_H-M   'P 1'
_cell_length_a   6.87764000
_cell_length_b   9.59024000
_cell_length_c   14.70400000
_cell_angle_alpha   89.99880000
_cell_angle_beta   90.00010000
_cell_angle_gamma   89.99990000
_symmetry_Int_Tables_number   1
_chemical_formula_structural   Ag2H10C4S3O5
_chemical_formula_sum   'Ag8 H40 C16 S12 O20'
_cell_volume   969.84964069
_cell_formula_units_Z   4
loop_
 _symmetry_equiv_pos_site_id
 _symmetry_equiv_pos_as_xyz
  1  'x, y, z'
loop_
 _atom_site_type_symbol
 _atom_site_label
 _atom_site_symmetry_multiplicity
 _atom_site_fract_x
 _atom_site_fract_y
 _atom_site_fract_z
 _atom_site_occupancy
  Ag  Ag0  1  0.13645000  0.75124000  0.62202000  1.0
  Ag  Ag1  1  0.36354000  0.25125000  0.62201000  1.0
  Ag  Ag2  1  0.13647000  0.75123000  0.87799000  1.0
  Ag  Ag3  1  0.63647000  0.74876000  0.12201000  1.0
  Ag  Ag4  1  0.86354000  0.24875000  0.37798000  1.0
  Ag  Ag5  1  0.63647000  0.74876000  0.37799000  1.0
  Ag  Ag6  1  0.86356000  0.24878000  0.12201000  1.0
  Ag  Ag7  1  0.36354000  0.25122000  0.87799000  1.0
  H  H8  1  0.68730000  0.56592000  0.59109000  1.0
  H  H9  1  0.81269000  0.06592000  0.59109000  1.0
  H  H10  1  0.68732000  0.56592000  0.90891000  1.0
  H  H11  1  0.18731000  0.93408000  0.09109000  1.0
  H  H12  1  0.31268000  0.43408000  0.40890000  1.0
  H  H13  1  0.18731000  0.93407000  0.40891000  1.0
  H  H14  1  0.31269000  0.43407000  0.09108000  1.0
  H  H15  1  0.81269000  0.06592000  0.90891000  1.0
  H  H16  1  0.70216000  0.47692000  0.48420000  1.0
  H  H17  1  0.79782000  0.97692000  0.48420000  1.0
  H  H18  1  0.70217000  0.47692000  0.01579000  1.0
  H  H19  1  0.20217000  0.02308000  0.98420000  1.0
  H  H20  1  0.29783000  0.52308000  0.51580000  1.0
  H  H21  1  0.20216000  0.02307000  0.51580000  1.0
  H  H22  1  0.29782000  0.52308000  0.98420000  1.0
  H  H23  1  0.79783000  0.97692000  0.01580000  1.0
  H  H24  1  0.00662000  0.46024000  0.63993000  1.0
  H  H25  1  0.49337000  0.96024000  0.63993000  1.0
  H  H26  1  0.00662000  0.46024000  0.86008000  1.0
  H  H27  1  0.50663000  0.03975000  0.13992000  1.0
  H  H28  1  0.99337000  0.53976000  0.36007000  1.0
  H  H29  1  0.50661000  0.03975000  0.36007000  1.0
  H  H30  1  0.99338000  0.53975000  0.13992000  1.0
  H  H31  1  0.49337000  0.96025000  0.86008000  1.0
  H  H32  1  0.82913000  0.33130000  0.61455000  1.0
  H  H33  1  0.67086000  0.83130000  0.61455000  1.0
  H  H34  1  0.82914000  0.33130000  0.88545000  1.0
  H  H35  1  0.32914000  0.16870000  0.11455000  1.0
  H  H36  1  0.17086000  0.66870000  0.38545000  1.0
  H  H37  1  0.32912000  0.16869000  0.38545000  1.0
  H  H38  1  0.17086000  0.66869000  0.11455000  1.0
  H  H39  1  0.67086000  0.83130000  0.88546000  1.0
  H  H40  1  0.78893000  0.67609000  0.75001000  1.0
  H  H41  1  0.71104000  0.17609000  0.75001000  1.0
  H  H42  1  0.28896000  0.82391000  0.24999000  1.0
  H  H43  1  0.21106000  0.32393000  0.24999000  1.0
  H  H44  1  0.84330000  0.84266000  0.75000000  1.0
  H  H45  1  0.65672000  0.34265000  0.75000000  1.0
  H  H46  1  0.34329000  0.65735000  0.25000000  1.0
  H  H47  1  0.15672000  0.15736000  0.25000000  1.0
  C  C48  1  0.78692000  0.52220000  0.54015000  1.0
  C  C49  1  0.71307000  0.02222000  0.54015000  1.0
  C  C50  1  0.78693000  0.52221000  0.95984000  1.0
  C  C51  1  0.28693000  0.97779000  0.04015000  1.0
  C  C52  1  0.21307000  0.47778000  0.45985000  1.0
  C  C53  1  0.28692000  0.97778000  0.45985000  1.0
  C  C54  1  0.21307000  0.47779000  0.04015000  1.0
  C  C55  1  0.71308000  0.02222000  0.95985000  1.0
  C  C56  1  0.91710000  0.41573000  0.58529000  1.0
  C  C57  1  0.58290000  0.91574000  0.58529000  1.0
  C  C58  1  0.91708000  0.41575000  0.91470000  1.0
  C  C59  1  0.41710000  0.08427000  0.08529000  1.0
  C  C60  1  0.08290000  0.58426000  0.41471000  1.0
  C  C61  1  0.41708000  0.08425000  0.41470000  1.0
  C  C62  1  0.08290000  0.58426000  0.08529000  1.0
  C  C63  1  0.58290000  0.91574000  0.91471000  1.0
  S  S64  1  0.42610000  0.56371000  0.75001000  1.0
  S  S65  1  0.07391000  0.06372000  0.75001000  1.0
  S  S66  1  0.92609000  0.93629000  0.24999000  1.0
  S  S67  1  0.57391000  0.43630000  0.24999000  1.0
  S  S68  1  0.91927000  0.67004000  0.49399000  1.0
  S  S69  1  0.58073000  0.17002000  0.49399000  1.0
  S  S70  1  0.91928000  0.67004000  0.00601000  1.0
  S  S71  1  0.41929000  0.82997000  0.99400000  1.0
  S  S72  1  0.08072000  0.32997000  0.50601000  1.0
  S  S73  1  0.41927000  0.82996000  0.50601000  1.0
  S  S74  1  0.08073000  0.32996000  0.99399000  1.0
  S  S75  1  0.58072000  0.17003000  0.00601000  1.0
  O  O76  1  0.38937000  0.71757000  0.75002000  1.0
  O  O77  1  0.11059000  0.21758000  0.75000000  1.0
  O  O78  1  0.88941000  0.78243000  0.24999000  1.0
  O  O79  1  0.61064000  0.28244000  0.25000000  1.0
  O  O80  1  0.34010000  0.50116000  0.66631000  1.0
  O  O81  1  0.15990000  0.00116000  0.66631000  1.0
  O  O82  1  0.34009000  0.50113000  0.83371000  1.0
  O  O83  1  0.84011000  0.99885000  0.16629000  1.0
  O  O84  1  0.65992000  0.49886000  0.33369000  1.0
  O  O85  1  0.84010000  0.99885000  0.33369000  1.0
  O  O86  1  0.65991000  0.49885000  0.16628000  1.0
  O  O87  1  0.15990000  0.00118000  0.83371000  1.0
  O  O88  1  0.64273000  0.53720000  0.75001000  1.0
  O  O89  1  0.85726000  0.03719000  0.75001000  1.0
  O  O90  1  0.14274000  0.96281000  0.24999000  1.0
  O  O91  1  0.35728000  0.46281000  0.24999000  1.0
  O  O92  1  0.89659000  0.74676000  0.74999000  1.0
  O  O93  1  0.60341000  0.24675000  0.74999000  1.0
  O  O94  1  0.39660000  0.75326000  0.25001000  1.0
  O  O95  1  0.10341000  0.25325000  0.25001000  1.0
