# generated using pymatgen
data_UH4(C4O3)2
_symmetry_space_group_name_H-M   'P 1'
_cell_length_a   5.32581000
_cell_length_b   5.32582000
_cell_length_c   16.60990000
_cell_angle_alpha   92.74970000
_cell_angle_beta   92.75000000
_cell_angle_gamma   106.48100000
_symmetry_Int_Tables_number   1
_chemical_formula_structural   UH4(C4O3)2
_chemical_formula_sum   'U2 H8 C16 O12'
_cell_volume   450.31744829
_cell_formula_units_Z   2
loop_
 _symmetry_equiv_pos_site_id
 _symmetry_equiv_pos_as_xyz
  1  'x, y, z'
loop_
 _atom_site_type_symbol
 _atom_site_label
 _atom_site_symmetry_multiplicity
 _atom_site_fract_x
 _atom_site_fract_y
 _atom_site_fract_z
 _atom_site_occupancy
  U  U0  1  0.99999000  0.00000000  1.00000000  1.0
  U  U1  1  0.00001000  0.00000000  0.50000000  1.0
  H  H2  1  0.20501000  0.79499000  0.25000000  1.0
  H  H3  1  0.79499000  0.20501000  0.75000000  1.0
  H  H4  1  0.78861000  0.21140000  0.25000000  1.0
  H  H5  1  0.21139000  0.78860000  0.75000000  1.0
  H  H6  1  0.75081000  0.46402000  0.13067000  1.0
  H  H7  1  0.53598000  0.24918000  0.36933000  1.0
  H  H8  1  0.24918000  0.53598000  0.86933000  1.0
  H  H9  1  0.46403000  0.75082000  0.63067000  1.0
  C  C10  1  0.44620000  0.78370000  0.10910000  1.0
  C  C11  1  0.21630000  0.55379000  0.39090000  1.0
  C  C12  1  0.55378000  0.21629000  0.89090000  1.0
  C  C13  1  0.78372000  0.44622000  0.60911000  1.0
  C  C14  1  0.33246000  0.66753000  0.25000000  1.0
  C  C15  1  0.66753000  0.33247000  0.75000000  1.0
  C  C16  1  0.47347000  0.64312000  0.18255000  1.0
  C  C17  1  0.35687000  0.52652000  0.31745000  1.0
  C  C18  1  0.52652000  0.35687000  0.81745000  1.0
  C  C19  1  0.64313000  0.47348000  0.68255000  1.0
  C  C20  1  0.66094000  0.33904000  0.25000000  1.0
  C  C21  1  0.33905000  0.66095000  0.75000000  1.0
  C  C22  1  0.64050000  0.48128000  0.18310000  1.0
  C  C23  1  0.51871000  0.35949000  0.31689000  1.0
  C  C24  1  0.35949000  0.51871000  0.81689000  1.0
  C  C25  1  0.48129000  0.64051000  0.68310000  1.0
  O  O26  1  0.01985000  0.29262000  0.06253000  1.0
  O  O27  1  0.70742000  0.98014000  0.43747000  1.0
  O  O28  1  0.98013000  0.70739000  0.93747000  1.0
  O  O29  1  0.29264000  0.01987000  0.56254000  1.0
  O  O30  1  0.25623000  0.88362000  0.10089000  1.0
  O  O31  1  0.11639000  0.74376000  0.39911000  1.0
  O  O32  1  0.74374000  0.11637000  0.89911000  1.0
  O  O33  1  0.88363000  0.25625000  0.60089000  1.0
  O  O34  1  0.61583000  0.79869000  0.05609000  1.0
  O  O35  1  0.20133000  0.38417000  0.44391000  1.0
  O  O36  1  0.38416000  0.20131000  0.94391000  1.0
  O  O37  1  0.79870000  0.61584000  0.55609000  1.0
