# generated using pymatgen
data_NiH28C18(NO)4
_symmetry_space_group_name_H-M   'P 1'
_cell_length_a   8.85162000
_cell_length_b   11.39710000
_cell_length_c   11.43490000
_cell_angle_alpha   88.83070000
_cell_angle_beta   67.79550000
_cell_angle_gamma   68.43400000
_symmetry_Int_Tables_number   1
_chemical_formula_structural   NiH28C18(NO)4
_chemical_formula_sum   'Ni2 H56 C36 N8 O8'
_cell_volume   983.81546265
_cell_formula_units_Z   2
loop_
 _symmetry_equiv_pos_site_id
 _symmetry_equiv_pos_as_xyz
  1  'x, y, z'
loop_
 _atom_site_type_symbol
 _atom_site_label
 _atom_site_symmetry_multiplicity
 _atom_site_fract_x
 _atom_site_fract_y
 _atom_site_fract_z
 _atom_site_occupancy
  Ni  Ni0  1  0.00000000  0.50000000  0.00000000  1.0
  Ni  Ni1  1  0.50000000  1.00000000  0.50000000  1.0
  H  H2  1  0.01473000  0.42555000  0.79221000  1.0
  H  H3  1  0.51454000  0.79221000  0.42361000  1.0
  H  H4  1  0.98527000  0.57445000  0.20780000  1.0
  H  H5  1  0.48546000  0.20780000  0.57639000  1.0
  H  H6  1  0.76358000  0.58872000  0.76785000  1.0
  H  H7  1  0.26050000  0.76665000  0.58499000  1.0
  H  H8  1  0.23641000  0.41129000  0.23216000  1.0
  H  H9  1  0.73949000  0.23335000  0.41501000  1.0
  H  H10  1  0.76977000  0.69545000  0.87598000  1.0
  H  H11  1  0.26609000  0.87313000  0.69378000  1.0
  H  H12  1  0.23023000  0.30455000  0.12403000  1.0
  H  H13  1  0.73391000  0.12687000  0.30622000  1.0
  H  H14  1  0.54067000  0.60379000  0.98430000  1.0
  H  H15  1  0.03972000  0.98283000  0.60370000  1.0
  H  H16  1  0.45933000  0.39622000  0.01571000  1.0
  H  H17  1  0.96028000  0.01716000  0.39630000  1.0
  H  H18  1  0.71129000  0.44844000  0.93759000  1.0
  H  H19  1  0.21053000  0.93756000  0.44761000  1.0
  H  H20  1  0.28871000  0.55156000  0.06242000  1.0
  H  H21  1  0.78947000  0.06244000  0.55239000  1.0
  H  H22  1  0.67380000  0.65309000  0.11322000  1.0
  H  H23  1  0.17302000  0.11212000  0.65296000  1.0
  H  H24  1  0.32620000  0.34691000  0.88678000  1.0
  H  H25  1  0.82698000  0.88787000  0.34704000  1.0
  H  H26  1  0.70582000  0.38903000  0.13740000  1.0
  H  H27  1  0.20898000  0.13711000  0.38883000  1.0
  H  H28  1  0.29418000  0.61097000  0.86260000  1.0
  H  H29  1  0.79102000  0.86289000  0.61117000  1.0
  H  H30  1  0.50655000  0.52675000  0.21143000  1.0
  H  H31  1  0.00909000  0.21055000  0.52725000  1.0
  H  H32  1  0.49345000  0.47325000  0.78857000  1.0
  H  H33  1  0.99090000  0.78945000  0.47275000  1.0
  H  H34  1  0.61996000  0.46941000  0.37097000  1.0
  H  H35  1  0.12572000  0.36945000  0.46777000  1.0
  H  H36  1  0.38004000  0.53058000  0.62904000  1.0
  H  H37  1  0.87428000  0.63055000  0.53223000  1.0
  H  H38  1  0.66311000  0.60473000  0.31797000  1.0
  H  H39  1  0.16273000  0.31888000  0.60494000  1.0
  H  H40  1  0.33689000  0.39527000  0.68204000  1.0
  H  H41  1  0.83727000  0.68112000  0.39506000  1.0
  H  H42  1  0.09208000  0.57247000  0.63950000  1.0
  H  H43  1  0.58840000  0.63841000  0.56892000  1.0
  H  H44  1  0.90792000  0.42752000  0.36050000  1.0
  H  H45  1  0.41160000  0.36159000  0.43108000  1.0
  H  H46  1  0.06273000  0.67078000  0.77173000  1.0
  H  H47  1  0.55619000  0.76985000  0.66993000  1.0
  H  H48  1  0.93727000  0.32922000  0.22827000  1.0
  H  H49  1  0.44381000  0.23015000  0.33007000  1.0
  H  H50  1  0.07680000  0.13581000  0.11601000  1.0
  H  H51  1  0.58159000  0.11721000  0.13120000  1.0
  H  H52  1  0.92321000  0.86418000  0.88399000  1.0
  H  H53  1  0.41841000  0.88280000  0.86880000  1.0
  H  H54  1  0.94392000  0.06773000  0.80764000  1.0
  H  H55  1  0.44125000  0.80841000  0.07194000  1.0
  H  H56  1  0.05609000  0.93227000  0.19235000  1.0
  H  H57  1  0.55875000  0.19160000  0.92805000  1.0
  C  C58  1  0.79667000  0.59502000  0.85104000  1.0
  C  C59  1  0.29441000  0.84963000  0.59293000  1.0
  C  C60  1  0.20332000  0.40498000  0.14897000  1.0
  C  C61  1  0.70559000  0.15037000  0.40707000  1.0
  C  C62  1  0.68211000  0.54922000  0.96316000  1.0
  C  C63  1  0.18142000  0.96232000  0.54842000  1.0
  C  C64  1  0.31788000  0.45078000  0.03684000  1.0
  C  C65  1  0.81858000  0.03769000  0.45157000  1.0
  C  C66  1  0.65255000  0.48988000  0.17716000  1.0
  C  C67  1  0.15517000  0.17642000  0.48986000  1.0
  C  C68  1  0.34745000  0.51012000  0.82284000  1.0
  C  C69  1  0.84483000  0.82358000  0.51014000  1.0
  C  C70  1  0.70155000  0.50292000  0.28962000  1.0
  C  C71  1  0.20474000  0.28924000  0.50291000  1.0
  C  C72  1  0.29845000  0.49708000  0.71038000  1.0
  C  C73  1  0.79526000  0.71076000  0.49709000  1.0
  C  C74  1  0.10472000  0.57132000  0.73243000  1.0
  C  C75  1  0.60074000  0.73175000  0.56975000  1.0
  C  C76  1  0.89528000  0.42868000  0.26757000  1.0
  C  C77  1  0.39926000  0.26825000  0.43025000  1.0
  C  C78  1  0.01246000  0.11365000  0.95678000  1.0
  C  C79  1  0.51329000  0.95790000  0.11332000  1.0
  C  C80  1  0.98754000  0.88635000  0.04322000  1.0
  C  C81  1  0.48671000  0.04210000  0.88668000  1.0
  C  C82  1  0.04117000  0.07632000  0.06662000  1.0
  C  C83  1  0.54370000  0.06732000  0.07392000  1.0
  C  C84  1  0.95884000  0.92368000  0.93338000  1.0
  C  C85  1  0.45631000  0.93268000  0.92608000  1.0
  C  C86  1  0.97077000  0.03632000  0.89095000  1.0
  C  C87  1  0.46901000  0.89143000  0.03851000  1.0
  C  C88  1  0.02923000  0.96367000  0.10905000  1.0
  C  C89  1  0.53099000  0.10857000  0.96148000  1.0
  C  C90  1  0.02479000  0.23594000  0.91089000  1.0
  C  C91  1  0.52632000  0.91235000  0.23512000  1.0
  C  C92  1  0.97521000  0.76406000  0.08911000  1.0
  C  C93  1  0.47369000  0.08765000  0.76487000  1.0
  N  N94  1  0.98427000  0.51979000  0.82265000  1.0
  N  N95  1  0.48267000  0.82222000  0.51819000  1.0
  N  N96  1  0.01572000  0.48021000  0.17735000  1.0
  N  N97  1  0.51733000  0.17778000  0.48180000  1.0
  N  N98  1  0.72447000  0.55878000  0.07445000  1.0
  N  N99  1  0.22511000  0.07357000  0.55841000  1.0
  N  N100  1  0.27553000  0.44122000  0.92556000  1.0
  N  N101  1  0.77488000  0.92643000  0.44159000  1.0
  O  O102  1  0.03444000  0.30887000  0.98885000  1.0
  O  O103  1  0.53703000  0.99025000  0.30750000  1.0
  O  O104  1  0.96556000  0.69113000  0.01115000  1.0
  O  O105  1  0.46297000  0.00976000  0.69250000  1.0
  O  O106  1  0.02173000  0.25872000  0.80248000  1.0
  O  O107  1  0.52256000  0.80373000  0.25808000  1.0
  O  O108  1  0.97828000  0.74127000  0.19752000  1.0
  O  O109  1  0.47745000  0.19627000  0.74192000  1.0
