# generated using pymatgen
data_ZnH14(C5N2)2
_symmetry_space_group_name_H-M   'P 1'
_cell_length_a   8.32169796
_cell_length_b   8.32254000
_cell_length_c   13.24680000
_cell_angle_alpha   89.99990000
_cell_angle_beta   89.99969992
_cell_angle_gamma   60.01996294
_symmetry_Int_Tables_number   1
_chemical_formula_structural   ZnH14(C5N2)2
_chemical_formula_sum   'Zn3 H42 C30 N12'
_cell_volume   794.68822592
_cell_formula_units_Z   3
loop_
 _symmetry_equiv_pos_site_id
 _symmetry_equiv_pos_as_xyz
  1  'x, y, z'
loop_
 _atom_site_type_symbol
 _atom_site_label
 _atom_site_symmetry_multiplicity
 _atom_site_fract_x
 _atom_site_fract_y
 _atom_site_fract_z
 _atom_site_occupancy
  Zn  Zn0  1  0.00000000  0.50000000  0.82835000  1.0
  Zn  Zn1  1  0.50000000  0.00000000  0.16170000  1.0
  Zn  Zn2  1  0.50000000  0.50000000  0.49507000  1.0
  H  H3  1  0.20916000  0.87124000  0.60566000  1.0
  H  H4  1  0.08076000  0.79015000  0.93919000  1.0
  H  H5  1  0.87127000  0.91954000  0.27250000  1.0
  H  H6  1  0.79085000  0.12875000  0.60566000  1.0
  H  H7  1  0.91924000  0.20985000  0.93920000  1.0
  H  H8  1  0.12873000  0.08046000  0.27251000  1.0
  H  H9  1  0.01781000  0.85882000  0.77354000  1.0
  H  H10  1  0.87720000  0.98128000  0.10713000  1.0
  H  H11  1  0.85900000  0.12336000  0.44028000  1.0
  H  H12  1  0.98219000  0.14118000  0.77354000  1.0
  H  H13  1  0.12280000  0.01872000  0.10713000  1.0
  H  H14  1  0.14101000  0.87663000  0.44029000  1.0
  H  H15  1  0.46942000  0.20128000  0.62093000  1.0
  H  H16  1  0.67019000  0.53083000  0.95385000  1.0
  H  H17  1  0.20132000  0.32920000  0.28767000  1.0
  H  H18  1  0.53058000  0.79872000  0.62093000  1.0
  H  H19  1  0.32981000  0.46917000  0.95385000  1.0
  H  H20  1  0.79868000  0.67080000  0.28766000  1.0
  H  H21  1  0.29944000  0.20942000  0.70357000  1.0
  H  H22  1  0.50862000  0.70044000  0.03668000  1.0
  H  H23  1  0.20948000  0.49102000  0.37030000  1.0
  H  H24  1  0.70056000  0.79058000  0.70357000  1.0
  H  H25  1  0.49137000  0.29956000  0.03668000  1.0
  H  H26  1  0.79053000  0.50897000  0.37030000  1.0
  H  H27  1  0.07737000  0.28295000  0.56261000  1.0
  H  H28  1  0.35979000  0.92299000  0.89605000  1.0
  H  H29  1  0.28322000  0.63945000  0.22939000  1.0
  H  H30  1  0.92263000  0.71706000  0.56261000  1.0
  H  H31  1  0.64021000  0.07702000  0.89605000  1.0
  H  H32  1  0.71677000  0.36055000  0.22939000  1.0
  H  H33  1  0.29259000  0.08579000  0.52880000  1.0
  H  H34  1  0.37768000  0.70793000  0.86203000  1.0
  H  H35  1  0.08603000  0.62141000  0.19554000  1.0
  H  H36  1  0.70741000  0.91422000  0.52880000  1.0
  H  H37  1  0.62231000  0.29208000  0.86203000  1.0
  H  H38  1  0.91397000  0.37858000  0.19554000  1.0
  H  H39  1  0.23022000  0.30470000  0.47749000  1.0
  H  H40  1  0.53397000  0.77061000  0.81067000  1.0
  H  H41  1  0.30491000  0.46496000  0.14426000  1.0
  H  H42  1  0.76978000  0.69531000  0.47749000  1.0
  H  H43  1  0.46604000  0.22939000  0.81067000  1.0
  H  H44  1  0.69508000  0.53505000  0.14426000  1.0
  C  C45  1  0.25083000  0.47248000  0.65434000  1.0
  C  C46  1  0.72306000  0.74918000  0.98754000  1.0
  C  C47  1  0.47253000  0.27660000  0.32110000  1.0
  C  C48  1  0.74917000  0.52752000  0.65434000  1.0
  C  C49  1  0.27694000  0.25081000  0.98754000  1.0
  C  C50  1  0.52747000  0.72340000  0.32110000  1.0
  C  C51  1  0.20034000  0.75586000  0.63741000  1.0
  C  C52  1  0.95644000  0.79912000  0.97089000  1.0
  C  C53  1  0.75590000  0.04375000  0.30422000  1.0
  C  C54  1  0.79966000  0.24415000  0.63741000  1.0
  C  C55  1  0.04356000  0.20087000  0.97089000  1.0
  C  C56  1  0.24410000  0.95625000  0.30423000  1.0
  C  C57  1  0.10733000  0.74983000  0.72175000  1.0
  C  C58  1  0.85745000  0.89205000  0.05525000  1.0
  C  C59  1  0.74995000  0.14280000  0.38852000  1.0
  C  C60  1  0.89267000  0.25017000  0.72175000  1.0
  C  C61  1  0.14255000  0.10794000  0.05525000  1.0
  C  C62  1  0.25006000  0.85719000  0.38853000  1.0
  C  C63  1  0.31882000  0.27157000  0.63470000  1.0
  C  C64  1  0.58995000  0.68138000  0.96779000  1.0
  C  C65  1  0.27162000  0.40956000  0.30143000  1.0
  C  C66  1  0.68118000  0.72843000  0.63470000  1.0
  C  C67  1  0.41005000  0.31862000  0.96778000  1.0
  C  C68  1  0.72838000  0.59044000  0.30143000  1.0
  C  C69  1  0.22357000  0.23472000  0.54594000  1.0
  C  C70  1  0.45764000  0.77693000  0.87916000  1.0
  C  C71  1  0.23493000  0.54156000  0.21268000  1.0
  C  C72  1  0.77643000  0.76529000  0.54594000  1.0
  C  C73  1  0.54236000  0.22307000  0.87916000  1.0
  C  C74  1  0.76506000  0.45845000  0.21268000  1.0
  N  N75  1  0.14046000  0.57071000  0.73260000  1.0
  N  N76  1  0.71114000  0.85932000  0.06592000  1.0
  N  N77  1  0.57083000  0.28879000  0.39935000  1.0
  N  N78  1  0.85953000  0.42930000  0.73260000  1.0
  N  N79  1  0.28886000  0.14067000  0.06592000  1.0
  N  N80  1  0.42917000  0.71122000  0.39935000  1.0
  N  N81  1  0.29049000  0.58057000  0.59481000  1.0
  N  N82  1  0.87096000  0.70939000  0.92812000  1.0
  N  N83  1  0.58060000  0.12884000  0.26160000  1.0
  N  N84  1  0.70952000  0.41943000  0.59481000  1.0
  N  N85  1  0.12904000  0.29060000  0.92812000  1.0
  N  N86  1  0.41939000  0.87116000  0.26161000  1.0
