# generated using pymatgen
data_CdH20C15S(NO)4
_symmetry_space_group_name_H-M   'P 1'
_cell_length_a   13.12070000
_cell_length_b   13.12070000
_cell_length_c   19.63110000
_cell_angle_alpha   89.99940000
_cell_angle_beta   90.00000000
_cell_angle_gamma   60.00000000
_symmetry_Int_Tables_number   1
_chemical_formula_structural   CdH20C15S(NO)4
_chemical_formula_sum   'Cd6 H120 C90 S6 N24 O24'
_cell_volume   2926.77460599
_cell_formula_units_Z   6
loop_
 _symmetry_equiv_pos_site_id
 _symmetry_equiv_pos_as_xyz
  1  'x, y, z'
loop_
 _atom_site_type_symbol
 _atom_site_label
 _atom_site_symmetry_multiplicity
 _atom_site_fract_x
 _atom_site_fract_y
 _atom_site_fract_z
 _atom_site_occupancy
  Cd  Cd0  1  0.45288000  0.30351000  0.31287000  1.0
  Cd  Cd1  1  0.30351000  0.24360000  0.64620000  1.0
  Cd  Cd2  1  0.24360000  0.45290000  0.97955000  1.0
  Cd  Cd3  1  0.54710000  0.75641000  0.35380000  1.0
  Cd  Cd4  1  0.69650000  0.54711000  0.02045000  1.0
  Cd  Cd5  1  0.75639000  0.69649000  0.68714000  1.0
  H  H6  1  0.67497000  0.21590000  0.36680000  1.0
  H  H7  1  0.21590000  0.10914000  0.70013000  1.0
  H  H8  1  0.10914000  0.67495000  0.03346000  1.0
  H  H9  1  0.32504000  0.89087000  0.29987000  1.0
  H  H10  1  0.78409000  0.32506000  0.96654000  1.0
  H  H11  1  0.89087000  0.78410000  0.63320000  1.0
  H  H12  1  0.56015000  0.26055000  0.17741000  1.0
  H  H13  1  0.26052000  0.17930000  0.51074000  1.0
  H  H14  1  0.17930000  0.56015000  0.84407000  1.0
  H  H15  1  0.43982000  0.82070000  0.48926000  1.0
  H  H16  1  0.73945000  0.43985000  0.15593000  1.0
  H  H17  1  0.82070000  0.73945000  0.82259000  1.0
  H  H18  1  0.43830000  0.39486000  0.63739000  1.0
  H  H19  1  0.39487000  0.16687000  0.97071000  1.0
  H  H20  1  0.16687000  0.43829000  0.30405000  1.0
  H  H21  1  0.56174000  0.83313000  0.02929000  1.0
  H  H22  1  0.60516000  0.56171000  0.69595000  1.0
  H  H23  1  0.83316000  0.60514000  0.36261000  1.0
  H  H24  1  0.59934000  0.40382000  0.57353000  1.0
  H  H25  1  0.40386000  0.99683000  0.90685000  1.0
  H  H26  1  0.99686000  0.59931000  0.24019000  1.0
  H  H27  1  0.40069000  0.00317000  0.09315000  1.0
  H  H28  1  0.59617000  0.40069000  0.75981000  1.0
  H  H29  1  0.00316000  0.59618000  0.42647000  1.0
  H  H30  1  0.68777000  0.27396000  0.47160000  1.0
  H  H31  1  0.27399000  0.03827000  0.80491000  1.0
  H  H32  1  0.03829000  0.68773000  0.13825000  1.0
  H  H33  1  0.31226000  0.96173000  0.19508000  1.0
  H  H34  1  0.72602000  0.31227000  0.86176000  1.0
  H  H35  1  0.96173000  0.72604000  0.52840000  1.0
  H  H36  1  0.45944000  0.13203000  0.51078000  1.0
  H  H37  1  0.13200000  0.40854000  0.84412000  1.0
  H  H38  1  0.40856000  0.45946000  0.17746000  1.0
  H  H39  1  0.54054000  0.59147000  0.15588000  1.0
  H  H40  1  0.86802000  0.54054000  0.82255000  1.0
  H  H41  1  0.59147000  0.86796000  0.48922000  1.0
  H  H42  1  0.72154000  0.03744000  0.44034000  1.0
  H  H43  1  0.03745000  0.24103000  0.77367000  1.0
  H  H44  1  0.24105000  0.72151000  0.10699000  1.0
  H  H45  1  0.27848000  0.75897000  0.22633000  1.0
  H  H46  1  0.96256000  0.27849000  0.89301000  1.0
  H  H47  1  0.75898000  0.96256000  0.55966000  1.0
  H  H48  1  0.58101000  0.06333000  0.41545000  1.0
  H  H49  1  0.06333000  0.35567000  0.74878000  1.0
  H  H50  1  0.35569000  0.58098000  0.08211000  1.0
  H  H51  1  0.41900000  0.64433000  0.25122000  1.0
  H  H52  1  0.93667000  0.41902000  0.91789000  1.0
  H  H53  1  0.64434000  0.93667000  0.58455000  1.0
  H  H54  1  0.66115000  0.01995000  0.30369000  1.0
  H  H55  1  0.01993000  0.31891000  0.63703000  1.0
  H  H56  1  0.31890000  0.66116000  0.97035000  1.0
  H  H57  1  0.33884000  0.68109000  0.36297000  1.0
  H  H58  1  0.98006000  0.33884000  0.02965000  1.0
  H  H59  1  0.68110000  0.98005000  0.69631000  1.0
  H  H60  1  0.87947000  0.04659000  0.32208000  1.0
  H  H61  1  0.04657000  0.07395000  0.65542000  1.0
  H  H62  1  0.07394000  0.87947000  0.98873000  1.0
  H  H63  1  0.12052000  0.92606000  0.34458000  1.0
  H  H64  1  0.95341000  0.12053000  0.01127000  1.0
  H  H65  1  0.92606000  0.95341000  0.67792000  1.0
  H  H66  1  0.87437000  0.92734000  0.28190000  1.0
  H  H67  1  0.92733000  0.19829000  0.61524000  1.0
  H  H68  1  0.19829000  0.87436000  0.94856000  1.0
  H  H69  1  0.12562000  0.80171000  0.38476000  1.0
  H  H70  1  0.07265000  0.12564000  0.05144000  1.0
  H  H71  1  0.80171000  0.07266000  0.71810000  1.0
  H  H72  1  0.84925000  0.94967000  0.37050000  1.0
  H  H73  1  0.94967000  0.20107000  0.70384000  1.0
  H  H74  1  0.20106000  0.84925000  0.03716000  1.0
  H  H75  1  0.15074000  0.79893000  0.29616000  1.0
  H  H76  1  0.05031000  0.15075000  0.96284000  1.0
  H  H77  1  0.79892000  0.05033000  0.62950000  1.0
  H  H78  1  0.71680000  0.20339000  0.24425000  1.0
  H  H79  1  0.20337000  0.07981000  0.57758000  1.0
  H  H80  1  0.07981000  0.71680000  0.91091000  1.0
  H  H81  1  0.28319000  0.92018000  0.42242000  1.0
  H  H82  1  0.79661000  0.28320000  0.08909000  1.0
  H  H83  1  0.92019000  0.79660000  0.75575000  1.0
  H  H84  1  0.74520000  0.07281000  0.20039000  1.0
  H  H85  1  0.07278000  0.18200000  0.53373000  1.0
  H  H86  1  0.18200000  0.74520000  0.86705000  1.0
  H  H87  1  0.25478000  0.81800000  0.46627000  1.0
  H  H88  1  0.92720000  0.25480000  0.13295000  1.0
  H  H89  1  0.81801000  0.92719000  0.79961000  1.0
  H  H90  1  0.52826000  0.06453000  0.22473000  1.0
  H  H91  1  0.06449000  0.40721000  0.55805000  1.0
  H  H92  1  0.40721000  0.52827000  0.89138000  1.0
  H  H93  1  0.47170000  0.59279000  0.44195000  1.0
  H  H94  1  0.93548000  0.47173000  0.10862000  1.0
  H  H95  1  0.59279000  0.93547000  0.77527000  1.0
  H  H96  1  0.59030000  0.06853000  0.14429000  1.0
  H  H97  1  0.06852000  0.34116000  0.47762000  1.0
  H  H98  1  0.34116000  0.59029000  0.81094000  1.0
  H  H99  1  0.40968000  0.65883000  0.52238000  1.0
  H  H100  1  0.93145000  0.40971000  0.18906000  1.0
  H  H101  1  0.65883000  0.93147000  0.85571000  1.0
  H  H102  1  0.32221000  0.12708000  0.22638000  1.0
  H  H103  1  0.12705000  0.55071000  0.55970000  1.0
  H  H104  1  0.55072000  0.32221000  0.89304000  1.0
  H  H105  1  0.67776000  0.44928000  0.44030000  1.0
  H  H106  1  0.87294000  0.67778000  0.10696000  1.0
  H  H107  1  0.44929000  0.87292000  0.77362000  1.0
  H  H108  1  0.12486000  0.24238000  0.17198000  1.0
  H  H109  1  0.24235000  0.63276000  0.50532000  1.0
  H  H110  1  0.63275000  0.12488000  0.83863000  1.0
  H  H111  1  0.87511000  0.36724000  0.49468000  1.0
  H  H112  1  0.75763000  0.87513000  0.16136000  1.0
  H  H113  1  0.36724000  0.75762000  0.82803000  1.0
  H  H114  1  0.10259000  0.37459000  0.07158000  1.0
  H  H115  1  0.37458000  0.52283000  0.40493000  1.0
  H  H116  1  0.52282000  0.10258000  0.73825000  1.0
  H  H117  1  0.89740000  0.47718000  0.59507000  1.0
  H  H118  1  0.62540000  0.89742000  0.26174000  1.0
  H  H119  1  0.47718000  0.62541000  0.92842000  1.0
  H  H120  1  0.45463000  0.27232000  0.07598000  1.0
  H  H121  1  0.27231000  0.27305000  0.40931000  1.0
  H  H122  1  0.27306000  0.45462000  0.74264000  1.0
  H  H123  1  0.54536000  0.72694000  0.59069000  1.0
  H  H124  1  0.72768000  0.54538000  0.25736000  1.0
  H  H125  1  0.72695000  0.72768000  0.92402000  1.0
  C  C126  1  0.48154000  0.33760000  0.59385000  1.0
  C  C127  1  0.33760000  0.18087000  0.92718000  1.0
  C  C128  1  0.18088000  0.48155000  0.26052000  1.0
  C  C129  1  0.51848000  0.81912000  0.07282000  1.0
  C  C130  1  0.66243000  0.51845000  0.73948000  1.0
  C  C131  1  0.81914000  0.66240000  0.40615000  1.0
  C  C132  1  0.57049000  0.34255000  0.55804000  1.0
  C  C133  1  0.34257000  0.08696000  0.89136000  1.0
  C  C134  1  0.08698000  0.57047000  0.22470000  1.0
  C  C135  1  0.42954000  0.91304000  0.10864000  1.0
  C  C136  1  0.65745000  0.42953000  0.77530000  1.0
  C  C137  1  0.91304000  0.65745000  0.44197000  1.0
  C  C138  1  0.62036000  0.26927000  0.50176000  1.0
  C  C139  1  0.26928000  0.11037000  0.83509000  1.0
  C  C140  1  0.11039000  0.62034000  0.16843000  1.0
  C  C141  1  0.37966000  0.88962000  0.16490000  1.0
  C  C142  1  0.73073000  0.37966000  0.83157000  1.0
  C  C143  1  0.88963000  0.73072000  0.49824000  1.0
  C  C144  1  0.58071000  0.19187000  0.48328000  1.0
  C  C145  1  0.19187000  0.22743000  0.81661000  1.0
  C  C146  1  0.22744000  0.58070000  0.14994000  1.0
  C  C147  1  0.41930000  0.77258000  0.18339000  1.0
  C  C148  1  0.80814000  0.41930000  0.85006000  1.0
  C  C149  1  0.77259000  0.80812000  0.51672000  1.0
  C  C150  1  0.49255000  0.19152000  0.52316000  1.0
  C  C151  1  0.19150000  0.31594000  0.85650000  1.0
  C  C152  1  0.31596000  0.49256000  0.18983000  1.0
  C  C153  1  0.50744000  0.68407000  0.14350000  1.0
  C  C154  1  0.80852000  0.50743000  0.81017000  1.0
  C  C155  1  0.68407000  0.80848000  0.47684000  1.0
  C  C156  1  0.63258000  0.10709000  0.42477000  1.0
  C  C157  1  0.10710000  0.26033000  0.75810000  1.0
  C  C158  1  0.26035000  0.63255000  0.09142000  1.0
  C  C159  1  0.36744000  0.73966000  0.24190000  1.0
  C  C160  1  0.89291000  0.36744000  0.90858000  1.0
  C  C161  1  0.73967000  0.89291000  0.57523000  1.0
  C  C162  1  0.70264000  0.07493000  0.30669000  1.0
  C  C163  1  0.07492000  0.22244000  0.64002000  1.0
  C  C164  1  0.22244000  0.70262000  0.97335000  1.0
  C  C165  1  0.29736000  0.77756000  0.35998000  1.0
  C  C166  1  0.92506000  0.29738000  0.02665000  1.0
  C  C167  1  0.77756000  0.92507000  0.69331000  1.0
  C  C168  1  0.83392000  0.99540000  0.32149000  1.0
  C  C169  1  0.99538000  0.17068000  0.65482000  1.0
  C  C170  1  0.17068000  0.83392000  0.98815000  1.0
  C  C171  1  0.16606000  0.82932000  0.34517000  1.0
  C  C172  1  0.00460000  0.16608000  0.01185000  1.0
  C  C173  1  0.82932000  0.00461000  0.67852000  1.0
  C  C174  1  0.68770000  0.13837000  0.23861000  1.0
  C  C175  1  0.13835000  0.17393000  0.57194000  1.0
  C  C176  1  0.17393000  0.68770000  0.90527000  1.0
  C  C177  1  0.31228000  0.82607000  0.42806000  1.0
  C  C178  1  0.86163000  0.31230000  0.09473000  1.0
  C  C179  1  0.82607000  0.86163000  0.76139000  1.0
  C  C180  1  0.52733000  0.12288000  0.18453000  1.0
  C  C181  1  0.12286000  0.34979000  0.51785000  1.0
  C  C182  1  0.34978000  0.52734000  0.85118000  1.0
  C  C183  1  0.47264000  0.65022000  0.48214000  1.0
  C  C184  1  0.87712000  0.47266000  0.14882000  1.0
  C  C185  1  0.65021000  0.87712000  0.81548000  1.0
  C  C186  1  0.40530000  0.18942000  0.15507000  1.0
  C  C187  1  0.18938000  0.40530000  0.48840000  1.0
  C  C188  1  0.40528000  0.40531000  0.82173000  1.0
  C  C189  1  0.59467000  0.59471000  0.51160000  1.0
  C  C190  1  0.81059000  0.59470000  0.17827000  1.0
  C  C191  1  0.59471000  0.81059000  0.84493000  1.0
  C  C192  1  0.31078000  0.18162000  0.18197000  1.0
  C  C193  1  0.18159000  0.50761000  0.51529000  1.0
  C  C194  1  0.50760000  0.31079000  0.84862000  1.0
  C  C195  1  0.68919000  0.49240000  0.48471000  1.0
  C  C196  1  0.81839000  0.68922000  0.15138000  1.0
  C  C197  1  0.49240000  0.81838000  0.81803000  1.0
  C  C198  1  0.20014000  0.24667000  0.15193000  1.0
  C  C199  1  0.24662000  0.55321000  0.48526000  1.0
  C  C200  1  0.55320000  0.20016000  0.81858000  1.0
  C  C201  1  0.79983000  0.44679000  0.51474000  1.0
  C  C202  1  0.75336000  0.79984000  0.18142000  1.0
  C  C203  1  0.44680000  0.75335000  0.84808000  1.0
  C  C204  1  0.18645000  0.31932000  0.09699000  1.0
  C  C205  1  0.31930000  0.49424000  0.43033000  1.0
  C  C206  1  0.49424000  0.18644000  0.76366000  1.0
  C  C207  1  0.81354000  0.50576000  0.56967000  1.0
  C  C208  1  0.68068000  0.81356000  0.23634000  1.0
  C  C209  1  0.50577000  0.68069000  0.90301000  1.0
  C  C210  1  0.38451000  0.26221000  0.09890000  1.0
  C  C211  1  0.26218000  0.35330000  0.43223000  1.0
  C  C212  1  0.35329000  0.38450000  0.76556000  1.0
  C  C213  1  0.61548000  0.64670000  0.56777000  1.0
  C  C214  1  0.73779000  0.61550000  0.23444000  1.0
  C  C215  1  0.64672000  0.73780000  0.90110000  1.0
  S  S216  1  0.61871000  0.44122000  0.31102000  1.0
  S  S217  1  0.44123000  0.94007000  0.64434000  1.0
  S  S218  1  0.94007000  0.61872000  0.97769000  1.0
  S  S219  1  0.38130000  0.05992000  0.35566000  1.0
  S  S220  1  0.55879000  0.38128000  0.02232000  1.0
  S  S221  1  0.05993000  0.55878000  0.68898000  1.0
  N  N222  1  0.44354000  0.26314000  0.57687000  1.0
  N  N223  1  0.26313000  0.29334000  0.91020000  1.0
  N  N224  1  0.29335000  0.44354000  0.24354000  1.0
  N  N225  1  0.55647000  0.70667000  0.08980000  1.0
  N  N226  1  0.73689000  0.55646000  0.75646000  1.0
  N  N227  1  0.70668000  0.73685000  0.42313000  1.0
  N  N228  1  0.63801000  0.16256000  0.36071000  1.0
  N  N229  1  0.16256000  0.19943000  0.69404000  1.0
  N  N230  1  0.19944000  0.63799000  0.02737000  1.0
  N  N231  1  0.36199000  0.80057000  0.30596000  1.0
  N  N232  1  0.83744000  0.36201000  0.97263000  1.0
  N  N233  1  0.80057000  0.83744000  0.63929000  1.0
  N  N234  1  0.56499000  0.20238000  0.21437000  1.0
  N  N235  1  0.20236000  0.23262000  0.54770000  1.0
  N  N236  1  0.23262000  0.56500000  0.88102000  1.0
  N  N237  1  0.43498000  0.76738000  0.45230000  1.0
  N  N238  1  0.79762000  0.43500000  0.11898000  1.0
  N  N239  1  0.76738000  0.79762000  0.78564000  1.0
  N  N240  1  0.27735000  0.32682000  0.07115000  1.0
  N  N241  1  0.32682000  0.39583000  0.40449000  1.0
  N  N242  1  0.39582000  0.27735000  0.73782000  1.0
  N  N243  1  0.72265000  0.60417000  0.59551000  1.0
  N  N244  1  0.67317000  0.72265000  0.26218000  1.0
  N  N245  1  0.60417000  0.67318000  0.92885000  1.0
  O  O246  1  0.49681000  0.45638000  0.31574000  1.0
  O  O247  1  0.45636000  0.04683000  0.64905000  1.0
  O  O248  1  0.04682000  0.49681000  0.98238000  1.0
  O  O249  1  0.50319000  0.95317000  0.35095000  1.0
  O  O250  1  0.54364000  0.50318000  0.01763000  1.0
  O  O251  1  0.95319000  0.54362000  0.68426000  1.0
  O  O252  1  0.70187000  0.33985000  0.35409000  1.0
  O  O253  1  0.33987000  0.95829000  0.68743000  1.0
  O  O254  1  0.95830000  0.70183000  0.02079000  1.0
  O  O255  1  0.29816000  0.04171000  0.31257000  1.0
  O  O256  1  0.66013000  0.29817000  0.97921000  1.0
  O  O257  1  0.04172000  0.66015000  0.64591000  1.0
  O  O258  1  0.61068000  0.55154000  0.33871000  1.0
  O  O259  1  0.55155000  0.83779000  0.67203000  1.0
  O  O260  1  0.83779000  0.61067000  0.00537000  1.0
  O  O261  1  0.38934000  0.16221000  0.32797000  1.0
  O  O262  1  0.44846000  0.38933000  0.99463000  1.0
  O  O263  1  0.16222000  0.44846000  0.66129000  1.0
  O  O264  1  0.65741000  0.42320000  0.23900000  1.0
  O  O265  1  0.42319000  0.91937000  0.57233000  1.0
  O  O266  1  0.91937000  0.65749000  0.90569000  1.0
  O  O267  1  0.34256000  0.08063000  0.42766000  1.0
  O  O268  1  0.57687000  0.34250000  0.09432000  1.0
  O  O269  1  0.08061000  0.57681000  0.76100000  1.0
