# generated using pymatgen
data_Zn2H15C9N13O2
_symmetry_space_group_name_H-M   'P 1'
_cell_length_a   10.01460000
_cell_length_b   10.27810000
_cell_length_c   21.39430000
_cell_angle_alpha   90.00050000
_cell_angle_beta   90.00070000
_cell_angle_gamma   92.80300000
_symmetry_Int_Tables_number   1
_chemical_formula_structural   Zn2H15C9N13O2
_chemical_formula_sum   'Zn8 H60 C36 N52 O8'
_cell_volume   2199.50329638
_cell_formula_units_Z   4
loop_
 _symmetry_equiv_pos_site_id
 _symmetry_equiv_pos_as_xyz
  1  'x, y, z'
loop_
 _atom_site_type_symbol
 _atom_site_label
 _atom_site_symmetry_multiplicity
 _atom_site_fract_x
 _atom_site_fract_y
 _atom_site_fract_z
 _atom_site_occupancy
  Zn  Zn0  1  0.68547000  0.50408000  0.41978000  1.0
  Zn  Zn1  1  0.31454000  0.49591000  0.91978000  1.0
  Zn  Zn2  1  0.51877000  0.47411000  0.64947000  1.0
  Zn  Zn3  1  0.48123000  0.52590000  0.14946000  1.0
  Zn  Zn4  1  0.98038000  0.01649000  0.47712000  1.0
  Zn  Zn5  1  0.01962000  0.98351000  0.97712000  1.0
  Zn  Zn6  1  0.81398000  0.98529000  0.70672000  1.0
  Zn  Zn7  1  0.18602000  0.01472000  0.20673000  1.0
  H  H8  1  0.32021000  0.35080000  0.59263000  1.0
  H  H9  1  0.67979000  0.64920000  0.09263000  1.0
  H  H10  1  0.26316000  0.47856000  0.62704000  1.0
  H  H11  1  0.73684000  0.52145000  0.12704000  1.0
  H  H12  1  0.23701000  0.05258000  0.50122000  1.0
  H  H13  1  0.76299000  0.94742000  0.00122000  1.0
  H  H14  1  0.15616000  0.17318000  0.53008000  1.0
  H  H15  1  0.84385000  0.82682000  0.03008000  1.0
  H  H16  1  0.80143000  0.38969000  0.55194000  1.0
  H  H17  1  0.19854000  0.61027000  0.05193000  1.0
  H  H18  1  0.91200000  0.25991000  0.56295000  1.0
  H  H19  1  0.08797000  0.74004000  0.06294000  1.0
  H  H20  1  0.96180000  0.40111000  0.51726000  1.0
  H  H21  1  0.03818000  0.59886000  0.01724000  1.0
  H  H22  1  0.42315000  0.41723000  0.36087000  1.0
  H  H23  1  0.57687000  0.58275000  0.86087000  1.0
  H  H24  1  0.35062000  0.43935000  0.28598000  1.0
  H  H25  1  0.64938000  0.56063000  0.78597000  1.0
  H  H26  1  0.45374000  0.30522000  0.30017000  1.0
  H  H27  1  0.54627000  0.69477000  0.80016000  1.0
  H  H28  1  0.58499000  0.76504000  0.45535000  1.0
  H  H29  1  0.41502000  0.23495000  0.95536000  1.0
  H  H30  1  0.65409000  0.88002000  0.51060000  1.0
  H  H31  1  0.34591000  0.11998000  0.01061000  1.0
  H  H32  1  0.66912000  0.91306000  0.42946000  1.0
  H  H33  1  0.33089000  0.08693000  0.92946000  1.0
  H  H34  1  0.93239000  0.90781000  0.26559000  1.0
  H  H35  1  0.06760000  0.09217000  0.76560000  1.0
  H  H36  1  0.96913000  0.79823000  0.32654000  1.0
  H  H37  1  0.03088000  0.20177000  0.82654000  1.0
  H  H38  1  0.85730000  0.92577000  0.34010000  1.0
  H  H39  1  0.14270000  0.07421000  0.84010000  1.0
  H  H40  1  0.67744000  0.09190000  0.57561000  1.0
  H  H41  1  0.32257000  0.90811000  0.07562000  1.0
  H  H42  1  0.52117000  0.08247000  0.61444000  1.0
  H  H43  1  0.47884000  0.91754000  0.11446000  1.0
  H  H44  1  0.56695000  0.22199000  0.56637000  1.0
  H  H45  1  0.43306000  0.77802000  0.06637000  1.0
  H  H46  1  0.82586000  0.55606000  0.65941000  1.0
  H  H47  1  0.17414000  0.44396000  0.15941000  1.0
  H  H48  1  0.88905000  0.68984000  0.61290000  1.0
  H  H49  1  0.11093000  0.31019000  0.11290000  1.0
  H  H50  1  0.90320000  0.69633000  0.69560000  1.0
  H  H51  1  0.09680000  0.30369000  0.19560000  1.0
  H  H52  1  0.34428000  0.62235000  0.54987000  1.0
  H  H53  1  0.65574000  0.37765000  0.04987000  1.0
  H  H54  1  0.24728000  0.53512000  0.44999000  1.0
  H  H55  1  0.75274000  0.46489000  0.94999000  1.0
  H  H56  1  0.24032000  0.37463000  0.48039000  1.0
  H  H57  1  0.75970000  0.62537000  0.98040000  1.0
  H  H58  1  0.13915000  0.49708000  0.51318000  1.0
  H  H59  1  0.86087000  0.50292000  0.01319000  1.0
  H  H60  1  0.21528000  0.07477000  0.62392000  1.0
  H  H61  1  0.78472000  0.92524000  0.12392000  1.0
  H  H62  1  0.20987000  0.83315000  0.63341000  1.0
  H  H63  1  0.79013000  0.16686000  0.13341000  1.0
  H  H64  1  0.15981000  0.81705000  0.55310000  1.0
  H  H65  1  0.84019000  0.18296000  0.05310000  1.0
  H  H66  1  0.32063000  0.88765000  0.57359000  1.0
  H  H67  1  0.67936000  0.11236000  0.07359000  1.0
  C  C68  1  0.82299000  0.26845000  0.47286000  1.0
  C  C69  1  0.17700000  0.73153000  0.97286000  1.0
  C  C70  1  0.87845000  0.33284000  0.52987000  1.0
  C  C71  1  0.12153000  0.66713000  0.02986000  1.0
  C  C72  1  0.55855000  0.49089000  0.29125000  1.0
  C  C73  1  0.44145000  0.50910000  0.79125000  1.0
  C  C74  1  0.43989000  0.40842000  0.31049000  1.0
  C  C75  1  0.56012000  0.59157000  0.81048000  1.0
  C  C76  1  0.79726000  0.76916000  0.46369000  1.0
  C  C77  1  0.20274000  0.23083000  0.96369000  1.0
  C  C78  1  0.66865000  0.83505000  0.46461000  1.0
  C  C79  1  0.33136000  0.16495000  0.96461000  1.0
  C  C80  1  0.06212000  0.98935000  0.33560000  1.0
  C  C81  1  0.93787000  0.01065000  0.83560000  1.0
  C  C82  1  0.94895000  0.90002000  0.31601000  1.0
  C  C83  1  0.05104000  0.09998000  0.81601000  1.0
  C  C84  1  0.66637000  0.21679000  0.65403000  1.0
  C  C85  1  0.33364000  0.78321000  0.15404000  1.0
  C  C86  1  0.60337000  0.14998000  0.59923000  1.0
  C  C87  1  0.39663000  0.85003000  0.09923000  1.0
  C  C88  1  0.70666000  0.72217000  0.66032000  1.0
  C  C89  1  0.29333000  0.27784000  0.16032000  1.0
  C  C90  1  0.83842000  0.66234000  0.65695000  1.0
  C  C91  1  0.16157000  0.33769000  0.15694000  1.0
  C  C92  1  0.48793000  0.50004000  0.51152000  1.0
  C  C93  1  0.51209000  0.49995000  0.01151000  1.0
  C  C94  1  0.34829000  0.51773000  0.53896000  1.0
  C  C95  1  0.65172000  0.48227000  0.03896000  1.0
  C  C96  1  0.23710000  0.47834000  0.49319000  1.0
  C  C97  1  0.76292000  0.52167000  0.99319000  1.0
  C  C98  1  0.01243000  0.00334000  0.61527000  1.0
  C  C99  1  0.98758000  0.99667000  0.11527000  1.0
  C  C100  1  0.15655000  0.01384000  0.59044000  1.0
  C  C101  1  0.84345000  0.98617000  0.09043000  1.0
  C  C102  1  0.21479000  0.87925000  0.58724000  1.0
  C  C103  1  0.78521000  0.12076000  0.08724000  1.0
  N  N104  1  0.84310000  0.14647000  0.45407000  1.0
  N  N105  1  0.15689000  0.85352000  0.95407000  1.0
  N  N106  1  0.77333000  0.12710000  0.39979000  1.0
  N  N107  1  0.22668000  0.87290000  0.89979000  1.0
  N  N108  1  0.71346000  0.23249000  0.38601000  1.0
  N  N109  1  0.28655000  0.76751000  0.88601000  1.0
  N  N110  1  0.74302000  0.32318000  0.43096000  1.0
  N  N111  1  0.25699000  0.67682000  0.93096000  1.0
  N  N112  1  0.65841000  0.53485000  0.32893000  1.0
  N  N113  1  0.34159000  0.46515000  0.82893000  1.0
  N  N114  1  0.74866000  0.60431000  0.29329000  1.0
  N  N115  1  0.25133000  0.39570000  0.79329000  1.0
  N  N116  1  0.70535000  0.60329000  0.23590000  1.0
  N  N117  1  0.29464000  0.39672000  0.73589000  1.0
  N  N118  1  0.58642000  0.53329000  0.23326000  1.0
  N  N119  1  0.41358000  0.46671000  0.73325000  1.0
  N  N120  1  0.81281000  0.64165000  0.45396000  1.0
  N  N121  1  0.18720000  0.35835000  0.95396000  1.0
  N  N122  1  0.94572000  0.62184000  0.45787000  1.0
  N  N123  1  0.05428000  0.37816000  0.95787000  1.0
  N  N124  1  0.00912000  0.73270000  0.46936000  1.0
  N  N125  1  0.99089000  0.26730000  0.96936000  1.0
  N  N126  1  0.91868000  0.82690000  0.47316000  1.0
  N  N127  1  0.08132000  0.17310000  0.97315000  1.0
  N  N128  1  0.15767000  0.04221000  0.29786000  1.0
  N  N129  1  0.84232000  0.95779000  0.79786000  1.0
  N  N130  1  0.24330000  0.11653000  0.33379000  1.0
  N  N131  1  0.75669000  0.88348000  0.83379000  1.0
  N  N132  1  0.20137000  0.10982000  0.39136000  1.0
  N  N133  1  0.79862000  0.89018000  0.89136000  1.0
  N  N134  1  0.08811000  0.03103000  0.39391000  1.0
  N  N135  1  0.91188000  0.96897000  0.89391000  1.0
  N  N136  1  0.75082000  0.16418000  0.69457000  1.0
  N  N137  1  0.24919000  0.83583000  0.19457000  1.0
  N  N138  1  0.78694000  0.25763000  0.73726000  1.0
  N  N139  1  0.21307000  0.74238000  0.23727000  1.0
  N  N140  1  0.72679000  0.36285000  0.72354000  1.0
  N  N141  1  0.27321000  0.63715000  0.22354000  1.0
  N  N142  1  0.65038000  0.34037000  0.67150000  1.0
  N  N143  1  0.34962000  0.65963000  0.17150000  1.0
  N  N144  1  0.68747000  0.84822000  0.67212000  1.0
  N  N145  1  0.31251000  0.15180000  0.17212000  1.0
  N  N146  1  0.55363000  0.86459000  0.66894000  1.0
  N  N147  1  0.44635000  0.13542000  0.16894000  1.0
  N  N148  1  0.49345000  0.75295000  0.65597000  1.0
  N  N149  1  0.50653000  0.24706000  0.15597000  1.0
  N  N150  1  0.58677000  0.66167000  0.65049000  1.0
  N  N151  1  0.41322000  0.33834000  0.15049000  1.0
  N  N152  1  0.33926000  0.44845000  0.59953000  1.0
  N  N153  1  0.66075000  0.55155000  0.09953000  1.0
  N  N154  1  0.15574000  0.07389000  0.52763000  1.0
  N  N155  1  0.84426000  0.92611000  0.02763000  1.0
  O  O156  1  0.57779000  0.45617000  0.54573000  1.0
  O  O157  1  0.42222000  0.54382000  0.04573000  1.0
  O  O158  1  0.50377000  0.53362000  0.45430000  1.0
  O  O159  1  0.49624000  0.46637000  0.95430000  1.0
  O  O160  1  0.91645000  0.02154000  0.57858000  1.0
  O  O161  1  0.08355000  0.97847000  0.07858000  1.0
  O  O162  1  0.00004000  0.97546000  0.67328000  1.0
  O  O163  1  0.99995000  0.02454000  0.17328000  1.0
