# generated using pymatgen
data_Zn4H55C63N9O17
_symmetry_space_group_name_H-M   'P 1'
_cell_length_a   12.33210000
_cell_length_b   19.95510000
_cell_length_c   19.95510000
_cell_angle_alpha   102.56100000
_cell_angle_beta   94.21290000
_cell_angle_gamma   94.21290000
_symmetry_Int_Tables_number   1
_chemical_formula_structural   Zn4H55C63N9O17
_chemical_formula_sum   'Zn8 H110 C126 N18 O34'
_cell_volume   4760.00685994
_cell_formula_units_Z   2
loop_
 _symmetry_equiv_pos_site_id
 _symmetry_equiv_pos_as_xyz
  1  'x, y, z'
loop_
 _atom_site_type_symbol
 _atom_site_label
 _atom_site_symmetry_multiplicity
 _atom_site_fract_x
 _atom_site_fract_y
 _atom_site_fract_z
 _atom_site_occupancy
  Zn  Zn0  1  0.61482000  0.56406000  0.07628000  1.0
  Zn  Zn1  1  0.11482000  0.07628000  0.56406000  1.0
  Zn  Zn2  1  0.80642000  0.52687000  0.01744000  1.0
  Zn  Zn3  1  0.30642000  0.01744000  0.52687000  1.0
  Zn  Zn4  1  0.40798000  0.61170000  0.33696000  1.0
  Zn  Zn5  1  0.90798000  0.33696000  0.61170000  1.0
  Zn  Zn6  1  0.49982000  0.74897000  0.48788000  1.0
  Zn  Zn7  1  0.99982000  0.48788000  0.74897000  1.0
  H  H8  1  0.33921000  0.63599000  0.53865000  1.0
  H  H9  1  0.83921000  0.53865000  0.63599000  1.0
  H  H10  1  0.37179000  0.47236000  0.58553000  1.0
  H  H11  1  0.87179000  0.58553000  0.47236000  1.0
  H  H12  1  0.26308000  0.50804000  0.54665000  1.0
  H  H13  1  0.76308000  0.54665000  0.50804000  1.0
  H  H14  1  0.33744000  0.55558000  0.62508000  1.0
  H  H15  1  0.83744000  0.62508000  0.55558000  1.0
  H  H16  1  0.51652000  0.46622000  0.53315000  1.0
  H  H17  1  0.01652000  0.53315000  0.46622000  1.0
  H  H18  1  0.59181000  0.54563000  0.53012000  1.0
  H  H19  1  0.09181000  0.53012000  0.54563000  1.0
  H  H20  1  0.51004000  0.49773000  0.45564000  1.0
  H  H21  1  0.01004000  0.45564000  0.49773000  1.0
  H  H22  1  0.49437000  0.53863000  0.20124000  1.0
  H  H23  1  0.99438000  0.20124000  0.53863000  1.0
  H  H24  1  0.56056000  0.62403000  0.22112000  1.0
  H  H25  1  0.06056000  0.22112000  0.62403000  1.0
  H  H26  1  0.53516000  0.69938000  0.14237000  1.0
  H  H27  1  0.03516000  0.14237000  0.69938000  1.0
  H  H28  1  0.45161000  0.66882000  0.06301000  1.0
  H  H29  1  0.95161000  0.06301000  0.66882000  1.0
  H  H30  1  0.36268000  0.55347000  0.03488000  1.0
  H  H31  1  0.86268000  0.03488000  0.55347000  1.0
  H  H32  1  0.38214000  0.49743000  0.09290000  1.0
  H  H33  1  0.88214000  0.09290000  0.49744000  1.0
  H  H34  1  0.30866000  0.70742000  0.25020000  1.0
  H  H35  1  0.80866000  0.25020000  0.70742000  1.0
  H  H36  1  0.45328000  0.72155000  0.24910000  1.0
  H  H37  1  0.95328000  0.24910000  0.72155000  1.0
  H  H38  1  0.19622000  0.66596000  0.14288000  1.0
  H  H39  1  0.69622000  0.14288000  0.66596000  1.0
  H  H40  1  0.25754000  0.64864000  0.06302000  1.0
  H  H41  1  0.75754000  0.06302000  0.64864000  1.0
  H  H42  1  0.30047000  0.51978000  0.20106000  1.0
  H  H43  1  0.80047000  0.20106000  0.51978000  1.0
  H  H44  1  0.21977000  0.59163000  0.22156000  1.0
  H  H45  1  0.71977000  0.22156000  0.59163000  1.0
  H  H46  1  0.86003000  0.46780000  0.87159000  1.0
  H  H47  1  0.36003000  0.87158000  0.46780000  1.0
  H  H48  1  0.91560000  0.55546000  0.89043000  1.0
  H  H49  1  0.41560000  0.89043000  0.55546000  1.0
  H  H50  1  0.98458000  0.42996000  0.02946000  1.0
  H  H51  1  0.48458000  0.02946000  0.42996000  1.0
  H  H52  1  0.90031000  0.39523000  0.95115000  1.0
  H  H53  1  0.40031000  0.95115000  0.39523000  1.0
  H  H54  1  0.02935000  0.60262000  0.99683000  1.0
  H  H55  1  0.52935000  0.99683000  0.60262000  1.0
  H  H56  1  0.06043000  0.54884000  0.05537000  1.0
  H  H57  1  0.56043000  0.05537000  0.54884000  1.0
  H  H58  1  0.97927000  0.37628000  0.84278000  1.0
  H  H59  1  0.47927000  0.84279000  0.37628000  1.0
  H  H60  1  0.12201000  0.39749000  0.84032000  1.0
  H  H61  1  0.62201000  0.84032000  0.39749000  1.0
  H  H62  1  0.17632000  0.45940000  0.02651000  1.0
  H  H63  1  0.67632000  0.02651000  0.45940000  1.0
  H  H64  1  0.23458000  0.44489000  0.94529000  1.0
  H  H65  1  0.73458000  0.94529000  0.44489000  1.0
  H  H66  1  0.19620000  0.51636000  0.86606000  1.0
  H  H67  1  0.69620000  0.86606000  0.51636000  1.0
  H  H68  1  0.10791000  0.58344000  0.88715000  1.0
  H  H69  1  0.60791000  0.88715000  0.58344000  1.0
  H  H70  1  0.67005000  0.34528000  0.85658000  1.0
  H  H71  1  0.17005000  0.85658000  0.34528000  1.0
  H  H72  1  0.26570000  0.32062000  0.86427000  1.0
  H  H73  1  0.76570000  0.86427000  0.32062000  1.0
  H  H74  1  0.38427000  0.40904000  0.95289000  1.0
  H  H75  1  0.88427000  0.95289000  0.40904000  1.0
  H  H76  1  0.65414000  0.24679000  0.75554000  1.0
  H  H77  1  0.15414000  0.75554000  0.24679000  1.0
  H  H78  1  0.53612000  0.15814000  0.66602000  1.0
  H  H79  1  0.03612000  0.66602000  0.15814000  1.0
  H  H80  1  0.24870000  0.22666000  0.75715000  1.0
  H  H81  1  0.74870000  0.75715000  0.22666000  1.0
  H  H82  1  0.93154000  0.40255000  0.15304000  1.0
  H  H83  1  0.43153000  0.15304000  0.40255000  1.0
  H  H84  1  0.98530000  0.34857000  0.25086000  1.0
  H  H85  1  0.48530000  0.25086000  0.34857000  1.0
  H  H86  1  0.64169000  0.46603000  0.24693000  1.0
  H  H87  1  0.14169000  0.24694000  0.46603000  1.0
  H  H88  1  0.94667000  0.32184000  0.36379000  1.0
  H  H89  1  0.44667000  0.36379000  0.32183000  1.0
  H  H90  1  0.66755000  0.39676000  0.46249000  1.0
  H  H91  1  0.16756000  0.46249000  0.39676000  1.0
  H  H92  1  0.60771000  0.44382000  0.36009000  1.0
  H  H93  1  0.10771000  0.36010000  0.44382000  1.0
  H  H94  1  0.12343000  0.62928000  0.33619000  1.0
  H  H95  1  0.62343000  0.33619000  0.62928000  1.0
  H  H96  1  0.96584000  0.80405000  0.51212000  1.0
  H  H97  1  0.46584000  0.51212000  0.80405000  1.0
  H  H98  1  0.16712000  0.80353000  0.50876000  1.0
  H  H99  1  0.66712000  0.50876000  0.80353000  1.0
  H  H100  1  0.93587000  0.57591000  0.29031000  1.0
  H  H101  1  0.43587000  0.29030000  0.57591000  1.0
  H  H102  1  0.73493000  0.57741000  0.29262000  1.0
  H  H103  1  0.23493000  0.29261000  0.57741000  1.0
  H  H104  1  0.77810000  0.75461000  0.46231000  1.0
  H  H105  1  0.27810000  0.46231000  0.75461000  1.0
  H  H106  1  0.78571000  0.62533000  0.85059000  1.0
  H  H107  1  0.28571000  0.85059000  0.62533000  1.0
  H  H108  1  0.42880000  0.72424000  0.82555000  1.0
  H  H109  1  0.92880000  0.82555000  0.72424000  1.0
  H  H110  1  0.47793000  0.67508000  0.92737000  1.0
  H  H111  1  0.97793000  0.92737000  0.67508000  1.0
  H  H112  1  0.83163000  0.64882000  0.74008000  1.0
  H  H113  1  0.33163000  0.74008000  0.64882000  1.0
  H  H114  1  0.78263000  0.69843000  0.63714000  1.0
  H  H115  1  0.28263000  0.63714000  0.69843000  1.0
  H  H116  1  0.47668000  0.75023000  0.71404000  1.0
  H  H117  1  0.97668000  0.71404000  0.75023000  1.0
  C  C118  1  0.41028000  0.61007000  0.51888000  1.0
  C  C119  1  0.91028000  0.51888000  0.61007000  1.0
  C  C120  1  0.34402000  0.52029000  0.57538000  1.0
  C  C121  1  0.84402000  0.57538000  0.52029000  1.0
  C  C122  1  0.51560000  0.51248000  0.51218000  1.0
  C  C123  1  0.01560000  0.51218000  0.51248000  1.0
  C  C124  1  0.48648000  0.59177000  0.19643000  1.0
  C  C125  1  0.98648000  0.19643000  0.59177000  1.0
  C  C126  1  0.46041000  0.66760000  0.11779000  1.0
  C  C127  1  0.96041000  0.11779000  0.66760000  1.0
  C  C128  1  0.37226000  0.55083000  0.08934000  1.0
  C  C129  1  0.87226000  0.08934000  0.55083000  1.0
  C  C130  1  0.37926000  0.68927000  0.22364000  1.0
  C  C131  1  0.87926000  0.22364000  0.68927000  1.0
  C  C132  1  0.26789000  0.64720000  0.11783000  1.0
  C  C133  1  0.76789000  0.11783000  0.64720000  1.0
  C  C134  1  0.29076000  0.57267000  0.19562000  1.0
  C  C135  1  0.79076000  0.19562000  0.57267000  1.0
  C  C136  1  0.93150000  0.50323000  0.89502000  1.0
  C  C137  1  0.43150000  0.89502000  0.50323000  1.0
  C  C138  1  0.97228000  0.43052000  0.97459000  1.0
  C  C139  1  0.47228000  0.97459000  0.43052000  1.0
  C  C140  1  0.04676000  0.55035000  0.00078000  1.0
  C  C141  1  0.54676000  0.00078000  0.55035000  1.0
  C  C142  1  0.05011000  0.41220000  0.86725000  1.0
  C  C143  1  0.55011000  0.86725000  0.41220000  1.0
  C  C144  1  0.16212000  0.45994000  0.97162000  1.0
  C  C145  1  0.66212000  0.97162000  0.45994000  1.0
  C  C146  1  0.12423000  0.53152000  0.89287000  1.0
  C  C147  1  0.62423000  0.89287000  0.53152000  1.0
  C  C148  1  0.60108000  0.43926000  0.96018000  1.0
  C  C149  1  0.10108000  0.96018000  0.43926000  1.0
  C  C150  1  0.53373000  0.38268000  0.90888000  1.0
  C  C151  1  0.03373000  0.90888000  0.38268000  1.0
  C  C152  1  0.58175000  0.33919000  0.85813000  1.0
  C  C153  1  0.08175000  0.85813000  0.33919000  1.0
  C  C154  1  0.51782000  0.28761000  0.80798000  1.0
  C  C155  1  0.01782000  0.80798000  0.28761000  1.0
  C  C156  1  0.40125000  0.28145000  0.80913000  1.0
  C  C157  1  0.90125000  0.80913000  0.28144000  1.0
  C  C158  1  0.35414000  0.32611000  0.86247000  1.0
  C  C159  1  0.85415000  0.86247000  0.32611000  1.0
  C  C160  1  0.41881000  0.37495000  0.91123000  1.0
  C  C161  1  0.91881000  0.91123000  0.37495000  1.0
  C  C162  1  0.56544000  0.24199000  0.75577000  1.0
  C  C163  1  0.06544000  0.75577000  0.24199000  1.0
  C  C164  1  0.50131000  0.19338000  0.70668000  1.0
  C  C165  1  0.00131000  0.70668000  0.19338000  1.0
  C  C166  1  0.38591000  0.18777000  0.70680000  1.0
  C  C167  1  0.88591000  0.70680000  0.18777000  1.0
  C  C168  1  0.33740000  0.23121000  0.75740000  1.0
  C  C169  1  0.83740000  0.75740000  0.23121000  1.0
  C  C170  1  0.31887000  0.13527000  0.65105000  1.0
  C  C171  1  0.81888000  0.65105000  0.13527000  1.0
  C  C172  1  0.75532000  0.47299000  0.13774000  1.0
  C  C173  1  0.25532000  0.13774000  0.47299000  1.0
  C  C174  1  0.78356000  0.43786000  0.19480000  1.0
  C  C175  1  0.28356000  0.19480000  0.43786000  1.0
  C  C176  1  0.88096000  0.40406000  0.19576000  1.0
  C  C177  1  0.38096000  0.19576000  0.40406000  1.0
  C  C178  1  0.91031000  0.37432000  0.24967000  1.0
  C  C179  1  0.41031000  0.24967000  0.37432000  1.0
  C  C180  1  0.84429000  0.37747000  0.30552000  1.0
  C  C181  1  0.34429000  0.30553000  0.37747000  1.0
  C  C182  1  0.74599000  0.41173000  0.30475000  1.0
  C  C183  1  0.24599000  0.30475000  0.41173000  1.0
  C  C184  1  0.71691000  0.44064000  0.24805000  1.0
  C  C185  1  0.21691000  0.24805000  0.44064000  1.0
  C  C186  1  0.87322000  0.34900000  0.36254000  1.0
  C  C187  1  0.37322000  0.36254000  0.34900000  1.0
  C  C188  1  0.81100000  0.35654000  0.41819000  1.0
  C  C189  1  0.31100000  0.41819000  0.35654000  1.0
  C  C190  1  0.71454000  0.39141000  0.41777000  1.0
  C  C191  1  0.21454000  0.41777000  0.39141000  1.0
  C  C192  1  0.68193000  0.41737000  0.36177000  1.0
  C  C193  1  0.18194000  0.36178000  0.41737000  1.0
  C  C194  1  0.85119000  0.33118000  0.47988000  1.0
  C  C195  1  0.35119000  0.47988000  0.33118000  1.0
  C  C196  1  0.27619000  0.71785000  0.41847000  1.0
  C  C197  1  0.77619000  0.41847000  0.71785000  1.0
  C  C198  1  0.15573000  0.71678000  0.42109000  1.0
  C  C199  1  0.65573000  0.42109000  0.71678000  1.0
  C  C200  1  0.08782000  0.66728000  0.37414000  1.0
  C  C201  1  0.58782000  0.37414000  0.66728000  1.0
  C  C202  1  0.97329000  0.66528000  0.37531000  1.0
  C  C203  1  0.47329000  0.37531000  0.66528000  1.0
  C  C204  1  0.92842000  0.71652000  0.42530000  1.0
  C  C205  1  0.42842000  0.42530000  0.71652000  1.0
  C  C206  1  0.00032000  0.76580000  0.47376000  1.0
  C  C207  1  0.50032000  0.47376000  0.76580000  1.0
  C  C208  1  0.11153000  0.76579000  0.47207000  1.0
  C  C209  1  0.61153000  0.47207000  0.76579000  1.0
  C  C210  1  0.90148000  0.61489000  0.32799000  1.0
  C  C211  1  0.40148000  0.32799000  0.61489000  1.0
  C  C212  1  0.79023000  0.61563000  0.32901000  1.0
  C  C213  1  0.29023000  0.32901000  0.61563000  1.0
  C  C214  1  0.74590000  0.66749000  0.37707000  1.0
  C  C215  1  0.24590000  0.37707000  0.66749000  1.0
  C  C216  1  0.81380000  0.71666000  0.42441000  1.0
  C  C217  1  0.31380000  0.42441000  0.71666000  1.0
  C  C218  1  0.62545000  0.66903000  0.37698000  1.0
  C  C219  1  0.12544000  0.37698000  0.66903000  1.0
  C  C220  1  0.66372000  0.61630000  0.95468000  1.0
  C  C221  1  0.16372000  0.95468000  0.61630000  1.0
  C  C222  1  0.63568000  0.64782000  0.89497000  1.0
  C  C223  1  0.13568000  0.89497000  0.64782000  1.0
  C  C224  1  0.70810000  0.64726000  0.84512000  1.0
  C  C225  1  0.20811000  0.84512000  0.64726000  1.0
  C  C226  1  0.68236000  0.67385000  0.78649000  1.0
  C  C227  1  0.18236000  0.78649000  0.67385000  1.0
  C  C228  1  0.58006000  0.70272000  0.77958000  1.0
  C  C229  1  0.08006000  0.77959000  0.70272000  1.0
  C  C230  1  0.50698000  0.70283000  0.83150000  1.0
  C  C231  1  0.00698000  0.83150000  0.70283000  1.0
  C  C232  1  0.53385000  0.67576000  0.88768000  1.0
  C  C233  1  0.03385000  0.88768000  0.67576000  1.0
  C  C234  1  0.75512000  0.67222000  0.73425000  1.0
  C  C235  1  0.25512000  0.73425000  0.67222000  1.0
  C  C236  1  0.72811000  0.69866000  0.67771000  1.0
  C  C237  1  0.22811000  0.67770000  0.69866000  1.0
  C  C238  1  0.62638000  0.72657000  0.67010000  1.0
  C  C239  1  0.12638000  0.67010000  0.72657000  1.0
  C  C240  1  0.55450000  0.72883000  0.72050000  1.0
  C  C241  1  0.05450000  0.72050000  0.72882000  1.0
  C  C242  1  0.59396000  0.74764000  0.60472000  1.0
  C  C243  1  0.09396000  0.60472000  0.74764000  1.0
  N  N244  1  0.42266000  0.54959000  0.53552000  1.0
  N  N245  1  0.92266000  0.53552000  0.54959000  1.0
  N  N246  1  0.47425000  0.59443000  0.12250000  1.0
  N  N247  1  0.97425000  0.12250000  0.59443000  1.0
  N  N248  1  0.39060000  0.61708000  0.23168000  1.0
  N  N249  1  0.89060000  0.23168000  0.61708000  1.0
  N  N250  1  0.36541000  0.69246000  0.15127000  1.0
  N  N251  1  0.86541000  0.15127000  0.69246000  1.0
  N  N252  1  0.27637000  0.57500000  0.12291000  1.0
  N  N253  1  0.77637000  0.12291000  0.57500000  1.0
  N  N254  1  0.94821000  0.50209000  0.96944000  1.0
  N  N255  1  0.44821000  0.96944000  0.50209000  1.0
  N  N256  1  0.02826000  0.48275000  0.85853000  1.0
  N  N257  1  0.52827000  0.85853000  0.48275000  1.0
  N  N258  1  0.06856000  0.41018000  0.93993000  1.0
  N  N259  1  0.56856000  0.93993000  0.41018000  1.0
  N  N260  1  0.14356000  0.53080000  0.96593000  1.0
  N  N261  1  0.64356000  0.96593000  0.53080000  1.0
  O  O262  1  0.47467000  0.63620000  0.48362000  1.0
  O  O263  1  0.97467000  0.48362000  0.63620000  1.0
  O  O264  1  0.55163000  0.47353000  0.00839000  1.0
  O  O265  1  0.05163000  0.00839000  0.47353000  1.0
  O  O266  1  0.70179000  0.44988000  0.95138000  1.0
  O  O267  1  0.20179000  0.95138000  0.44988000  1.0
  O  O268  1  0.37179000  0.09614000  0.60837000  1.0
  O  O269  1  0.87180000  0.60837000  0.09614000  1.0
  O  O270  1  0.21520000  0.13367000  0.64951000  1.0
  O  O271  1  0.71521000  0.64951000  0.13368000  1.0
  O  O272  1  0.67385000  0.50904000  0.14386000  1.0
  O  O273  1  0.17385000  0.14386000  0.50904000  1.0
  O  O274  1  0.81586000  0.46581000  0.08798000  1.0
  O  O275  1  0.31586000  0.08798000  0.46581000  1.0
  O  O276  1  0.91865000  0.28672000  0.47540000  1.0
  O  O277  1  0.41865000  0.47540000  0.28672000  1.0
  O  O278  1  0.81456000  0.36050000  0.53786000  1.0
  O  O279  1  0.31456000  0.53786000  0.36050000  1.0
  O  O280  1  0.59072000  0.61233000  0.99610000  1.0
  O  O281  1  0.09071000  0.99610000  0.61233000  1.0
  O  O282  1  0.33569000  0.74998000  0.47222000  1.0
  O  O283  1  0.83569000  0.47222000  0.74998000  1.0
  O  O284  1  0.31181000  0.68748000  0.36222000  1.0
  O  O285  1  0.81181000  0.36222000  0.68748000  1.0
  O  O286  1  0.56728000  0.61336000  0.34685000  1.0
  O  O287  1  0.06728000  0.34685000  0.61336000  1.0
  O  O288  1  0.58689000  0.72494000  0.40429000  1.0
  O  O289  1  0.08689000  0.40429000  0.72493000  1.0
  O  O290  1  0.75791000  0.59436000  0.95935000  1.0
  O  O291  1  0.25791000  0.95935000  0.59436000  1.0
  O  O292  1  0.65880000  0.74286000  0.55774000  1.0
  O  O293  1  0.15880000  0.55774000  0.74286000  1.0
  O  O294  1  0.49672000  0.76610000  0.59560000  1.0
  O  O295  1  0.99672000  0.59560000  0.76610000  1.0
