# generated using pymatgen
data_HgH9C12I2N5
_symmetry_space_group_name_H-M   'P 1'
_cell_length_a   7.71789000
_cell_length_b   16.04620000
_cell_length_c   18.45800000
_cell_angle_alpha   68.66450000
_cell_angle_beta   88.42800000
_cell_angle_gamma   83.58090000
_symmetry_Int_Tables_number   1
_chemical_formula_structural   HgH9C12I2N5
_chemical_formula_sum   'Hg4 H36 C48 I8 N20'
_cell_volume   2115.66393029
_cell_formula_units_Z   4
loop_
 _symmetry_equiv_pos_site_id
 _symmetry_equiv_pos_as_xyz
  1  'x, y, z'
loop_
 _atom_site_type_symbol
 _atom_site_label
 _atom_site_symmetry_multiplicity
 _atom_site_fract_x
 _atom_site_fract_y
 _atom_site_fract_z
 _atom_site_occupancy
  Hg  Hg0  1  0.20843000  0.46300000  0.32663000  1.0
  Hg  Hg1  1  0.79159000  0.53701000  0.67337000  1.0
  Hg  Hg2  1  0.41656000  0.78006000  0.00730000  1.0
  Hg  Hg3  1  0.58347000  0.21991000  0.99269000  1.0
  H  H4  1  0.54459000  0.57215000  0.19479000  1.0
  H  H5  1  0.45543000  0.42784000  0.80523000  1.0
  H  H6  1  0.84154000  0.48498000  0.22605000  1.0
  H  H7  1  0.15849000  0.51501000  0.77398000  1.0
  H  H8  1  0.95475000  0.60839000  0.37787000  1.0
  H  H9  1  0.04526000  0.39163000  0.62213000  1.0
  H  H10  1  0.66594000  0.70095000  0.35418000  1.0
  H  H11  1  0.33405000  0.29906000  0.64582000  1.0
  H  H12  1  0.08590000  0.65322000  0.11544000  1.0
  H  H13  1  0.91415000  0.34676000  0.88456000  1.0
  H  H14  1  0.80746000  0.67417000  0.04017000  1.0
  H  H15  1  0.19258000  0.32578000  0.95984000  1.0
  H  H16  1  0.59787000  0.88056000  0.11110000  1.0
  H  H17  1  0.40209000  0.11941000  0.88890000  1.0
  H  H18  1  0.86706000  0.86862000  0.18956000  1.0
  H  H19  1  0.13292000  0.13137000  0.81044000  1.0
  H  H20  1  0.89407000  0.14563000  0.39320000  1.0
  H  H21  1  0.10591000  0.85439000  0.60679000  1.0
  H  H22  1  0.04001000  0.28354000  0.31578000  1.0
  H  H23  1  0.95997000  0.71647000  0.68422000  1.0
  H  H24  1  0.06951000  0.35800000  0.50666000  1.0
  H  H25  1  0.93043000  0.64202000  0.49333000  1.0
  H  H26  1  0.93082000  0.22174000  0.59367000  1.0
  H  H27  1  0.06913000  0.77829000  0.40631000  1.0
  H  H28  1  0.62848000  0.82059000  0.70916000  1.0
  H  H29  1  0.37151000  0.17943000  0.29083000  1.0
  H  H30  1  0.54116000  0.74415000  0.84548000  1.0
  H  H31  1  0.45884000  0.25586000  0.15451000  1.0
  H  H32  1  0.65543000  0.95469000  0.90910000  1.0
  H  H33  1  0.34457000  0.04530000  0.09090000  1.0
  H  H34  1  0.75460000  0.04118000  0.77480000  1.0
  H  H35  1  0.24539000  0.95881000  0.22520000  1.0
  H  H36  1  0.38486000  0.77945000  0.32242000  1.0
  H  H37  1  0.61515000  0.22056000  0.67758000  1.0
  H  H38  1  0.69852000  0.90755000  0.58594000  1.0
  H  H39  1  0.30146000  0.09247000  0.41406000  1.0
  C  C40  1  0.40966000  0.69546000  0.25282000  1.0
  C  C41  1  0.59035000  0.30454000  0.74719000  1.0
  C  C42  1  0.15421000  0.74598000  0.20563000  1.0
  C  C43  1  0.84579000  0.25401000  0.79437000  1.0
  C  C44  1  0.58116000  0.64442000  0.27150000  1.0
  C  C45  1  0.41884000  0.35558000  0.72852000  1.0
  C  C46  1  0.63185000  0.58179000  0.23587000  1.0
  C  C47  1  0.36816000  0.41821000  0.76414000  1.0
  C  C48  1  0.79579000  0.53330000  0.25337000  1.0
  C  C49  1  0.20421000  0.46669000  0.74664000  1.0
  C  C50  1  0.85898000  0.60292000  0.33778000  1.0
  C  C51  1  0.14104000  0.39709000  0.66223000  1.0
  C  C52  1  0.69785000  0.65435000  0.32389000  1.0
  C  C53  1  0.30216000  0.34565000  0.67612000  1.0
  C  C54  1  0.99574000  0.75830000  0.15987000  1.0
  C  C55  1  0.00428000  0.24167000  0.84013000  1.0
  C  C56  1  0.98003000  0.70400000  0.11608000  1.0
  C  C57  1  0.01998000  0.29597000  0.88392000  1.0
  C  C58  1  0.82665000  0.71590000  0.07407000  1.0
  C  C59  1  0.17337000  0.28406000  0.92593000  1.0
  C  C60  1  0.70874000  0.83049000  0.11463000  1.0
  C  C61  1  0.29127000  0.16950000  0.88538000  1.0
  C  C62  1  0.85737000  0.82348000  0.15817000  1.0
  C  C63  1  0.14264000  0.17649000  0.84184000  1.0
  C  C64  1  0.82566000  0.09238000  0.54878000  1.0
  C  C65  1  0.17431000  0.90764000  0.45122000  1.0
  C  C66  1  0.73934000  0.99215000  0.65035000  1.0
  C  C67  1  0.26066000  0.00786000  0.34964000  1.0
  C  C68  1  0.90155000  0.17322000  0.49970000  1.0
  C  C69  1  0.09844000  0.82679000  0.50029000  1.0
  C  C70  1  0.93161000  0.19106000  0.42036000  1.0
  C  C71  1  0.06835000  0.80896000  0.57964000  1.0
  C  C72  1  0.01159000  0.26709000  0.37757000  1.0
  C  C73  1  0.98838000  0.73292000  0.62243000  1.0
  C  C74  1  0.02909000  0.30847000  0.48448000  1.0
  C  C75  1  0.97087000  0.69155000  0.51551000  1.0
  C  C76  1  0.95120000  0.23380000  0.53214000  1.0
  C  C77  1  0.04876000  0.76623000  0.46785000  1.0
  C  C78  1  0.69266000  0.94006000  0.72974000  1.0
  C  C79  1  0.30735000  0.05994000  0.27024000  1.0
  C  C80  1  0.63558000  0.85456000  0.75042000  1.0
  C  C81  1  0.36441000  0.14546000  0.24957000  1.0
  C  C82  1  0.58672000  0.81080000  0.82690000  1.0
  C  C83  1  0.41328000  0.18921000  0.17309000  1.0
  C  C84  1  0.65141000  0.92786000  0.86263000  1.0
  C  C85  1  0.34859000  0.07213000  0.13736000  1.0
  C  C86  1  0.70450000  0.97640000  0.78794000  1.0
  C  C87  1  0.29549000  0.02360000  0.21205000  1.0
  I  I88  1  0.29490000  0.51460000  0.44291000  1.0
  I  I89  1  0.70514000  0.48540000  0.55710000  1.0
  I  I90  1  0.27620000  0.41493000  0.20374000  1.0
  I  I91  1  0.72378000  0.58509000  0.79626000  1.0
  I  I92  1  0.43066000  0.61447000  0.00356000  1.0
  I  I93  1  0.56945000  0.38551000  0.99641000  1.0
  I  I94  1  0.23146000  0.93267000  0.00573000  1.0
  I  I95  1  0.76856000  0.06729000  0.99429000  1.0
  N  N96  1  0.17486000  0.79043000  0.25357000  1.0
  N  N97  1  0.82513000  0.20956000  0.74643000  1.0
  N  N98  1  0.33766000  0.75795000  0.28220000  1.0
  N  N99  1  0.66234000  0.24205000  0.71780000  1.0
  N  N100  1  0.29492000  0.68731000  0.20380000  1.0
  N  N101  1  0.70510000  0.31268000  0.79621000  1.0
  N  N102  1  0.90755000  0.54394000  0.30304000  1.0
  N  N103  1  0.09245000  0.45606000  0.69697000  1.0
  N  N104  1  0.69291000  0.77721000  0.07398000  1.0
  N  N105  1  0.30711000  0.22276000  0.92603000  1.0
  N  N106  1  0.73270000  0.96590000  0.58806000  1.0
  N  N107  1  0.26729000  0.03412000  0.41193000  1.0
  N  N108  1  0.78714000  0.02832000  0.52288000  1.0
  N  N109  1  0.21284000  0.97171000  0.47711000  1.0
  N  N110  1  0.79616000  0.07325000  0.62617000  1.0
  N  N111  1  0.20383000  0.92676000  0.37383000  1.0
  N  N112  1  0.06046000  0.32439000  0.40908000  1.0
  N  N113  1  0.93951000  0.67563000  0.59092000  1.0
  N  N114  1  0.59155000  0.84723000  0.88152000  1.0
  N  N115  1  0.40844000  0.15277000  0.11848000  1.0
