# generated using pymatgen
data_Cu3H10C16S3N7
_symmetry_space_group_name_H-M   'P 1'
_cell_length_a   5.74187000
_cell_length_b   8.31636000
_cell_length_c   10.05390000
_cell_angle_alpha   86.86890000
_cell_angle_beta   84.24020000
_cell_angle_gamma   79.83010000
_symmetry_Int_Tables_number   1
_chemical_formula_structural   Cu3H10C16S3N7
_chemical_formula_sum   'Cu3 H10 C16 S3 N7'
_cell_volume   469.82588603
_cell_formula_units_Z   1
loop_
 _symmetry_equiv_pos_site_id
 _symmetry_equiv_pos_as_xyz
  1  'x, y, z'
loop_
 _atom_site_type_symbol
 _atom_site_label
 _atom_site_symmetry_multiplicity
 _atom_site_fract_x
 _atom_site_fract_y
 _atom_site_fract_z
 _atom_site_occupancy
  Cu  Cu0  1  0.46945000  0.49682000  0.48299000  1.0
  Cu  Cu1  1  0.71181000  0.65117000  0.83408000  1.0
  Cu  Cu2  1  0.80769000  0.76759000  0.16558000  1.0
  H  H3  1  0.80832000  0.40336000  0.24946000  1.0
  H  H4  1  0.85993000  0.88332000  0.63885000  1.0
  H  H5  1  0.23450000  0.88184000  0.88200000  1.0
  H  H6  1  0.02773000  0.12709000  0.75677000  1.0
  H  H7  1  0.24926000  0.24963000  0.56182000  1.0
  H  H8  1  0.02727000  0.93591000  0.42885000  1.0
  H  H9  1  0.09880000  0.35166000  0.06791000  1.0
  H  H10  1  0.47645000  0.29494000  0.91929000  1.0
  H  H11  1  0.78553000  0.05606000  0.97347000  1.0
  H  H12  1  0.37854000  0.93308000  0.31439000  1.0
  C  C13  1  0.67531000  0.94129000  0.66088000  1.0
  C  C14  1  0.32600000  0.94025000  0.79751000  1.0
  C  C15  1  0.21264000  0.07576000  0.72720000  1.0
  C  C16  1  0.33652000  0.14493000  0.61904000  1.0
  C  C17  1  0.57547000  0.07710000  0.58413000  1.0
  C  C18  1  0.72019000  0.13844000  0.47120000  1.0
  C  C19  1  0.93465000  0.05789000  0.40621000  1.0
  C  C20  1  0.99894000  0.16404000  0.30210000  1.0
  C  C21  1  0.20653000  0.14509000  0.20493000  1.0
  C  C22  1  0.23590000  0.24846000  0.09163000  1.0
  C  C23  1  0.44636000  0.21747000  0.00802000  1.0
  C  C24  1  0.61984000  0.08482000  0.03723000  1.0
  C  C25  1  0.39198000  0.01492000  0.22666000  1.0
  C  C26  1  0.24785000  0.54418000  0.76450000  1.0
  C  C27  1  0.34045000  0.65776000  0.09898000  1.0
  C  C28  1  0.95045000  0.62064000  0.43526000  1.0
  S  S29  1  0.52817000  0.48069000  0.71247000  1.0
  S  S30  1  0.62340000  0.58774000  0.05699000  1.0
  S  S31  1  0.68269000  0.69682000  0.39502000  1.0
  N  N32  1  0.55519000  0.87316000  0.76450000  1.0
  N  N33  1  0.65699000  0.28793000  0.41092000  1.0
  N  N34  1  0.82520000  0.29868000  0.30867000  1.0
  N  N35  1  0.59295000  0.98311000  0.14519000  1.0
  N  N36  1  0.04534000  0.58924000  0.79957000  1.0
  N  N37  1  0.13749000  0.71029000  0.12738000  1.0
  N  N38  1  0.14601000  0.56649000  0.46014000  1.0
