# generated using pymatgen
data_NiH18C28(N2O)4
_symmetry_space_group_name_H-M   'P 1'
_cell_length_a   8.53489000
_cell_length_b   15.86510000
_cell_length_c   21.30920000
_cell_angle_alpha   90.00050000
_cell_angle_beta   90.00010000
_cell_angle_gamma   89.99660000
_symmetry_Int_Tables_number   1
_chemical_formula_structural   NiH18C28(N2O)4
_chemical_formula_sum   'Ni4 H72 C112 N32 O16'
_cell_volume   2885.41235325
_cell_formula_units_Z   4
loop_
 _symmetry_equiv_pos_site_id
 _symmetry_equiv_pos_as_xyz
  1  'x, y, z'
loop_
 _atom_site_type_symbol
 _atom_site_label
 _atom_site_symmetry_multiplicity
 _atom_site_fract_x
 _atom_site_fract_y
 _atom_site_fract_z
 _atom_site_occupancy
  Ni  Ni0  1  0.72397000  0.25000000  0.49999000  1.0
  Ni  Ni1  1  0.27602000  0.24999000  0.00001000  1.0
  Ni  Ni2  1  0.27603000  0.74997000  0.49998000  1.0
  Ni  Ni3  1  0.72397000  0.75002000  0.00000000  1.0
  H  H4  1  0.85201000  0.02432000  0.96314000  1.0
  H  H5  1  0.14799000  0.02421000  0.53687000  1.0
  H  H6  1  0.14804000  0.47561000  0.46318000  1.0
  H  H7  1  0.85201000  0.47574000  0.03683000  1.0
  H  H8  1  0.14804000  0.97565000  0.03682000  1.0
  H  H9  1  0.85201000  0.97568000  0.46317000  1.0
  H  H10  1  0.85199000  0.52424000  0.53686000  1.0
  H  H11  1  0.14795000  0.52423000  0.96313000  1.0
  H  H12  1  0.07002000  0.84279000  0.84090000  1.0
  H  H13  1  0.92982000  0.84283000  0.65916000  1.0
  H  H14  1  0.93014000  0.65723000  0.34096000  1.0
  H  H15  1  0.07003000  0.65721000  0.15910000  1.0
  H  H16  1  0.93010000  0.15722000  0.15906000  1.0
  H  H17  1  0.06996000  0.15721000  0.34092000  1.0
  H  H18  1  0.07012000  0.34280000  0.65912000  1.0
  H  H19  1  0.92984000  0.34282000  0.84085000  1.0
  H  H20  1  0.12102000  0.23771000  0.85303000  1.0
  H  H21  1  0.87891000  0.23777000  0.64696000  1.0
  H  H22  1  0.87884000  0.26233000  0.35308000  1.0
  H  H23  1  0.12121000  0.26229000  0.14691000  1.0
  H  H24  1  0.87891000  0.76231000  0.14693000  1.0
  H  H25  1  0.12123000  0.76231000  0.35309000  1.0
  H  H26  1  0.12097000  0.73773000  0.64697000  1.0
  H  H27  1  0.87884000  0.73774000  0.85305000  1.0
  H  H28  1  0.97679000  0.14118000  0.90365000  1.0
  H  H29  1  0.02330000  0.14116000  0.59634000  1.0
  H  H30  1  0.02317000  0.35881000  0.40367000  1.0
  H  H31  1  0.97677000  0.35885000  0.09632000  1.0
  H  H32  1  0.02321000  0.85882000  0.09632000  1.0
  H  H33  1  0.97683000  0.85883000  0.40367000  1.0
  H  H34  1  0.97671000  0.64116000  0.59634000  1.0
  H  H35  1  0.02325000  0.64117000  0.90365000  1.0
  H  H36  1  0.19005000  0.95955000  0.77911000  1.0
  H  H37  1  0.80991000  0.95964000  0.72092000  1.0
  H  H38  1  0.81002000  0.54049000  0.27915000  1.0
  H  H39  1  0.19005000  0.54042000  0.22088000  1.0
  H  H40  1  0.81002000  0.04047000  0.22085000  1.0
  H  H41  1  0.19002000  0.04044000  0.27912000  1.0
  H  H42  1  0.19007000  0.45958000  0.72090000  1.0
  H  H43  1  0.80993000  0.45961000  0.77907000  1.0
  H  H44  1  0.37910000  0.34292000  0.68193000  1.0
  H  H45  1  0.62087000  0.34293000  0.81808000  1.0
  H  H46  1  0.62098000  0.15709000  0.18198000  1.0
  H  H47  1  0.37900000  0.15708000  0.31803000  1.0
  H  H48  1  0.62101000  0.65709000  0.31801000  1.0
  H  H49  1  0.37903000  0.65708000  0.18196000  1.0
  H  H50  1  0.37909000  0.84292000  0.81805000  1.0
  H  H51  1  0.62087000  0.84293000  0.68191000  1.0
  H  H52  1  0.55115000  0.36257000  0.58767000  1.0
  H  H53  1  0.44876000  0.36257000  0.91233000  1.0
  H  H54  1  0.44898000  0.13741000  0.08770000  1.0
  H  H55  1  0.55106000  0.13741000  0.41231000  1.0
  H  H56  1  0.44903000  0.63740000  0.41230000  1.0
  H  H57  1  0.55109000  0.63741000  0.08769000  1.0
  H  H58  1  0.55112000  0.86258000  0.91233000  1.0
  H  H59  1  0.44874000  0.86256000  0.58766000  1.0
  H  H60  1  0.39744000  0.07515000  0.64796000  1.0
  H  H61  1  0.60257000  0.07516000  0.85202000  1.0
  H  H62  1  0.60264000  0.42486000  0.14796000  1.0
  H  H63  1  0.39734000  0.42485000  0.35203000  1.0
  H  H64  1  0.60263000  0.92487000  0.35204000  1.0
  H  H65  1  0.39736000  0.92485000  0.14798000  1.0
  H  H66  1  0.39742000  0.57515000  0.85204000  1.0
  H  H67  1  0.60258000  0.57516000  0.64798000  1.0
  H  H68  1  0.57428000  0.10554000  0.55569000  1.0
  H  H69  1  0.42571000  0.10553000  0.94430000  1.0
  H  H70  1  0.42580000  0.39441000  0.05567000  1.0
  H  H71  1  0.57420000  0.39442000  0.44432000  1.0
  H  H72  1  0.42582000  0.89440000  0.44433000  1.0
  H  H73  1  0.57423000  0.89444000  0.05570000  1.0
  H  H74  1  0.57425000  0.60556000  0.94433000  1.0
  H  H75  1  0.42569000  0.60552000  0.55571000  1.0
  C  C76  1  0.87436000  0.85847000  0.94088000  1.0
  C  C77  1  0.12544000  0.85839000  0.55916000  1.0
  C  C78  1  0.12581000  0.64150000  0.44090000  1.0
  C  C79  1  0.87440000  0.64157000  0.05912000  1.0
  C  C80  1  0.12576000  0.14152000  0.05910000  1.0
  C  C81  1  0.87431000  0.14154000  0.44088000  1.0
  C  C82  1  0.87446000  0.35843000  0.55914000  1.0
  C  C83  1  0.12546000  0.35841000  0.94084000  1.0
  C  C84  1  0.95273000  0.92681000  0.90566000  1.0
  C  C85  1  0.04717000  0.92677000  0.59437000  1.0
  C  C86  1  0.04740000  0.57318000  0.40570000  1.0
  C  C87  1  0.95275000  0.57322000  0.09433000  1.0
  C  C88  1  0.04738000  0.07319000  0.09430000  1.0
  C  C89  1  0.95270000  0.07320000  0.40568000  1.0
  C  C90  1  0.95279000  0.42678000  0.59435000  1.0
  C  C91  1  0.04716000  0.42678000  0.90563000  1.0
  C  C92  1  0.92714000  0.01109000  0.92299000  1.0
  C  C93  1  0.07285000  0.01103000  0.57703000  1.0
  C  C94  1  0.07293000  0.48889000  0.42302000  1.0
  C  C95  1  0.92714000  0.48895000  0.07699000  1.0
  C  C96  1  0.07293000  0.98891000  0.07697000  1.0
  C  C97  1  0.92713000  0.98892000  0.42301000  1.0
  C  C98  1  0.92715000  0.51104000  0.57701000  1.0
  C  C99  1  0.07281000  0.51104000  0.92297000  1.0
  C  C100  1  0.09197000  0.05727000  0.83748000  1.0
  C  C101  1  0.90804000  0.05731000  0.66251000  1.0
  C  C102  1  0.90804000  0.44275000  0.33751000  1.0
  C  C103  1  0.09196000  0.44274000  0.16249000  1.0
  C  C104  1  0.90807000  0.94274000  0.16249000  1.0
  C  C105  1  0.09198000  0.94273000  0.33751000  1.0
  C  C106  1  0.09195000  0.55727000  0.66251000  1.0
  C  C107  1  0.90802000  0.55729000  0.83747000  1.0
  C  C108  1  0.16277000  0.12320000  0.79958000  1.0
  C  C109  1  0.83723000  0.12325000  0.70041000  1.0
  C  C110  1  0.83723000  0.37683000  0.29961000  1.0
  C  C111  1  0.16276000  0.37680000  0.20039000  1.0
  C  C112  1  0.83726000  0.87682000  0.20039000  1.0
  C  C113  1  0.16278000  0.87680000  0.29961000  1.0
  C  C114  1  0.16274000  0.62321000  0.70041000  1.0
  C  C115  1  0.83722000  0.62324000  0.79958000  1.0
  C  C116  1  0.28177000  0.19038000  0.72803000  1.0
  C  C117  1  0.71822000  0.19042000  0.77197000  1.0
  C  C118  1  0.71828000  0.30965000  0.22805000  1.0
  C  C119  1  0.28172000  0.30962000  0.27196000  1.0
  C  C120  1  0.71830000  0.80965000  0.27195000  1.0
  C  C121  1  0.28175000  0.80961000  0.22805000  1.0
  C  C122  1  0.28175000  0.69039000  0.77197000  1.0
  C  C123  1  0.71821000  0.69042000  0.72802000  1.0
  C  C124  1  0.04956000  0.90816000  0.85427000  1.0
  C  C125  1  0.95034000  0.90817000  0.64577000  1.0
  C  C126  1  0.95056000  0.59185000  0.35432000  1.0
  C  C127  1  0.04957000  0.59185000  0.14572000  1.0
  C  C128  1  0.95054000  0.09185000  0.14569000  1.0
  C  C129  1  0.04952000  0.09185000  0.35429000  1.0
  C  C130  1  0.04962000  0.40815000  0.64574000  1.0
  C  C131  1  0.95035000  0.40817000  0.85423000  1.0
  C  C132  1  0.37512000  0.20692000  0.67224000  1.0
  C  C133  1  0.62486000  0.20694000  0.82777000  1.0
  C  C134  1  0.62497000  0.29309000  0.17226000  1.0
  C  C135  1  0.37503000  0.29307000  0.32775000  1.0
  C  C136  1  0.62500000  0.79309000  0.32774000  1.0
  C  C137  1  0.37507000  0.79307000  0.17225000  1.0
  C  C138  1  0.37510000  0.70692000  0.82776000  1.0
  C  C139  1  0.62486000  0.70694000  0.67223000  1.0
  C  C140  1  0.99692000  0.07604000  0.88950000  1.0
  C  C141  1  0.00311000  0.07603000  0.61050000  1.0
  C  C142  1  0.00308000  0.42396000  0.38952000  1.0
  C  C143  1  0.99692000  0.42399000  0.11047000  1.0
  C  C144  1  0.00311000  0.92397000  0.11047000  1.0
  C  C145  1  0.99694000  0.92397000  0.38952000  1.0
  C  C146  1  0.99689000  0.57602000  0.61049000  1.0
  C  C147  1  0.00307000  0.57603000  0.88949000  1.0
  C  C148  1  0.11777000  0.97288000  0.82009000  1.0
  C  C149  1  0.88219000  0.97293000  0.67993000  1.0
  C  C150  1  0.88229000  0.52714000  0.32013000  1.0
  C  C151  1  0.11777000  0.52712000  0.17989000  1.0
  C  C152  1  0.88230000  0.02713000  0.17987000  1.0
  C  C153  1  0.11775000  0.02712000  0.32011000  1.0
  C  C154  1  0.11779000  0.47289000  0.67991000  1.0
  C  C155  1  0.88219000  0.47291000  0.82006000  1.0
  C  C156  1  0.41789000  0.28889000  0.65457000  1.0
  C  C157  1  0.58207000  0.28890000  0.84544000  1.0
  C  C158  1  0.58222000  0.21111000  0.15461000  1.0
  C  C159  1  0.41779000  0.21111000  0.34541000  1.0
  C  C160  1  0.58225000  0.71112000  0.34539000  1.0
  C  C161  1  0.41783000  0.71110000  0.15459000  1.0
  C  C162  1  0.41787000  0.78889000  0.84542000  1.0
  C  C163  1  0.58207000  0.78890000  0.65456000  1.0
  C  C164  1  0.51340000  0.30010000  0.60267000  1.0
  C  C165  1  0.48654000  0.30010000  0.89733000  1.0
  C  C166  1  0.48671000  0.19988000  0.10269000  1.0
  C  C167  1  0.51331000  0.19987000  0.39732000  1.0
  C  C168  1  0.48675000  0.69987000  0.39730000  1.0
  C  C169  1  0.51335000  0.69988000  0.10268000  1.0
  C  C170  1  0.51337000  0.80011000  0.89733000  1.0
  C  C171  1  0.48652000  0.80010000  0.60266000  1.0
  C  C172  1  0.42936000  0.13946000  0.63551000  1.0
  C  C173  1  0.57063000  0.13947000  0.86448000  1.0
  C  C174  1  0.57074000  0.36053000  0.13552000  1.0
  C  C175  1  0.42926000  0.36053000  0.36448000  1.0
  C  C176  1  0.57076000  0.86053000  0.36448000  1.0
  C  C177  1  0.42929000  0.86053000  0.13553000  1.0
  C  C178  1  0.42934000  0.63947000  0.86449000  1.0
  C  C179  1  0.57063000  0.63947000  0.63552000  1.0
  C  C180  1  0.52569000  0.15585000  0.58460000  1.0
  C  C181  1  0.47428000  0.15585000  0.91539000  1.0
  C  C182  1  0.47440000  0.34412000  0.08460000  1.0
  C  C183  1  0.52560000  0.34412000  0.41539000  1.0
  C  C184  1  0.47442000  0.84411000  0.41540000  1.0
  C  C185  1  0.52563000  0.84413000  0.08462000  1.0
  C  C186  1  0.52566000  0.65587000  0.91540000  1.0
  C  C187  1  0.47427000  0.65584000  0.58462000  1.0
  N  N188  1  0.56852000  0.23487000  0.56860000  1.0
  N  N189  1  0.43142000  0.23486000  0.93139000  1.0
  N  N190  1  0.43159000  0.26510000  0.06861000  1.0
  N  N191  1  0.56843000  0.26510000  0.43139000  1.0
  N  N192  1  0.43162000  0.76509000  0.43139000  1.0
  N  N193  1  0.56847000  0.76511000  0.06862000  1.0
  N  N194  1  0.56847000  0.73488000  0.93140000  1.0
  N  N195  1  0.43141000  0.73485000  0.56861000  1.0
  N  N196  1  0.24086000  0.11097000  0.74603000  1.0
  N  N197  1  0.75917000  0.11101000  0.75397000  1.0
  N  N198  1  0.75921000  0.38905000  0.24603000  1.0
  N  N199  1  0.24077000  0.38902000  0.25397000  1.0
  N  N200  1  0.75923000  0.88905000  0.25396000  1.0
  N  N201  1  0.24078000  0.88902000  0.24603000  1.0
  N  N202  1  0.24085000  0.61098000  0.75396000  1.0
  N  N203  1  0.75917000  0.61101000  0.74601000  1.0
  N  N204  1  0.23358000  0.25142000  0.76746000  1.0
  N  N205  1  0.76636000  0.25147000  0.73254000  1.0
  N  N206  1  0.76638000  0.24862000  0.26749000  1.0
  N  N207  1  0.23365000  0.24858000  0.23251000  1.0
  N  N208  1  0.76642000  0.74862000  0.23251000  1.0
  N  N209  1  0.23368000  0.74859000  0.26750000  1.0
  N  N210  1  0.23354000  0.75143000  0.73255000  1.0
  N  N211  1  0.76632000  0.75146000  0.76747000  1.0
  N  N212  1  0.15811000  0.20746000  0.81231000  1.0
  N  N213  1  0.84184000  0.20752000  0.68768000  1.0
  N  N214  1  0.84183000  0.29258000  0.31235000  1.0
  N  N215  1  0.15820000  0.29254000  0.18765000  1.0
  N  N216  1  0.84187000  0.79257000  0.18765000  1.0
  N  N217  1  0.15822000  0.79255000  0.31236000  1.0
  N  N218  1  0.15806000  0.70747000  0.68769000  1.0
  N  N219  1  0.84180000  0.70750000  0.81232000  1.0
  O  O220  1  0.77407000  0.87656000  0.98343000  1.0
  O  O221  1  0.22577000  0.87644000  0.51661000  1.0
  O  O222  1  0.22618000  0.62340000  0.48342000  1.0
  O  O223  1  0.77404000  0.62349000  0.01659000  1.0
  O  O224  1  0.22611000  0.12343000  0.01657000  1.0
  O  O225  1  0.77397000  0.12345000  0.48341000  1.0
  O  O226  1  0.77413000  0.37649000  0.51660000  1.0
  O  O227  1  0.22580000  0.37647000  0.98338000  1.0
  O  O228  1  0.90305000  0.78053000  0.92849000  1.0
  O  O229  1  0.09666000  0.78047000  0.57154000  1.0
  O  O230  1  0.09710000  0.71946000  0.42853000  1.0
  O  O231  1  0.90314000  0.71951000  0.07149000  1.0
  O  O232  1  0.09705000  0.21948000  0.07147000  1.0
  O  O233  1  0.90302000  0.21949000  0.42851000  1.0
  O  O234  1  0.90320000  0.28049000  0.57152000  1.0
  O  O235  1  0.09670000  0.28048000  0.92846000  1.0
