# generated using pymatgen
data_CuH10C11S2(NCl)2
_symmetry_space_group_name_H-M   'P 1'
_cell_length_a   10.95400000
_cell_length_b   10.95380000
_cell_length_c   12.16420000
_cell_angle_alpha   64.16870000
_cell_angle_beta   64.16410000
_cell_angle_gamma   61.20950000
_symmetry_Int_Tables_number   1
_chemical_formula_structural   CuH10C11S2(NCl)2
_chemical_formula_sum   'Cu2 H20 C22 S4 N4 Cl4'
_cell_volume   1103.08422513
_cell_formula_units_Z   2
loop_
 _symmetry_equiv_pos_site_id
 _symmetry_equiv_pos_as_xyz
  1  'x, y, z'
loop_
 _atom_site_type_symbol
 _atom_site_label
 _atom_site_symmetry_multiplicity
 _atom_site_fract_x
 _atom_site_fract_y
 _atom_site_fract_z
 _atom_site_occupancy
  Cu  Cu0  1  0.00000000  0.50000000  0.50000000  1.0
  Cu  Cu1  1  0.50000000  1.00000000  0.00000000  1.0
  H  H2  1  0.51168000  0.58595000  0.24441000  1.0
  H  H3  1  0.41408000  0.48833000  0.25561000  1.0
  H  H4  1  0.48833000  0.41405000  0.75559000  1.0
  H  H5  1  0.58592000  0.51167000  0.74439000  1.0
  H  H6  1  0.84775000  0.29005000  0.63632000  1.0
  H  H7  1  0.70997000  0.15226000  0.86367000  1.0
  H  H8  1  0.15225000  0.70996000  0.36368000  1.0
  H  H9  1  0.29003000  0.84773000  0.13634000  1.0
  H  H10  1  0.68258000  0.22573000  0.59961000  1.0
  H  H11  1  0.77427000  0.31744000  0.90040000  1.0
  H  H12  1  0.31743000  0.77426000  0.40039000  1.0
  H  H13  1  0.22573000  0.68256000  0.09960000  1.0
  H  H14  1  0.71483000  0.56133000  0.23600000  1.0
  H  H15  1  0.43869000  0.28518000  0.26400000  1.0
  H  H16  1  0.28516000  0.43868000  0.76400000  1.0
  H  H17  1  0.56130000  0.71483000  0.73599000  1.0
  H  H18  1  0.88316000  0.60250000  0.28584000  1.0
  H  H19  1  0.39752000  0.11685000  0.21416000  1.0
  H  H20  1  0.11683000  0.39752000  0.71417000  1.0
  H  H21  1  0.60247000  0.88315000  0.78584000  1.0
  C  C22  1  0.52119000  0.47882000  0.25001000  1.0
  C  C23  1  0.47881000  0.52117000  0.74999000  1.0
  C  C24  1  0.81780000  0.34404000  0.54766000  1.0
  C  C25  1  0.65596000  0.18222000  0.95234000  1.0
  C  C26  1  0.18220000  0.65596000  0.45234000  1.0
  C  C27  1  0.34404000  0.81778000  0.04766000  1.0
  C  C28  1  0.72606000  0.30890000  0.52629000  1.0
  C  C29  1  0.69110000  0.27396000  0.97370000  1.0
  C  C30  1  0.27395000  0.69110000  0.47370000  1.0
  C  C31  1  0.30890000  0.72603000  0.02630000  1.0
  C  C32  1  0.68358000  0.38729000  0.41335000  1.0
  C  C33  1  0.61271000  0.31644000  0.08665000  1.0
  C  C34  1  0.31643000  0.61271000  0.58665000  1.0
  C  C35  1  0.38728000  0.68356000  0.91334000  1.0
  C  C36  1  0.74235000  0.49423000  0.32501000  1.0
  C  C37  1  0.50579000  0.25766000  0.17500000  1.0
  C  C38  1  0.25764000  0.50578000  0.67500000  1.0
  C  C39  1  0.49420000  0.74235000  0.82500000  1.0
  C  C40  1  0.83543000  0.52076000  0.35333000  1.0
  C  C41  1  0.47926000  0.16458000  0.14666000  1.0
  C  C42  1  0.16456000  0.47925000  0.64667000  1.0
  C  C43  1  0.52074000  0.83542000  0.85333000  1.0
  S  S44  1  0.55782000  0.34688000  0.39707000  1.0
  S  S45  1  0.65312000  0.44220000  0.10295000  1.0
  S  S46  1  0.44219000  0.65311000  0.60293000  1.0
  S  S47  1  0.34687000  0.55780000  0.89705000  1.0
  N  N48  1  0.87213000  0.44883000  0.46316000  1.0
  N  N49  1  0.55118000  0.12788000  0.03683000  1.0
  N  N50  1  0.12787000  0.55118000  0.53684000  1.0
  N  N51  1  0.44881000  0.87212000  0.96317000  1.0
  Cl  Cl52  1  0.83941000  0.51564000  0.69454000  1.0
  Cl  Cl53  1  0.48438000  0.16058000  0.80545000  1.0
  Cl  Cl54  1  0.16059000  0.48436000  0.30546000  1.0
  Cl  Cl55  1  0.51562000  0.83942000  0.19455000  1.0
