# generated using pymatgen
data_CdH14C15NO7
_symmetry_space_group_name_H-M   'P 1'
_cell_length_a   6.86874000
_cell_length_b   11.76320000
_cell_length_c   22.37120000
_cell_angle_alpha   74.77300000
_cell_angle_beta   81.24820000
_cell_angle_gamma   89.99240000
_symmetry_Int_Tables_number   1
_chemical_formula_structural   CdH14C15NO7
_chemical_formula_sum   'Cd4 H56 C60 N4 O28'
_cell_volume   1722.28704685
_cell_formula_units_Z   4
loop_
 _symmetry_equiv_pos_site_id
 _symmetry_equiv_pos_as_xyz
  1  'x, y, z'
loop_
 _atom_site_type_symbol
 _atom_site_label
 _atom_site_symmetry_multiplicity
 _atom_site_fract_x
 _atom_site_fract_y
 _atom_site_fract_z
 _atom_site_occupancy
  Cd  Cd0  1  0.42773000  0.56028000  0.25564000  1.0
  Cd  Cd1  1  0.68598000  0.43955000  0.74434000  1.0
  Cd  Cd2  1  0.92745000  0.18364000  0.25558000  1.0
  Cd  Cd3  1  0.18582000  0.81636000  0.74451000  1.0
  H  H4  1  0.15671000  0.75771000  0.21997000  1.0
  H  H5  1  0.37978000  0.24217000  0.77989000  1.0
  H  H6  1  0.65686000  0.02186000  0.21985000  1.0
  H  H7  1  0.87958000  0.97823000  0.78002000  1.0
  H  H8  1  0.36338000  0.81005000  0.22283000  1.0
  H  H9  1  0.58928000  0.18974000  0.77708000  1.0
  H  H10  1  0.86349000  0.96662000  0.22270000  1.0
  H  H11  1  0.08913000  0.03353000  0.77705000  1.0
  H  H12  1  0.59615000  0.67890000  0.92046000  1.0
  H  H13  1  0.51628000  0.32036000  0.07964000  1.0
  H  H14  1  0.09598000  0.40097000  0.92044000  1.0
  H  H15  1  0.01647000  0.59978000  0.07998000  1.0
  H  H16  1  0.64671000  0.30244000  0.99386000  1.0
  H  H17  1  0.63953000  0.69677000  0.00632000  1.0
  H  H18  1  0.14709000  0.70364000  0.99415000  1.0
  H  H19  1  0.13928000  0.29707000  0.00619000  1.0
  H  H20  1  0.37797000  0.17635000  0.37372000  1.0
  H  H21  1  0.75358000  0.82342000  0.62634000  1.0
  H  H22  1  0.87788000  0.44954000  0.37356000  1.0
  H  H23  1  0.25315000  0.55069000  0.62626000  1.0
  H  H24  1  0.56947000  0.21274000  0.41228000  1.0
  H  H25  1  0.98341000  0.78695000  0.58787000  1.0
  H  H26  1  0.06983000  0.37500000  0.41203000  1.0
  H  H27  1  0.48318000  0.62537000  0.58784000  1.0
  H  H28  1  0.68120000  0.28745000  0.88383000  1.0
  H  H29  1  0.56245000  0.71195000  0.11623000  1.0
  H  H30  1  0.18137000  0.82883000  0.88422000  1.0
  H  H31  1  0.06197000  0.17171000  0.11601000  1.0
  H  H32  1  0.00403000  0.79452000  0.42858000  1.0
  H  H33  1  0.43441000  0.20511000  0.57141000  1.0
  H  H34  1  0.50439000  0.77608000  0.42876000  1.0
  H  H35  1  0.93439000  0.22422000  0.57109000  1.0
  H  H36  1  0.63785000  0.64764000  0.81459000  1.0
  H  H37  1  0.44971000  0.35184000  0.18544000  1.0
  H  H38  1  0.13781000  0.53828000  0.81466000  1.0
  H  H39  1  0.95000000  0.46224000  0.18564000  1.0
  H  H40  1  0.49208000  0.86043000  0.55028000  1.0
  H  H41  1  0.04247000  0.13982000  0.44976000  1.0
  H  H42  1  0.99196000  0.58888000  0.55026000  1.0
  H  H43  1  0.54180000  0.41085000  0.44963000  1.0
  H  H44  1  0.77427000  0.73451000  0.52840000  1.0
  H  H45  1  0.30308000  0.26552000  0.47168000  1.0
  H  H46  1  0.27426000  0.73646000  0.52850000  1.0
  H  H47  1  0.80266000  0.26334000  0.47146000  1.0
  H  H48  1  0.42702000  0.03473000  0.46679000  1.0
  H  H49  1  0.89456000  0.96540000  0.53319000  1.0
  H  H50  1  0.92675000  0.49839000  0.46663000  1.0
  H  H51  1  0.39383000  0.50165000  0.53318000  1.0
  H  H52  1  0.60134000  0.06889000  0.63733000  1.0
  H  H53  1  0.23613000  0.93054000  0.36266000  1.0
  H  H54  1  0.10127000  0.29444000  0.63699000  1.0
  H  H55  1  0.73636000  0.70632000  0.36267000  1.0
  H  H56  1  0.44632000  0.15496000  0.67909000  1.0
  H  H57  1  0.12274000  0.84465000  0.32079000  1.0
  H  H58  1  0.94654000  0.16652000  0.67860000  1.0
  H  H59  1  0.62276000  0.83412000  0.32091000  1.0
  C  C60  1  0.58256000  0.50645000  0.03234000  1.0
  C  C61  1  0.61534000  0.49278000  0.96779000  1.0
  C  C62  1  0.08253000  0.46120000  0.03244000  1.0
  C  C63  1  0.11541000  0.53954000  0.96793000  1.0
  C  C64  1  0.67957000  0.01425000  0.40090000  1.0
  C  C65  1  0.08200000  0.98569000  0.59908000  1.0
  C  C66  1  0.17943000  0.58463000  0.40082000  1.0
  C  C67  1  0.58146000  0.41555000  0.59901000  1.0
  C  C68  1  0.61642000  0.58994000  0.91553000  1.0
  C  C69  1  0.53102000  0.40936000  0.08458000  1.0
  C  C70  1  0.11645000  0.49481000  0.91560000  1.0
  C  C71  1  0.03113000  0.50588000  0.08477000  1.0
  C  C72  1  0.59569000  0.61751000  0.04420000  1.0
  C  C73  1  0.64106000  0.38176000  0.95593000  1.0
  C  C74  1  0.09549000  0.33832000  0.04416000  1.0
  C  C75  1  0.14130000  0.66236000  0.95617000  1.0
  C  C76  1  0.24002000  0.05138000  0.60935000  1.0
  C  C77  1  0.84751000  0.94838000  0.39062000  1.0
  C  C78  1  0.73969000  0.33974000  0.60917000  1.0
  C  C79  1  0.34757000  0.66056000  0.39063000  1.0
  C  C80  1  0.53647000  0.19985000  0.36796000  1.0
  C  C81  1  0.90637000  0.80001000  0.63215000  1.0
  C  C82  1  0.03650000  0.43210000  0.36774000  1.0
  C  C83  1  0.40594000  0.56817000  0.63211000  1.0
  C  C84  1  0.55477000  0.62700000  0.10547000  1.0
  C  C85  1  0.66245000  0.37237000  0.89462000  1.0
  C  C86  1  0.05450000  0.26741000  0.10537000  1.0
  C  C87  1  0.16255000  0.73317000  0.89491000  1.0
  C  C88  1  0.87799000  0.84731000  0.43651000  1.0
  C  C89  1  0.31603000  0.15248000  0.56350000  1.0
  C  C90  1  0.37820000  0.71557000  0.43660000  1.0
  C  C91  1  0.81573000  0.28460000  0.56327000  1.0
  C  C92  1  0.63826000  0.57347000  0.85563000  1.0
  C  C93  1  0.49174000  0.42595000  0.14442000  1.0
  C  C94  1  0.13826000  0.57127000  0.85576000  1.0
  C  C95  1  0.99182000  0.42928000  0.14456000  1.0
  C  C96  1  0.57821000  0.31480000  0.31680000  1.0
  C  C97  1  0.89730000  0.68520000  0.68342000  1.0
  C  C98  1  0.07854000  0.36826000  0.31659000  1.0
  C  C99  1  0.39701000  0.63177000  0.68337000  1.0
  C  C100  1  0.54420000  0.99610000  0.73743000  1.0
  C  C101  1  0.27862000  0.00356000  0.26257000  1.0
  C  C102  1  0.04421000  0.26671000  0.73715000  1.0
  C  C103  1  0.77861000  0.73351000  0.26256000  1.0
  C  C104  1  0.59047000  0.88377000  0.50534000  1.0
  C  C105  1  0.09633000  0.11632000  0.49470000  1.0
  C  C106  1  0.09036000  0.61048000  0.50533000  1.0
  C  C107  1  0.59572000  0.38938000  0.49457000  1.0
  C  C108  1  0.74845000  0.81462000  0.49349000  1.0
  C  C109  1  0.24271000  0.18537000  0.50657000  1.0
  C  C110  1  0.24850000  0.69133000  0.49355000  1.0
  C  C111  1  0.74224000  0.30858000  0.50636000  1.0
  C  C112  1  0.55441000  0.98294000  0.45840000  1.0
  C  C113  1  0.01375000  0.01711000  0.54159000  1.0
  C  C114  1  0.05426000  0.55839000  0.45832000  1.0
  C  C115  1  0.51310000  0.44161000  0.54152000  1.0
  C  C116  1  0.47900000  0.06508000  0.67605000  1.0
  C  C117  1  0.15241000  0.93448000  0.32389000  1.0
  C  C118  1  0.97901000  0.25938000  0.67572000  1.0
  C  C119  1  0.65249000  0.74120000  0.32392000  1.0
  N  N120  1  0.50256000  0.53314000  0.15480000  1.0
  N  N121  1  0.66007000  0.46630000  0.84525000  1.0
  N  N122  1  0.00238000  0.31174000  0.15479000  1.0
  N  N123  1  0.16002000  0.68878000  0.84546000  1.0
  O  O124  1  0.00599000  0.89216000  0.64816000  1.0
  O  O125  1  0.65223000  0.10786000  0.35185000  1.0
  O  O126  1  0.50539000  0.45994000  0.64813000  1.0
  O  O127  1  0.15177000  0.54035000  0.35167000  1.0
  O  O128  1  0.30141000  0.74510000  0.21092000  1.0
  O  O129  1  0.51549000  0.25470000  0.78899000  1.0
  O  O130  1  0.80154000  0.04349000  0.21077000  1.0
  O  O131  1  0.01540000  0.95665000  0.78908000  1.0
  O  O132  1  0.30720000  0.00886000  0.66521000  1.0
  O  O133  1  0.96983000  0.99074000  0.33471000  1.0
  O  O134  1  0.80711000  0.32641000  0.66500000  1.0
  O  O135  1  0.46998000  0.67416000  0.33473000  1.0
  O  O136  1  0.93543000  0.68409000  0.73700000  1.0
  O  O137  1  0.66969000  0.31606000  0.26324000  1.0
  O  O138  1  0.43550000  0.57937000  0.73691000  1.0
  O  O139  1  0.17039000  0.42043000  0.26307000  1.0
  O  O140  1  0.46892000  0.89480000  0.76633000  1.0
  O  O141  1  0.23195000  0.10489000  0.23371000  1.0
  O  O142  1  0.96870000  0.33890000  0.76618000  1.0
  O  O143  1  0.73199000  0.66101000  0.23369000  1.0
  O  O144  1  0.50564000  0.40327000  0.33372000  1.0
  O  O145  1  0.84157000  0.59665000  0.66656000  1.0
  O  O146  1  0.00590000  0.26292000  0.33348000  1.0
  O  O147  1  0.34110000  0.73713000  0.66655000  1.0
  O  O148  1  0.67913000  0.04960000  0.75393000  1.0
  O  O149  1  0.43011000  0.95016000  0.24608000  1.0
  O  O150  1  0.17932000  0.19677000  0.75355000  1.0
  O  O151  1  0.92999000  0.80343000  0.24604000  1.0
