# generated using pymatgen
data_CdH28C36(NO)4
_symmetry_space_group_name_H-M   'P 1'
_cell_length_a   9.63244000
_cell_length_b   11.51120000
_cell_length_c   16.67500000
_cell_angle_alpha   73.81710000
_cell_angle_beta   76.52690000
_cell_angle_gamma   66.11170000
_symmetry_Int_Tables_number   1
_chemical_formula_structural   CdH28C36(NO)4
_chemical_formula_sum   'Cd2 H56 C72 N8 O8'
_cell_volume   1608.30452971
_cell_formula_units_Z   2
loop_
 _symmetry_equiv_pos_site_id
 _symmetry_equiv_pos_as_xyz
  1  'x, y, z'
loop_
 _atom_site_type_symbol
 _atom_site_label
 _atom_site_symmetry_multiplicity
 _atom_site_fract_x
 _atom_site_fract_y
 _atom_site_fract_z
 _atom_site_occupancy
  Cd  Cd0  1  0.36953000  0.46463000  0.44498000  1.0
  Cd  Cd1  1  0.63047000  0.53537000  0.55502000  1.0
  H  H2  1  0.65993000  0.46630000  0.07550000  1.0
  H  H3  1  0.34006000  0.53370000  0.92450000  1.0
  H  H4  1  0.88330000  0.36605000  0.97476000  1.0
  H  H5  1  0.11670000  0.63395000  0.02525000  1.0
  H  H6  1  0.91232000  0.16282000  0.93490000  1.0
  H  H7  1  0.08768000  0.83718000  0.06510000  1.0
  H  H8  1  0.71539000  0.06285000  0.99618000  1.0
  H  H9  1  0.28461000  0.93716000  0.00382000  1.0
  H  H10  1  0.49394000  0.16092000  0.09739000  1.0
  H  H11  1  0.50606000  0.83908000  0.90261000  1.0
  H  H12  1  0.29225000  0.34097000  0.04862000  1.0
  H  H13  1  0.70775000  0.65903000  0.95138000  1.0
  H  H14  1  0.02579000  0.35097000  0.07868000  1.0
  H  H15  1  0.97421000  0.64903000  0.92132000  1.0
  H  H16  1  0.86495000  0.40162000  0.21455000  1.0
  H  H17  1  0.13506000  0.59837000  0.78545000  1.0
  H  H18  1  0.98304000  0.43372000  0.32212000  1.0
  H  H19  1  0.01696000  0.56628000  0.67788000  1.0
  H  H20  1  0.84545000  0.30886000  0.74345000  1.0
  H  H21  1  0.15455000  0.69114000  0.25655000  1.0
  H  H22  1  0.69870000  0.16203000  0.79933000  1.0
  H  H23  1  0.30129000  0.83797000  0.20067000  1.0
  H  H24  1  0.83574000  0.92356000  0.84603000  1.0
  H  H25  1  0.16426000  0.07644000  0.15397000  1.0
  H  H26  1  0.12083000  0.83399000  0.83659000  1.0
  H  H27  1  0.87917000  0.16601000  0.16342000  1.0
  H  H28  1  0.26699000  0.98072000  0.77771000  1.0
  H  H29  1  0.73301000  0.01928000  0.22229000  1.0
  H  H30  1  0.17493000  0.15069000  0.88407000  1.0
  H  H31  1  0.82507000  0.84931000  0.11593000  1.0
  H  H32  1  0.33427000  0.19287000  0.96020000  1.0
  H  H33  1  0.66573000  0.80713000  0.03980000  1.0
  H  H34  1  0.49594000  0.32500000  0.88359000  1.0
  H  H35  1  0.50406000  0.67500000  0.11641000  1.0
  H  H36  1  0.49367000  0.41242000  0.72972000  1.0
  H  H37  1  0.50632000  0.58758000  0.27028000  1.0
  H  H38  1  0.32922000  0.77179000  0.38279000  1.0
  H  H39  1  0.67078000  0.22821000  0.61720000  1.0
  H  H40  1  0.11724000  0.98761000  0.37633000  1.0
  H  H41  1  0.88276000  0.01239000  0.62367000  1.0
  H  H42  1  0.81183000  0.78089000  0.50786000  1.0
  H  H43  1  0.18817000  0.21911000  0.49214000  1.0
  H  H44  1  0.03416000  0.57964000  0.51191000  1.0
  H  H45  1  0.96584000  0.42036000  0.48809000  1.0
  H  H46  1  0.66340000  0.95381000  0.53950000  1.0
  H  H47  1  0.33660000  0.04619000  0.46050000  1.0
  H  H48  1  0.45114000  0.16912000  0.53680000  1.0
  H  H49  1  0.54886000  0.83088000  0.46320000  1.0
  H  H50  1  0.69941000  0.35187000  0.34559000  1.0
  H  H51  1  0.30059000  0.64813000  0.65441000  1.0
  H  H52  1  0.92143000  0.14531000  0.33741000  1.0
  H  H53  1  0.07858000  0.85469000  0.66259000  1.0
  H  H54  1  0.14390000  0.28832000  0.65986000  1.0
  H  H55  1  0.85610000  0.71168000  0.34013000  1.0
  H  H56  1  0.46055000  0.42029000  0.19247000  1.0
  H  H57  1  0.53944000  0.57972000  0.80753000  1.0
  C  C58  1  0.67322000  0.37717000  0.05831000  1.0
  C  C59  1  0.32678000  0.62283000  0.94169000  1.0
  C  C60  1  0.79879000  0.32013000  0.00214000  1.0
  C  C61  1  0.20121000  0.67987000  0.99786000  1.0
  C  C62  1  0.81503000  0.20700000  0.97919000  1.0
  C  C63  1  0.18497000  0.79300000  0.02082000  1.0
  C  C64  1  0.70357000  0.15159000  0.01325000  1.0
  C  C65  1  0.29643000  0.84841000  0.98675000  1.0
  C  C66  1  0.57755000  0.20749000  0.06958000  1.0
  C  C67  1  0.42245000  0.79251000  0.93042000  1.0
  C  C68  1  0.56025000  0.32188000  0.09266000  1.0
  C  C69  1  0.43975000  0.67812000  0.90734000  1.0
  C  C70  1  0.29301000  0.37843000  0.16862000  1.0
  C  C71  1  0.70699000  0.62158000  0.83138000  1.0
  C  C72  1  0.22592000  0.35746000  0.10960000  1.0
  C  C73  1  0.77408000  0.64255000  0.89040000  1.0
  C  C74  1  0.07493000  0.36454000  0.12653000  1.0
  C  C75  1  0.92507000  0.63546000  0.87348000  1.0
  C  C76  1  0.98491000  0.39176000  0.20304000  1.0
  C  C77  1  0.01509000  0.60825000  0.79696000  1.0
  C  C78  1  0.04977000  0.41091000  0.26226000  1.0
  C  C79  1  0.95023000  0.58910000  0.73774000  1.0
  C  C80  1  0.20203000  0.40491000  0.24705000  1.0
  C  C81  1  0.79797000  0.59510000  0.75295000  1.0
  C  C82  1  0.26227000  0.42841000  0.31331000  1.0
  C  C83  1  0.73773000  0.57159000  0.68669000  1.0
  C  C84  1  0.06539000  0.15390000  0.75608000  1.0
  C  C85  1  0.93460000  0.84610000  0.24392000  1.0
  C  C86  1  0.90526000  0.20450000  0.76256000  1.0
  C  C87  1  0.09474000  0.79550000  0.23744000  1.0
  C  C88  1  0.82338000  0.12146000  0.79427000  1.0
  C  C89  1  0.17662000  0.87854000  0.20573000  1.0
  C  C90  1  0.89995000  0.98821000  0.82090000  1.0
  C  C91  1  0.10004000  0.01179000  0.17910000  1.0
  C  C92  1  0.05982000  0.93769000  0.81548000  1.0
  C  C93  1  0.94018000  0.06231000  0.18452000  1.0
  C  C94  1  0.14230000  0.01987000  0.78279000  1.0
  C  C95  1  0.85770000  0.98013000  0.21721000  1.0
  C  C96  1  0.24530000  0.20771000  0.85001000  1.0
  C  C97  1  0.75470000  0.79229000  0.14999000  1.0
  C  C98  1  0.33456000  0.23244000  0.89257000  1.0
  C  C99  1  0.66544000  0.76756000  0.10743000  1.0
  C  C100  1  0.42426000  0.30738000  0.85001000  1.0
  C  C101  1  0.57574000  0.69263000  0.14998000  1.0
  C  C102  1  0.42347000  0.35531000  0.76383000  1.0
  C  C103  1  0.57653000  0.64469000  0.23617000  1.0
  C  C104  1  0.33497000  0.33190000  0.71817000  1.0
  C  C105  1  0.66502000  0.66810000  0.28182000  1.0
  C  C106  1  0.24170000  0.25718000  0.76228000  1.0
  C  C107  1  0.75829000  0.74282000  0.23772000  1.0
  C  C108  1  0.34226000  0.38433000  0.62609000  1.0
  C  C109  1  0.65774000  0.61567000  0.37391000  1.0
  C  C110  1  0.21208000  0.78009000  0.41016000  1.0
  C  C111  1  0.78792000  0.21991000  0.58985000  1.0
  C  C112  1  0.09279000  0.89983000  0.40649000  1.0
  C  C113  1  0.90721000  0.10016000  0.59351000  1.0
  C  C114  1  0.94340000  0.90525000  0.44099000  1.0
  C  C115  1  0.05660000  0.09474000  0.55901000  1.0
  C  C116  1  0.92280000  0.78728000  0.47936000  1.0
  C  C117  1  0.07720000  0.21272000  0.52064000  1.0
  C  C118  1  0.04803000  0.67177000  0.48131000  1.0
  C  C119  1  0.95197000  0.32823000  0.51869000  1.0
  C  C120  1  0.81287000  0.03004000  0.43875000  1.0
  C  C121  1  0.18713000  0.96996000  0.56125000  1.0
  C  C122  1  0.67627000  0.03866000  0.49407000  1.0
  C  C123  1  0.32374000  0.96134000  0.50593000  1.0
  C  C124  1  0.55755000  0.15818000  0.49333000  1.0
  C  C125  1  0.44245000  0.84182000  0.50667000  1.0
  C  C126  1  0.69685000  0.26060000  0.38685000  1.0
  C  C127  1  0.30316000  0.73940000  0.61315000  1.0
  C  C128  1  0.82083000  0.14484000  0.38353000  1.0
  C  C129  1  0.17918000  0.85516000  0.61647000  1.0
  N  N130  1  0.14874000  0.23716000  0.72113000  1.0
  N  N131  1  0.85125000  0.76284000  0.27887000  1.0
  N  N132  1  0.43951000  0.37942000  0.15110000  1.0
  N  N133  1  0.56050000  0.62059000  0.84890000  1.0
  N  N134  1  0.19025000  0.66810000  0.44687000  1.0
  N  N135  1  0.80975000  0.33190000  0.55313000  1.0
  N  N136  1  0.56783000  0.26756000  0.44109000  1.0
  N  N137  1  0.43218000  0.73244000  0.55891000  1.0
  O  O138  1  0.38189000  0.45978000  0.29334000  1.0
  O  O139  1  0.61811000  0.54022000  0.70666000  1.0
  O  O140  1  0.19378000  0.41763000  0.38893000  1.0
  O  O141  1  0.80622000  0.58237000  0.61107000  1.0
  O  O142  1  0.25643000  0.37044000  0.58354000  1.0
  O  O143  1  0.74357000  0.62956000  0.41646000  1.0
  O  O144  1  0.43631000  0.44219000  0.58760000  1.0
  O  O145  1  0.56368000  0.55781000  0.41240000  1.0
