# generated using pymatgen
data_LiH7C7O4
_symmetry_space_group_name_H-M   'P 1'
_cell_length_a   4.61114000
_cell_length_b   12.75960000
_cell_length_c   13.15820000
_cell_angle_alpha   107.61000000
_cell_angle_beta   89.99990000
_cell_angle_gamma   89.99990000
_symmetry_Int_Tables_number   1
_chemical_formula_structural   LiH7C7O4
_chemical_formula_sum   'Li4 H28 C28 O16'
_cell_volume   737.90012005
_cell_formula_units_Z   4
loop_
 _symmetry_equiv_pos_site_id
 _symmetry_equiv_pos_as_xyz
  1  'x, y, z'
loop_
 _atom_site_type_symbol
 _atom_site_label
 _atom_site_symmetry_multiplicity
 _atom_site_fract_x
 _atom_site_fract_y
 _atom_site_fract_z
 _atom_site_occupancy
  Li  Li0  1  0.97347000  0.84889000  0.50060000  1.0
  Li  Li1  1  0.52654000  0.34889000  0.50060000  1.0
  Li  Li2  1  0.02654000  0.15111000  0.49940000  1.0
  Li  Li3  1  0.47346000  0.65111000  0.49940000  1.0
  H  H4  1  0.57367000  0.08607000  0.21880000  1.0
  H  H5  1  0.92633000  0.58607000  0.21880000  1.0
  H  H6  1  0.42634000  0.91393000  0.78120000  1.0
  H  H7  1  0.07367000  0.41393000  0.78120000  1.0
  H  H8  1  0.10214000  0.71767000  0.10917000  1.0
  H  H9  1  0.39786000  0.21767000  0.10917000  1.0
  H  H10  1  0.89786000  0.28233000  0.89083000  1.0
  H  H11  1  0.60214000  0.78232000  0.89083000  1.0
  H  H12  1  0.23751000  0.03465000  0.06264000  1.0
  H  H13  1  0.26249000  0.53465000  0.06265000  1.0
  H  H14  1  0.76250000  0.96535000  0.93735000  1.0
  H  H15  1  0.73750000  0.46535000  0.93735000  1.0
  H  H16  1  0.99757000  0.85060000  0.01083000  1.0
  H  H17  1  0.50243000  0.35060000  0.01083000  1.0
  H  H18  1  0.00243000  0.14940000  0.98917000  1.0
  H  H19  1  0.49756000  0.64940000  0.98917000  1.0
  H  H20  1  0.00226000  0.65001000  0.40382000  1.0
  H  H21  1  0.49775000  0.15001000  0.40382000  1.0
  H  H22  1  0.99775000  0.34999000  0.59618000  1.0
  H  H23  1  0.50226000  0.84999000  0.59618000  1.0
  H  H24  1  0.24881000  0.71129000  0.35662000  1.0
  H  H25  1  0.25119000  0.21129000  0.35662000  1.0
  H  H26  1  0.75119000  0.28871000  0.64338000  1.0
  H  H27  1  0.74881000  0.78871000  0.64338000  1.0
  H  H28  1  0.63229000  0.78946000  0.32028000  1.0
  H  H29  1  0.86770000  0.28946000  0.32028000  1.0
  H  H30  1  0.36771000  0.21054000  0.67972000  1.0
  H  H31  1  0.13229000  0.71054000  0.67972000  1.0
  C  C32  1  0.40321000  0.82533000  0.21721000  1.0
  C  C33  1  0.09678000  0.32532000  0.21720000  1.0
  C  C34  1  0.59678000  0.17468000  0.78280000  1.0
  C  C35  1  0.90322000  0.67467000  0.78279000  1.0
  C  C36  1  0.71216000  0.96435000  0.34883000  1.0
  C  C37  1  0.78784000  0.46435000  0.34883000  1.0
  C  C38  1  0.28785000  0.03565000  0.65117000  1.0
  C  C39  1  0.21216000  0.53565000  0.65117000  1.0
  C  C40  1  0.52667000  0.93206000  0.25201000  1.0
  C  C41  1  0.97333000  0.43205000  0.25201000  1.0
  C  C42  1  0.47333000  0.06795000  0.74799000  1.0
  C  C43  1  0.02667000  0.56794000  0.74799000  1.0
  C  C44  1  0.20672000  0.79802000  0.13212000  1.0
  C  C45  1  0.29328000  0.29802000  0.13212000  1.0
  C  C46  1  0.79328000  0.20198000  0.86788000  1.0
  C  C47  1  0.70672000  0.70198000  0.86788000  1.0
  C  C48  1  0.46638000  0.00610000  0.19465000  1.0
  C  C49  1  0.03362000  0.50610000  0.19465000  1.0
  C  C50  1  0.53363000  0.99390000  0.80535000  1.0
  C  C51  1  0.96638000  0.49390000  0.80535000  1.0
  C  C52  1  0.14803000  0.87364000  0.07771000  1.0
  C  C53  1  0.35197000  0.37364000  0.07771000  1.0
  C  C54  1  0.85198000  0.12636000  0.92229000  1.0
  C  C55  1  0.64802000  0.62636000  0.92229000  1.0
  C  C56  1  0.28088000  0.97716000  0.10733000  1.0
  C  C57  1  0.21912000  0.47715000  0.10733000  1.0
  C  C58  1  0.71912000  0.02285000  0.89267000  1.0
  C  C59  1  0.78088000  0.52284000  0.89268000  1.0
  O  O60  1  0.16298000  0.70582000  0.42392000  1.0
  O  O61  1  0.33703000  0.20582000  0.42392000  1.0
  O  O62  1  0.83703000  0.29418000  0.57608000  1.0
  O  O63  1  0.66298000  0.79418000  0.57608000  1.0
  O  O64  1  0.80122000  0.88720000  0.38543000  1.0
  O  O65  1  0.69877000  0.38719000  0.38543000  1.0
  O  O66  1  0.19878000  0.11281000  0.61457000  1.0
  O  O67  1  0.30123000  0.61280000  0.61457000  1.0
  O  O68  1  0.47605000  0.74879000  0.26582000  1.0
  O  O69  1  0.02394000  0.24879000  0.26582000  1.0
  O  O70  1  0.52394000  0.25121000  0.73418000  1.0
  O  O71  1  0.97605000  0.75121000  0.73418000  1.0
  O  O72  1  0.77062000  0.06532000  0.39315000  1.0
  O  O73  1  0.72938000  0.56532000  0.39316000  1.0
  O  O74  1  0.22939000  0.93469000  0.60684000  1.0
  O  O75  1  0.27063000  0.43468000  0.60685000  1.0
