# generated using pymatgen
data_SbH8C7S5BrO
_symmetry_space_group_name_H-M   'P 1'
_cell_length_a   7.79759000
_cell_length_b   8.81209000
_cell_length_c   10.25210000
_cell_angle_alpha   99.17690000
_cell_angle_beta   102.94900000
_cell_angle_gamma   106.03400000
_symmetry_Int_Tables_number   1
_chemical_formula_structural   SbH8C7S5BrO
_chemical_formula_sum   'Sb2 H16 C14 S10 Br2 O2'
_cell_volume   641.13715474
_cell_formula_units_Z   2
loop_
 _symmetry_equiv_pos_site_id
 _symmetry_equiv_pos_as_xyz
  1  'x, y, z'
loop_
 _atom_site_type_symbol
 _atom_site_label
 _atom_site_symmetry_multiplicity
 _atom_site_fract_x
 _atom_site_fract_y
 _atom_site_fract_z
 _atom_site_occupancy
  Sb  Sb0  1  0.29970000  0.49049000  0.31235000  1.0
  Sb  Sb1  1  0.70030000  0.50952000  0.68765000  1.0
  H  H2  1  0.27674000  0.38836000  0.85992000  1.0
  H  H3  1  0.72328000  0.61164000  0.14009000  1.0
  H  H4  1  0.10304000  0.39902000  0.94668000  1.0
  H  H5  1  0.89696000  0.60098000  0.05331000  1.0
  H  H6  1  0.09665000  0.10230000  0.80395000  1.0
  H  H7  1  0.90336000  0.89770000  0.19605000  1.0
  H  H8  1  0.04121000  0.12063000  0.96328000  1.0
  H  H9  1  0.95880000  0.87937000  0.03671000  1.0
  H  H10  1  0.29738000  0.03176000  0.04004000  1.0
  H  H11  1  0.70263000  0.96824000  0.95996000  1.0
  H  H12  1  0.39335000  0.08370000  0.90618000  1.0
  H  H13  1  0.60668000  0.91631000  0.09383000  1.0
  H  H14  1  0.50783000  0.28854000  0.18588000  1.0
  H  H15  1  0.49217000  0.71146000  0.81413000  1.0
  H  H16  1  0.58124000  0.33823000  0.04113000  1.0
  H  H17  1  0.41877000  0.66179000  0.95889000  1.0
  C  C18  1  0.24658000  0.82734000  0.46440000  1.0
  C  C19  1  0.75340000  0.17266000  0.53559000  1.0
  C  C20  1  0.27453000  0.86407000  0.34347000  1.0
  C  C21  1  0.72545000  0.13593000  0.65652000  1.0
  C  C22  1  0.27013000  0.13177000  0.49234000  1.0
  C  C23  1  0.72987000  0.86823000  0.50766000  1.0
  C  C24  1  0.21309000  0.34601000  0.93880000  1.0
  C  C25  1  0.78691000  0.65398000  0.06119000  1.0
  C  C26  1  0.15118000  0.16184000  0.91391000  1.0
  C  C27  1  0.84883000  0.83815000  0.08609000  1.0
  C  C28  1  0.32856000  0.12643000  0.98297000  1.0
  C  C29  1  0.67146000  0.87357000  0.01705000  1.0
  C  C30  1  0.45902000  0.29080000  0.07712000  1.0
  C  C31  1  0.54099000  0.70920000  0.92289000  1.0
  S  S32  1  0.23157000  0.64557000  0.51130000  1.0
  S  S33  1  0.76840000  0.35443000  0.48869000  1.0
  S  S34  1  0.30025000  0.73523000  0.20799000  1.0
  S  S35  1  0.69974000  0.26477000  0.79201000  1.0
  S  S36  1  0.23372000  0.98480000  0.58375000  1.0
  S  S37  1  0.76626000  0.01520000  0.41624000  1.0
  S  S38  1  0.29213000  0.06305000  0.33256000  1.0
  S  S39  1  0.70786000  0.93695000  0.66744000  1.0
  S  S40  1  0.28295000  0.32281000  0.55750000  1.0
  S  S41  1  0.71704000  0.67719000  0.44250000  1.0
  Br  Br42  1  0.94959000  0.30488000  0.19215000  1.0
  Br  Br43  1  0.05040000  0.69512000  0.80783000  1.0
  O  O44  1  0.35372000  0.40381000  0.07132000  1.0
  O  O45  1  0.64628000  0.59619000  0.92868000  1.0
