# generated using pymatgen
data_Zn2H20C25(NO12)2
_symmetry_space_group_name_H-M   'P 1'
_cell_length_a   10.04260000
_cell_length_b   10.70170000
_cell_length_c   11.31370000
_cell_angle_alpha   91.73260000
_cell_angle_beta   99.45140000
_cell_angle_gamma   103.70000000
_symmetry_Int_Tables_number   1
_chemical_formula_structural   Zn2H20C25(NO12)2
_chemical_formula_sum   'Zn2 H20 C25 N2 O24'
_cell_volume   1162.25074500
_cell_formula_units_Z   1
loop_
 _symmetry_equiv_pos_site_id
 _symmetry_equiv_pos_as_xyz
  1  'x, y, z'
loop_
 _atom_site_type_symbol
 _atom_site_label
 _atom_site_symmetry_multiplicity
 _atom_site_fract_x
 _atom_site_fract_y
 _atom_site_fract_z
 _atom_site_occupancy
  Zn  Zn0  1  0.35191000  0.46976000  0.50987000  1.0
  Zn  Zn1  1  0.65721000  0.53903000  0.52164000  1.0
  H  H2  1  0.43228000  0.85058000  0.32653000  1.0
  H  H3  1  0.67194000  0.57494000  0.91968000  1.0
  H  H4  1  0.29862000  0.84766000  0.41281000  1.0
  H  H5  1  0.68886000  0.15093000  0.61063000  1.0
  H  H6  1  0.24014000  0.00086000  0.61614000  1.0
  H  H7  1  0.75620000  0.89615000  0.40409000  1.0
  H  H8  1  0.41519000  0.09596000  0.21584000  1.0
  H  H9  1  0.63545000  0.67477000  0.03652000  1.0
  H  H10  1  0.26106000  0.41565000  0.93289000  1.0
  H  H11  1  0.23828000  0.34522000  0.20236000  1.0
  H  H12  1  0.00698000  0.72244000  0.42458000  1.0
  H  H13  1  0.98466000  0.37760000  0.69482000  1.0
  H  H14  1  0.23017000  0.29080000  0.66872000  1.0
  H  H15  1  0.48458000  0.24516000  0.70278000  1.0
  H  H16  1  0.72084000  0.61497000  0.30518000  1.0
  H  H17  1  0.48012000  0.96627000  0.82474000  1.0
  H  H18  1  0.31822000  0.77043000  0.61201000  1.0
  H  H19  1  0.18997000  0.03677000  0.39423000  1.0
  H  H20  1  0.70108000  0.21041000  0.35083000  1.0
  H  H21  1  0.78850000  0.98930000  0.68984000  1.0
  C  C22  1  0.56216000  0.50964000  0.74140000  1.0
  C  C23  1  0.50623000  0.88743000  0.52010000  1.0
  C  C24  1  0.40463000  0.89790000  0.40284000  1.0
  C  C25  1  0.65407000  0.97006000  0.50411000  1.0
  C  C26  1  0.56733000  0.53327000  0.87026000  1.0
  C  C27  1  0.45551000  0.50730000  0.92863000  1.0
  C  C28  1  0.40727000  0.48090000  0.14500000  1.0
  C  C29  1  0.48321000  0.53913000  0.06100000  1.0
  C  C30  1  0.94288000  0.51233000  0.55824000  1.0
  C  C31  1  0.07044000  0.49097000  0.50703000  1.0
  C  C32  1  0.49380000  0.26694000  0.47869000  1.0
  C  C33  1  0.45994000  0.51354000  0.27690000  1.0
  C  C34  1  0.50615000  0.74503000  0.52998000  1.0
  C  C35  1  0.43060000  0.08044000  0.60471000  1.0
  C  C36  1  0.44811000  0.93957000  0.62595000  1.0
  C  C37  1  0.41380000  0.04131000  0.37515000  1.0
  C  C38  1  0.64737000  0.11331000  0.51680000  1.0
  C  C39  1  0.49526000  0.12609000  0.49056000  1.0
  C  C40  1  0.27334000  0.38714000  0.12167000  1.0
  C  C41  1  0.14867000  0.34278000  0.64989000  1.0
  C  C42  1  0.90274000  0.65840000  0.41011000  1.0
  C  C43  1  0.52405000  0.92663000  0.75244000  1.0
  C  C44  1  0.26577000  0.05866000  0.33288000  1.0
  C  C45  1  0.74637000  0.19280000  0.44272000  1.0
  C  C46  1  0.77996000  0.95437000  0.59541000  1.0
  N  N47  1  0.86017000  0.57553000  0.48927000  1.0
  N  N48  1  0.16174000  0.42311000  0.56240000  1.0
  O  O49  1  0.45389000  0.43391000  0.67649000  1.0
  O  O50  1  0.66997000  0.56627000  0.70041000  1.0
  O  O51  1  0.37696000  0.29324000  0.44907000  1.0
  O  O52  1  0.61192000  0.34722000  0.50523000  1.0
  O  O53  1  0.36727000  0.52018000  0.33875000  1.0
  O  O54  1  0.58862000  0.52360000  0.32052000  1.0
  O  O55  1  0.39907000  0.66976000  0.56056000  1.0
  O  O56  1  0.60851000  0.70981000  0.50218000  1.0
  O  O57  1  0.28954000  0.08220000  0.58777000  1.0
  O  O58  1  0.67937000  0.93944000  0.38850000  1.0
  O  O59  1  0.48660000  0.07642000  0.27903000  1.0
  O  O60  1  0.59729000  0.63368000  0.10405000  1.0
  O  O61  1  0.32634000  0.45689000  0.87272000  1.0
  O  O62  1  0.19509000  0.35195000  0.02262000  1.0
  O  O63  1  0.09449000  0.54462000  0.41523000  1.0
  O  O64  1  0.91358000  0.47095000  0.65479000  1.0
  O  O65  1  0.05388000  0.31701000  0.71496000  1.0
  O  O66  1  0.50517000  0.15980000  0.70871000  1.0
  O  O67  1  0.81990000  0.67873000  0.31697000  1.0
  O  O68  1  0.61250000  0.86536000  0.77350000  1.0
  O  O69  1  0.31237000  0.86076000  0.63411000  1.0
  O  O70  1  0.23416000  0.08923000  0.23051000  1.0
  O  O71  1  0.87099000  0.23085000  0.48279000  1.0
  O  O72  1  0.87140000  0.91190000  0.56188000  1.0
