# generated using pymatgen
data_ZnH8C10(SeN3)2
_symmetry_space_group_name_H-M   'P 1'
_cell_length_a   7.04386000
_cell_length_b   7.25943000
_cell_length_c   7.25944000
_cell_angle_alpha   91.00400000
_cell_angle_beta   108.32800000
_cell_angle_gamma   108.32600000
_symmetry_Int_Tables_number   1
_chemical_formula_structural   ZnH8C10(SeN3)2
_chemical_formula_sum   'Zn1 H8 C10 Se2 N6'
_cell_volume   331.70289263
_cell_formula_units_Z   1
loop_
 _symmetry_equiv_pos_site_id
 _symmetry_equiv_pos_as_xyz
  1  'x, y, z'
loop_
 _atom_site_type_symbol
 _atom_site_label
 _atom_site_symmetry_multiplicity
 _atom_site_fract_x
 _atom_site_fract_y
 _atom_site_fract_z
 _atom_site_occupancy
  Zn  Zn0  1  0.99999000  0.50000000  0.50000000  1.0
  H  H1  1  0.69123000  0.28577000  0.06382000  1.0
  H  H2  1  0.30876000  0.93617000  0.71425000  1.0
  H  H3  1  0.30878000  0.71424000  0.93618000  1.0
  H  H4  1  0.69123000  0.06383000  0.28575000  1.0
  H  H5  1  0.71010000  0.28844000  0.72377000  1.0
  H  H6  1  0.28989000  0.27622000  0.71157000  1.0
  H  H7  1  0.28990000  0.71156000  0.27624000  1.0
  H  H8  1  0.71010000  0.72377000  0.28843000  1.0
  C  C9  1  0.50458000  0.29744000  0.29743000  1.0
  C  C10  1  0.49542000  0.70256000  0.70257000  1.0
  C  C11  1  0.83053000  0.38193000  0.03651000  1.0
  C  C12  1  0.16948000  0.96348000  0.61810000  1.0
  C  C13  1  0.16945000  0.61807000  0.96349000  1.0
  C  C14  1  0.83054000  0.03651000  0.38191000  1.0
  C  C15  1  0.83993000  0.38306000  0.84778000  1.0
  C  C16  1  0.16007000  0.15223000  0.61696000  1.0
  C  C17  1  0.16006000  0.61694000  0.15222000  1.0
  C  C18  1  0.83995000  0.84781000  0.38306000  1.0
  Se  Se19  1  0.26343000  0.13118000  0.13118000  1.0
  Se  Se20  1  0.73654000  0.86880000  0.86880000  1.0
  N  N21  1  0.67048000  0.40451000  0.40451000  1.0
  N  N22  1  0.32954000  0.59550000  0.59551000  1.0
  N  N23  1  0.99074000  0.49853000  0.18907000  1.0
  N  N24  1  0.00924000  0.81092000  0.50146000  1.0
  N  N25  1  0.00926000  0.50147000  0.81094000  1.0
  N  N26  1  0.99075000  0.18907000  0.49853000  1.0
