# generated using pymatgen
data_CdH14C13N3O5
_symmetry_space_group_name_H-M   'P 1'
_cell_length_a   7.33641000
_cell_length_b   10.09070000
_cell_length_c   10.32840000
_cell_angle_alpha   89.89250000
_cell_angle_beta   79.56760000
_cell_angle_gamma   72.27440000
_symmetry_Int_Tables_number   1
_chemical_formula_structural   CdH14C13N3O5
_chemical_formula_sum   'Cd2 H28 C26 N6 O10'
_cell_volume   715.10936318
_cell_formula_units_Z   2
loop_
 _symmetry_equiv_pos_site_id
 _symmetry_equiv_pos_as_xyz
  1  'x, y, z'
loop_
 _atom_site_type_symbol
 _atom_site_label
 _atom_site_symmetry_multiplicity
 _atom_site_fract_x
 _atom_site_fract_y
 _atom_site_fract_z
 _atom_site_occupancy
  Cd  Cd0  1  0.49411000  0.21945000  0.93893000  1.0
  Cd  Cd1  1  0.50590000  0.78054000  0.06107000  1.0
  H  H2  1  0.87568000  0.25554000  0.87142000  1.0
  H  H3  1  0.12432000  0.74446000  0.12857000  1.0
  H  H4  1  0.75059000  0.39774000  0.95448000  1.0
  H  H5  1  0.24941000  0.60226000  0.04552000  1.0
  H  H6  1  0.13878000  0.10138000  0.38848000  1.0
  H  H7  1  0.86124000  0.89862000  0.61152000  1.0
  H  H8  1  0.73970000  0.51858000  0.42502000  1.0
  H  H9  1  0.26029000  0.48141000  0.57498000  1.0
  H  H10  1  0.00768000  0.31369000  0.04135000  1.0
  H  H11  1  0.99232000  0.68630000  0.95865000  1.0
  H  H12  1  0.02238000  0.35874000  0.60527000  1.0
  H  H13  1  0.97762000  0.64126000  0.39474000  1.0
  H  H14  1  0.95323000  0.20482000  0.60586000  1.0
  H  H15  1  0.04677000  0.79518000  0.39415000  1.0
  H  H16  1  0.77388000  0.37076000  0.62176000  1.0
  H  H17  1  0.22612000  0.62923000  0.37824000  1.0
  H  H18  1  0.30389000  0.45678000  0.20916000  1.0
  H  H19  1  0.69611000  0.54323000  0.79083000  1.0
  H  H20  1  0.70004000  0.05412000  0.19944000  1.0
  H  H21  1  0.29995000  0.94589000  0.80057000  1.0
  H  H22  1  0.60190000  0.23938000  0.54335000  1.0
  H  H23  1  0.39809000  0.76064000  0.45665000  1.0
  H  H24  1  0.76759000  0.08920000  0.44916000  1.0
  H  H25  1  0.23239000  0.91081000  0.55085000  1.0
  H  H26  1  0.33652000  0.13150000  0.56603000  1.0
  H  H27  1  0.66347000  0.86852000  0.43397000  1.0
  H  H28  1  0.53560000  0.03752000  0.63635000  1.0
  H  H29  1  0.46438000  0.96250000  0.36365000  1.0
  C  C30  1  0.22048000  0.07037000  0.12271000  1.0
  C  C31  1  0.77952000  0.92962000  0.87729000  1.0
  C  C32  1  0.08465000  0.19450000  0.20669000  1.0
  C  C33  1  0.91535000  0.80549000  0.79331000  1.0
  C  C34  1  0.06024000  0.19462000  0.34436000  1.0
  C  C35  1  0.93977000  0.80536000  0.65564000  1.0
  C  C36  1  0.94090000  0.31151000  0.42442000  1.0
  C  C37  1  0.05911000  0.68849000  0.57558000  1.0
  C  C38  1  0.83927000  0.42833000  0.36397000  1.0
  C  C39  1  0.16073000  0.57166000  0.63603000  1.0
  C  C40  1  0.85991000  0.42913000  0.22639000  1.0
  C  C41  1  0.14010000  0.57085000  0.77361000  1.0
  C  C42  1  0.98510000  0.31262000  0.14816000  1.0
  C  C43  1  0.01490000  0.68737000  0.85184000  1.0
  C  C44  1  0.92124000  0.31121000  0.57173000  1.0
  C  C45  1  0.07876000  0.68878000  0.42827000  1.0
  C  C46  1  0.74508000  0.55199000  0.16299000  1.0
  C  C47  1  0.25492000  0.44800000  0.83700000  1.0
  C  C48  1  0.39861000  0.36182000  0.23989000  1.0
  C  C49  1  0.60139000  0.63819000  0.76010000  1.0
  C  C50  1  0.60103000  0.15715000  0.23262000  1.0
  C  C51  1  0.39897000  0.84286000  0.76739000  1.0
  C  C52  1  0.61363000  0.15212000  0.47637000  1.0
  C  C53  1  0.38636000  0.84789000  0.52364000  1.0
  C  C54  1  0.48950000  0.06512000  0.54163000  1.0
  C  C55  1  0.51049000  0.93490000  0.45837000  1.0
  N  N56  1  0.50484000  0.24924000  0.15601000  1.0
  N  N57  1  0.49516000  0.75077000  0.84399000  1.0
  N  N58  1  0.55353000  0.21316000  0.35681000  1.0
  N  N59  1  0.44647000  0.78685000  0.64319000  1.0
  N  N60  1  0.42412000  0.34371000  0.36323000  1.0
  N  N61  1  0.57588000  0.65630000  0.63677000  1.0
  O  O62  1  0.27503000  0.08220000  0.00010000  1.0
  O  O63  1  0.72499000  0.91778000  0.99990000  1.0
  O  O64  1  0.27571000  0.95741000  0.18201000  1.0
  O  O65  1  0.72429000  0.04258000  0.81799000  1.0
  O  O66  1  0.66752000  0.66896000  0.22809000  1.0
  O  O67  1  0.33249000  0.33102000  0.77190000  1.0
  O  O68  1  0.72576000  0.53682000  0.04327000  1.0
  O  O69  1  0.27425000  0.46318000  0.95673000  1.0
  O  O70  1  0.74933000  0.32696000  0.88589000  1.0
  O  O71  1  0.25066000  0.67304000  0.11411000  1.0
