# generated using pymatgen
data_Zn5H68C60N8(ClO7)2
_symmetry_space_group_name_H-M   'P 1'
_cell_length_a   11.30290000
_cell_length_b   12.74240000
_cell_length_c   23.79594787
_cell_angle_alpha   89.99999460
_cell_angle_beta   103.24180135
_cell_angle_gamma   89.99980000
_symmetry_Int_Tables_number   1
_chemical_formula_structural   Zn5H68C60N8(ClO7)2
_chemical_formula_sum   'Zn10 H136 C120 N16 Cl4 O28'
_cell_volume   3336.11370432
_cell_formula_units_Z   2
loop_
 _symmetry_equiv_pos_site_id
 _symmetry_equiv_pos_as_xyz
  1  'x, y, z'
loop_
 _atom_site_type_symbol
 _atom_site_label
 _atom_site_symmetry_multiplicity
 _atom_site_fract_x
 _atom_site_fract_y
 _atom_site_fract_z
 _atom_site_occupancy
  Zn  Zn0  1  0.91088000  0.51810000  0.31428000  1.0
  Zn  Zn1  1  0.58912000  0.01810000  0.18572000  1.0
  Zn  Zn2  1  0.08912000  0.48190000  0.68572000  1.0
  Zn  Zn3  1  0.41088000  0.98190000  0.81428000  1.0
  Zn  Zn4  1  0.58033000  0.06486000  0.38719000  1.0
  Zn  Zn5  1  0.91966000  0.56485000  0.11281000  1.0
  Zn  Zn6  1  0.41966000  0.93514000  0.61281000  1.0
  Zn  Zn7  1  0.08034000  0.43514000  0.88719000  1.0
  Zn  Zn8  1  0.00000000  0.50000000  0.00000000  1.0
  Zn  Zn9  1  0.49999000  0.00001000  0.50000000  1.0
  H  H10  1  0.34747000  0.76715000  0.19214000  1.0
  H  H11  1  0.15253000  0.26715000  0.30786000  1.0
  H  H12  1  0.65253000  0.23285000  0.80786000  1.0
  H  H13  1  0.84747000  0.73285000  0.69214000  1.0
  H  H14  1  0.19224000  0.64582000  0.21563000  1.0
  H  H15  1  0.30776000  0.14582000  0.28436000  1.0
  H  H16  1  0.80775000  0.35418000  0.78436000  1.0
  H  H17  1  0.69225000  0.85418000  0.71564000  1.0
  H  H18  1  0.35250000  0.68671000  0.39698000  1.0
  H  H19  1  0.14750000  0.18671000  0.10302000  1.0
  H  H20  1  0.64750000  0.31329000  0.60302000  1.0
  H  H21  1  0.85250000  0.81330000  0.89698000  1.0
  H  H22  1  0.50501000  0.80913000  0.37312000  1.0
  H  H23  1  0.99499000  0.30913000  0.12688000  1.0
  H  H24  1  0.49499000  0.19087000  0.62688000  1.0
  H  H25  1  0.00501000  0.69087000  0.87312000  1.0
  H  H26  1  0.15834000  0.51579000  0.29067000  1.0
  H  H27  1  0.34165000  0.01579000  0.20932000  1.0
  H  H28  1  0.84164000  0.48421000  0.70932000  1.0
  H  H29  1  0.65835000  0.98422000  0.79068000  1.0
  H  H30  1  0.19869000  0.55149000  0.36455000  1.0
  H  H31  1  0.30130000  0.05149000  0.13544000  1.0
  H  H32  1  0.80130000  0.44851000  0.63544000  1.0
  H  H33  1  0.69869000  0.94851000  0.86455000  1.0
  H  H34  1  0.09097000  0.78416000  0.35009000  1.0
  H  H35  1  0.40902000  0.28416000  0.14990000  1.0
  H  H36  1  0.90903000  0.21584000  0.64990000  1.0
  H  H37  1  0.59097000  0.71584000  0.85009000  1.0
  H  H38  1  0.09449000  0.68162000  0.40031000  1.0
  H  H39  1  0.40550000  0.18162000  0.09968000  1.0
  H  H40  1  0.90550000  0.31838000  0.59968000  1.0
  H  H41  1  0.59449000  0.81838000  0.90031000  1.0
  H  H42  1  0.91081000  0.79613000  0.39314000  1.0
  H  H43  1  0.58920000  0.29613000  0.10687000  1.0
  H  H44  1  0.08919000  0.20387000  0.60686000  1.0
  H  H45  1  0.41080000  0.70388000  0.89313000  1.0
  H  H46  1  0.86778000  0.77230000  0.31836000  1.0
  H  H47  1  0.63222000  0.27230000  0.18164000  1.0
  H  H48  1  0.13222000  0.22770000  0.68164000  1.0
  H  H49  1  0.36778000  0.72770000  0.81836000  1.0
  H  H50  1  0.67817000  0.72817000  0.35165000  1.0
  H  H51  1  0.82183000  0.22817000  0.14835000  1.0
  H  H52  1  0.32183000  0.27183000  0.64835000  1.0
  H  H53  1  0.17817000  0.77183000  0.85165000  1.0
  H  H54  1  0.66540000  0.59044000  0.36019000  1.0
  H  H55  1  0.83460000  0.09044000  0.13981000  1.0
  H  H56  1  0.33460000  0.40956000  0.63981000  1.0
  H  H57  1  0.16541000  0.90956000  0.86019000  1.0
  H  H58  1  0.72753000  0.70259000  0.25614000  1.0
  H  H59  1  0.77247000  0.20259000  0.24386000  1.0
  H  H60  1  0.27247000  0.29740000  0.74386000  1.0
  H  H61  1  0.22753000  0.79741000  0.75614000  1.0
  H  H62  1  0.58916000  0.63985000  0.25837000  1.0
  H  H63  1  0.91084000  0.13985000  0.24163000  1.0
  H  H64  1  0.41084000  0.36015000  0.74163000  1.0
  H  H65  1  0.08917000  0.86015000  0.75837000  1.0
  H  H66  1  0.66169000  0.42389000  0.30344000  1.0
  H  H67  1  0.83831000  0.92389000  0.19656000  1.0
  H  H68  1  0.33832000  0.57611000  0.69657000  1.0
  H  H69  1  0.16168000  0.07611000  0.80343000  1.0
  H  H70  1  0.71657000  0.38184000  0.24325000  1.0
  H  H71  1  0.78343000  0.88184000  0.25675000  1.0
  H  H72  1  0.28343000  0.61816000  0.75675000  1.0
  H  H73  1  0.21657000  0.11816000  0.74325000  1.0
  H  H74  1  0.59513000  0.50878000  0.14577000  1.0
  H  H75  1  0.90488000  0.00878000  0.35424000  1.0
  H  H76  1  0.40489000  0.49121000  0.85424000  1.0
  H  H77  1  0.09511000  0.99122000  0.64576000  1.0
  H  H78  1  0.38314000  0.52917000  0.08768000  1.0
  H  H79  1  0.11687000  0.02916000  0.41232000  1.0
  H  H80  1  0.61688000  0.47083000  0.91232000  1.0
  H  H81  1  0.88311000  0.97083000  0.58767000  1.0
  H  H82  1  0.24359000  0.42823000  0.23161000  1.0
  H  H83  1  0.25642000  0.92823000  0.26839000  1.0
  H  H84  1  0.75642000  0.57177000  0.76839000  1.0
  H  H85  1  0.74359000  0.07177000  0.73161000  1.0
  H  H86  1  0.45484000  0.40180000  0.28987000  1.0
  H  H87  1  0.04516000  0.90180000  0.21013000  1.0
  H  H88  1  0.54517000  0.59820000  0.71014000  1.0
  H  H89  1  0.95485000  0.09819000  0.78987000  1.0
  H  H90  1  0.81580000  0.64366000  0.45354000  1.0
  H  H91  1  0.68422000  0.14365000  0.04647000  1.0
  H  H92  1  0.18420000  0.35635000  0.54646000  1.0
  H  H93  1  0.31579000  0.85635000  0.95353000  1.0
  H  H94  1  0.96660000  0.62369000  0.44751000  1.0
  H  H95  1  0.53340000  0.12369000  0.05249000  1.0
  H  H96  1  0.03339000  0.37631000  0.55249000  1.0
  H  H97  1  0.46661000  0.87631000  0.94751000  1.0
  H  H98  1  0.87998000  0.45833000  0.47554000  1.0
  H  H99  1  0.62003000  0.95833000  0.02446000  1.0
  H  H100  1  0.12002000  0.54167000  0.52446000  1.0
  H  H101  1  0.37998000  0.04167000  0.97554000  1.0
  H  H102  1  0.75911000  0.46312000  0.41343000  1.0
  H  H103  1  0.74090000  0.96311000  0.08658000  1.0
  H  H104  1  0.24089000  0.53689000  0.58658000  1.0
  H  H105  1  0.25911000  0.03689000  0.91342000  1.0
  H  H106  1  0.91220000  0.29455000  0.34427000  1.0
  H  H107  1  0.58780000  0.79455000  0.15574000  1.0
  H  H108  1  0.08779000  0.70545000  0.65574000  1.0
  H  H109  1  0.41220000  0.20545000  0.84426000  1.0
  H  H110  1  0.81464000  0.29737000  0.39284000  1.0
  H  H111  1  0.68536000  0.79737000  0.10716000  1.0
  H  H112  1  0.18535000  0.70263000  0.60716000  1.0
  H  H113  1  0.31465000  0.20263000  0.89284000  1.0
  H  H114  1  0.14932000  0.32843000  0.40049000  1.0
  H  H115  1  0.35067000  0.82843000  0.09951000  1.0
  H  H116  1  0.85066000  0.67158000  0.59951000  1.0
  H  H117  1  0.64934000  0.17158000  0.90049000  1.0
  H  H118  1  0.31185000  0.23225000  0.47015000  1.0
  H  H119  1  0.18816000  0.73225000  0.02986000  1.0
  H  H120  1  0.68815000  0.76775000  0.52986000  1.0
  H  H121  1  0.81185000  0.26775000  0.97014000  1.0
  H  H122  1  0.04156000  0.06930000  0.53649000  1.0
  H  H123  1  0.45843000  0.56931000  0.96351000  1.0
  H  H124  1  0.95842000  0.93070000  0.46351000  1.0
  H  H125  1  0.54157000  0.43070000  0.03649000  1.0
  H  H126  1  0.87710000  0.16604000  0.46837000  1.0
  H  H127  1  0.62290000  0.66604000  0.03163000  1.0
  H  H128  1  0.12289000  0.83397000  0.53163000  1.0
  H  H129  1  0.37711000  0.33397000  0.96837000  1.0
  H  H130  1  0.02075000  0.66225000  0.27378000  1.0
  H  H131  1  0.47925000  0.16225000  0.22622000  1.0
  H  H132  1  0.97925000  0.33775000  0.72622000  1.0
  H  H133  1  0.52075000  0.83776000  0.77378000  1.0
  H  H134  1  0.76322000  0.54894000  0.22064000  1.0
  H  H135  1  0.73678000  0.04894000  0.27936000  1.0
  H  H136  1  0.23679000  0.45106000  0.77936000  1.0
  H  H137  1  0.26322000  0.95106000  0.72064000  1.0
  H  H138  1  0.01633000  0.44316000  0.41244000  1.0
  H  H139  1  0.48367000  0.94316000  0.08756000  1.0
  H  H140  1  0.98366000  0.55684000  0.58756000  1.0
  H  H141  1  0.51634000  0.05684000  0.91244000  1.0
  H  H142  1  0.99469000  0.67757000  0.04145000  1.0
  H  H143  1  0.50531000  0.17758000  0.45855000  1.0
  H  H144  1  0.00531000  0.32242000  0.95855000  1.0
  H  H145  1  0.49470000  0.82243000  0.54145000  1.0
  C  C146  1  0.52853000  0.86818000  0.26685000  1.0
  C  C147  1  0.97146000  0.36818000  0.23315000  1.0
  C  C148  1  0.47147000  0.13182000  0.73315000  1.0
  C  C149  1  0.02853000  0.63182000  0.76685000  1.0
  C  C150  1  0.43678000  0.79406000  0.28107000  1.0
  C  C151  1  0.06321000  0.29406000  0.21892000  1.0
  C  C152  1  0.56322000  0.20594000  0.71892000  1.0
  C  C153  1  0.93677000  0.70594000  0.78107000  1.0
  C  C154  1  0.34753000  0.74901000  0.23686000  1.0
  C  C155  1  0.15247000  0.24901000  0.26314000  1.0
  C  C156  1  0.65247000  0.25099000  0.76314000  1.0
  C  C157  1  0.84753000  0.75099000  0.73686000  1.0
  C  C158  1  0.26122000  0.68154000  0.25001000  1.0
  C  C159  1  0.23878000  0.18154000  0.24998000  1.0
  C  C160  1  0.73879000  0.31846000  0.74999000  1.0
  C  C161  1  0.76122000  0.81846000  0.75001000  1.0
  C  C162  1  0.26335000  0.65742000  0.30771000  1.0
  C  C163  1  0.23664000  0.15742000  0.19228000  1.0
  C  C164  1  0.73664000  0.34257000  0.69228000  1.0
  C  C165  1  0.76336000  0.84258000  0.80772000  1.0
  C  C166  1  0.35174000  0.70322000  0.35183000  1.0
  C  C167  1  0.14825000  0.20322000  0.14817000  1.0
  C  C168  1  0.64826000  0.29677000  0.64817000  1.0
  C  C169  1  0.85174000  0.79678000  0.85183000  1.0
  C  C170  1  0.43826000  0.77118000  0.33877000  1.0
  C  C171  1  0.06172000  0.27118000  0.16122000  1.0
  C  C172  1  0.56174000  0.22881000  0.66122000  1.0
  C  C173  1  0.93827000  0.72881000  0.83878000  1.0
  C  C174  1  0.16994000  0.58274000  0.32037000  1.0
  C  C175  1  0.33005000  0.08274000  0.17962000  1.0
  C  C176  1  0.83005000  0.41725000  0.67962000  1.0
  C  C177  1  0.66995000  0.91726000  0.82038000  1.0
  C  C178  1  0.04425000  0.71197000  0.35826000  1.0
  C  C179  1  0.45575000  0.21197000  0.14174000  1.0
  C  C180  1  0.95575000  0.28803000  0.64174000  1.0
  C  C181  1  0.54426000  0.78803000  0.85826000  1.0
  C  C182  1  0.91324000  0.73712000  0.35968000  1.0
  C  C183  1  0.58677000  0.23712000  0.14033000  1.0
  C  C184  1  0.08677000  0.26288000  0.64033000  1.0
  C  C185  1  0.41324000  0.76288000  0.85967000  1.0
  C  C186  1  0.71358000  0.65156000  0.34165000  1.0
  C  C187  1  0.78643000  0.15156000  0.15836000  1.0
  C  C188  1  0.28643000  0.34844000  0.65836000  1.0
  C  C189  1  0.21357000  0.84844000  0.84164000  1.0
  C  C190  1  0.68788000  0.63789000  0.27617000  1.0
  C  C191  1  0.81212000  0.13789000  0.22383000  1.0
  C  C192  1  0.31212000  0.36211000  0.72383000  1.0
  C  C193  1  0.18789000  0.86211000  0.77617000  1.0
  C  C194  1  0.66610000  0.44468000  0.25915000  1.0
  C  C195  1  0.83391000  0.94467000  0.24085000  1.0
  C  C196  1  0.33391000  0.55532000  0.74085000  1.0
  C  C197  1  0.16609000  0.05532000  0.75915000  1.0
  C  C198  1  0.53899000  0.45560000  0.22244000  1.0
  C  C199  1  0.96101000  0.95560000  0.27756000  1.0
  C  C200  1  0.46101000  0.54440000  0.77756000  1.0
  C  C201  1  0.03899000  0.04439000  0.72244000  1.0
  C  C202  1  0.51844000  0.49103000  0.16509000  1.0
  C  C203  1  0.98157000  0.99103000  0.33491000  1.0
  C  C204  1  0.48157000  0.50897000  0.83491000  1.0
  C  C205  1  0.01842000  0.00897000  0.66508000  1.0
  C  C206  1  0.40015000  0.50288000  0.13234000  1.0
  C  C207  1  0.09985000  0.00288000  0.36766000  1.0
  C  C208  1  0.59986000  0.49712000  0.86766000  1.0
  C  C209  1  0.90014000  0.99712000  0.63234000  1.0
  C  C210  1  0.17341000  0.49995000  0.12132000  1.0
  C  C211  1  0.32660000  0.99995000  0.37868000  1.0
  C  C212  1  0.82660000  0.50005000  0.87868000  1.0
  C  C213  1  0.67340000  0.00005000  0.62132000  1.0
  C  C214  1  0.30037000  0.48215000  0.15652000  1.0
  C  C215  1  0.19963000  0.98214000  0.34348000  1.0
  C  C216  1  0.69964000  0.51786000  0.84348000  1.0
  C  C217  1  0.80036000  0.01786000  0.65652000  1.0
  C  C218  1  0.32104000  0.44588000  0.21333000  1.0
  C  C219  1  0.17896000  0.94588000  0.28667000  1.0
  C  C220  1  0.67897000  0.55413000  0.78667000  1.0
  C  C221  1  0.82104000  0.05412000  0.71333000  1.0
  C  C222  1  0.43924000  0.43169000  0.24575000  1.0
  C  C223  1  0.06077000  0.93168000  0.25426000  1.0
  C  C224  1  0.56077000  0.56832000  0.75426000  1.0
  C  C225  1  0.93923000  0.06831000  0.74574000  1.0
  C  C226  1  0.87149000  0.60373000  0.42758000  1.0
  C  C227  1  0.62851000  0.10373000  0.07242000  1.0
  C  C228  1  0.12851000  0.39627000  0.57242000  1.0
  C  C229  1  0.37149000  0.89627000  0.92758000  1.0
  C  C230  1  0.85476000  0.48499000  0.43018000  1.0
  C  C231  1  0.64524000  0.98499000  0.06982000  1.0
  C  C232  1  0.14524000  0.51502000  0.56982000  1.0
  C  C233  1  0.35476000  0.01501000  0.93018000  1.0
  C  C234  1  0.90676000  0.31599000  0.38834000  1.0
  C  C235  1  0.59324000  0.81599000  0.11166000  1.0
  C  C236  1  0.09324000  0.68402000  0.61167000  1.0
  C  C237  1  0.40677000  0.18402000  0.88834000  1.0
  C  C238  1  0.00195000  0.25618000  0.43094000  1.0
  C  C239  1  0.49804000  0.75618000  0.06906000  1.0
  C  C240  1  0.99804000  0.74382000  0.56907000  1.0
  C  C241  1  0.50196000  0.24382000  0.93093000  1.0
  C  C242  1  0.12508000  0.27378000  0.43149000  1.0
  C  C243  1  0.37492000  0.77378000  0.06851000  1.0
  C  C244  1  0.87492000  0.72622000  0.56852000  1.0
  C  C245  1  0.62508000  0.22623000  0.93148000  1.0
  C  C246  1  0.21628000  0.22004000  0.46972000  1.0
  C  C247  1  0.28372000  0.72004000  0.03028000  1.0
  C  C248  1  0.78371000  0.77995000  0.53028000  1.0
  C  C249  1  0.71629000  0.27996000  0.96972000  1.0
  C  C250  1  0.18696000  0.14623000  0.50810000  1.0
  C  C251  1  0.31303000  0.64623000  0.99190000  1.0
  C  C252  1  0.81302000  0.85377000  0.49190000  1.0
  C  C253  1  0.68696000  0.35377000  0.00809000  1.0
  C  C254  1  0.28829000  0.08658000  0.54681000  1.0
  C  C255  1  0.21171000  0.58659000  0.95319000  1.0
  C  C256  1  0.71170000  0.91341000  0.45319000  1.0
  C  C257  1  0.78830000  0.41342000  0.04681000  1.0
  C  C258  1  0.06438000  0.12784000  0.50730000  1.0
  C  C259  1  0.43562000  0.62784000  0.99270000  1.0
  C  C260  1  0.93561000  0.87216000  0.49270000  1.0
  C  C261  1  0.56439000  0.37216000  0.00730000  1.0
  C  C262  1  0.97236000  0.18251000  0.46920000  1.0
  C  C263  1  0.52764000  0.68251000  0.03080000  1.0
  C  C264  1  0.02763000  0.81749000  0.53080000  1.0
  C  C265  1  0.47237000  0.31749000  0.96920000  1.0
  N  N266  1  0.84484000  0.64166000  0.36764000  1.0
  N  N267  1  0.65517000  0.14166000  0.13236000  1.0
  N  N268  1  0.15516000  0.35834000  0.63236000  1.0
  N  N269  1  0.34484000  0.85834000  0.86764000  1.0
  N  N270  1  0.04763000  0.63013000  0.31464000  1.0
  N  N271  1  0.45236000  0.13013000  0.18535000  1.0
  N  N272  1  0.95236000  0.36987000  0.68535000  1.0
  N  N273  1  0.54765000  0.86987000  0.81465000  1.0
  N  N274  1  0.74203000  0.53988000  0.26017000  1.0
  N  N275  1  0.75797000  0.03988000  0.23983000  1.0
  N  N276  1  0.25797000  0.46012000  0.73983000  1.0
  N  N277  1  0.24204000  0.96012000  0.76017000  1.0
  N  N278  1  0.92596000  0.43204000  0.39393000  1.0
  N  N279  1  0.57403000  0.93204000  0.10607000  1.0
  N  N280  1  0.07403000  0.56796000  0.60607000  1.0
  N  N281  1  0.42597000  0.06797000  0.89393000  1.0
  Cl  Cl282  1  0.61667000  0.18346000  0.32029000  1.0
  Cl  Cl283  1  0.88333000  0.68346000  0.17971000  1.0
  Cl  Cl284  1  0.38333000  0.81654000  0.67971000  1.0
  Cl  Cl285  1  0.11667000  0.31654000  0.82029000  1.0
  O  O286  1  0.50415000  0.89879000  0.21318000  1.0
  O  O287  1  0.99584000  0.39878000  0.28682000  1.0
  O  O288  1  0.49585000  0.10121000  0.78682000  1.0
  O  O289  1  0.00415000  0.60121000  0.71318000  1.0
  O  O290  1  0.61995000  0.89556000  0.30439000  1.0
  O  O291  1  0.88005000  0.39556000  0.19561000  1.0
  O  O292  1  0.38006000  0.10445000  0.69562000  1.0
  O  O293  1  0.11995000  0.60444000  0.80439000  1.0
  O  O294  1  0.93248000  0.62378000  0.03752000  1.0
  O  O295  1  0.56752000  0.12379000  0.46248000  1.0
  O  O296  1  0.06752000  0.37622000  0.96248000  1.0
  O  O297  1  0.43248000  0.87622000  0.53752000  1.0
  O  O298  1  0.09097000  0.51713000  0.14967000  1.0
  O  O299  1  0.40903000  0.01713000  0.35033000  1.0
  O  O300  1  0.90904000  0.48287000  0.85033000  1.0
  O  O301  1  0.59096000  0.98287000  0.64967000  1.0
  O  O302  1  0.15953000  0.49795000  0.06721000  1.0
  O  O303  1  0.34047000  0.99796000  0.43279000  1.0
  O  O304  1  0.84048000  0.50204000  0.93279000  1.0
  O  O305  1  0.65952000  0.00204000  0.56721000  1.0
  O  O306  1  0.26090000  0.01411000  0.57900000  1.0
  O  O307  1  0.23910000  0.51411000  0.92101000  1.0
  O  O308  1  0.73908000  0.98588000  0.42100000  1.0
  O  O309  1  0.76090000  0.48589000  0.07899000  1.0
  O  O310  1  0.39659000  0.11031000  0.54514000  1.0
  O  O311  1  0.10340000  0.61032000  0.95486000  1.0
  O  O312  1  0.60339000  0.88968000  0.45486000  1.0
  O  O313  1  0.89661000  0.38969000  0.04515000  1.0
