# generated using pymatgen
data_AlH7C9NO5
_symmetry_space_group_name_H-M   'P 1'
_cell_length_a   6.66974000
_cell_length_b   8.76612000
_cell_length_c   15.15850289
_cell_angle_alpha   93.28326825
_cell_angle_beta   100.45491079
_cell_angle_gamma   104.39430000
_symmetry_Int_Tables_number   1
_chemical_formula_structural   AlH7C9NO5
_chemical_formula_sum   'Al2 H14 C18 N2 O10'
_cell_volume   839.31818355
_cell_formula_units_Z   2
loop_
 _symmetry_equiv_pos_site_id
 _symmetry_equiv_pos_as_xyz
  1  'x, y, z'
loop_
 _atom_site_type_symbol
 _atom_site_label
 _atom_site_symmetry_multiplicity
 _atom_site_fract_x
 _atom_site_fract_y
 _atom_site_fract_z
 _atom_site_occupancy
  Al  Al0  1  0.98713000  0.46608000  0.50104000  1.0
  Al  Al1  1  0.48751000  0.46900000  0.49951000  1.0
  H  H2  1  0.16055000  0.37982000  0.38986000  1.0
  H  H3  1  0.82543000  0.65076000  0.56425000  1.0
  H  H4  1  0.25931000  0.98808000  0.49584000  1.0
  H  H5  1  0.71253000  0.95227000  0.50750000  1.0
  H  H6  1  0.68147000  0.59701000  0.76472000  1.0
  H  H7  1  0.39688000  0.62169000  0.24502000  1.0
  H  H8  1  0.86334000  0.37260000  0.21354000  1.0
  H  H9  1  0.76647000  0.37114000  0.04618000  1.0
  H  H10  1  0.04725000  0.34402000  0.77651000  1.0
  H  H11  1  0.15614000  0.35618000  0.94436000  1.0
  H  H12  1  0.86747000  0.65816000  0.00859000  1.0
  H  H13  1  0.93199000  0.69434000  0.90508000  1.0
  H  H14  1  0.23108000  0.63826000  0.00477000  1.0
  H  H15  1  0.19458000  0.68642000  0.11080000  1.0
  C  C16  1  0.67172000  0.48404000  0.33762000  1.0
  C  C17  1  0.64533000  0.18465000  0.49737000  1.0
  C  C18  1  0.30742000  0.45919000  0.66110000  1.0
  C  C19  1  0.33004000  0.75581000  0.50607000  1.0
  C  C20  1  0.38646000  0.92925000  0.50106000  1.0
  C  C21  1  0.58577000  0.01139000  0.50236000  1.0
  C  C22  1  0.35995000  0.47006000  0.76154000  1.0
  C  C23  1  0.63386000  0.49677000  0.23856000  1.0
  C  C24  1  0.56583000  0.54845000  0.80522000  1.0
  C  C25  1  0.62345000  0.56873000  0.89979000  1.0
  C  C26  1  0.47998000  0.56985000  0.20063000  1.0
  C  C27  1  0.43249000  0.57797000  0.10721000  1.0
  C  C28  1  0.74423000  0.42994000  0.18335000  1.0
  C  C29  1  0.69042000  0.43100000  0.09021000  1.0
  C  C30  1  0.20761000  0.40500000  0.81133000  1.0
  C  C31  1  0.26876000  0.41479000  0.90486000  1.0
  C  C32  1  0.47427000  0.49522000  0.95067000  1.0
  C  C33  1  0.53430000  0.50200000  0.05036000  1.0
  N  N34  1  0.81896000  0.66409000  0.94200000  1.0
  N  N35  1  0.29387000  0.66333000  0.07169000  1.0
  O  O36  1  0.84786000  0.46128000  0.37517000  1.0
  O  O37  1  0.49825000  0.25459000  0.48665000  1.0
  O  O38  1  0.45508000  0.44860000  0.62038000  1.0
  O  O39  1  0.13469000  0.68915000  0.50218000  1.0
  O  O40  1  0.12289000  0.46526000  0.62375000  1.0
  O  O41  1  0.47934000  0.68749000  0.51404000  1.0
  O  O42  1  0.52098000  0.49424000  0.37696000  1.0
  O  O43  1  0.84150000  0.24948000  0.50364000  1.0
  O  O44  1  0.19694000  0.40328000  0.45497000  1.0
  O  O45  1  0.77858000  0.53937000  0.54167000  1.0
