# generated using pymatgen
data_NiH11C13NO6
_symmetry_space_group_name_H-M   'P 1'
_cell_length_a   6.98273000
_cell_length_b   9.51954000
_cell_length_c   10.40850000
_cell_angle_alpha   111.77300000
_cell_angle_beta   100.81100000
_cell_angle_gamma   96.54700000
_symmetry_Int_Tables_number   1
_chemical_formula_structural   NiH11C13NO6
_chemical_formula_sum   'Ni2 H22 C26 N2 O12'
_cell_volume   618.20056922
_cell_formula_units_Z   2
loop_
 _symmetry_equiv_pos_site_id
 _symmetry_equiv_pos_as_xyz
  1  'x, y, z'
loop_
 _atom_site_type_symbol
 _atom_site_label
 _atom_site_symmetry_multiplicity
 _atom_site_fract_x
 _atom_site_fract_y
 _atom_site_fract_z
 _atom_site_occupancy
  Ni  Ni0  1  0.48984000  0.01885000  0.22101000  1.0
  Ni  Ni1  1  0.51030000  0.98104000  0.77893000  1.0
  H  H2  1  0.03416000  0.35895000  0.28223000  1.0
  H  H3  1  0.96566000  0.64095000  0.71767000  1.0
  H  H4  1  0.76653000  0.67014000  0.02618000  1.0
  H  H5  1  0.23330000  0.33008000  0.97404000  1.0
  H  H6  1  0.58215000  0.40310000  0.96768000  1.0
  H  H7  1  0.41763000  0.59709000  0.03253000  1.0
  H  H8  1  0.19486000  0.81286000  0.51810000  1.0
  H  H9  1  0.80539000  0.18733000  0.48188000  1.0
  H  H10  1  0.42656000  0.45678000  0.23015000  1.0
  H  H11  1  0.57284000  0.54267000  0.76988000  1.0
  H  H12  1  0.76232000  0.57414000  0.40297000  1.0
  H  H13  1  0.23741000  0.42552000  0.59666000  1.0
  H  H14  1  0.79405000  0.80842000  0.62752000  1.0
  H  H15  1  0.20616000  0.19156000  0.37197000  1.0
  H  H16  1  0.13872000  0.02855000  0.12258000  1.0
  H  H17  1  0.86138000  0.97141000  0.87720000  1.0
  H  H18  1  0.28472000  0.09405000  0.04003000  1.0
  H  H19  1  0.71570000  0.90597000  0.95993000  1.0
  H  H20  1  0.82166000  0.91566000  0.24648000  1.0
  H  H21  1  0.17863000  0.08450000  0.75380000  1.0
  H  H22  1  0.66082000  0.82770000  0.29516000  1.0
  H  H23  1  0.33977000  0.17259000  0.70542000  1.0
  C  C24  1  0.66240000  0.21839000  0.09928000  1.0
  C  C25  1  0.33751000  0.78158000  0.90071000  1.0
  C  C26  1  0.97704000  0.42711000  0.22531000  1.0
  C  C27  1  0.02282000  0.57289000  0.77468000  1.0
  C  C28  1  0.08765000  0.57243000  0.25387000  1.0
  C  C29  1  0.91222000  0.42759000  0.74620000  1.0
  C  C30  1  0.00787000  0.66216000  0.18325000  1.0
  C  C31  1  0.99205000  0.33795000  0.81687000  1.0
  C  C32  1  0.82411000  0.60090000  0.08178000  1.0
  C  C33  1  0.17576000  0.39926000  0.91838000  1.0
  C  C34  1  0.72072000  0.45403000  0.05002000  1.0
  C  C35  1  0.27910000  0.54613000  0.95014000  1.0
  C  C36  1  0.79298000  0.36758000  0.12445000  1.0
  C  C37  1  0.20685000  0.63248000  0.87559000  1.0
  C  C38  1  0.11562000  0.81667000  0.20020000  1.0
  C  C39  1  0.88442000  0.18342000  0.79989000  1.0
  C  C40  1  0.31574000  0.75554000  0.48789000  1.0
  C  C41  1  0.68437000  0.24451000  0.51204000  1.0
  C  C42  1  0.28515000  0.62903000  0.35764000  1.0
  C  C43  1  0.71474000  0.37090000  0.64234000  1.0
  C  C44  1  0.44648000  0.55881000  0.32847000  1.0
  C  C45  1  0.55319000  0.44084000  0.67146000  1.0
  C  C46  1  0.63269000  0.62346000  0.42474000  1.0
  C  C47  1  0.36713000  0.37625000  0.57500000  1.0
  C  C48  1  0.65164000  0.75288000  0.54969000  1.0
  C  C49  1  0.34845000  0.24702000  0.44996000  1.0
  N  N50  1  0.49395000  0.81493000  0.58201000  1.0
  N  N51  1  0.50624000  0.18507000  0.41780000  1.0
  O  O52  1  0.70449000  0.16349000  0.19369000  1.0
  O  O53  1  0.29547000  0.83643000  0.80624000  1.0
  O  O54  1  0.51359000  0.16210000  0.99058000  1.0
  O  O55  1  0.48637000  0.83788000  0.00943000  1.0
  O  O56  1  0.30479000  0.84602000  0.23742000  1.0
  O  O57  1  0.69526000  0.15390000  0.76256000  1.0
  O  O58  1  0.00873000  0.90611000  0.16987000  1.0
  O  O59  1  0.99141000  0.09406000  0.83029000  1.0
  O  O60  1  0.72352000  0.93036000  0.30774000  1.0
  O  O61  1  0.27684000  0.06989000  0.69258000  1.0
  O  O62  1  0.25666000  0.10580000  0.13238000  1.0
  O  O63  1  0.74343000  0.89419000  0.86750000  1.0
