# generated using pymatgen
data_RbUH12C21I3O8
_symmetry_space_group_name_H-M   'P 1'
_cell_length_a   7.89041000
_cell_length_b   10.79700000
_cell_length_c   15.58460000
_cell_angle_alpha   74.11640000
_cell_angle_beta   83.95370000
_cell_angle_gamma   78.01950000
_symmetry_Int_Tables_number   1
_chemical_formula_structural   RbUH12C21I3O8
_chemical_formula_sum   'Rb2 U2 H24 C42 I6 O16'
_cell_volume   1247.52570550
_cell_formula_units_Z   2
loop_
 _symmetry_equiv_pos_site_id
 _symmetry_equiv_pos_as_xyz
  1  'x, y, z'
loop_
 _atom_site_type_symbol
 _atom_site_label
 _atom_site_symmetry_multiplicity
 _atom_site_fract_x
 _atom_site_fract_y
 _atom_site_fract_z
 _atom_site_occupancy
  Rb  Rb0  1  0.67230000  0.57785000  0.06626000  1.0
  Rb  Rb1  1  0.32770000  0.42214000  0.93374000  1.0
  U  U2  1  0.18053000  0.47872000  0.19322000  1.0
  U  U3  1  0.81947000  0.52127000  0.80678000  1.0
  H  H4  1  0.97048000  0.09330000  0.39171000  1.0
  H  H5  1  0.02953000  0.90671000  0.60828000  1.0
  H  H6  1  0.65079000  0.29987000  0.16980000  1.0
  H  H7  1  0.34922000  0.70012000  0.83021000  1.0
  H  H8  1  0.52805000  0.27256000  0.45986000  1.0
  H  H9  1  0.47196000  0.72744000  0.54014000  1.0
  H  H10  1  0.65572000  0.63437000  0.29302000  1.0
  H  H11  1  0.34426000  0.36564000  0.70697000  1.0
  H  H12  1  0.85311000  0.81100000  0.93250000  1.0
  H  H13  1  0.14689000  0.18899000  0.06750000  1.0
  H  H14  1  0.35353000  0.86569000  0.98518000  1.0
  H  H15  1  0.64648000  0.13430000  0.01482000  1.0
  H  H16  1  0.44266000  0.14967000  0.22525000  1.0
  H  H17  1  0.55735000  0.85032000  0.77476000  1.0
  H  H18  1  0.84680000  0.64180000  0.40794000  1.0
  H  H19  1  0.15318000  0.35822000  0.59205000  1.0
  H  H20  1  0.81101000  0.02767000  0.82117000  1.0
  H  H21  1  0.18899000  0.97232000  0.17883000  1.0
  H  H22  1  0.49743000  0.96885000  0.36310000  1.0
  H  H23  1  0.50258000  0.03115000  0.63691000  1.0
  H  H24  1  0.87870000  0.46504000  0.54940000  1.0
  H  H25  1  0.12127000  0.53499000  0.45060000  1.0
  H  H26  1  0.04075000  0.16283000  0.78822000  1.0
  H  H27  1  0.95925000  0.83717000  0.21178000  1.0
  C  C28  1  0.94487000  0.29913000  0.24669000  1.0
  C  C29  1  0.05514000  0.70087000  0.75331000  1.0
  C  C30  1  0.45322000  0.45640000  0.30586000  1.0
  C  C31  1  0.54678000  0.54359000  0.69414000  1.0
  C  C32  1  0.13581000  0.69821000  0.03493000  1.0
  C  C33  1  0.86420000  0.30179000  0.96506000  1.0
  C  C34  1  0.82407000  0.20558000  0.27695000  1.0
  C  C35  1  0.17594000  0.79442000  0.72305000  1.0
  C  C36  1  0.57968000  0.45405000  0.37018000  1.0
  C  C37  1  0.42032000  0.54595000  0.62982000  1.0
  C  C38  1  0.10580000  0.82555000  0.96612000  1.0
  C  C39  1  0.89421000  0.17444000  0.03388000  1.0
  C  C40  1  0.85595000  0.10359000  0.35515000  1.0
  C  C41  1  0.14406000  0.89641000  0.64485000  1.0
  C  C42  1  0.67599000  0.22076000  0.23005000  1.0
  C  C43  1  0.32402000  0.77923000  0.76995000  1.0
  C  C44  1  0.60020000  0.35179000  0.44879000  1.0
  C  C45  1  0.39981000  0.64822000  0.55121000  1.0
  C  C46  1  0.67208000  0.55631000  0.35444000  1.0
  C  C47  1  0.32791000  0.44369000  0.64555000  1.0
  C  C48  1  0.95311000  0.87076000  0.91959000  1.0
  C  C49  1  0.04690000  0.12923000  0.08041000  1.0
  C  C50  1  0.23586000  0.90132000  0.94829000  1.0
  C  C51  1  0.76414000  0.09867000  0.05171000  1.0
  C  C52  1  0.73784000  0.01944000  0.38528000  1.0
  C  C53  1  0.26217000  0.98056000  0.61473000  1.0
  C  C54  1  0.55941000  0.13582000  0.26101000  1.0
  C  C55  1  0.44060000  0.86418000  0.73899000  1.0
  C  C56  1  0.71201000  0.35563000  0.51092000  1.0
  C  C57  1  0.28798000  0.64438000  0.48908000  1.0
  C  C58  1  0.77947000  0.55991000  0.41871000  1.0
  C  C59  1  0.22051000  0.44011000  0.58129000  1.0
  C  C60  1  0.93111000  0.99162000  0.85636000  1.0
  C  C61  1  0.06889000  0.00837000  0.14364000  1.0
  C  C62  1  0.21198000  0.02075000  0.88414000  1.0
  C  C63  1  0.78802000  0.97925000  0.11586000  1.0
  C  C64  1  0.58953000  0.03468000  0.33866000  1.0
  C  C65  1  0.41048000  0.96532000  0.66134000  1.0
  C  C66  1  0.79900000  0.46030000  0.49787000  1.0
  C  C67  1  0.20099000  0.53972000  0.50212000  1.0
  C  C68  1  0.05999000  0.06815000  0.83758000  1.0
  C  C69  1  0.94001000  0.93184000  0.16242000  1.0
  I  I70  1  0.77313000  0.87041000  0.50512000  1.0
  I  I71  1  0.22688000  0.12961000  0.49489000  1.0
  I  I72  1  0.75232000  0.20167000  0.62805000  1.0
  I  I73  1  0.24767000  0.79836000  0.37196000  1.0
  I  I74  1  0.41576000  0.12715000  0.85499000  1.0
  I  I75  1  0.58423000  0.87285000  0.14501000  1.0
  O  O76  1  0.91826000  0.39541000  0.17611000  1.0
  O  O77  1  0.08175000  0.60458000  0.82388000  1.0
  O  O78  1  0.30942000  0.37302000  0.12665000  1.0
  O  O79  1  0.69058000  0.62698000  0.87335000  1.0
  O  O80  1  0.34036000  0.38202000  0.32783000  1.0
  O  O81  1  0.65964000  0.61798000  0.67217000  1.0
  O  O82  1  0.45008000  0.53580000  0.22705000  1.0
  O  O83  1  0.54991000  0.46419000  0.77295000  1.0
  O  O84  1  0.02021000  0.62609000  0.05750000  1.0
  O  O85  1  0.97979000  0.37391000  0.94251000  1.0
  O  O86  1  0.05207000  0.59296000  0.25134000  1.0
  O  O87  1  0.94792000  0.40704000  0.74866000  1.0
  O  O88  1  0.07840000  0.28710000  0.29041000  1.0
  O  O89  1  0.92160000  0.71290000  0.70959000  1.0
  O  O90  1  0.28059000  0.65989000  0.07367000  1.0
  O  O91  1  0.71941000  0.34010000  0.92632000  1.0
