# generated using pymatgen
data_CuH13C7N2ClO3
_symmetry_space_group_name_H-M   'P 1'
_cell_length_a   8.57344000
_cell_length_b   15.78250000
_cell_length_c   15.79030000
_cell_angle_alpha   119.96900000
_cell_angle_beta   90.00590000
_cell_angle_gamma   90.00670000
_symmetry_Int_Tables_number   1
_chemical_formula_structural   CuH13C7N2ClO3
_chemical_formula_sum   'Cu6 H78 C42 N12 Cl6 O18'
_cell_volume   1850.91933419
_cell_formula_units_Z   6
loop_
 _symmetry_equiv_pos_site_id
 _symmetry_equiv_pos_as_xyz
  1  'x, y, z'
loop_
 _atom_site_type_symbol
 _atom_site_label
 _atom_site_symmetry_multiplicity
 _atom_site_fract_x
 _atom_site_fract_y
 _atom_site_fract_z
 _atom_site_occupancy
  Cu  Cu0  1  0.10122000  0.78724000  0.40540000  1.0
  Cu  Cu1  1  0.76821000  0.59482000  0.38187000  1.0
  Cu  Cu2  1  0.43449000  0.61800000  0.21266000  1.0
  Cu  Cu3  1  0.10144000  0.21273000  0.59458000  1.0
  Cu  Cu4  1  0.76795000  0.40517000  0.61799000  1.0
  Cu  Cu5  1  0.43459000  0.38185000  0.78718000  1.0
  H  H6  1  0.41144000  0.80136000  0.91371000  1.0
  H  H7  1  0.07806000  0.08610000  0.88755000  1.0
  H  H8  1  0.74302000  0.11266000  0.19878000  1.0
  H  H9  1  0.41145000  0.19866000  0.08635000  1.0
  H  H10  1  0.07803000  0.91400000  0.11252000  1.0
  H  H11  1  0.74303000  0.88736000  0.80122000  1.0
  H  H12  1  0.40251000  0.67908000  0.81297000  1.0
  H  H13  1  0.06911000  0.18694000  0.86604000  1.0
  H  H14  1  0.73411000  0.13412000  0.32101000  1.0
  H  H15  1  0.40256000  0.32098000  0.18703000  1.0
  H  H16  1  0.06904000  0.81311000  0.13394000  1.0
  H  H17  1  0.73411000  0.86594000  0.67900000  1.0
  H  H18  1  0.58361000  0.72705000  0.87129000  1.0
  H  H19  1  0.25015000  0.12854000  0.85556000  1.0
  H  H20  1  0.91534000  0.14407000  0.27294000  1.0
  H  H21  1  0.58363000  0.27303000  0.12873000  1.0
  H  H22  1  0.25010000  0.87156000  0.14451000  1.0
  H  H23  1  0.91536000  0.85611000  0.72714000  1.0
  H  H24  1  0.84661000  0.74273000  0.23334000  1.0
  H  H25  1  0.51317000  0.76663000  0.50923000  1.0
  H  H26  1  0.18041000  0.49060000  0.25706000  1.0
  H  H27  1  0.84666000  0.25726000  0.76668000  1.0
  H  H28  1  0.51332000  0.23338000  0.49074000  1.0
  H  H29  1  0.18024000  0.50935000  0.74295000  1.0
  H  H30  1  0.81824000  0.71981000  0.11176000  1.0
  H  H31  1  0.48482000  0.88825000  0.60785000  1.0
  H  H32  1  0.15199000  0.39194000  0.28009000  1.0
  H  H33  1  0.81830000  0.28015000  0.88825000  1.0
  H  H34  1  0.48479000  0.11177000  0.39213000  1.0
  H  H35  1  0.15201000  0.60798000  0.71985000  1.0
  H  H36  1  0.74716000  0.63463000  0.14453000  1.0
  H  H37  1  0.41345000  0.85549000  0.49003000  1.0
  H  H38  1  0.08132000  0.50994000  0.36528000  1.0
  H  H39  1  0.74719000  0.36533000  0.85551000  1.0
  H  H40  1  0.41365000  0.14452000  0.50998000  1.0
  H  H41  1  0.08118000  0.49000000  0.63469000  1.0
  H  H42  1  0.71333000  0.90692000  0.30600000  1.0
  H  H43  1  0.38028000  0.69372000  0.60071000  1.0
  H  H44  1  0.04667000  0.39911000  0.09304000  1.0
  H  H45  1  0.71335000  0.09297000  0.69407000  1.0
  H  H46  1  0.38031000  0.30633000  0.39937000  1.0
  H  H47  1  0.04658000  0.60080000  0.90689000  1.0
  H  H48  1  0.52411000  0.91822000  0.26522000  1.0
  H  H49  1  0.19119000  0.73452000  0.65299000  1.0
  H  H50  1  0.85738000  0.34718000  0.08208000  1.0
  H  H51  1  0.52414000  0.08169000  0.73486000  1.0
  H  H52  1  0.19116000  0.26554000  0.34715000  1.0
  H  H53  1  0.85740000  0.65279000  0.91788000  1.0
  H  H54  1  0.69270000  0.89234000  0.18806000  1.0
  H  H55  1  0.35990000  0.81169000  0.70402000  1.0
  H  H56  1  0.02597000  0.29585000  0.10791000  1.0
  H  H57  1  0.69269000  0.10767000  0.81205000  1.0
  H  H58  1  0.35982000  0.18839000  0.29603000  1.0
  H  H59  1  0.02606000  0.70408000  0.89206000  1.0
  H  H60  1  0.58308000  0.79758000  0.05286000  1.0
  H  H61  1  0.24982000  0.94707000  0.74475000  1.0
  H  H62  1  0.91614000  0.25533000  0.20255000  1.0
  H  H63  1  0.58331000  0.20246000  0.94726000  1.0
  H  H64  1  0.24966000  0.05301000  0.25532000  1.0
  H  H65  1  0.91606000  0.74471000  0.79752000  1.0
  H  H66  1  0.29968000  0.68762000  0.96670000  1.0
  H  H67  1  0.96624000  0.03305000  0.72076000  1.0
  H  H68  1  0.63255000  0.27977000  0.31252000  1.0
  H  H69  1  0.29968000  0.31220000  0.03314000  1.0
  H  H70  1  0.96614000  0.96693000  0.27925000  1.0
  H  H71  1  0.63266000  0.72022000  0.68733000  1.0
  H  H72  1  0.61438000  0.75916000  0.32941000  1.0
  H  H73  1  0.28089000  0.67045000  0.42974000  1.0
  H  H74  1  0.94809000  0.57054000  0.24099000  1.0
  H  H75  1  0.61446000  0.24079000  0.67059000  1.0
  H  H76  1  0.28107000  0.32953000  0.57037000  1.0
  H  H77  1  0.94787000  0.42953000  0.75911000  1.0
  H  H78  1  0.44408000  0.80147000  0.31064000  1.0
  H  H79  1  0.11065000  0.68921000  0.49087000  1.0
  H  H80  1  0.77797000  0.50931000  0.19840000  1.0
  H  H81  1  0.44419000  0.19838000  0.68929000  1.0
  H  H82  1  0.11091000  0.31087000  0.50916000  1.0
  H  H83  1  0.77762000  0.49065000  0.80139000  1.0
  C  C84  1  0.48119000  0.42036000  0.09516000  1.0
  C  C85  1  0.14788000  0.90487000  0.32523000  1.0
  C  C86  1  0.81451000  0.67492000  0.57954000  1.0
  C  C87  1  0.48135000  0.57961000  0.90480000  1.0
  C  C88  1  0.14796000  0.09518000  0.67484000  1.0
  C  C89  1  0.81431000  0.32517000  0.42045000  1.0
  C  C90  1  0.42527000  0.31269000  0.04704000  1.0
  C  C91  1  0.09172000  0.95310000  0.26575000  1.0
  C  C92  1  0.75812000  0.73414000  0.68716000  1.0
  C  C93  1  0.42529000  0.68727000  0.95292000  1.0
  C  C94  1  0.09181000  0.04693000  0.73429000  1.0
  C  C95  1  0.75800000  0.26589000  0.31277000  1.0
  C  C96  1  0.45756000  0.72675000  0.88406000  1.0
  C  C97  1  0.12405000  0.11577000  0.84256000  1.0
  C  C98  1  0.78937000  0.15748000  0.27332000  1.0
  C  C99  1  0.45757000  0.27328000  0.11596000  1.0
  C  C100  1  0.12399000  0.88429000  0.15748000  1.0
  C  C101  1  0.78941000  0.84258000  0.72669000  1.0
  C  C102  1  0.50275000  0.28070000  0.88594000  1.0
  C  C103  1  0.16946000  0.11415000  0.39482000  1.0
  C  C104  1  0.83641000  0.60498000  0.71894000  1.0
  C  C105  1  0.50273000  0.71921000  0.11402000  1.0
  C  C106  1  0.16944000  0.88587000  0.60524000  1.0
  C  C107  1  0.83642000  0.39502000  0.28099000  1.0
  C  C108  1  0.60992000  0.76879000  0.20290000  1.0
  C  C109  1  0.27666000  0.79694000  0.56587000  1.0
  C  C110  1  0.94367000  0.43425000  0.23128000  1.0
  C  C111  1  0.60999000  0.23112000  0.79709000  1.0
  C  C112  1  0.27673000  0.20307000  0.43418000  1.0
  C  C113  1  0.94360000  0.56576000  0.76868000  1.0
  C  C114  1  0.76550000  0.71286000  0.17138000  1.0
  C  C115  1  0.43204000  0.82859000  0.54135000  1.0
  C  C116  1  0.09939000  0.45858000  0.28707000  1.0
  C  C117  1  0.76556000  0.28710000  0.82863000  1.0
  C  C118  1  0.43214000  0.17143000  0.45866000  1.0
  C  C119  1  0.09930000  0.54138000  0.71290000  1.0
  C  C120  1  0.63524000  0.87844000  0.24238000  1.0
  C  C121  1  0.30225000  0.75736000  0.63593000  1.0
  C  C122  1  0.96867000  0.36408000  0.12170000  1.0
  C  C123  1  0.63527000  0.12149000  0.75767000  1.0
  C  C124  1  0.30226000  0.24269000  0.36415000  1.0
  C  C125  1  0.96865000  0.63588000  0.87826000  1.0
  N  N126  1  0.53356000  0.75147000  0.27746000  1.0
  N  N127  1  0.20016000  0.72240000  0.47404000  1.0
  N  N128  1  0.86726000  0.52616000  0.24854000  1.0
  N  N129  1  0.53363000  0.24844000  0.72250000  1.0
  N  N130  1  0.20028000  0.27761000  0.52601000  1.0
  N  N131  1  0.86709000  0.47381000  0.75137000  1.0
  N  N132  1  0.50349000  0.25263000  0.95343000  1.0
  N  N133  1  0.16997000  0.04675000  0.29930000  1.0
  N  N134  1  0.83662000  0.70059000  0.74715000  1.0
  N  N135  1  0.50335000  0.74734000  0.04658000  1.0
  N  N136  1  0.17007000  0.95330000  0.70077000  1.0
  N  N137  1  0.83662000  0.29943000  0.25283000  1.0
  Cl  Cl138  1  0.14471000  0.66551000  0.24885000  1.0
  Cl  Cl139  1  0.81127000  0.75137000  0.41656000  1.0
  Cl  Cl140  1  0.47808000  0.58341000  0.33451000  1.0
  Cl  Cl141  1  0.14475000  0.33447000  0.75108000  1.0
  Cl  Cl142  1  0.81130000  0.24868000  0.58343000  1.0
  Cl  Cl143  1  0.47799000  0.41664000  0.66539000  1.0
  O  O144  1  0.36935000  0.48227000  0.12988000  1.0
  O  O145  1  0.03615000  0.87012000  0.35247000  1.0
  O  O146  1  0.70289000  0.64780000  0.51753000  1.0
  O  O147  1  0.36961000  0.51763000  0.87006000  1.0
  O  O148  1  0.03627000  0.12993000  0.64758000  1.0
  O  O149  1  0.70262000  0.35227000  0.48240000  1.0
  O  O150  1  0.41941000  0.35168000  0.89894000  1.0
  O  O151  1  0.08625000  0.10105000  0.45276000  1.0
  O  O152  1  0.75333000  0.54696000  0.64788000  1.0
  O  O153  1  0.41945000  0.64814000  0.10093000  1.0
  O  O154  1  0.08619000  0.89896000  0.54730000  1.0
  O  O155  1  0.75330000  0.45305000  0.35199000  1.0
  O  O156  1  0.62444000  0.43738000  0.09964000  1.0
  O  O157  1  0.29119000  0.90035000  0.33755000  1.0
  O  O158  1  0.95787000  0.66260000  0.56283000  1.0
  O  O159  1  0.62465000  0.56273000  0.90036000  1.0
  O  O160  1  0.29127000  0.09968000  0.66250000  1.0
  O  O161  1  0.95765000  0.33750000  0.43723000  1.0
