# generated using pymatgen
data_Cd3H28C42N8O13
_symmetry_space_group_name_H-M   'P 1'
_cell_length_a   16.28110000
_cell_length_b   16.74730000
_cell_length_c   18.57720000
_cell_angle_alpha   112.16300000
_cell_angle_beta   90.00000000
_cell_angle_gamma   90.00000000
_symmetry_Int_Tables_number   1
_chemical_formula_structural   Cd3H28C42N8O13
_chemical_formula_sum   'Cd12 H112 C168 N32 O52'
_cell_volume   4691.08641469
_cell_formula_units_Z   4
loop_
 _symmetry_equiv_pos_site_id
 _symmetry_equiv_pos_as_xyz
  1  'x, y, z'
loop_
 _atom_site_type_symbol
 _atom_site_label
 _atom_site_symmetry_multiplicity
 _atom_site_fract_x
 _atom_site_fract_y
 _atom_site_fract_z
 _atom_site_occupancy
  Cd  Cd0  1  0.79278000  0.92193000  0.77909000  1.0
  Cd  Cd1  1  0.29278000  0.57807000  0.72091000  1.0
  Cd  Cd2  1  0.20722000  0.07807000  0.22091000  1.0
  Cd  Cd3  1  0.70722000  0.42193000  0.27909000  1.0
  Cd  Cd4  1  0.86050000  0.14313000  0.77605000  1.0
  Cd  Cd5  1  0.36050000  0.35687000  0.72395000  1.0
  Cd  Cd6  1  0.13950000  0.85687000  0.22395000  1.0
  Cd  Cd7  1  0.63950000  0.64314000  0.27605000  1.0
  Cd  Cd8  1  0.43785000  0.72545000  0.43050000  1.0
  Cd  Cd9  1  0.93785000  0.77455000  0.06950000  1.0
  Cd  Cd10  1  0.56214000  0.27455000  0.56950000  1.0
  Cd  Cd11  1  0.06215000  0.22545000  0.93050000  1.0
  H  H12  1  0.91525000  0.65341000  0.52235000  1.0
  H  H13  1  0.41525000  0.84659000  0.97765000  1.0
  H  H14  1  0.08475000  0.34659000  0.47765000  1.0
  H  H15  1  0.58475000  0.15341000  0.02235000  1.0
  H  H16  1  0.16146000  0.71766000  0.61038000  1.0
  H  H17  1  0.66146000  0.78234000  0.88962000  1.0
  H  H18  1  0.83854000  0.28234000  0.38962000  1.0
  H  H19  1  0.33854000  0.21766000  0.11038000  1.0
  H  H20  1  0.21474000  0.59633000  0.49792000  1.0
  H  H21  1  0.71474000  0.90367000  0.00208000  1.0
  H  H22  1  0.78526000  0.40367000  0.50208000  1.0
  H  H23  1  0.28526000  0.09633000  0.99792000  1.0
  H  H24  1  0.12160000  0.50359000  0.39587000  1.0
  H  H25  1  0.62160000  0.99641000  0.10413000  1.0
  H  H26  1  0.87840000  0.49641000  0.60413000  1.0
  H  H27  1  0.37840000  0.00359000  0.89587000  1.0
  H  H28  1  0.90264000  0.35980000  0.23342000  1.0
  H  H29  1  0.40264000  0.14020000  0.26658000  1.0
  H  H30  1  0.09736000  0.64020000  0.76658000  1.0
  H  H31  1  0.59736000  0.85980000  0.73342000  1.0
  H  H32  1  0.82603000  0.57182000  0.43011000  1.0
  H  H33  1  0.32604000  0.92818000  0.06989000  1.0
  H  H34  1  0.17397000  0.42818000  0.56989000  1.0
  H  H35  1  0.67397000  0.07182000  0.93011000  1.0
  H  H36  1  0.01043000  0.93996000  0.79859000  1.0
  H  H37  1  0.51043000  0.56004000  0.70141000  1.0
  H  H38  1  0.98957000  0.06004000  0.20141000  1.0
  H  H39  1  0.48957000  0.43996000  0.29859000  1.0
  H  H40  1  0.86372000  0.76988000  0.61967000  1.0
  H  H41  1  0.36372000  0.73011000  0.88033000  1.0
  H  H42  1  0.13628000  0.23011000  0.38033000  1.0
  H  H43  1  0.63628000  0.26989000  0.11967000  1.0
  H  H44  1  0.12918000  0.87900000  0.50237000  1.0
  H  H45  1  0.62918000  0.62099000  0.99763000  1.0
  H  H46  1  0.87082000  0.12099000  0.49763000  1.0
  H  H47  1  0.37082000  0.37901000  0.00237000  1.0
  H  H48  1  0.86606000  0.84397000  0.47830000  1.0
  H  H49  1  0.36606000  0.65603000  0.02170000  1.0
  H  H50  1  0.13394000  0.15603000  0.52171000  1.0
  H  H51  1  0.63394000  0.34397000  0.97830000  1.0
  H  H52  1  0.88783000  0.71207000  0.36114000  1.0
  H  H53  1  0.38783000  0.78792000  0.13886000  1.0
  H  H54  1  0.11217000  0.28793000  0.63886000  1.0
  H  H55  1  0.61217000  0.21207000  0.86114000  1.0
  H  H56  1  0.02839000  0.66140000  0.31572000  1.0
  H  H57  1  0.52839000  0.83860000  0.18428000  1.0
  H  H58  1  0.97161000  0.33860000  0.68428000  1.0
  H  H59  1  0.47161000  0.16140000  0.81572000  1.0
  H  H60  1  0.25452000  0.80348000  0.48755000  1.0
  H  H61  1  0.75452000  0.69652000  0.01245000  1.0
  H  H62  1  0.74548000  0.19652000  0.51245000  1.0
  H  H63  1  0.24548000  0.30348000  0.98755000  1.0
  H  H64  1  0.31333000  0.63077000  0.26232000  1.0
  H  H65  1  0.81333000  0.86923000  0.23768000  1.0
  H  H66  1  0.68667000  0.36923000  0.73768000  1.0
  H  H67  1  0.18667000  0.13077000  0.76232000  1.0
  H  H68  1  0.05379000  0.12707000  0.70339000  1.0
  H  H69  1  0.55379000  0.37293000  0.79661000  1.0
  H  H70  1  0.94621000  0.87293000  0.29661000  1.0
  H  H71  1  0.44620000  0.62707000  0.20339000  1.0
  H  H72  1  0.85452000  0.96091000  0.60898000  1.0
  H  H73  1  0.35452000  0.53908000  0.89102000  1.0
  H  H74  1  0.14548000  0.03909000  0.39102000  1.0
  H  H75  1  0.64548000  0.46092000  0.10898000  1.0
  H  H76  1  0.60775000  0.18838000  0.70853000  1.0
  H  H77  1  0.10775000  0.31162000  0.79147000  1.0
  H  H78  1  0.39225000  0.81162000  0.29147000  1.0
  H  H79  1  0.89225000  0.68838000  0.20853000  1.0
  H  H80  1  0.62707000  0.91254000  0.60589000  1.0
  H  H81  1  0.12707000  0.58746000  0.89411000  1.0
  H  H82  1  0.37293000  0.08746000  0.39411000  1.0
  H  H83  1  0.87293000  0.41254000  0.10589000  1.0
  H  H84  1  0.39957000  0.03551000  0.58979000  1.0
  H  H85  1  0.89957000  0.46449000  0.91021000  1.0
  H  H86  1  0.60043000  0.96450000  0.41021000  1.0
  H  H87  1  0.10043000  0.53551000  0.08979000  1.0
  H  H88  1  0.79450000  0.23050000  0.05581000  1.0
  H  H89  1  0.29450000  0.26949000  0.44419000  1.0
  H  H90  1  0.20550000  0.76950000  0.94419000  1.0
  H  H91  1  0.70551000  0.73050000  0.55581000  1.0
  H  H92  1  0.89312000  0.97717000  0.93354000  1.0
  H  H93  1  0.39312000  0.52283000  0.56646000  1.0
  H  H94  1  0.10688000  0.02283000  0.06646000  1.0
  H  H95  1  0.60688000  0.47717000  0.43354000  1.0
  H  H96  1  0.84486000  0.06325000  0.17869000  1.0
  H  H97  1  0.34486000  0.43675000  0.32131000  1.0
  H  H98  1  0.15514000  0.93676000  0.82131000  1.0
  H  H99  1  0.65514000  0.56325000  0.67869000  1.0
  H  H100  1  0.10577000  0.81945000  0.71164000  1.0
  H  H101  1  0.60577000  0.68054000  0.78836000  1.0
  H  H102  1  0.89423000  0.18055000  0.28836000  1.0
  H  H103  1  0.39423000  0.31945000  0.21164000  1.0
  H  H104  1  0.03028000  0.42518000  0.31350000  1.0
  H  H105  1  0.53028000  0.07482000  0.18650000  1.0
  H  H106  1  0.96972000  0.57482000  0.68650000  1.0
  H  H107  1  0.46972000  0.92518000  0.81350000  1.0
  H  H108  1  0.16243000  0.66944000  0.26115000  1.0
  H  H109  1  0.66243000  0.83056000  0.23885000  1.0
  H  H110  1  0.83756000  0.33056000  0.73885000  1.0
  H  H111  1  0.33757000  0.16944000  0.76115000  1.0
  H  H112  1  0.10617000  0.00384000  0.58196000  1.0
  H  H113  1  0.60616000  0.49616000  0.91803000  1.0
  H  H114  1  0.89384000  0.99616000  0.41804000  1.0
  H  H115  1  0.39384000  0.50384000  0.08196000  1.0
  H  H116  1  0.83949000  0.84264000  0.90664000  1.0
  H  H117  1  0.33949000  0.65736000  0.59336000  1.0
  H  H118  1  0.16051000  0.15736000  0.09336000  1.0
  H  H119  1  0.66051000  0.34264000  0.40664000  1.0
  H  H120  1  0.77820000  0.78794000  0.83410000  1.0
  H  H121  1  0.27819000  0.71206000  0.66590000  1.0
  H  H122  1  0.22180000  0.21206000  0.16590000  1.0
  H  H123  1  0.72180000  0.28794000  0.33410000  1.0
  C  C124  1  0.01070000  0.57223000  0.45202000  1.0
  C  C125  1  0.51070000  0.92777000  0.04798000  1.0
  C  C126  1  0.98930000  0.42777000  0.54798000  1.0
  C  C127  1  0.48930000  0.07223000  0.95202000  1.0
  C  C128  1  0.98108000  0.64108000  0.51682000  1.0
  C  C129  1  0.48108000  0.85892000  0.98318000  1.0
  C  C130  1  0.01892000  0.35893000  0.48318000  1.0
  C  C131  1  0.51892000  0.14108000  0.01682000  1.0
  C  C132  1  0.03403000  0.69516000  0.57405000  1.0
  C  C133  1  0.53403000  0.80484000  0.92595000  1.0
  C  C134  1  0.96597000  0.30485000  0.42595000  1.0
  C  C135  1  0.46597000  0.19516000  0.07405000  1.0
  C  C136  1  0.11887000  0.67804000  0.56622000  1.0
  C  C137  1  0.61887000  0.82196000  0.93378000  1.0
  C  C138  1  0.88113000  0.32196000  0.43378000  1.0
  C  C139  1  0.38113000  0.17804000  0.06622000  1.0
  C  C140  1  0.14890000  0.60908000  0.50249000  1.0
  C  C141  1  0.64890000  0.89092000  0.99751000  1.0
  C  C142  1  0.85110000  0.39092000  0.49751000  1.0
  C  C143  1  0.35110000  0.10908000  0.00249000  1.0
  C  C144  1  0.09585000  0.55665000  0.44524000  1.0
  C  C145  1  0.59585000  0.94335000  0.05476000  1.0
  C  C146  1  0.90415000  0.44335000  0.55476000  1.0
  C  C147  1  0.40415000  0.05665000  0.94524000  1.0
  C  C148  1  0.90381000  0.41523000  0.28772000  1.0
  C  C149  1  0.40381000  0.08477000  0.21228000  1.0
  C  C150  1  0.09619000  0.58477000  0.71228000  1.0
  C  C151  1  0.59620000  0.91523000  0.78772000  1.0
  C  C152  1  0.86740000  0.52562000  0.38993000  1.0
  C  C153  1  0.36740000  0.97437000  0.11007000  1.0
  C  C154  1  0.13260000  0.47438000  0.61006000  1.0
  C  C155  1  0.63260000  0.02563000  0.88994000  1.0
  C  C156  1  0.95207000  0.52000000  0.39425000  1.0
  C  C157  1  0.45207000  0.98000000  0.10575000  1.0
  C  C158  1  0.04793000  0.48001000  0.60575000  1.0
  C  C159  1  0.54793000  0.02000000  0.89425000  1.0
  C  C160  1  0.99173000  0.88545000  0.74702000  1.0
  C  C161  1  0.49173000  0.61455000  0.75298000  1.0
  C  C162  1  0.00827000  0.11455000  0.25298000  1.0
  C  C163  1  0.50827000  0.38545000  0.24702000  1.0
  C  C164  1  0.91891000  0.79609000  0.65274000  1.0
  C  C165  1  0.41891000  0.70391000  0.84726000  1.0
  C  C166  1  0.08109000  0.20391000  0.34726000  1.0
  C  C167  1  0.58109000  0.29609000  0.15274000  1.0
  C  C168  1  0.99933000  0.76736000  0.63877000  1.0
  C  C169  1  0.49933000  0.73264000  0.86123000  1.0
  C  C170  1  0.00067000  0.23265000  0.36123000  1.0
  C  C171  1  0.50067000  0.26736000  0.13877000  1.0
  C  C172  1  0.08864000  0.76787000  0.40632000  1.0
  C  C173  1  0.58864000  0.73213000  0.09368000  1.0
  C  C174  1  0.91136000  0.23213000  0.59368000  1.0
  C  C175  1  0.41136000  0.26787000  0.90632000  1.0
  C  C176  1  0.07535000  0.84319000  0.47217000  1.0
  C  C177  1  0.57535000  0.65681000  0.02783000  1.0
  C  C178  1  0.92465000  0.15681000  0.52784000  1.0
  C  C179  1  0.42465000  0.34319000  0.97217000  1.0
  C  C180  1  0.99634000  0.87180000  0.49921000  1.0
  C  C181  1  0.49634000  0.62819000  0.00080000  1.0
  C  C182  1  0.00366000  0.12820000  0.50080000  1.0
  C  C183  1  0.50366000  0.37181000  0.99920000  1.0
  C  C184  1  0.92842000  0.82334000  0.45844000  1.0
  C  C185  1  0.42842000  0.67666000  0.04156000  1.0
  C  C186  1  0.07158000  0.17666000  0.54157000  1.0
  C  C187  1  0.57158000  0.32334000  0.95844000  1.0
  C  C188  1  0.94078000  0.74909000  0.39236000  1.0
  C  C189  1  0.44078000  0.75090000  0.10764000  1.0
  C  C190  1  0.05922000  0.25091000  0.60764000  1.0
  C  C191  1  0.55922000  0.24910000  0.89236000  1.0
  C  C192  1  0.02013000  0.72103000  0.36619000  1.0
  C  C193  1  0.52013000  0.77897000  0.13381000  1.0
  C  C194  1  0.97987000  0.27897000  0.63381000  1.0
  C  C195  1  0.47987000  0.22103000  0.86619000  1.0
  C  C196  1  0.24470000  0.76166000  0.42740000  1.0
  C  C197  1  0.74470000  0.73834000  0.07260000  1.0
  C  C198  1  0.75530000  0.23834000  0.57260000  1.0
  C  C199  1  0.25530000  0.26166000  0.92740000  1.0
  C  C200  1  0.27858000  0.67182000  0.31233000  1.0
  C  C201  1  0.77858000  0.82818000  0.18767000  1.0
  C  C202  1  0.72142000  0.32818000  0.68767000  1.0
  C  C203  1  0.22142000  0.17182000  0.81233000  1.0
  C  C204  1  0.17292000  0.74052000  0.38424000  1.0
  C  C205  1  0.67292000  0.75948000  0.11576000  1.0
  C  C206  1  0.82708000  0.25948000  0.61576000  1.0
  C  C207  1  0.32708000  0.24052000  0.88424000  1.0
  C  C208  1  0.01840000  0.07253000  0.66579000  1.0
  C  C209  1  0.51840000  0.42747000  0.83421000  1.0
  C  C210  1  0.98160000  0.92747000  0.33421000  1.0
  C  C211  1  0.48160000  0.57253000  0.16579000  1.0
  C  C212  1  0.91674000  0.98536000  0.61315000  1.0
  C  C213  1  0.41674000  0.51464000  0.88685000  1.0
  C  C214  1  0.08326000  0.01464000  0.38685000  1.0
  C  C215  1  0.58326000  0.48536000  0.11315000  1.0
  C  C216  1  0.98488000  0.95028000  0.56778000  1.0
  C  C217  1  0.48488000  0.54972000  0.93222000  1.0
  C  C218  1  0.01512000  0.04972000  0.43222000  1.0
  C  C219  1  0.51512000  0.45028000  0.06778000  1.0
  C  C220  1  0.49809000  0.12112000  0.65174000  1.0
  C  C221  1  0.99809000  0.37888000  0.84826000  1.0
  C  C222  1  0.50191000  0.87888000  0.34826000  1.0
  C  C223  1  0.00191000  0.62112000  0.15174000  1.0
  C  C224  1  0.57943000  0.12619000  0.67674000  1.0
  C  C225  1  0.07943000  0.37381000  0.82326000  1.0
  C  C226  1  0.42057000  0.87381000  0.32326000  1.0
  C  C227  1  0.92057000  0.62619000  0.17674000  1.0
  C  C228  1  0.62501000  0.05123000  0.66311000  1.0
  C  C229  1  0.12501000  0.44877000  0.83688000  1.0
  C  C230  1  0.37499000  0.94878000  0.33689000  1.0
  C  C231  1  0.87499000  0.55123000  0.16311000  1.0
  C  C232  1  0.59075000  0.97104000  0.61950000  1.0
  C  C233  1  0.09075000  0.52896000  0.88050000  1.0
  C  C234  1  0.40925000  0.02896000  0.38050000  1.0
  C  C235  1  0.90925000  0.47104000  0.11950000  1.0
  C  C236  1  0.50996000  0.96578000  0.59207000  1.0
  C  C237  1  0.00996000  0.53422000  0.90793000  1.0
  C  C238  1  0.49004000  0.03422000  0.40793000  1.0
  C  C239  1  0.99004000  0.46578000  0.09207000  1.0
  C  C240  1  0.46271000  0.04060000  0.61041000  1.0
  C  C241  1  0.96271000  0.45940000  0.88959000  1.0
  C  C242  1  0.53728000  0.95940000  0.38960000  1.0
  C  C243  1  0.03729000  0.54060000  0.11041000  1.0
  C  C244  1  0.44992000  0.20195000  0.67284000  1.0
  C  C245  1  0.94992000  0.29805000  0.82716000  1.0
  C  C246  1  0.55008000  0.79805000  0.32716000  1.0
  C  C247  1  0.05008000  0.70195000  0.17284000  1.0
  C  C248  1  0.71003000  0.05939000  0.69574000  1.0
  C  C249  1  0.21003000  0.44061000  0.80425000  1.0
  C  C250  1  0.28997000  0.94061000  0.30426000  1.0
  C  C251  1  0.78997000  0.55939000  0.19574000  1.0
  C  C252  1  0.47507000  0.88094000  0.53996000  1.0
  C  C253  1  0.97507000  0.61906000  0.96004000  1.0
  C  C254  1  0.52493000  0.11906000  0.46004000  1.0
  C  C255  1  0.02493000  0.38094000  0.03996000  1.0
  C  C256  1  0.81673000  0.15464000  0.12567000  1.0
  C  C257  1  0.31674000  0.34536000  0.37433000  1.0
  C  C258  1  0.18326000  0.84536000  0.87433000  1.0
  C  C259  1  0.68327000  0.65464000  0.62567000  1.0
  C  C260  1  0.81517000  0.16876000  0.05602000  1.0
  C  C261  1  0.31517000  0.33123000  0.44398000  1.0
  C  C262  1  0.18483000  0.83124000  0.94398000  1.0
  C  C263  1  0.68483000  0.66876000  0.55602000  1.0
  C  C264  1  0.84107000  0.10411000  0.98672000  1.0
  C  C265  1  0.34107000  0.39589000  0.51328000  1.0
  C  C266  1  0.15893000  0.89589000  0.01328000  1.0
  C  C267  1  0.65893000  0.60411000  0.48672000  1.0
  C  C268  1  0.87071000  0.02610000  0.98716000  1.0
  C  C269  1  0.37071000  0.47390000  0.51284000  1.0
  C  C270  1  0.12929000  0.97390000  0.01284000  1.0
  C  C271  1  0.62929000  0.52610000  0.48716000  1.0
  C  C272  1  0.87294000  0.01159000  0.05626000  1.0
  C  C273  1  0.37294000  0.48841000  0.44374000  1.0
  C  C274  1  0.12706000  0.98841000  0.94374000  1.0
  C  C275  1  0.62706000  0.51159000  0.55626000  1.0
  C  C276  1  0.84522000  0.07565000  0.12521000  1.0
  C  C277  1  0.34523000  0.42435000  0.37479000  1.0
  C  C278  1  0.15478000  0.92436000  0.87479000  1.0
  C  C279  1  0.65477000  0.57565000  0.62520000  1.0
  C  C280  1  0.78837000  0.22482000  0.20009000  1.0
  C  C281  1  0.28837000  0.27518000  0.29991000  1.0
  C  C282  1  0.21163000  0.77519000  0.79991000  1.0
  C  C283  1  0.71163000  0.72481000  0.70009000  1.0
  C  C284  1  0.83874000  0.11808000  0.91225000  1.0
  C  C285  1  0.33874000  0.38192000  0.58775000  1.0
  C  C286  1  0.16126000  0.88192000  0.08775000  1.0
  C  C287  1  0.66126000  0.61808000  0.41225000  1.0
  C  C288  1  0.90340000  0.92744000  0.05570000  1.0
  C  C289  1  0.40340000  0.57256000  0.44430000  1.0
  C  C290  1  0.09660000  0.07256000  0.94430000  1.0
  C  C291  1  0.59659000  0.42744000  0.55570000  1.0
  N  N292  1  0.97297000  0.44941000  0.32822000  1.0
  N  N293  1  0.47297000  0.05059000  0.17179000  1.0
  N  N294  1  0.02703000  0.55059000  0.67178000  1.0
  N  N295  1  0.52703000  0.94941000  0.82822000  1.0
  N  N296  1  0.83871000  0.46056000  0.32420000  1.0
  N  N297  1  0.33871000  0.03943000  0.17581000  1.0
  N  N298  1  0.16129000  0.53944000  0.67580000  1.0
  N  N299  1  0.66129000  0.96057000  0.82420000  1.0
  N  N300  1  0.04422000  0.82548000  0.69978000  1.0
  N  N301  1  0.54422000  0.67452000  0.80022000  1.0
  N  N302  1  0.95578000  0.17452000  0.30022000  1.0
  N  N303  1  0.45578000  0.32548000  0.19978000  1.0
  N  N304  1  0.91519000  0.86899000  0.71961000  1.0
  N  N305  1  0.41519000  0.63101000  0.78039000  1.0
  N  N306  1  0.08481000  0.13101000  0.28039000  1.0
  N  N307  1  0.58481000  0.36899000  0.21961000  1.0
  N  N308  1  0.19637000  0.68244000  0.31168000  1.0
  N  N309  1  0.69637000  0.81756000  0.18832000  1.0
  N  N310  1  0.80363000  0.31756000  0.68832000  1.0
  N  N311  1  0.30363000  0.18244000  0.81168000  1.0
  N  N312  1  0.30943000  0.71842000  0.38195000  1.0
  N  N313  1  0.80943000  0.78158000  0.11805000  1.0
  N  N314  1  0.69057000  0.28158000  0.61805000  1.0
  N  N315  1  0.19057000  0.21842000  0.88195000  1.0
  N  N316  1  0.04838000  0.00711000  0.60309000  1.0
  N  N317  1  0.54838000  0.49289000  0.89691000  1.0
  N  N318  1  0.95162000  0.99289000  0.39691000  1.0
  N  N319  1  0.45162000  0.50711000  0.10309000  1.0
  N  N320  1  0.93875000  0.06049000  0.67348000  1.0
  N  N321  1  0.43875000  0.43951000  0.82652000  1.0
  N  N322  1  0.06125000  0.93951000  0.32652000  1.0
  N  N323  1  0.56125000  0.56049000  0.17348000  1.0
  O  O324  1  0.37460000  0.20215000  0.69075000  1.0
  O  O325  1  0.87459000  0.29785000  0.80925000  1.0
  O  O326  1  0.62540000  0.79785000  0.30925000  1.0
  O  O327  1  0.12540000  0.70215000  0.19075000  1.0
  O  O328  1  0.48603000  0.27190000  0.67646000  1.0
  O  O329  1  0.98603000  0.22811000  0.82354000  1.0
  O  O330  1  0.51397000  0.72811000  0.32354000  1.0
  O  O331  1  0.01397000  0.77190000  0.17646000  1.0
  O  O332  1  0.73598000  0.13717000  0.72895000  1.0
  O  O333  1  0.23597000  0.36282000  0.77105000  1.0
  O  O334  1  0.26402000  0.86282000  0.27105000  1.0
  O  O335  1  0.76403000  0.63718000  0.22895000  1.0
  O  O336  1  0.75032000  0.99224000  0.68917000  1.0
  O  O337  1  0.25032000  0.50776000  0.81083000  1.0
  O  O338  1  0.24968000  0.00776000  0.31083000  1.0
  O  O339  1  0.74968000  0.49224000  0.18917000  1.0
  O  O340  1  0.52627000  0.81807000  0.51198000  1.0
  O  O341  1  0.02627000  0.68193000  0.98802000  1.0
  O  O342  1  0.47373000  0.18193000  0.48802000  1.0
  O  O343  1  0.97373000  0.31807000  0.01198000  1.0
  O  O344  1  0.39933000  0.87467000  0.52323000  1.0
  O  O345  1  0.89933000  0.62533000  0.97677000  1.0
  O  O346  1  0.60067000  0.12533000  0.47677000  1.0
  O  O347  1  0.10067000  0.37467000  0.02324000  1.0
  O  O348  1  0.76254000  0.29324000  0.19319000  1.0
  O  O349  1  0.26254000  0.20676000  0.30681000  1.0
  O  O350  1  0.23746000  0.70676000  0.80680000  1.0
  O  O351  1  0.73746000  0.79324000  0.69319000  1.0
  O  O352  1  0.79251000  0.21144000  0.26331000  1.0
  O  O353  1  0.29251000  0.28856000  0.23669000  1.0
  O  O354  1  0.20749000  0.78856000  0.73669000  1.0
  O  O355  1  0.70749000  0.71144000  0.76331000  1.0
  O  O356  1  0.81979000  0.19059000  0.91154000  1.0
  O  O357  1  0.31980000  0.30941000  0.58847000  1.0
  O  O358  1  0.18021000  0.80941000  0.08846000  1.0
  O  O359  1  0.68021000  0.69059000  0.41154000  1.0
  O  O360  1  0.85899000  0.05366000  0.84894000  1.0
  O  O361  1  0.35899000  0.44634000  0.65106000  1.0
  O  O362  1  0.14101000  0.94634000  0.15106000  1.0
  O  O363  1  0.64102000  0.55366000  0.34894000  1.0
  O  O364  1  0.89433000  0.85976000  0.99408000  1.0
  O  O365  1  0.39433000  0.64024000  0.50592000  1.0
  O  O366  1  0.10567000  0.14025000  0.00592000  1.0
  O  O367  1  0.60566000  0.35975000  0.49408000  1.0
  O  O368  1  0.93619000  0.92579000  0.11756000  1.0
  O  O369  1  0.43619000  0.57421000  0.38244000  1.0
  O  O370  1  0.06381000  0.07421000  0.88244000  1.0
  O  O371  1  0.56381000  0.42579000  0.61756000  1.0
  O  O372  1  0.80958000  0.84184000  0.85981000  1.0
  O  O373  1  0.30958000  0.65816000  0.64019000  1.0
  O  O374  1  0.19042000  0.15816000  0.14019000  1.0
  O  O375  1  0.69042000  0.34184000  0.35981000  1.0
