# generated using pymatgen
data_CdH16C21(NO4)2
_symmetry_space_group_name_H-M   'P 1'
_cell_length_a   8.37197000
_cell_length_b   10.11270000
_cell_length_c   13.97870000
_cell_angle_alpha   99.67650000
_cell_angle_beta   101.41700000
_cell_angle_gamma   112.71300000
_symmetry_Int_Tables_number   1
_chemical_formula_structural   CdH16C21(NO4)2
_chemical_formula_sum   'Cd2 H32 C42 N4 O16'
_cell_volume   1030.23097029
_cell_formula_units_Z   2
loop_
 _symmetry_equiv_pos_site_id
 _symmetry_equiv_pos_as_xyz
  1  'x, y, z'
loop_
 _atom_site_type_symbol
 _atom_site_label
 _atom_site_symmetry_multiplicity
 _atom_site_fract_x
 _atom_site_fract_y
 _atom_site_fract_z
 _atom_site_occupancy
  Cd  Cd0  1  0.35609000  0.10904000  0.54635000  1.0
  Cd  Cd1  1  0.64391000  0.89096000  0.45365000  1.0
  H  H2  1  0.65398000  0.43694000  0.99006000  1.0
  H  H3  1  0.34603000  0.56306000  0.00994000  1.0
  H  H4  1  0.38781000  0.26960000  0.84166000  1.0
  H  H5  1  0.61220000  0.73041000  0.15834000  1.0
  H  H6  1  0.10942000  0.08977000  0.86955000  1.0
  H  H7  1  0.89058000  0.91023000  0.13044000  1.0
  H  H8  1  0.10079000  0.08571000  0.04668000  1.0
  H  H9  1  0.89920000  0.91429000  0.95332000  1.0
  H  H10  1  0.19914000  0.13746000  0.29249000  1.0
  H  H11  1  0.80087000  0.86254000  0.70751000  1.0
  H  H12  1  0.23811000  0.02835000  0.71746000  1.0
  H  H13  1  0.76189000  0.97165000  0.28254000  1.0
  H  H14  1  0.05551000  0.99300000  0.64036000  1.0
  H  H15  1  0.94449000  0.00700000  0.35964000  1.0
  H  H16  1  0.57531000  0.42647000  0.69707000  1.0
  H  H17  1  0.42469000  0.57354000  0.30293000  1.0
  H  H18  1  0.82100000  0.56872000  0.86158000  1.0
  H  H19  1  0.17900000  0.43128000  0.13842000  1.0
  H  H20  1  0.87071000  0.16183000  0.87339000  1.0
  H  H21  1  0.12930000  0.83818000  0.12661000  1.0
  H  H22  1  0.62331000  0.03521000  0.70801000  1.0
  H  H23  1  0.37669000  0.96479000  0.29199000  1.0
  H  H24  1  0.34973000  0.58052000  0.53889000  1.0
  H  H25  1  0.65027000  0.41949000  0.46111000  1.0
  H  H26  1  0.93724000  0.21726000  0.29054000  1.0
  H  H27  1  0.06276000  0.78274000  0.70947000  1.0
  H  H28  1  0.95366000  0.65569000  0.33633000  1.0
  H  H29  1  0.04634000  0.34431000  0.66367000  1.0
  H  H30  1  0.79163000  0.54031000  0.15725000  1.0
  H  H31  1  0.20837000  0.45969000  0.84275000  1.0
  H  H32  1  0.66787000  0.51157000  0.24927000  1.0
  H  H33  1  0.33213000  0.48843000  0.75073000  1.0
  C  C34  1  0.52971000  0.35455000  0.10068000  1.0
  C  C35  1  0.47029000  0.64545000  0.89932000  1.0
  C  C36  1  0.53240000  0.35696000  0.00139000  1.0
  C  C37  1  0.46760000  0.64304000  0.99861000  1.0
  C  C38  1  0.38346000  0.26331000  0.91823000  1.0
  C  C39  1  0.61655000  0.73669000  0.08177000  1.0
  C  C40  1  0.22718000  0.16349000  0.93371000  1.0
  C  C41  1  0.77282000  0.83652000  0.06628000  1.0
  C  C42  1  0.22222000  0.15990000  0.03233000  1.0
  C  C43  1  0.77777000  0.84009000  0.96767000  1.0
  C  C44  1  0.37096000  0.25380000  0.11635000  1.0
  C  C45  1  0.62904000  0.74620000  0.88364000  1.0
  C  C46  1  0.64291000  0.37188000  0.73918000  1.0
  C  C47  1  0.35709000  0.62811000  0.26082000  1.0
  C  C48  1  0.77829000  0.45047000  0.83008000  1.0
  C  C49  1  0.22171000  0.54953000  0.16993000  1.0
  C  C50  1  0.86028000  0.37416000  0.88067000  1.0
  C  C51  1  0.13972000  0.62584000  0.11933000  1.0
  C  C52  1  0.80762000  0.22328000  0.83659000  1.0
  C  C53  1  0.19239000  0.77671000  0.16342000  1.0
  C  C54  1  0.67018000  0.15276000  0.74537000  1.0
  C  C55  1  0.32982000  0.84724000  0.25463000  1.0
  C  C56  1  0.25326000  0.79683000  0.48998000  1.0
  C  C57  1  0.74674000  0.20317000  0.51002000  1.0
  C  C58  1  0.16131000  0.63291000  0.44039000  1.0
  C  C59  1  0.83869000  0.36708000  0.55961000  1.0
  C  C60  1  0.23191000  0.53838000  0.47304000  1.0
  C  C61  1  0.76809000  0.46163000  0.52696000  1.0
  C  C62  1  0.14826000  0.38702000  0.41976000  1.0
  C  C63  1  0.85174000  0.61298000  0.58024000  1.0
  C  C64  1  0.00001000  0.33358000  0.33397000  1.0
  C  C65  1  0.00000000  0.66642000  0.66603000  1.0
  C  C66  1  0.92714000  0.42835000  0.30310000  1.0
  C  C67  1  0.07286000  0.57165000  0.69690000  1.0
  C  C68  1  0.00614000  0.57821000  0.35722000  1.0
  C  C69  1  0.99386000  0.42179000  0.64277000  1.0
  C  C70  1  0.21513000  0.28257000  0.45637000  1.0
  C  C71  1  0.78487000  0.71743000  0.54364000  1.0
  C  C72  1  0.69820000  0.45614000  0.18551000  1.0
  C  C73  1  0.30180000  0.54386000  0.81449000  1.0
  C  C74  1  0.35129000  0.24997000  0.21998000  1.0
  C  C75  1  0.64871000  0.75003000  0.78002000  1.0
  N  N76  1  0.58891000  0.22539000  0.69810000  1.0
  N  N77  1  0.41109000  0.77461000  0.30191000  1.0
  N  N78  1  0.99933000  0.44216000  0.97396000  1.0
  N  N79  1  0.00068000  0.55784000  0.02604000  1.0
  O  O80  1  0.16048000  0.87014000  0.47440000  1.0
  O  O81  1  0.83952000  0.12986000  0.52561000  1.0
  O  O82  1  0.41984000  0.85947000  0.54267000  1.0
  O  O83  1  0.58016000  0.14053000  0.45733000  1.0
  O  O84  1  0.32202000  0.32394000  0.54459000  1.0
  O  O85  1  0.67798000  0.67606000  0.45541000  1.0
  O  O86  1  0.16122000  0.14978000  0.39806000  1.0
  O  O87  1  0.83878000  0.85022000  0.60194000  1.0
  O  O88  1  0.78071000  0.36355000  0.21898000  1.0
  O  O89  1  0.21929000  0.63645000  0.78102000  1.0
  O  O90  1  0.44481000  0.35259000  0.29696000  1.0
  O  O91  1  0.55518000  0.64740000  0.70303000  1.0
  O  O92  1  0.21465000  0.12426000  0.22088000  1.0
  O  O93  1  0.78535000  0.87573000  0.77912000  1.0
  O  O94  1  0.18141000  0.07222000  0.67301000  1.0
  O  O95  1  0.81859000  0.92778000  0.32699000  1.0
