# generated using pymatgen
data_NiH17C17BrN4O5
_symmetry_space_group_name_H-M   'P 1'
_cell_length_a   9.59039000
_cell_length_b   10.15280000
_cell_length_c   11.15470000
_cell_angle_alpha   107.94600000
_cell_angle_beta   106.53600000
_cell_angle_gamma   102.62600000
_symmetry_Int_Tables_number   1
_chemical_formula_structural   NiH17C17BrN4O5
_chemical_formula_sum   'Ni2 H34 C34 Br2 N8 O10'
_cell_volume   933.01662440
_cell_formula_units_Z   2
loop_
 _symmetry_equiv_pos_site_id
 _symmetry_equiv_pos_as_xyz
  1  'x, y, z'
loop_
 _atom_site_type_symbol
 _atom_site_label
 _atom_site_symmetry_multiplicity
 _atom_site_fract_x
 _atom_site_fract_y
 _atom_site_fract_z
 _atom_site_occupancy
  Ni  Ni0  1  0.50433000  0.93830000  0.70040000  1.0
  Ni  Ni1  1  0.49566000  0.06170000  0.29960000  1.0
  H  H2  1  0.58532000  0.84959000  0.49755000  1.0
  H  H3  1  0.41468000  0.15041000  0.50246000  1.0
  H  H4  1  0.62650000  0.76942000  0.60492000  1.0
  H  H5  1  0.37351000  0.23058000  0.39508000  1.0
  H  H6  1  0.52401000  0.38723000  0.67560000  1.0
  H  H7  1  0.47599000  0.61276000  0.32440000  1.0
  H  H8  1  0.26754000  0.25041000  0.90163000  1.0
  H  H9  1  0.73246000  0.74959000  0.09836000  1.0
  H  H10  1  0.35612000  0.69004000  0.90860000  1.0
  H  H11  1  0.64389000  0.30997000  0.09140000  1.0
  H  H12  1  0.86637000  0.10538000  0.77521000  1.0
  H  H13  1  0.13363000  0.89462000  0.22479000  1.0
  H  H14  1  0.08234000  0.20161000  0.04001000  1.0
  H  H15  1  0.91766000  0.79839000  0.96000000  1.0
  H  H16  1  0.63281000  0.04415000  0.03271000  1.0
  H  H17  1  0.36719000  0.95585000  0.96729000  1.0
  H  H18  1  0.04659000  0.14660000  0.24739000  1.0
  H  H19  1  0.95341000  0.85340000  0.75261000  1.0
  H  H20  1  0.85633000  0.10128000  0.24760000  1.0
  H  H21  1  0.14367000  0.89872000  0.75240000  1.0
  H  H22  1  0.86212000  0.35658000  0.30013000  1.0
  H  H23  1  0.13788000  0.64342000  0.69987000  1.0
  H  H24  1  0.02615000  0.35122000  0.41917000  1.0
  H  H25  1  0.97385000  0.64878000  0.58083000  1.0
  H  H26  1  0.18042000  0.40617000  0.27621000  1.0
  H  H27  1  0.81958000  0.59383000  0.72379000  1.0
  H  H28  1  0.01791000  0.43285000  0.17442000  1.0
  H  H29  1  0.98209000  0.56715000  0.82558000  1.0
  H  H30  1  0.94803000  0.67029000  0.30409000  1.0
  H  H31  1  0.05197000  0.32971000  0.69591000  1.0
  H  H32  1  0.15944000  0.93466000  0.50978000  1.0
  H  H33  1  0.84056000  0.06534000  0.49022000  1.0
  H  H34  1  0.36215000  0.60277000  0.48724000  1.0
  H  H35  1  0.63784000  0.39723000  0.51276000  1.0
  C  C36  1  0.44407000  0.54912000  0.78460000  1.0
  C  C37  1  0.55593000  0.45088000  0.21540000  1.0
  C  C38  1  0.45846000  0.41034000  0.73982000  1.0
  C  C39  1  0.54154000  0.58966000  0.26018000  1.0
  C  C40  1  0.39480000  0.30331000  0.78174000  1.0
  C  C41  1  0.60520000  0.69669000  0.21826000  1.0
  C  C42  1  0.31452000  0.33414000  0.86829000  1.0
  C  C43  1  0.68548000  0.66586000  0.13171000  1.0
  C  C44  1  0.30050000  0.47302000  0.91133000  1.0
  C  C45  1  0.69950000  0.52698000  0.08867000  1.0
  C  C46  1  0.36475000  0.58090000  0.87165000  1.0
  C  C47  1  0.63525000  0.41911000  0.12835000  1.0
  C  C48  1  0.51130000  0.66545000  0.74021000  1.0
  C  C49  1  0.48870000  0.33455000  0.25979000  1.0
  C  C50  1  0.42236000  0.15996000  0.74281000  1.0
  C  C51  1  0.57764000  0.84004000  0.25719000  1.0
  C  C52  1  0.85017000  0.10792000  0.86801000  1.0
  C  C53  1  0.14983000  0.89208000  0.13199000  1.0
  C  C54  1  0.95745000  0.15585000  0.99775000  1.0
  C  C55  1  0.04255000  0.84415000  0.00225000  1.0
  C  C56  1  0.72255000  0.07544000  0.99578000  1.0
  C  C57  1  0.27745000  0.92456000  0.00422000  1.0
  C  C58  1  0.93936000  0.17321000  0.22500000  1.0
  C  C59  1  0.06064000  0.82679000  0.77500000  1.0
  C  C60  1  0.97158000  0.33475000  0.31214000  1.0
  C  C61  1  0.02842000  0.66525000  0.68786000  1.0
  C  C62  1  0.07821000  0.43847000  0.27642000  1.0
  C  C63  1  0.92179000  0.56153000  0.72358000  1.0
  C  C64  1  0.06478000  0.69704000  0.37376000  1.0
  C  C65  1  0.93522000  0.30295000  0.62624000  1.0
  C  C66  1  0.17056000  0.82669000  0.47632000  1.0
  C  C67  1  0.82944000  0.17332000  0.52368000  1.0
  C  C68  1  0.28059000  0.66047000  0.46934000  1.0
  C  C69  1  0.71941000  0.33953000  0.53066000  1.0
  Br  Br70  1  0.19014000  0.51958000  0.02656000  1.0
  Br  Br71  1  0.80985000  0.48041000  0.97343000  1.0
  N  N72  1  0.70438000  0.05740000  0.86807000  1.0
  N  N73  1  0.29562000  0.94260000  0.13193000  1.0
  N  N74  1  0.87499000  0.13525000  0.07795000  1.0
  N  N75  1  0.12501000  0.86475000  0.92205000  1.0
  N  N76  1  0.13683000  0.59271000  0.37071000  1.0
  N  N77  1  0.86317000  0.40728000  0.62929000  1.0
  N  N78  1  0.30458000  0.80245000  0.53546000  1.0
  N  N79  1  0.69542000  0.19755000  0.46454000  1.0
  O  O80  1  0.47500000  0.78127000  0.77594000  1.0
  O  O81  1  0.52500000  0.21873000  0.22406000  1.0
  O  O82  1  0.59234000  0.63985000  0.66897000  1.0
  O  O83  1  0.40767000  0.36014000  0.33103000  1.0
  O  O84  1  0.48697000  0.12897000  0.65652000  1.0
  O  O85  1  0.51303000  0.87103000  0.34348000  1.0
  O  O86  1  0.38686000  0.07195000  0.79828000  1.0
  O  O87  1  0.61313000  0.92805000  0.20172000  1.0
  O  O88  1  0.63882000  0.86548000  0.59398000  1.0
  O  O89  1  0.36118000  0.13452000  0.40602000  1.0
