# generated using pymatgen
data_CdH15C20S2N5O6
_symmetry_space_group_name_H-M   'P 1'
_cell_length_a   7.20724000
_cell_length_b   11.53820000
_cell_length_c   14.82130000
_cell_angle_alpha   108.94800000
_cell_angle_beta   103.22100000
_cell_angle_gamma   92.89410000
_symmetry_Int_Tables_number   1
_chemical_formula_structural   CdH15C20S2N5O6
_chemical_formula_sum   'Cd2 H30 C40 S4 N10 O12'
_cell_volume   1124.37001132
_cell_formula_units_Z   2
loop_
 _symmetry_equiv_pos_site_id
 _symmetry_equiv_pos_as_xyz
  1  'x, y, z'
loop_
 _atom_site_type_symbol
 _atom_site_label
 _atom_site_symmetry_multiplicity
 _atom_site_fract_x
 _atom_site_fract_y
 _atom_site_fract_z
 _atom_site_occupancy
  Cd  Cd0  1  0.50000000  0.50000000  0.50000000  1.0
  Cd  Cd1  1  0.50000000  0.00000000  0.50000000  1.0
  H  H2  1  0.94017000  0.56057000  0.62382000  1.0
  H  H3  1  0.05982000  0.43943000  0.37618000  1.0
  H  H4  1  0.15639000  0.58683000  0.79070000  1.0
  H  H5  1  0.84361000  0.41317000  0.20930000  1.0
  H  H6  1  0.00741000  0.56370000  0.92146000  1.0
  H  H7  1  0.99260000  0.43631000  0.07855000  1.0
  H  H8  1  0.45255000  0.48938000  0.71044000  1.0
  H  H9  1  0.54746000  0.51062000  0.28956000  1.0
  H  H10  1  0.07996000  0.83459000  0.38131000  1.0
  H  H11  1  0.92004000  0.16540000  0.61869000  1.0
  H  H12  1  0.87790000  0.72993000  0.20856000  1.0
  H  H13  1  0.12209000  0.27007000  0.79144000  1.0
  H  H14  1  0.03059000  0.70432000  0.06809000  1.0
  H  H15  1  0.96940000  0.29568000  0.93190000  1.0
  H  H16  1  0.56190000  0.89065000  0.28478000  1.0
  H  H17  1  0.43810000  0.10935000  0.71521000  1.0
  H  H18  1  0.38196000  0.46933000  0.92811000  1.0
  H  H19  1  0.61804000  0.53066000  0.07189000  1.0
  H  H20  1  0.64435000  0.81994000  0.05625000  1.0
  H  H21  1  0.35565000  0.18007000  0.94375000  1.0
  H  H22  1  0.56720000  0.11256000  0.10809000  1.0
  H  H23  1  0.43280000  0.88744000  0.89191000  1.0
  H  H24  1  0.70492000  0.08469000  0.25291000  1.0
  H  H25  1  0.29508000  0.91530000  0.74709000  1.0
  H  H26  1  0.31137000  0.10792000  0.27013000  1.0
  H  H27  1  0.68863000  0.89208000  0.72987000  1.0
  H  H28  1  0.89093000  0.14221000  0.02443000  1.0
  H  H29  1  0.10907000  0.85780000  0.97557000  1.0
  H  H30  1  0.03959000  0.08292000  0.34599000  1.0
  H  H31  1  0.96041000  0.91708000  0.65401000  1.0
  C  C32  1  0.66786000  0.22436000  0.42485000  1.0
  C  C33  1  0.33214000  0.77563000  0.57515000  1.0
  C  C34  1  0.25891000  0.24932000  0.51982000  1.0
  C  C35  1  0.74110000  0.75067000  0.48017000  1.0
  C  C36  1  0.88212000  0.55035000  0.68306000  1.0
  C  C37  1  0.11788000  0.44965000  0.31694000  1.0
  C  C38  1  0.00118000  0.56502000  0.77557000  1.0
  C  C39  1  0.99882000  0.43499000  0.22443000  1.0
  C  C40  1  0.91798000  0.55273000  0.84849000  1.0
  C  C41  1  0.08202000  0.44727000  0.15152000  1.0
  C  C42  1  0.71757000  0.52571000  0.82646000  1.0
  C  C43  1  0.28243000  0.47428000  0.17355000  1.0
  C  C44  1  0.60874000  0.51123000  0.73127000  1.0
  C  C45  1  0.39127000  0.48877000  0.26873000  1.0
  C  C46  1  0.62436000  0.51495000  0.90352000  1.0
  C  C47  1  0.37565000  0.48505000  0.09648000  1.0
  C  C48  1  0.14131000  0.82159000  0.31842000  1.0
  C  C49  1  0.85868000  0.17840000  0.68157000  1.0
  C  C50  1  0.02946000  0.76280000  0.22201000  1.0
  C  C51  1  0.97054000  0.23720000  0.77799000  1.0
  C  C52  1  0.11436000  0.74885000  0.14436000  1.0
  C  C53  1  0.88564000  0.25115000  0.85564000  1.0
  C  C54  1  0.30974000  0.79322000  0.16588000  1.0
  C  C55  1  0.69026000  0.20678000  0.83412000  1.0
  C  C56  1  0.41048000  0.85311000  0.26470000  1.0
  C  C57  1  0.58952000  0.14689000  0.73530000  1.0
  C  C58  1  0.40703000  0.77602000  0.08462000  1.0
  C  C59  1  0.59298000  0.22397000  0.91538000  1.0
  C  C60  1  0.82662000  0.09680000  0.22333000  1.0
  C  C61  1  0.17338000  0.90320000  0.77667000  1.0
  C  C62  1  0.01331000  0.09454000  0.27424000  1.0
  C  C63  1  0.98669000  0.90546000  0.72576000  1.0
  C  C64  1  0.16291000  0.10797000  0.23203000  1.0
  C  C65  1  0.83710000  0.89203000  0.76797000  1.0
  C  C66  1  0.11955000  0.12372000  0.13997000  1.0
  C  C67  1  0.88045000  0.87629000  0.86003000  1.0
  C  C68  1  0.92800000  0.12721000  0.09476000  1.0
  C  C69  1  0.07200000  0.87280000  0.90524000  1.0
  C  C70  1  0.27284000  0.13751000  0.08997000  1.0
  C  C71  1  0.72717000  0.86250000  0.91003000  1.0
  S  S72  1  0.75017000  0.35551000  0.41991000  1.0
  S  S73  1  0.24982000  0.64449000  0.58008000  1.0
  S  S74  1  0.18874000  0.11921000  0.53141000  1.0
  S  S75  1  0.81126000  0.88079000  0.46859000  1.0
  N  N76  1  0.60891000  0.12677000  0.42507000  1.0
  N  N77  1  0.39107000  0.87323000  0.57493000  1.0
  N  N78  1  0.30462000  0.34350000  0.51024000  1.0
  N  N79  1  0.69538000  0.65649000  0.48977000  1.0
  N  N80  1  0.68970000  0.52372000  0.66149000  1.0
  N  N81  1  0.31030000  0.47628000  0.33851000  1.0
  N  N82  1  0.32752000  0.86737000  0.33916000  1.0
  N  N83  1  0.67248000  0.13262000  0.66084000  1.0
  N  N84  1  0.78402000  0.11371000  0.13551000  1.0
  N  N85  1  0.21598000  0.88629000  0.86449000  1.0
  O  O86  1  0.43912000  0.47129000  0.87071000  1.0
  O  O87  1  0.56088000  0.52871000  0.12930000  1.0
  O  O88  1  0.71709000  0.54450000  0.99150000  1.0
  O  O89  1  0.28292000  0.45550000  0.00851000  1.0
  O  O90  1  0.58998000  0.82826000  0.11588000  1.0
  O  O91  1  0.41002000  0.17174000  0.88412000  1.0
  O  O92  1  0.32437000  0.71839000  0.99736000  1.0
  O  O93  1  0.67562000  0.28162000  0.00264000  1.0
  O  O94  1  0.43086000  0.09773000  0.12463000  1.0
  O  O95  1  0.56914000  0.90227000  0.87537000  1.0
  O  O96  1  0.24234000  0.18133000  0.02220000  1.0
  O  O97  1  0.75767000  0.81868000  0.97780000  1.0
