# generated using pymatgen
data_Tb2H18C14S(NO9)2
_symmetry_space_group_name_H-M   'P 1'
_cell_length_a   6.54444000
_cell_length_b   13.73910000
_cell_length_c   14.79470000
_cell_angle_alpha   63.03900000
_cell_angle_beta   87.75730000
_cell_angle_gamma   89.93560000
_symmetry_Int_Tables_number   1
_chemical_formula_structural   Tb2H18C14S(NO9)2
_chemical_formula_sum   'Tb4 H36 C28 S2 N4 O36'
_cell_volume   1184.56779828
_cell_formula_units_Z   2
loop_
 _symmetry_equiv_pos_site_id
 _symmetry_equiv_pos_as_xyz
  1  'x, y, z'
loop_
 _atom_site_type_symbol
 _atom_site_label
 _atom_site_symmetry_multiplicity
 _atom_site_fract_x
 _atom_site_fract_y
 _atom_site_fract_z
 _atom_site_occupancy
  Tb  Tb0  1  0.99614000  0.10108000  0.19732000  1.0
  Tb  Tb1  1  0.50381000  0.30174000  0.80273000  1.0
  Tb  Tb2  1  0.00386000  0.89892000  0.80269000  1.0
  Tb  Tb3  1  0.49618000  0.69826000  0.19726000  1.0
  H  H4  1  0.91220000  0.42480000  0.26187000  1.0
  H  H5  1  0.58796000  0.68696000  0.74027000  1.0
  H  H6  1  0.08781000  0.57520000  0.73813000  1.0
  H  H7  1  0.41204000  0.31305000  0.25973000  1.0
  H  H8  1  0.93179000  0.10767000  0.52033000  1.0
  H  H9  1  0.56709000  0.62756000  0.47874000  1.0
  H  H10  1  0.06820000  0.89233000  0.47967000  1.0
  H  H11  1  0.43292000  0.37245000  0.52126000  1.0
  H  H12  1  0.88624000  0.40443000  0.55129000  1.0
  H  H13  1  0.61403000  0.95241000  0.45271000  1.0
  H  H14  1  0.11377000  0.59556000  0.44872000  1.0
  H  H15  1  0.38598000  0.04760000  0.54729000  1.0
  H  H16  1  0.62306000  0.21975000  0.08189000  1.0
  H  H17  1  0.87804000  0.30250000  0.91924000  1.0
  H  H18  1  0.37694000  0.78025000  0.91811000  1.0
  H  H19  1  0.12195000  0.69751000  0.08075000  1.0
  H  H20  1  0.54726000  0.16450000  0.19497000  1.0
  H  H21  1  0.95130000  0.36327000  0.80586000  1.0
  H  H22  1  0.45273000  0.83550000  0.80503000  1.0
  H  H23  1  0.04870000  0.63673000  0.19414000  1.0
  H  H24  1  0.83918000  0.95267000  0.10388000  1.0
  H  H25  1  0.65882000  0.06045000  0.89849000  1.0
  H  H26  1  0.16082000  0.04733000  0.89611000  1.0
  H  H27  1  0.34117000  0.93956000  0.10150000  1.0
  H  H28  1  0.68606000  0.98519000  0.16915000  1.0
  H  H29  1  0.81308000  0.15617000  0.83205000  1.0
  H  H30  1  0.31394000  0.01481000  0.83084000  1.0
  H  H31  1  0.18691000  0.84383000  0.16795000  1.0
  H  H32  1  0.39968000  0.03112000  0.28543000  1.0
  H  H33  1  0.09908000  0.31887000  0.71492000  1.0
  H  H34  1  0.60033000  0.96888000  0.71456000  1.0
  H  H35  1  0.90091000  0.68113000  0.28508000  1.0
  H  H36  1  0.34639000  0.11894000  0.32801000  1.0
  H  H37  1  0.15383000  0.44819000  0.67053000  1.0
  H  H38  1  0.65361000  0.88106000  0.67199000  1.0
  H  H39  1  0.84618000  0.55181000  0.32948000  1.0
  C  C40  1  0.91263000  0.37301000  0.34370000  1.0
  C  C41  1  0.58740000  0.71626000  0.65829000  1.0
  C  C42  1  0.08737000  0.62699000  0.65630000  1.0
  C  C43  1  0.41260000  0.28374000  0.34171000  1.0
  C  C44  1  0.92179000  0.25953000  0.38257000  1.0
  C  C45  1  0.57760000  0.64196000  0.61804000  1.0
  C  C46  1  0.07821000  0.74046000  0.61744000  1.0
  C  C47  1  0.42240000  0.35804000  0.38196000  1.0
  C  C48  1  0.92369000  0.19636000  0.48721000  1.0
  C  C49  1  0.57565000  0.68269000  0.51316000  1.0
  C  C50  1  0.07630000  0.80364000  0.51280000  1.0
  C  C51  1  0.42436000  0.31731000  0.48684000  1.0
  C  C52  1  0.92135000  0.24809000  0.54953000  1.0
  C  C53  1  0.57847000  0.79565000  0.45212000  1.0
  C  C54  1  0.07865000  0.75191000  0.45047000  1.0
  C  C55  1  0.42154000  0.20435000  0.54788000  1.0
  C  C56  1  0.90221000  0.36172000  0.50468000  1.0
  C  C57  1  0.59797000  0.86402000  0.49835000  1.0
  C  C58  1  0.09779000  0.63828000  0.49532000  1.0
  C  C59  1  0.40204000  0.13598000  0.50165000  1.0
  C  C60  1  0.93903000  0.20702000  0.31382000  1.0
  C  C61  1  0.56080000  0.52198000  0.68613000  1.0
  C  C62  1  0.06097000  0.79298000  0.68618000  1.0
  C  C63  1  0.43920000  0.47802000  0.31387000  1.0
  C  C64  1  0.93440000  0.17997000  0.66184000  1.0
  C  C65  1  0.56529000  0.83955000  0.33959000  1.0
  C  C66  1  0.06560000  0.82003000  0.33817000  1.0
  C  C67  1  0.43471000  0.16045000  0.66041000  1.0
  S  S68  1  0.24936000  0.18507000  0.99947000  1.0
  S  S69  1  0.75064000  0.81493000  0.00053000  1.0
  N  N70  1  0.89646000  0.42266000  0.40355000  1.0
  N  N71  1  0.60375000  0.82454000  0.59959000  1.0
  N  N72  1  0.10355000  0.57734000  0.59645000  1.0
  N  N73  1  0.39626000  0.17547000  0.40041000  1.0
  O  O74  1  0.02094000  0.26061000  0.22545000  1.0
  O  O75  1  0.47950000  0.48878000  0.77474000  1.0
  O  O76  1  0.97906000  0.73938000  0.77455000  1.0
  O  O77  1  0.52050000  0.51123000  0.22526000  1.0
  O  O78  1  0.67400000  0.19120000  0.15080000  1.0
  O  O79  1  0.82560000  0.34419000  0.85092000  1.0
  O  O80  1  0.32600000  0.80880000  0.84920000  1.0
  O  O81  1  0.17440000  0.65581000  0.14908000  1.0
  O  O82  1  0.87678000  0.10736000  0.34743000  1.0
  O  O83  1  0.62330000  0.45552000  0.65211000  1.0
  O  O84  1  0.12322000  0.89264000  0.65257000  1.0
  O  O85  1  0.37670000  0.54448000  0.34789000  1.0
  O  O86  1  0.80696000  0.01308000  0.12017000  1.0
  O  O87  1  0.69158000  0.13696000  0.88064000  1.0
  O  O88  1  0.19305000  0.98692000  0.87982000  1.0
  O  O89  1  0.30841000  0.86304000  0.11936000  1.0
  O  O90  1  0.94205000  0.07729000  0.69392000  1.0
  O  O91  1  0.55526000  0.76941000  0.30617000  1.0
  O  O92  1  0.05795000  0.92271000  0.30608000  1.0
  O  O93  1  0.44473000  0.23060000  0.69383000  1.0
  O  O94  1  0.32525000  0.10034000  0.26898000  1.0
  O  O95  1  0.17430000  0.37271000  0.73021000  1.0
  O  O96  1  0.67475000  0.89966000  0.73101000  1.0
  O  O97  1  0.82570000  0.62729000  0.26980000  1.0
  O  O98  1  0.93503000  0.22715000  0.71839000  1.0
  O  O99  1  0.56666000  0.94221000  0.28438000  1.0
  O  O100  1  0.06497000  0.77285000  0.28161000  1.0
  O  O101  1  0.43335000  0.05779000  0.71562000  1.0
  O  O102  1  0.27569000  0.07812000  0.09025000  1.0
  O  O103  1  0.22467000  0.17268000  0.90544000  1.0
  O  O104  1  0.72431000  0.92188000  0.90975000  1.0
  O  O105  1  0.77533000  0.82732000  0.09456000  1.0
  O  O106  1  0.06428000  0.23365000  0.02460000  1.0
  O  O107  1  0.43203000  0.25910000  0.97711000  1.0
  O  O108  1  0.93571000  0.76634000  0.97540000  1.0
  O  O109  1  0.56797000  0.74090000  0.02289000  1.0
