# generated using pymatgen
data_ZnH16(CN)14
_symmetry_space_group_name_H-M   'P 1'
_cell_length_a   6.98530000
_cell_length_b   9.19307254
_cell_length_c   9.19296000
_cell_angle_alpha   60.24320892
_cell_angle_beta   71.86100000
_cell_angle_gamma   71.86080732
_symmetry_Int_Tables_number   1
_chemical_formula_structural   ZnH16(CN)14
_chemical_formula_sum   'Zn1 H16 C14 N14'
_cell_volume   478.14881827
_cell_formula_units_Z   1
loop_
 _symmetry_equiv_pos_site_id
 _symmetry_equiv_pos_as_xyz
  1  'x, y, z'
loop_
 _atom_site_type_symbol
 _atom_site_label
 _atom_site_symmetry_multiplicity
 _atom_site_fract_x
 _atom_site_fract_y
 _atom_site_fract_z
 _atom_site_occupancy
  Zn  Zn0  1  0.00000000  0.50000000  0.50000000  1.0
  H  H1  1  0.37799000  0.44869000  0.68596000  1.0
  H  H2  1  0.62202000  0.31403000  0.55129000  1.0
  H  H3  1  0.62200000  0.55131000  0.31404000  1.0
  H  H4  1  0.37798000  0.68597000  0.44871000  1.0
  H  H5  1  0.34014000  0.30504000  0.03811000  1.0
  H  H6  1  0.65987000  0.96190000  0.69493000  1.0
  H  H7  1  0.65985000  0.69496000  0.96189000  1.0
  H  H8  1  0.34014000  0.03810000  0.30507000  1.0
  H  H9  1  0.78650000  0.32906000  0.92110000  1.0
  H  H10  1  0.21350000  0.07889000  0.67096000  1.0
  H  H11  1  0.21351000  0.67093000  0.07890000  1.0
  H  H12  1  0.78651000  0.92110000  0.32904000  1.0
  H  H13  1  0.99253000  0.27356000  0.27356000  1.0
  H  H14  1  0.00747000  0.72644000  0.72644000  1.0
  H  H15  1  0.78916000  0.22965000  0.22965000  1.0
  H  H16  1  0.21084000  0.77035000  0.77035000  1.0
  C  C17  1  0.24896000  0.40208000  0.78572000  1.0
  C  C18  1  0.75105000  0.21429000  0.59790000  1.0
  C  C19  1  0.75104000  0.59792000  0.21428000  1.0
  C  C20  1  0.24895000  0.78571000  0.40211000  1.0
  C  C21  1  0.23513000  0.32990000  0.95892000  1.0
  C  C22  1  0.76488000  0.04107000  0.67009000  1.0
  C  C23  1  0.76487000  0.67010000  0.04108000  1.0
  C  C24  1  0.23513000  0.95892000  0.32992000  1.0
  C  C25  1  0.94301000  0.34236000  0.90060000  1.0
  C  C26  1  0.05699000  0.09939000  0.65765000  1.0
  C  C27  1  0.05699000  0.65764000  0.09939000  1.0
  C  C28  1  0.94302000  0.90061000  0.34235000  1.0
  C  C29  1  0.95641000  0.21201000  0.21201000  1.0
  C  C30  1  0.04359000  0.78799000  0.78799000  1.0
  N  N31  1  0.06596000  0.41013000  0.75082000  1.0
  N  N32  1  0.93405000  0.24918000  0.58986000  1.0
  N  N33  1  0.93404000  0.58987000  0.24918000  1.0
  N  N34  1  0.06596000  0.75082000  0.41014000  1.0
  N  N35  1  0.04027000  0.29202000  0.03033000  1.0
  N  N36  1  0.95973000  0.96967000  0.70798000  1.0
  N  N37  1  0.95973000  0.70798000  0.96967000  1.0
  N  N38  1  0.04027000  0.03033000  0.29202000  1.0
  N  N39  1  0.32628000  0.41457000  0.41457000  1.0
  N  N40  1  0.67372000  0.58543000  0.58544000  1.0
  N  N41  1  0.39524000  0.33431000  0.33431000  1.0
  N  N42  1  0.60476000  0.66569000  0.66570000  1.0
  N  N43  1  0.46927000  0.25472000  0.25473000  1.0
  N  N44  1  0.53073000  0.74528000  0.74527000  1.0
