# generated using pymatgen
data_Cu3H28C42(N3O10)2
_symmetry_space_group_name_H-M   'P 1'
_cell_length_a   6.61858000
_cell_length_b   10.84380000
_cell_length_c   14.23420000
_cell_angle_alpha   103.79300000
_cell_angle_beta   98.65540000
_cell_angle_gamma   91.50850000
_symmetry_Int_Tables_number   1
_chemical_formula_structural   Cu3H28C42(N3O10)2
_chemical_formula_sum   'Cu3 H28 C42 N6 O20'
_cell_volume   978.77721247
_cell_formula_units_Z   1
loop_
 _symmetry_equiv_pos_site_id
 _symmetry_equiv_pos_as_xyz
  1  'x, y, z'
loop_
 _atom_site_type_symbol
 _atom_site_label
 _atom_site_symmetry_multiplicity
 _atom_site_fract_x
 _atom_site_fract_y
 _atom_site_fract_z
 _atom_site_occupancy
  Cu  Cu0  1  0.46195000  0.70726000  0.28917000  1.0
  Cu  Cu1  1  0.53790000  0.29266000  0.71078000  1.0
  Cu  Cu2  1  0.00005000  0.99998000  0.50007000  1.0
  H  H3  1  0.86810000  0.88428000  0.02676000  1.0
  H  H4  1  0.13177000  0.11563000  0.97322000  1.0
  H  H5  1  0.90133000  0.62856000  0.25647000  1.0
  H  H6  1  0.09874000  0.37146000  0.74358000  1.0
  H  H7  1  0.90699000  0.77555000  0.29025000  1.0
  H  H8  1  0.09306000  0.22447000  0.70979000  1.0
  H  H9  1  0.15645000  0.62960000  0.80689000  1.0
  H  H10  1  0.84351000  0.37038000  0.19309000  1.0
  H  H11  1  0.15624000  0.51863000  0.92841000  1.0
  H  H12  1  0.84364000  0.48135000  0.07158000  1.0
  H  H13  1  0.77799000  0.98897000  0.83154000  1.0
  H  H14  1  0.22191000  0.01100000  0.16847000  1.0
  H  H15  1  0.24318000  0.51877000  0.10318000  1.0
  H  H16  1  0.75669000  0.48121000  0.89681000  1.0
  H  H17  1  0.16636000  0.54325000  0.48896000  1.0
  H  H18  1  0.83380000  0.45680000  0.51102000  1.0
  H  H19  1  0.45427000  0.89712000  0.00088000  1.0
  H  H20  1  0.54566000  0.10284000  0.99911000  1.0
  H  H21  1  0.65247000  0.60282000  0.55951000  1.0
  H  H22  1  0.34773000  0.39719000  0.44043000  1.0
  H  H23  1  0.18501000  0.97524000  0.69842000  1.0
  H  H24  1  0.81494000  0.02474000  0.30164000  1.0
  H  H25  1  0.07896000  0.73033000  0.42161000  1.0
  H  H26  1  0.92119000  0.26974000  0.57841000  1.0
  H  H27  1  0.54005000  0.87878000  0.17049000  1.0
  H  H28  1  0.45982000  0.12121000  0.82950000  1.0
  H  H29  1  0.25883000  0.57374000  0.67052000  1.0
  H  H30  1  0.74128000  0.42623000  0.32946000  1.0
  C  C31  1  0.23844000  0.60175000  0.98002000  1.0
  C  C32  1  0.76146000  0.39822000  0.01995000  1.0
  C  C33  1  0.75805000  0.90390000  0.77146000  1.0
  C  C34  1  0.24190000  0.09609000  0.22853000  1.0
  C  C35  1  0.28680000  0.60117000  0.07816000  1.0
  C  C36  1  0.71306000  0.39880000  0.92182000  1.0
  C  C37  1  0.16859000  0.63668000  0.53863000  1.0
  C  C38  1  0.83152000  0.36336000  0.46137000  1.0
  C  C39  1  0.73284000  0.67425000  0.71618000  1.0
  C  C40  1  0.26727000  0.32574000  0.28378000  1.0
  C  C41  1  0.64986000  0.81030000  0.49151000  1.0
  C  C42  1  0.35010000  0.18982000  0.50849000  1.0
  C  C43  1  0.72862000  0.05256000  0.66707000  1.0
  C  C44  1  0.27151000  0.94745000  0.33295000  1.0
  C  C45  1  0.68725000  0.80620000  0.59764000  1.0
  C  C46  1  0.31294000  0.19380000  0.40233000  1.0
  C  C47  1  0.40535000  0.81127000  0.01966000  1.0
  C  C48  1  0.59457000  0.18870000  0.98033000  1.0
  C  C49  1  0.68781000  0.68714000  0.62006000  1.0
  C  C50  1  0.31229000  0.31286000  0.37991000  1.0
  C  C51  1  0.22065000  0.77745000  0.69926000  1.0
  C  C52  1  0.77939000  0.22252000  0.30075000  1.0
  C  C53  1  0.17958000  0.87790000  0.65462000  1.0
  C  C54  1  0.82042000  0.12210000  0.34541000  1.0
  C  C55  1  0.12134000  0.74044000  0.49996000  1.0
  C  C56  1  0.87875000  0.25959000  0.50005000  1.0
  C  C57  1  0.76661000  0.78508000  0.79331000  1.0
  C  C58  1  0.23341000  0.21490000  0.20666000  1.0
  C  C59  1  0.80337000  0.77805000  0.89728000  1.0
  C  C60  1  0.19657000  0.22190000  0.10269000  1.0
  C  C61  1  0.45229000  0.80129000  0.11550000  1.0
  C  C62  1  0.54762000  0.19869000  0.88449000  1.0
  C  C63  1  0.26748000  0.80989000  0.80861000  1.0
  C  C64  1  0.73253000  0.19008000  0.19139000  1.0
  C  C65  1  0.21788000  0.65413000  0.63955000  1.0
  C  C66  1  0.78223000  0.34587000  0.36045000  1.0
  C  C67  1  0.75110000  0.54161000  0.73184000  1.0
  C  C68  1  0.24902000  0.45838000  0.26813000  1.0
  C  C69  1  0.72428000  0.91637000  0.67518000  1.0
  C  C70  1  0.27578000  0.08363000  0.32480000  1.0
  C  C71  1  0.29450000  0.70961000  0.94895000  1.0
  C  C72  1  0.70543000  0.29036000  0.05104000  1.0
  N  N73  1  0.39057000  0.69989000  0.14593000  1.0
  N  N74  1  0.60931000  0.30008000  0.85405000  1.0
  N  N75  1  0.24224000  0.70930000  0.85049000  1.0
  N  N76  1  0.75774000  0.29066000  0.14950000  1.0
  N  N77  1  0.12695000  0.85936000  0.55725000  1.0
  N  N78  1  0.87313000  0.14067000  0.44279000  1.0
  O  O79  1  0.52932000  0.72109000  0.43354000  1.0
  O  O80  1  0.47018000  0.27918000  0.56652000  1.0
  O  O81  1  0.78648000  0.68069000  0.92563000  1.0
  O  O82  1  0.21335000  0.31926000  0.07434000  1.0
  O  O83  1  0.58032000  0.47932000  0.72393000  1.0
  O  O84  1  0.41982000  0.52066000  0.27607000  1.0
  O  O85  1  0.88987000  0.10317000  0.65140000  1.0
  O  O86  1  0.11030000  0.89686000  0.34868000  1.0
  O  O87  1  0.73586000  0.89772000  0.46307000  1.0
  O  O88  1  0.26399000  0.10244000  0.53694000  1.0
  O  O89  1  0.56608000  0.10666000  0.68618000  1.0
  O  O90  1  0.43404000  0.89337000  0.31381000  1.0
  O  O91  1  0.85610000  0.89363000  0.95940000  1.0
  O  O92  1  0.14383000  0.10629000  0.04059000  1.0
  O  O93  1  0.32279000  0.92011000  0.85597000  1.0
  O  O94  1  0.67725000  0.07985000  0.14405000  1.0
  O  O95  1  0.92906000  0.50314000  0.74593000  1.0
  O  O96  1  0.07107000  0.49688000  0.25409000  1.0
  O  O97  1  0.81162000  0.70012000  0.26216000  1.0
  O  O98  1  0.18842000  0.29989000  0.73792000  1.0
