# generated using pymatgen
data_CoH6C6(NO3)2
_symmetry_space_group_name_H-M   'P 1'
_cell_length_a   6.92510000
_cell_length_b   7.17008000
_cell_length_c   9.31069000
_cell_angle_alpha   81.39890000
_cell_angle_beta   72.37130000
_cell_angle_gamma   66.98420000
_symmetry_Int_Tables_number   1
_chemical_formula_structural   CoH6C6(NO3)2
_chemical_formula_sum   'Co2 H12 C12 N4 O12'
_cell_volume   405.26950127
_cell_formula_units_Z   2
loop_
 _symmetry_equiv_pos_site_id
 _symmetry_equiv_pos_as_xyz
  1  'x, y, z'
loop_
 _atom_site_type_symbol
 _atom_site_label
 _atom_site_symmetry_multiplicity
 _atom_site_fract_x
 _atom_site_fract_y
 _atom_site_fract_z
 _atom_site_occupancy
  Co  Co0  1  0.50001000  0.99999000  0.50000000  1.0
  Co  Co1  1  0.00000000  0.50000000  0.00000000  1.0
  H  H2  1  0.04902000  0.42598000  0.69522000  1.0
  H  H3  1  0.62339000  0.02718000  0.74973000  1.0
  H  H4  1  0.95097000  0.57402000  0.30479000  1.0
  H  H5  1  0.37661000  0.97283000  0.25027000  1.0
  H  H6  1  0.82629000  0.41063000  0.80329000  1.0
  H  H7  1  0.70302000  0.16810000  0.62131000  1.0
  H  H8  1  0.17369000  0.58938000  0.19671000  1.0
  H  H9  1  0.29698000  0.83191000  0.37869000  1.0
  H  H10  1  0.14604000  0.05615000  0.09141000  1.0
  H  H11  1  0.95065000  0.86749000  0.29634000  1.0
  H  H12  1  0.85396000  0.94386000  0.90858000  1.0
  H  H13  1  0.04937000  0.13251000  0.70366000  1.0
  C  C14  1  0.55530000  0.31754000  0.31040000  1.0
  C  C15  1  0.65525000  0.41446000  0.18734000  1.0
  C  C16  1  0.44470000  0.68245000  0.68960000  1.0
  C  C17  1  0.34477000  0.58553000  0.81265000  1.0
  C  C18  1  0.86891000  0.02365000  0.26341000  1.0
  C  C19  1  0.97516000  0.12701000  0.15068000  1.0
  C  C20  1  0.13110000  0.97637000  0.73658000  1.0
  C  C21  1  0.02484000  0.87300000  0.84931000  1.0
  C  C22  1  0.35274000  0.41263000  0.43483000  1.0
  C  C23  1  0.56086000  0.62265000  0.12001000  1.0
  C  C24  1  0.64725000  0.58735000  0.56519000  1.0
  C  C25  1  0.43914000  0.37734000  0.87998000  1.0
  N  N26  1  0.66168000  0.11761000  0.34195000  1.0
  N  N27  1  0.86885000  0.32050000  0.11333000  1.0
  N  N28  1  0.33832000  0.88238000  0.65805000  1.0
  N  N29  1  0.13114000  0.67952000  0.88667000  1.0
  O  O30  1  0.30257000  0.27890000  0.53435000  1.0
  O  O31  1  0.70731000  0.69756000  0.04757000  1.0
  O  O32  1  0.69747000  0.72109000  0.46567000  1.0
  O  O33  1  0.29267000  0.30243000  0.95242000  1.0
  O  O34  1  0.25784000  0.59906000  0.44857000  1.0
  O  O35  1  0.36246000  0.70883000  0.12763000  1.0
  O  O36  1  0.74215000  0.40092000  0.55143000  1.0
  O  O37  1  0.63753000  0.29117000  0.87236000  1.0
  O  O38  1  0.92918000  0.48219000  0.78526000  1.0
  O  O39  1  0.69062000  0.03260000  0.64168000  1.0
  O  O40  1  0.07080000  0.51782000  0.21474000  1.0
  O  O41  1  0.30939000  0.96740000  0.35833000  1.0
