# generated using pymatgen
data_Zn4H24C24N2O15
_symmetry_space_group_name_H-M   'P 1'
_cell_length_a   11.19370000
_cell_length_b   11.35480000
_cell_length_c   11.63340000
_cell_angle_alpha   71.31420000
_cell_angle_beta   69.53120000
_cell_angle_gamma   84.41110000
_symmetry_Int_Tables_number   1
_chemical_formula_structural   Zn4H24C24N2O15
_chemical_formula_sum   'Zn8 H48 C48 N4 O30'
_cell_volume   1312.07742716
_cell_formula_units_Z   2
loop_
 _symmetry_equiv_pos_site_id
 _symmetry_equiv_pos_as_xyz
  1  'x, y, z'
loop_
 _atom_site_type_symbol
 _atom_site_label
 _atom_site_symmetry_multiplicity
 _atom_site_fract_x
 _atom_site_fract_y
 _atom_site_fract_z
 _atom_site_occupancy
  Zn  Zn0  1  0.00636000  0.16765000  0.46531000  1.0
  Zn  Zn1  1  0.31760000  0.28554000  0.37819000  1.0
  Zn  Zn2  1  0.09482000  0.25916000  0.65823000  1.0
  Zn  Zn3  1  0.38846000  0.37547000  0.57419000  1.0
  Zn  Zn4  1  0.53273000  0.66125000  0.47246000  1.0
  Zn  Zn5  1  0.82775000  0.78605000  0.38303000  1.0
  Zn  Zn6  1  0.60530000  0.76041000  0.66319000  1.0
  Zn  Zn7  1  0.91643000  0.86798000  0.58084000  1.0
  H  H8  1  0.20292000  0.08242000  0.53838000  1.0
  H  H9  1  0.20472000  0.47016000  0.50449000  1.0
  H  H10  1  0.71606000  0.57174000  0.54492000  1.0
  H  H11  1  0.71909000  0.95982000  0.50906000  1.0
  H  H12  1  0.34223000  0.48922000  0.99077000  1.0
  H  H13  1  0.97172000  0.32137000  0.12327000  1.0
  H  H14  1  0.16031000  0.50274000  0.71704000  1.0
  H  H15  1  0.92215000  0.26634000  0.94674000  1.0
  H  H16  1  0.85306000  0.41438000  0.94127000  1.0
  H  H17  1  0.81232000  0.26103000  0.79383000  1.0
  H  H18  1  0.69212000  0.42154000  0.89446000  1.0
  H  H19  1  0.63765000  0.40867000  0.77307000  1.0
  H  H20  1  0.73739000  0.53506000  0.74050000  1.0
  H  H21  1  0.57071000  0.56262000  0.05516000  1.0
  H  H22  1  0.75347000  0.53267000  0.33078000  1.0
  H  H23  1  0.94620000  0.71948000  0.92578000  1.0
  H  H24  1  0.05823000  0.59821000  0.12255000  1.0
  H  H25  1  0.01196000  0.75545000  0.09967000  1.0
  H  H26  1  0.10043000  0.52591000  0.34456000  1.0
  H  H27  1  0.22318000  0.67504000  0.14115000  1.0
  H  H28  1  0.26627000  0.69077000  0.26817000  1.0
  H  H29  1  0.16536000  0.80312000  0.20218000  1.0
  H  H30  1  0.08061000  0.08050000  0.02873000  1.0
  H  H31  1  0.24231000  0.04150000  0.32297000  1.0
  H  H32  1  0.45565000  0.22930000  0.92469000  1.0
  H  H33  1  0.55295000  0.09472000  0.13007000  1.0
  H  H34  1  0.51433000  0.25415000  0.10217000  1.0
  H  H35  1  0.58875000  0.02618000  0.35200000  1.0
  H  H36  1  0.71735000  0.17068000  0.15280000  1.0
  H  H37  1  0.75477000  0.19501000  0.27943000  1.0
  H  H38  1  0.65569000  0.30197000  0.20641000  1.0
  H  H39  1  0.83538000  0.96907000  0.01683000  1.0
  H  H40  1  0.46185000  0.81547000  0.12513000  1.0
  H  H41  1  0.67458000  0.99193000  0.72430000  1.0
  H  H42  1  0.41869000  0.76935000  0.94387000  1.0
  H  H43  1  0.35837000  0.92145000  0.93246000  1.0
  H  H44  1  0.31886000  0.76892000  0.78177000  1.0
  H  H45  1  0.20492000  0.93631000  0.87586000  1.0
  H  H46  1  0.15205000  0.92184000  0.75468000  1.0
  H  H47  1  0.25711000  0.04592000  0.71963000  1.0
  H  H48  1  0.11660000  0.73358000  0.58493000  1.0
  H  H49  1  0.80399000  0.30277000  0.46279000  1.0
  H  H50  1  0.17637000  0.86506000  0.56065000  1.0
  H  H51  1  0.74386000  0.17133000  0.49070000  1.0
  H  H52  1  0.98360000  0.47506000  0.70650000  1.0
  H  H53  1  0.49828000  0.97558000  0.70050000  1.0
  H  H54  1  0.90110000  0.56688000  0.34949000  1.0
  H  H55  1  0.39311000  0.06739000  0.35216000  1.0
  C  C56  1  0.37845000  0.56290000  0.73722000  1.0
  C  C57  1  0.26037000  0.50406000  0.84380000  1.0
  C  C58  1  0.25950000  0.46975000  0.97069000  1.0
  C  C59  1  0.15452000  0.40424000  0.07074000  1.0
  C  C60  1  0.15700000  0.35114000  0.20590000  1.0
  C  C61  1  0.05084000  0.37522000  0.04323000  1.0
  C  C62  1  0.05052000  0.40916000  0.91660000  1.0
  C  C63  1  0.15544000  0.47543000  0.81721000  1.0
  C  C64  1  0.93840000  0.36658000  0.89554000  1.0
  C  C65  1  0.83446000  0.36062000  0.74237000  1.0
  C  C66  1  0.71946000  0.43579000  0.79070000  1.0
  C  C67  1  0.86693000  0.37281000  0.59949000  1.0
  C  C68  1  0.75784000  0.69766000  0.84265000  1.0
  C  C69  1  0.75998000  0.64385000  0.97733000  1.0
  C  C70  1  0.65388000  0.57927000  0.07615000  1.0
  C  C71  1  0.65381000  0.54083000  0.20261000  1.0
  C  C72  1  0.53868000  0.47778000  0.30882000  1.0
  C  C73  1  0.75933000  0.56492000  0.23017000  1.0
  C  C74  1  0.86577000  0.62934000  0.13204000  1.0
  C  C75  1  0.86546000  0.66751000  0.00524000  1.0
  C  C76  1  0.98036000  0.65920000  0.15737000  1.0
  C  C77  1  0.07355000  0.62436000  0.32944000  1.0
  C  C78  1  0.18871000  0.70418000  0.22827000  1.0
  C  C79  1  0.04705000  0.65005000  0.45722000  1.0
  C  C80  1  0.27569000  0.21690000  0.82637000  1.0
  C  C81  1  0.27052000  0.15823000  0.96301000  1.0
  C  C82  1  0.16021000  0.09428000  0.05669000  1.0
  C  C83  1  0.15131000  0.05410000  0.18613000  1.0
  C  C84  1  0.03291000  0.99148000  0.29037000  1.0
  C  C85  1  0.25377000  0.07410000  0.22094000  1.0
  C  C86  1  0.36468000  0.13558000  0.12824000  1.0
  C  C87  1  0.37184000  0.17755000  0.99910000  1.0
  C  C88  1  0.47720000  0.15956000  0.16029000  1.0
  C  C89  1  0.56274000  0.12483000  0.33697000  1.0
  C  C90  1  0.67934000  0.20355000  0.23751000  1.0
  C  C91  1  0.53164000  0.14640000  0.46786000  1.0
  C  C92  1  0.88662000  0.04673000  0.75541000  1.0
  C  C93  1  0.76573000  0.98810000  0.85997000  1.0
  C  C94  1  0.75598000  0.95279000  0.98982000  1.0
  C  C95  1  0.64570000  0.89001000  0.08500000  1.0
  C  C96  1  0.64018000  0.83447000  0.22275000  1.0
  C  C97  1  0.54517000  0.86697000  0.04954000  1.0
  C  C98  1  0.55270000  0.90346000  0.92025000  1.0
  C  C99  1  0.66351000  0.96444000  0.82616000  1.0
  C  C100  1  0.44166000  0.86856000  0.89164000  1.0
  C  C101  1  0.34662000  0.86732000  0.72997000  1.0
  C  C102  1  0.23430000  0.94770000  0.77249000  1.0
  C  C103  1  0.38603000  0.87990000  0.58563000  1.0
  N  N104  1  0.95436000  0.38488000  0.75986000  1.0
  N  N105  1  0.95591000  0.64566000  0.29408000  1.0
  N  N106  1  0.44740000  0.14707000  0.29748000  1.0
  N  N107  1  0.46415000  0.88655000  0.75466000  1.0
  O  O108  1  0.06176000  0.28275000  0.28504000  1.0
  O  O109  1  0.25313000  0.37649000  0.22892000  1.0
  O  O110  1  0.46046000  0.60711000  0.76350000  1.0
  O  O111  1  0.38835000  0.56383000  0.62140000  1.0
  O  O112  1  0.97351000  0.32708000  0.54648000  1.0
  O  O113  1  0.78984000  0.42161000  0.54078000  1.0
  O  O114  1  0.16825000  0.16528000  0.51052000  1.0
  O  O115  1  0.82367000  0.22200000  0.44546000  1.0
  O  O116  1  0.23738000  0.38426000  0.52486000  1.0
  O  O117  1  0.46096000  0.42876000  0.28157000  1.0
  O  O118  1  0.52788000  0.47773000  0.42459000  1.0
  O  O119  1  0.65409000  0.68839000  0.82416000  1.0
  O  O120  1  0.86115000  0.74857000  0.75897000  1.0
  O  O121  1  0.12517000  0.61040000  0.51723000  1.0
  O  O122  1  0.94922000  0.71346000  0.49595000  1.0
  O  O123  1  0.68544000  0.65733000  0.51830000  1.0
  O  O124  1  0.75486000  0.87657000  0.53292000  1.0
  O  O125  1  0.37869000  0.27808000  0.74839000  1.0
  O  O126  1  0.17871000  0.20413000  0.79928000  1.0
  O  O127  1  0.96434000  0.93055000  0.26276000  1.0
  O  O128  1  0.01147000  0.00156000  0.40385000  1.0
  O  O129  1  0.43470000  0.21139000  0.50515000  1.0
  O  O130  1  0.60385000  0.09744000  0.53308000  1.0
  O  O131  1  0.09712000  0.81387000  0.60405000  1.0
  O  O132  1  0.90798000  0.03495000  0.64257000  1.0
  O  O133  1  0.95831000  0.10594000  0.78141000  1.0
  O  O134  1  0.73064000  0.85985000  0.25302000  1.0
  O  O135  1  0.54358000  0.76244000  0.29803000  1.0
  O  O136  1  0.49071000  0.82860000  0.53807000  1.0
  O  O137  1  0.31680000  0.93816000  0.52070000  1.0
