# generated using pymatgen
data_Cu3H8C10I2(N4O)2
_symmetry_space_group_name_H-M   'P 1'
_cell_length_a   7.27024000
_cell_length_b   7.27025000
_cell_length_c   15.76320000
_cell_angle_alpha   83.82620000
_cell_angle_beta   83.82820000
_cell_angle_gamma   79.58190000
_symmetry_Int_Tables_number   1
_chemical_formula_structural   Cu3H8C10I2(N4O)2
_chemical_formula_sum   'Cu6 H16 C20 I4 N16 O4'
_cell_volume   811.38803494
_cell_formula_units_Z   2
loop_
 _symmetry_equiv_pos_site_id
 _symmetry_equiv_pos_as_xyz
  1  'x, y, z'
loop_
 _atom_site_type_symbol
 _atom_site_label
 _atom_site_symmetry_multiplicity
 _atom_site_fract_x
 _atom_site_fract_y
 _atom_site_fract_z
 _atom_site_occupancy
  Cu  Cu0  1  0.32320000  0.67680000  0.75000000  1.0
  Cu  Cu1  1  0.67680000  0.32320000  0.25000000  1.0
  Cu  Cu2  1  0.87953000  0.54286000  0.55934000  1.0
  Cu  Cu3  1  0.45714000  0.12047000  0.94065000  1.0
  Cu  Cu4  1  0.12047000  0.45713000  0.44065000  1.0
  Cu  Cu5  1  0.54287000  0.87954000  0.05935000  1.0
  H  H6  1  0.68579000  0.94319000  0.54924000  1.0
  H  H7  1  0.05680000  0.31422000  0.95075000  1.0
  H  H8  1  0.31421000  0.05680000  0.45076000  1.0
  H  H9  1  0.94320000  0.68579000  0.04925000  1.0
  H  H10  1  0.07548000  0.10508000  0.77248000  1.0
  H  H11  1  0.89492000  0.92453000  0.72750000  1.0
  H  H12  1  0.92452000  0.89492000  0.22752000  1.0
  H  H13  1  0.10508000  0.07547000  0.27249000  1.0
  H  H14  1  0.14756000  0.37250000  0.66420000  1.0
  H  H15  1  0.62752000  0.85247000  0.83579000  1.0
  H  H16  1  0.85245000  0.62750000  0.33580000  1.0
  H  H17  1  0.37249000  0.14753000  0.16421000  1.0
  H  H18  1  0.44682000  0.28234000  0.56747000  1.0
  H  H19  1  0.71767000  0.55321000  0.93253000  1.0
  H  H20  1  0.55318000  0.71766000  0.43253000  1.0
  H  H21  1  0.28232000  0.44680000  0.06747000  1.0
  C  C22  1  0.44683000  0.99795000  0.64156000  1.0
  C  C23  1  0.00205000  0.55319000  0.85844000  1.0
  C  C24  1  0.55317000  0.00205000  0.35844000  1.0
  C  C25  1  0.99795000  0.44681000  0.14156000  1.0
  C  C26  1  0.60371000  0.87783000  0.60235000  1.0
  C  C27  1  0.12216000  0.39631000  0.89765000  1.0
  C  C28  1  0.39630000  0.12216000  0.39765000  1.0
  C  C29  1  0.87784000  0.60370000  0.10235000  1.0
  C  C30  1  0.19352000  0.09568000  0.72407000  1.0
  C  C31  1  0.90432000  0.80651000  0.77592000  1.0
  C  C32  1  0.80648000  0.90432000  0.27593000  1.0
  C  C33  1  0.09567000  0.19349000  0.22407000  1.0
  C  C34  1  0.67094000  0.43511000  0.71447000  1.0
  C  C35  1  0.56489000  0.32907000  0.78553000  1.0
  C  C36  1  0.32907000  0.56489000  0.28553000  1.0
  C  C37  1  0.43510000  0.67092000  0.21447000  1.0
  C  C38  1  0.38882000  0.18736000  0.61665000  1.0
  C  C39  1  0.81265000  0.61121000  0.88335000  1.0
  C  C40  1  0.61119000  0.81264000  0.38335000  1.0
  C  C41  1  0.18735000  0.38879000  0.11665000  1.0
  I  I42  1  0.82636000  0.30292000  0.45826000  1.0
  I  I43  1  0.69709000  0.17363000  0.04174000  1.0
  I  I44  1  0.17363000  0.69707000  0.54174000  1.0
  I  I45  1  0.30292000  0.82637000  0.95826000  1.0
  N  N46  1  0.32155000  0.94425000  0.70907000  1.0
  N  N47  1  0.05575000  0.67847000  0.79092000  1.0
  N  N48  1  0.67845000  0.05575000  0.29093000  1.0
  N  N49  1  0.94425000  0.32153000  0.20907000  1.0
  N  N50  1  0.66381000  0.69907000  0.62160000  1.0
  N  N51  1  0.30093000  0.33619000  0.87840000  1.0
  N  N52  1  0.33619000  0.30092000  0.37840000  1.0
  N  N53  1  0.69907000  0.66381000  0.12161000  1.0
  N  N54  1  0.57287000  0.60407000  0.68741000  1.0
  N  N55  1  0.39593000  0.42713000  0.81259000  1.0
  N  N56  1  0.42713000  0.39593000  0.31259000  1.0
  N  N57  1  0.60406000  0.57287000  0.18741000  1.0
  N  N58  1  0.23089000  0.24313000  0.66897000  1.0
  N  N59  1  0.75687000  0.76914000  0.83102000  1.0
  N  N60  1  0.76912000  0.75686000  0.33103000  1.0
  N  N61  1  0.24313000  0.23087000  0.16898000  1.0
  O  O62  1  0.83387000  0.36572000  0.68583000  1.0
  O  O63  1  0.63428000  0.16613000  0.81418000  1.0
  O  O64  1  0.16613000  0.63428000  0.31418000  1.0
  O  O65  1  0.36572000  0.83386000  0.18582000  1.0
