# generated using pymatgen
data_ZnH10C12(NO2)2
_symmetry_space_group_name_H-M   'P 1'
_cell_length_a   9.22050000
_cell_length_b   9.42004000
_cell_length_c   14.89370000
_cell_angle_alpha   94.24880000
_cell_angle_beta   89.99990000
_cell_angle_gamma   90.00000000
_symmetry_Int_Tables_number   1
_chemical_formula_structural   ZnH10C12(NO2)2
_chemical_formula_sum   'Zn4 H40 C48 N8 O16'
_cell_volume   1290.07399895
_cell_formula_units_Z   4
loop_
 _symmetry_equiv_pos_site_id
 _symmetry_equiv_pos_as_xyz
  1  'x, y, z'
loop_
 _atom_site_type_symbol
 _atom_site_label
 _atom_site_symmetry_multiplicity
 _atom_site_fract_x
 _atom_site_fract_y
 _atom_site_fract_z
 _atom_site_occupancy
  Zn  Zn0  1  0.84063000  0.75104000  0.00513000  1.0
  Zn  Zn1  1  0.65937000  0.25105000  0.50513000  1.0
  Zn  Zn2  1  0.15937000  0.24896000  0.99487000  1.0
  Zn  Zn3  1  0.34063000  0.74896000  0.49487000  1.0
  H  H4  1  0.72769000  0.68072000  0.19018000  1.0
  H  H5  1  0.77231000  0.18072000  0.69018000  1.0
  H  H6  1  0.27231000  0.31929000  0.80982000  1.0
  H  H7  1  0.22769000  0.81928000  0.30982000  1.0
  H  H8  1  0.54741000  0.77475000  0.30559000  1.0
  H  H9  1  0.95259000  0.27474000  0.80559000  1.0
  H  H10  1  0.45259000  0.22526000  0.69441000  1.0
  H  H11  1  0.04741000  0.72525000  0.19441000  1.0
  H  H12  1  0.40577000  0.99468000  0.27509000  1.0
  H  H13  1  0.09423000  0.49468000  0.77509000  1.0
  H  H14  1  0.59423000  0.00532000  0.72491000  1.0
  H  H15  1  0.90577000  0.50532000  0.22491000  1.0
  H  H16  1  0.44917000  0.10718000  0.12957000  1.0
  H  H17  1  0.05084000  0.60718000  0.62957000  1.0
  H  H18  1  0.55083000  0.89282000  0.87043000  1.0
  H  H19  1  0.94917000  0.39282000  0.37043000  1.0
  H  H20  1  0.63793000  0.00064000  0.02323000  1.0
  H  H21  1  0.86208000  0.50064000  0.52323000  1.0
  H  H22  1  0.36207000  0.99936000  0.97677000  1.0
  H  H23  1  0.13793000  0.49936000  0.47677000  1.0
  H  H24  1  0.52308000  0.64494000  0.00492000  1.0
  H  H25  1  0.97692000  0.14494000  0.50493000  1.0
  H  H26  1  0.47692000  0.35506000  0.99508000  1.0
  H  H27  1  0.02308000  0.85506000  0.49507000  1.0
  H  H28  1  0.33227000  0.56441000  0.89254000  1.0
  H  H29  1  0.16773000  0.06441000  0.39254000  1.0
  H  H30  1  0.66773000  0.43558000  0.10746000  1.0
  H  H31  1  0.83226000  0.93559000  0.60746000  1.0
  H  H32  1  0.39781000  0.55169000  0.72680000  1.0
  H  H33  1  0.10219000  0.05169000  0.22680000  1.0
  H  H34  1  0.60219000  0.44831000  0.27320000  1.0
  H  H35  1  0.89781000  0.94832000  0.77320000  1.0
  H  H36  1  0.64942000  0.61710000  0.68364000  1.0
  H  H37  1  0.85058000  0.11710000  0.18363000  1.0
  H  H38  1  0.35058000  0.38290000  0.31637000  1.0
  H  H39  1  0.14942000  0.88290000  0.81636000  1.0
  H  H40  1  0.82858000  0.68936000  0.80559000  1.0
  H  H41  1  0.67143000  0.18936000  0.30559000  1.0
  H  H42  1  0.17142000  0.31064000  0.19441000  1.0
  H  H43  1  0.32857000  0.81064000  0.69441000  1.0
  C  C44  1  0.66351000  0.77526000  0.18022000  1.0
  C  C45  1  0.83649000  0.27526000  0.68022000  1.0
  C  C46  1  0.33649000  0.22474000  0.81978000  1.0
  C  C47  1  0.16351000  0.72474000  0.31978000  1.0
  C  C48  1  0.56299000  0.82852000  0.24388000  1.0
  C  C49  1  0.93700000  0.32852000  0.74389000  1.0
  C  C50  1  0.43701000  0.17148000  0.75611000  1.0
  C  C51  1  0.06300000  0.67148000  0.25612000  1.0
  C  C52  1  0.48398000  0.94965000  0.22611000  1.0
  C  C53  1  0.01601000  0.44965000  0.72611000  1.0
  C  C54  1  0.51601000  0.05035000  0.77389000  1.0
  C  C55  1  0.98399000  0.55035000  0.27389000  1.0
  C  C56  1  0.50945000  0.01340000  0.14601000  1.0
  C  C57  1  0.99056000  0.51339000  0.64602000  1.0
  C  C58  1  0.49056000  0.98660000  0.85398000  1.0
  C  C59  1  0.00944000  0.48661000  0.35399000  1.0
  C  C60  1  0.61264000  0.95416000  0.08633000  1.0
  C  C61  1  0.88736000  0.45416000  0.58633000  1.0
  C  C62  1  0.38736000  0.04584000  0.91367000  1.0
  C  C63  1  0.11264000  0.54584000  0.41368000  1.0
  C  C64  1  0.54655000  0.63577000  0.93293000  1.0
  C  C65  1  0.95344000  0.13577000  0.43293000  1.0
  C  C66  1  0.45345000  0.36422000  0.06707000  1.0
  C  C67  1  0.04655000  0.86423000  0.56707000  1.0
  C  C68  1  0.44063000  0.59234000  0.87012000  1.0
  C  C69  1  0.05937000  0.09235000  0.37012000  1.0
  C  C70  1  0.55937000  0.40765000  0.12988000  1.0
  C  C71  1  0.94063000  0.90766000  0.62988000  1.0
  C  C72  1  0.47685000  0.58449000  0.77886000  1.0
  C  C73  1  0.02315000  0.08449000  0.27885000  1.0
  C  C74  1  0.52315000  0.41551000  0.22115000  1.0
  C  C75  1  0.97685000  0.91551000  0.72115000  1.0
  C  C76  1  0.61742000  0.62031000  0.75412000  1.0
  C  C77  1  0.88258000  0.12030000  0.25412000  1.0
  C  C78  1  0.38258000  0.37969000  0.24588000  1.0
  C  C79  1  0.11742000  0.87969000  0.74588000  1.0
  C  C80  1  0.71719000  0.66155000  0.82118000  1.0
  C  C81  1  0.78282000  0.16155000  0.32118000  1.0
  C  C82  1  0.28282000  0.33845000  0.17883000  1.0
  C  C83  1  0.21718000  0.83845000  0.67882000  1.0
  C  C84  1  0.04307000  0.52283000  0.95837000  1.0
  C  C85  1  0.45693000  0.02283000  0.45837000  1.0
  C  C86  1  0.95694000  0.47717000  0.04163000  1.0
  C  C87  1  0.54306000  0.97718000  0.54162000  1.0
  C  C88  1  0.95467000  0.02036000  0.95834000  1.0
  C  C89  1  0.54534000  0.52036000  0.45834000  1.0
  C  C90  1  0.04534000  0.97964000  0.04166000  1.0
  C  C91  1  0.45467000  0.47964000  0.54166000  1.0
  N  N92  1  0.68236000  0.66979000  0.90927000  1.0
  N  N93  1  0.81764000  0.16979000  0.40927000  1.0
  N  N94  1  0.31764000  0.33021000  0.09073000  1.0
  N  N95  1  0.18236000  0.83021000  0.59073000  1.0
  N  N96  1  0.68775000  0.83607000  0.10256000  1.0
  N  N97  1  0.81225000  0.33607000  0.60256000  1.0
  N  N98  1  0.31225000  0.16393000  0.89744000  1.0
  N  N99  1  0.18775000  0.66393000  0.39744000  1.0
  O  O100  1  0.85417000  0.93536000  0.93123000  1.0
  O  O101  1  0.64583000  0.43536000  0.43123000  1.0
  O  O102  1  0.14583000  0.06464000  0.06877000  1.0
  O  O103  1  0.35417000  0.56464000  0.56877000  1.0
  O  O104  1  0.98775000  0.13410000  0.92328000  1.0
  O  O105  1  0.51225000  0.63411000  0.42328000  1.0
  O  O106  1  0.01225000  0.86590000  0.07672000  1.0
  O  O107  1  0.48776000  0.36590000  0.57672000  1.0
  O  O108  1  0.01078000  0.63982000  0.92738000  1.0
  O  O109  1  0.48922000  0.13982000  0.42738000  1.0
  O  O110  1  0.98922000  0.36018000  0.07262000  1.0
  O  O111  1  0.51077000  0.86018000  0.57261000  1.0
  O  O112  1  0.14085000  0.43771000  0.92689000  1.0
  O  O113  1  0.35915000  0.93771000  0.42689000  1.0
  O  O114  1  0.85915000  0.56229000  0.07311000  1.0
  O  O115  1  0.64084000  0.06229000  0.57311000  1.0
