# generated using pymatgen
data_CdH24C44N6(OF2)6
_symmetry_space_group_name_H-M   'P 1'
_cell_length_a   8.09748000
_cell_length_b   16.51260000
_cell_length_c   20.37080000
_cell_angle_alpha   90.00000000
_cell_angle_beta   90.00020000
_cell_angle_gamma   101.28000000
_symmetry_Int_Tables_number   1
_chemical_formula_structural   CdH24C44N6(OF2)6
_chemical_formula_sum   'Cd2 H48 C88 N12 O12 F24'
_cell_volume   2671.17336250
_cell_formula_units_Z   2
loop_
 _symmetry_equiv_pos_site_id
 _symmetry_equiv_pos_as_xyz
  1  'x, y, z'
loop_
 _atom_site_type_symbol
 _atom_site_label
 _atom_site_symmetry_multiplicity
 _atom_site_fract_x
 _atom_site_fract_y
 _atom_site_fract_z
 _atom_site_occupancy
  Cd  Cd0  1  0.50000000  0.50000000  0.00000000  1.0
  Cd  Cd1  1  0.50000000  0.00000000  0.50000000  1.0
  H  H2  1  0.38507000  0.31493000  0.96478000  1.0
  H  H3  1  0.61493000  0.18507000  0.46478000  1.0
  H  H4  1  0.61493000  0.68507000  0.03523000  1.0
  H  H5  1  0.38507000  0.81492000  0.53522000  1.0
  H  H6  1  0.86963000  0.45396000  0.95794000  1.0
  H  H7  1  0.13037000  0.04604000  0.45793000  1.0
  H  H8  1  0.13037000  0.54604000  0.04206000  1.0
  H  H9  1  0.86962000  0.95396000  0.54206000  1.0
  H  H10  1  0.48491000  0.18633000  0.93317000  1.0
  H  H11  1  0.51509000  0.31367000  0.43317000  1.0
  H  H12  1  0.51509000  0.81367000  0.06683000  1.0
  H  H13  1  0.48492000  0.68633000  0.56683000  1.0
  H  H14  1  0.99137000  0.33119000  0.92968000  1.0
  H  H15  1  0.00863000  0.16881000  0.42968000  1.0
  H  H16  1  0.00863000  0.66882000  0.07032000  1.0
  H  H17  1  0.99137000  0.83119000  0.57032000  1.0
  H  H18  1  0.70854000  0.12304000  0.89291000  1.0
  H  H19  1  0.29146000  0.37696000  0.39291000  1.0
  H  H20  1  0.29146000  0.87696000  0.10708000  1.0
  H  H21  1  0.70854000  0.62304000  0.60709000  1.0
  H  H22  1  0.90694000  0.18465000  0.87212000  1.0
  H  H23  1  0.09306000  0.31535000  0.37212000  1.0
  H  H24  1  0.09306000  0.81535000  0.12788000  1.0
  H  H25  1  0.90694000  0.68465000  0.62788000  1.0
  H  H26  1  0.61721000  0.85948000  0.17655000  1.0
  H  H27  1  0.38279000  0.64053000  0.67655000  1.0
  H  H28  1  0.38280000  0.14052000  0.82345000  1.0
  H  H29  1  0.61721000  0.35948000  0.32346000  1.0
  H  H30  1  0.80127000  0.84011000  0.21543000  1.0
  H  H31  1  0.19872000  0.65989000  0.71543000  1.0
  H  H32  1  0.19873000  0.15989000  0.78457000  1.0
  H  H33  1  0.80127000  0.34011000  0.28457000  1.0
  H  H34  1  0.90859000  0.91737000  0.32058000  1.0
  H  H35  1  0.09140000  0.58262000  0.82058000  1.0
  H  H36  1  0.09140000  0.08262000  0.67942000  1.0
  H  H37  1  0.90860000  0.41737000  0.17942000  1.0
  H  H38  1  0.42059000  0.92953000  0.23833000  1.0
  H  H39  1  0.57940000  0.57048000  0.73832000  1.0
  H  H40  1  0.57942000  0.07048000  0.76167000  1.0
  H  H41  1  0.42060000  0.42953000  0.26168000  1.0
  H  H42  1  0.81097000  0.96581000  0.42521000  1.0
  H  H43  1  0.18901000  0.53419000  0.92520000  1.0
  H  H44  1  0.18901000  0.03419000  0.57480000  1.0
  H  H45  1  0.81098000  0.46580000  0.07480000  1.0
  H  H46  1  0.33943000  0.97422000  0.34851000  1.0
  H  H47  1  0.66056000  0.52578000  0.84851000  1.0
  H  H48  1  0.66057000  0.02578000  0.65148000  1.0
  H  H49  1  0.33944000  0.47422000  0.15149000  1.0
  C  C50  1  0.51787000  0.31564000  0.95536000  1.0
  C  C51  1  0.48213000  0.18436000  0.45535000  1.0
  C  C52  1  0.48214000  0.68436000  0.04465000  1.0
  C  C53  1  0.51786000  0.81564000  0.54465000  1.0
  C  C54  1  0.78927000  0.39306000  0.95286000  1.0
  C  C55  1  0.21074000  0.10694000  0.45286000  1.0
  C  C56  1  0.21073000  0.60694000  0.04714000  1.0
  C  C57  1  0.78926000  0.89306000  0.54714000  1.0
  C  C58  1  0.57465000  0.24441000  0.93771000  1.0
  C  C59  1  0.42535000  0.25559000  0.43771000  1.0
  C  C60  1  0.42535000  0.75559000  0.06229000  1.0
  C  C61  1  0.57465000  0.74441000  0.56229000  1.0
  C  C62  1  0.85548000  0.32427000  0.93586000  1.0
  C  C63  1  0.14452000  0.17573000  0.43585000  1.0
  C  C64  1  0.14452000  0.67573000  0.06414000  1.0
  C  C65  1  0.85548000  0.82427000  0.56414000  1.0
  C  C66  1  0.74664000  0.24779000  0.92814000  1.0
  C  C67  1  0.25336000  0.25221000  0.42814000  1.0
  C  C68  1  0.25336000  0.75221000  0.07186000  1.0
  C  C69  1  0.74664000  0.74779000  0.57186000  1.0
  C  C70  1  0.81239000  0.17065000  0.91119000  1.0
  C  C71  1  0.18762000  0.32935000  0.41119000  1.0
  C  C72  1  0.18762000  0.82935000  0.08881000  1.0
  C  C73  1  0.81238000  0.67066000  0.58881000  1.0
  C  C74  1  0.89085000  0.13647000  0.96964000  1.0
  C  C75  1  0.10915000  0.36352000  0.46964000  1.0
  C  C76  1  0.10915000  0.86352000  0.03036000  1.0
  C  C77  1  0.89084000  0.63648000  0.53036000  1.0
  C  C78  1  0.06631000  0.15137000  0.97882000  1.0
  C  C79  1  0.93370000  0.34862000  0.47882000  1.0
  C  C80  1  0.93369000  0.84862000  0.02118000  1.0
  C  C81  1  0.06630000  0.65138000  0.52118000  1.0
  C  C82  1  0.79425000  0.08824000  0.01640000  1.0
  C  C83  1  0.20576000  0.41176000  0.51640000  1.0
  C  C84  1  0.20576000  0.91176000  0.98360000  1.0
  C  C85  1  0.79424000  0.58824000  0.48360000  1.0
  C  C86  1  0.14143000  0.11996000  0.03112000  1.0
  C  C87  1  0.85858000  0.38003000  0.53112000  1.0
  C  C88  1  0.85858000  0.88003000  0.96888000  1.0
  C  C89  1  0.14142000  0.61997000  0.46889000  1.0
  C  C90  1  0.86256000  0.05109000  0.07008000  1.0
  C  C91  1  0.13745000  0.44891000  0.57007000  1.0
  C  C92  1  0.13745000  0.94891000  0.92992000  1.0
  C  C93  1  0.86255000  0.55109000  0.42993000  1.0
  C  C94  1  0.04331000  0.06852000  0.07795000  1.0
  C  C95  1  0.95669000  0.43147000  0.57795000  1.0
  C  C96  1  0.95670000  0.93147000  0.92205000  1.0
  C  C97  1  0.04331000  0.56853000  0.42206000  1.0
  C  C98  1  0.76619000  0.99476000  0.11466000  1.0
  C  C99  1  0.23381000  0.50524000  0.61466000  1.0
  C  C100  1  0.23382000  0.00524000  0.88534000  1.0
  C  C101  1  0.76619000  0.49476000  0.38534000  1.0
  C  C102  1  0.11254000  0.03066000  0.13094000  1.0
  C  C103  1  0.88746000  0.46934000  0.63094000  1.0
  C  C104  1  0.88746000  0.96934000  0.86906000  1.0
  C  C105  1  0.11255000  0.53067000  0.36907000  1.0
  C  C106  1  0.01099000  0.97556000  0.17154000  1.0
  C  C107  1  0.98901000  0.52444000  0.67154000  1.0
  C  C108  1  0.98902000  0.02444000  0.82846000  1.0
  C  C109  1  0.01099000  0.47557000  0.32846000  1.0
  C  C110  1  0.83461000  0.95440000  0.16399000  1.0
  C  C111  1  0.16539000  0.54560000  0.66398000  1.0
  C  C112  1  0.16539000  0.04560000  0.83601000  1.0
  C  C113  1  0.83462000  0.45440000  0.33601000  1.0
  C  C114  1  0.72792000  0.88808000  0.20523000  1.0
  C  C115  1  0.27207000  0.61192000  0.70522000  1.0
  C  C116  1  0.27209000  0.11192000  0.79477000  1.0
  C  C117  1  0.72792000  0.38809000  0.29478000  1.0
  C  C118  1  0.67260000  0.91955000  0.26976000  1.0
  C  C119  1  0.32739000  0.58045000  0.76976000  1.0
  C  C120  1  0.32739000  0.08045000  0.73024000  1.0
  C  C121  1  0.67261000  0.41955000  0.23024000  1.0
  C  C122  1  0.78228000  0.93064000  0.32343000  1.0
  C  C123  1  0.21771000  0.56935000  0.82343000  1.0
  C  C124  1  0.21771000  0.06935000  0.67657000  1.0
  C  C125  1  0.78229000  0.43065000  0.17657000  1.0
  C  C126  1  0.51154000  0.93681000  0.27841000  1.0
  C  C127  1  0.48844000  0.56319000  0.77840000  1.0
  C  C128  1  0.48846000  0.06320000  0.72159000  1.0
  C  C129  1  0.51155000  0.43682000  0.22160000  1.0
  C  C130  1  0.72741000  0.95691000  0.38285000  1.0
  C  C131  1  0.27258000  0.54308000  0.88284000  1.0
  C  C132  1  0.27258000  0.04309000  0.61716000  1.0
  C  C133  1  0.72742000  0.45691000  0.11716000  1.0
  C  C134  1  0.46550000  0.96237000  0.33976000  1.0
  C  C135  1  0.53449000  0.53763000  0.83976000  1.0
  C  C136  1  0.53450000  0.03763000  0.66024000  1.0
  C  C137  1  0.46551000  0.46237000  0.16024000  1.0
  N  N138  1  0.62318000  0.38894000  0.96286000  1.0
  N  N139  1  0.37682000  0.11106000  0.46286000  1.0
  N  N140  1  0.37682000  0.61106000  0.03714000  1.0
  N  N141  1  0.62317000  0.88894000  0.53714000  1.0
  N  N142  1  0.57128000  0.97185000  0.39143000  1.0
  N  N143  1  0.42870000  0.52814000  0.89143000  1.0
  N  N144  1  0.42870000  0.02815000  0.60857000  1.0
  N  N145  1  0.57129000  0.47185000  0.10857000  1.0
  N  N146  1  0.83885000  0.62470000  0.94675000  1.0
  N  N147  1  0.16115000  0.87530000  0.44675000  1.0
  N  N148  1  0.16114000  0.37530000  0.05324000  1.0
  N  N149  1  0.83885000  0.12470000  0.55325000  1.0
  O  O150  1  0.77431000  0.58864000  0.00051000  1.0
  O  O151  1  0.22568000  0.91135000  0.50052000  1.0
  O  O152  1  0.22568000  0.41135000  0.99948000  1.0
  O  O153  1  0.77431000  0.08864000  0.49949000  1.0
  O  O154  1  0.90832000  0.58357000  0.90690000  1.0
  O  O155  1  0.09168000  0.91643000  0.40690000  1.0
  O  O156  1  0.09167000  0.41643000  0.09310000  1.0
  O  O157  1  0.90832000  0.08357000  0.59310000  1.0
  O  O158  1  0.83119000  0.69850000  0.93683000  1.0
  O  O159  1  0.16880000  0.80150000  0.43683000  1.0
  O  O160  1  0.16880000  0.30150000  0.06317000  1.0
  O  O161  1  0.83119000  0.19850000  0.56317000  1.0
  F  F162  1  0.16583000  0.19766000  0.93354000  1.0
  F  F163  1  0.83418000  0.30233000  0.43354000  1.0
  F  F164  1  0.83417000  0.80233000  0.06646000  1.0
  F  F165  1  0.16581000  0.69767000  0.56646000  1.0
  F  F166  1  0.62499000  0.07456000  0.00874000  1.0
  F  F167  1  0.37501000  0.42544000  0.50874000  1.0
  F  F168  1  0.37501000  0.92544000  0.99126000  1.0
  F  F169  1  0.62498000  0.57457000  0.49126000  1.0
  F  F170  1  0.31094000  0.13746000  0.03589000  1.0
  F  F171  1  0.68907000  0.36252000  0.53590000  1.0
  F  F172  1  0.68906000  0.86254000  0.96411000  1.0
  F  F173  1  0.31093000  0.63747000  0.46411000  1.0
  F  F174  1  0.59615000  0.97588000  0.10714000  1.0
  F  F175  1  0.40385000  0.52412000  0.60714000  1.0
  F  F176  1  0.40386000  0.02412000  0.89286000  1.0
  F  F177  1  0.59615000  0.47588000  0.39286000  1.0
  F  F178  1  0.28088000  0.04520000  0.14137000  1.0
  F  F179  1  0.71912000  0.45479000  0.64136000  1.0
  F  F180  1  0.71913000  0.95479000  0.85863000  1.0
  F  F181  1  0.28088000  0.54522000  0.35864000  1.0
  F  F182  1  0.08540000  0.93772000  0.21938000  1.0
  F  F183  1  0.91460000  0.56228000  0.71938000  1.0
  F  F184  1  0.91461000  0.06228000  0.78062000  1.0
  F  F185  1  0.08541000  0.43773000  0.28062000  1.0
