# generated using pymatgen
data_CdH16C18(IN3)2
_symmetry_space_group_name_H-M   'P 1'
_cell_length_a   4.37349000
_cell_length_b   15.54780000
_cell_length_c   15.55450000
_cell_angle_alpha   67.51500000
_cell_angle_beta   81.91230000
_cell_angle_gamma   90.00670000
_symmetry_Int_Tables_number   1
_chemical_formula_structural   CdH16C18(IN3)2
_chemical_formula_sum   'Cd2 H32 C36 I4 N12'
_cell_volume   965.86983500
_cell_formula_units_Z   2
loop_
 _symmetry_equiv_pos_site_id
 _symmetry_equiv_pos_as_xyz
  1  'x, y, z'
loop_
 _atom_site_type_symbol
 _atom_site_label
 _atom_site_symmetry_multiplicity
 _atom_site_fract_x
 _atom_site_fract_y
 _atom_site_fract_z
 _atom_site_occupancy
  Cd  Cd0  1  0.46042000  0.74998000  0.99998000  1.0
  Cd  Cd1  1  0.53956000  0.25002000  0.00001000  1.0
  H  H2  1  0.10444000  0.66892000  0.23394000  1.0
  H  H3  1  0.33948000  0.83128000  0.76595000  1.0
  H  H4  1  0.89559000  0.33109000  0.76605000  1.0
  H  H5  1  0.66054000  0.16872000  0.23405000  1.0
  H  H6  1  0.76248000  0.89555000  0.10617000  1.0
  H  H7  1  0.86910000  0.60452000  0.89373000  1.0
  H  H8  1  0.23753000  0.10447000  0.89382000  1.0
  H  H9  1  0.13091000  0.39548000  0.10627000  1.0
  H  H10  1  0.86436000  0.91827000  0.25047000  1.0
  H  H11  1  0.11500000  0.58179000  0.74938000  1.0
  H  H12  1  0.13565000  0.08173000  0.74953000  1.0
  H  H13  1  0.88501000  0.41820000  0.25062000  1.0
  H  H14  1  0.84455000  0.80893000  0.34717000  1.0
  H  H15  1  0.19222000  0.69110000  0.65267000  1.0
  H  H16  1  0.15548000  0.19107000  0.65283000  1.0
  H  H17  1  0.80779000  0.30890000  0.34733000  1.0
  H  H18  1  0.58258000  0.80065000  0.49590000  1.0
  H  H19  1  0.07840000  0.69945000  0.50400000  1.0
  H  H20  1  0.41744000  0.19935000  0.50410000  1.0
  H  H21  1  0.92161000  0.30054000  0.49600000  1.0
  H  H22  1  0.24941000  0.86767000  0.58993000  1.0
  H  H23  1  0.83928000  0.63238000  0.41001000  1.0
  H  H24  1  0.75058000  0.13232000  0.41007000  1.0
  H  H25  1  0.16071000  0.36761000  0.58999000  1.0
  H  H26  1  0.01346000  0.07826000  0.33593000  1.0
  H  H27  1  0.34956000  0.42175000  0.66409000  1.0
  H  H28  1  0.98652000  0.92173000  0.66407000  1.0
  H  H29  1  0.65038000  0.57826000  0.33592000  1.0
  H  H30  1  0.35251000  0.01192000  0.24228000  1.0
  H  H31  1  0.59476000  0.48815000  0.75768000  1.0
  H  H32  1  0.64750000  0.98808000  0.75772000  1.0
  H  H33  1  0.40522000  0.51186000  0.24233000  1.0
  C  C34  1  0.26699000  0.72582000  0.22427000  1.0
  C  C35  1  0.49219000  0.77435000  0.77563000  1.0
  C  C36  1  0.73304000  0.27419000  0.77572000  1.0
  C  C37  1  0.50781000  0.22565000  0.22437000  1.0
  C  C38  1  0.60089000  0.84045000  0.15685000  1.0
  C  C39  1  0.75857000  0.65968000  0.84303000  1.0
  C  C40  1  0.39912000  0.15956000  0.84314000  1.0
  C  C41  1  0.24144000  0.34031000  0.15697000  1.0
  C  C42  1  0.70571000  0.86221000  0.30338000  1.0
  C  C43  1  0.00945000  0.63787000  0.69647000  1.0
  C  C44  1  0.29430000  0.13780000  0.69662000  1.0
  C  C45  1  0.99055000  0.36213000  0.30353000  1.0
  C  C46  1  0.48880000  0.90036000  0.36208000  1.0
  C  C47  1  0.85093000  0.59972000  0.63785000  1.0
  C  C48  1  0.51120000  0.09963000  0.63792000  1.0
  C  C49  1  0.14906000  0.40028000  0.36216000  1.0
  C  C50  1  0.45413000  0.86095000  0.46034000  1.0
  C  C51  1  0.91427000  0.63914000  0.53957000  1.0
  C  C52  1  0.54587000  0.13905000  0.53966000  1.0
  C  C53  1  0.08572000  0.36086000  0.46043000  1.0
  C  C54  1  0.26350000  0.89973000  0.51380000  1.0
  C  C55  1  0.77713000  0.60031000  0.48615000  1.0
  C  C56  1  0.73650000  0.10027000  0.48620000  1.0
  C  C57  1  0.22286000  0.39969000  0.51386000  1.0
  C  C58  1  0.09934000  0.97893000  0.47157000  1.0
  C  C59  1  0.57094000  0.52105000  0.52843000  1.0
  C  C60  1  0.90065000  0.02106000  0.52843000  1.0
  C  C61  1  0.42903000  0.47895000  0.47157000  1.0
  C  C62  1  0.13478000  0.01710000  0.37261000  1.0
  C  C63  1  0.50757000  0.48291000  0.62740000  1.0
  C  C64  1  0.86520000  0.98289000  0.62739000  1.0
  C  C65  1  0.49238000  0.51709000  0.37260000  1.0
  C  C66  1  0.32725000  0.97921000  0.31899000  1.0
  C  C67  1  0.64630000  0.52085000  0.68099000  1.0
  C  C68  1  0.67275000  0.02078000  0.68101000  1.0
  C  C69  1  0.35367000  0.47916000  0.31901000  1.0
  I  I70  1  0.93206000  0.60572000  0.08288000  1.0
  I  I71  1  0.01506000  0.89423000  0.91710000  1.0
  I  I72  1  0.06789000  0.39429000  0.91712000  1.0
  I  I73  1  0.98496000  0.10577000  0.08289000  1.0
  N  N74  1  0.42521000  0.78104000  0.13834000  1.0
  N  N75  1  0.56435000  0.71909000  0.86156000  1.0
  N  N76  1  0.57481000  0.21897000  0.86166000  1.0
  N  N77  1  0.43565000  0.28090000  0.13844000  1.0
  N  N78  1  0.33548000  0.74746000  0.29437000  1.0
  N  N79  1  0.63071000  0.75271000  0.70553000  1.0
  N  N80  1  0.66455000  0.25255000  0.70562000  1.0
  N  N81  1  0.36929000  0.24729000  0.29447000  1.0
  N  N82  1  0.54836000  0.82070000  0.24997000  1.0
  N  N83  1  0.79900000  0.67943000  0.74991000  1.0
  N  N84  1  0.45167000  0.17930000  0.75003000  1.0
  N  N85  1  0.20102000  0.32057000  0.25009000  1.0
