# generated using pymatgen
data_Cd2H22C21(N3O7)2
_symmetry_space_group_name_H-M   'P 1'
_cell_length_a   10.20450000
_cell_length_b   10.39190000
_cell_length_c   15.97910000
_cell_angle_alpha   84.93330000
_cell_angle_beta   79.63730000
_cell_angle_gamma   60.59390000
_symmetry_Int_Tables_number   1
_chemical_formula_structural   Cd2H22C21(N3O7)2
_chemical_formula_sum   'Cd4 H44 C42 N12 O28'
_cell_volume   1452.09629451
_cell_formula_units_Z   2
loop_
 _symmetry_equiv_pos_site_id
 _symmetry_equiv_pos_as_xyz
  1  'x, y, z'
loop_
 _atom_site_type_symbol
 _atom_site_label
 _atom_site_symmetry_multiplicity
 _atom_site_fract_x
 _atom_site_fract_y
 _atom_site_fract_z
 _atom_site_occupancy
  Cd  Cd0  1  0.15027000  0.23249000  0.01862000  1.0
  Cd  Cd1  1  0.61724000  0.23249000  0.48138000  1.0
  Cd  Cd2  1  0.84973000  0.76751000  0.98138000  1.0
  Cd  Cd3  1  0.38276000  0.76751000  0.51862000  1.0
  H  H4  1  0.47488000  0.93955000  0.08641000  1.0
  H  H5  1  0.58557000  0.93955000  0.41359000  1.0
  H  H6  1  0.52512000  0.06045000  0.91359000  1.0
  H  H7  1  0.41443000  0.06045000  0.58641000  1.0
  H  H8  1  0.06629000  0.20064000  0.24946000  1.0
  H  H9  1  0.73307000  0.20063000  0.25054000  1.0
  H  H10  1  0.93370000  0.79937000  0.75054000  1.0
  H  H11  1  0.26693000  0.79937000  0.74946000  1.0
  H  H12  1  0.55075000  0.80466000  0.30363000  1.0
  H  H13  1  0.64459000  0.80466000  0.19638000  1.0
  H  H14  1  0.44925000  0.19534000  0.69637000  1.0
  H  H15  1  0.35541000  0.19535000  0.80362000  1.0
  H  H16  1  0.64240000  0.56168000  0.18799000  1.0
  H  H17  1  0.79591000  0.56167000  0.31200000  1.0
  H  H18  1  0.35760000  0.43832000  0.81201000  1.0
  H  H19  1  0.20409000  0.43833000  0.68800000  1.0
  H  H20  1  0.23496000  0.55618000  0.15251000  1.0
  H  H21  1  0.20885000  0.55618000  0.34748000  1.0
  H  H22  1  0.76504000  0.44382000  0.84748000  1.0
  H  H23  1  0.79115000  0.44382000  0.65252000  1.0
  H  H24  1  0.67239000  0.24718000  0.01792000  1.0
  H  H25  1  0.08043000  0.24718000  0.48208000  1.0
  H  H26  1  0.32762000  0.75282000  0.98208000  1.0
  H  H27  1  0.91957000  0.75281000  0.51792000  1.0
  H  H28  1  0.24291000  0.74552000  0.21995000  1.0
  H  H29  1  0.01156000  0.74551000  0.28004000  1.0
  H  H30  1  0.75709000  0.25449000  0.78005000  1.0
  H  H31  1  0.98844000  0.25449000  0.71996000  1.0
  H  H32  1  0.08001000  0.33766000  0.84720000  1.0
  H  H33  1  0.58235000  0.33765000  0.65280000  1.0
  H  H34  1  0.91999000  0.66234000  0.15280000  1.0
  H  H35  1  0.41766000  0.66235000  0.34720000  1.0
  H  H36  1  0.12708000  0.44512000  0.88193000  1.0
  H  H37  1  0.42780000  0.44512000  0.61807000  1.0
  H  H38  1  0.87292000  0.55488000  0.11807000  1.0
  H  H39  1  0.57220000  0.55488000  0.38193000  1.0
  H  H40  1  0.38371000  0.92779000  0.96631000  1.0
  H  H41  1  0.68849000  0.92779000  0.53369000  1.0
  H  H42  1  0.61629000  0.07221000  0.03369000  1.0
  H  H43  1  0.31151000  0.07220000  0.46631000  1.0
  H  H44  1  0.28939000  0.99347000  0.88983000  1.0
  H  H45  1  0.71713000  0.99347000  0.61017000  1.0
  H  H46  1  0.71061000  0.00653000  0.11017000  1.0
  H  H47  1  0.28287000  0.00653000  0.38983000  1.0
  C  C48  1  0.38888000  0.99353000  0.14129000  1.0
  C  C49  1  0.61759000  0.99353000  0.35871000  1.0
  C  C50  1  0.61112000  0.00647000  0.85871000  1.0
  C  C51  1  0.38241000  0.00647000  0.64129000  1.0
  C  C52  1  0.18391000  0.12145000  0.22625000  1.0
  C  C53  1  0.69464000  0.12144000  0.27375000  1.0
  C  C54  1  0.81608000  0.87855000  0.77375000  1.0
  C  C55  1  0.30536000  0.87856000  0.72625000  1.0
  C  C56  1  0.56296000  0.87408000  0.25000000  1.0
  C  C57  1  0.43704000  0.12592000  0.75000000  1.0
  C  C58  1  0.67344000  0.39885000  0.10010000  1.0
  C  C59  1  0.92771000  0.39884000  0.39990000  1.0
  C  C60  1  0.32656000  0.60115000  0.89991000  1.0
  C  C61  1  0.07229000  0.60115000  0.60010000  1.0
  C  C62  1  0.58702000  0.51528000  0.15819000  1.0
  C  C63  1  0.89769000  0.51528000  0.34181000  1.0
  C  C64  1  0.41298000  0.48471000  0.84181000  1.0
  C  C65  1  0.10231000  0.48472000  0.65819000  1.0
  C  C66  1  0.42954000  0.57300000  0.17556000  1.0
  C  C67  1  0.99745000  0.57300000  0.32444000  1.0
  C  C68  1  0.57046000  0.42699000  0.82444000  1.0
  C  C69  1  0.00255000  0.42700000  0.67556000  1.0
  C  C70  1  0.35804000  0.51248000  0.13897000  1.0
  C  C71  1  0.12948000  0.51248000  0.36103000  1.0
  C  C72  1  0.64196000  0.48752000  0.86103000  1.0
  C  C73  1  0.87052000  0.48753000  0.63897000  1.0
  C  C74  1  0.44540000  0.39230000  0.08336000  1.0
  C  C75  1  0.16229000  0.39230000  0.41664000  1.0
  C  C76  1  0.55460000  0.60770000  0.91664000  1.0
  C  C77  1  0.83771000  0.60770000  0.58336000  1.0
  C  C78  1  0.60261000  0.33750000  0.06282000  1.0
  C  C79  1  0.05989000  0.33750000  0.43717000  1.0
  C  C80  1  0.39739000  0.66249000  0.93718000  1.0
  C  C81  1  0.94011000  0.66250000  0.56283000  1.0
  C  C82  1  0.84161000  0.34148000  0.07628000  1.0
  C  C83  1  0.81691000  0.34147000  0.42372000  1.0
  C  C84  1  0.15839000  0.65852000  0.92372000  1.0
  C  C85  1  0.18309000  0.65852000  0.57628000  1.0
  C  C86  1  0.36753000  0.32394000  0.04765000  1.0
  C  C87  1  0.30853000  0.32394000  0.45235000  1.0
  C  C88  1  0.63247000  0.67606000  0.95235000  1.0
  C  C89  1  0.69147000  0.67606000  0.54765000  1.0
  N  N90  1  0.24206000  0.09178000  0.14200000  1.0
  N  N91  1  0.66617000  0.09177000  0.35801000  1.0
  N  N92  1  0.75794000  0.90823000  0.85800000  1.0
  N  N93  1  0.33383000  0.90823000  0.64199000  1.0
  N  N94  1  0.28662000  0.04562000  0.27721000  1.0
  N  N95  1  0.66777000  0.04562000  0.22280000  1.0
  N  N96  1  0.71338000  0.95438000  0.72279000  1.0
  N  N97  1  0.33224000  0.95438000  0.77720000  1.0
  N  N98  1  0.41680000  0.96513000  0.22177000  1.0
  N  N99  1  0.61808000  0.96513000  0.27823000  1.0
  N  N100  1  0.58320000  0.03487000  0.77823000  1.0
  N  N101  1  0.38192000  0.03487000  0.72177000  1.0
  O  O102  1  0.91433000  0.24903000  0.01584000  1.0
  O  O103  1  0.83665000  0.24902000  0.48416000  1.0
  O  O104  1  0.08567000  0.75097000  0.98416000  1.0
  O  O105  1  0.16335000  0.75097000  0.51584000  1.0
  O  O106  1  0.90805000  0.38630000  0.11827000  1.0
  O  O107  1  0.70565000  0.38630000  0.38173000  1.0
  O  O108  1  0.09195000  0.61370000  0.88174000  1.0
  O  O109  1  0.29435000  0.61370000  0.61827000  1.0
  O  O110  1  0.44821000  0.19797000  0.01162000  1.0
  O  O111  1  0.35382000  0.19796000  0.48838000  1.0
  O  O112  1  0.55178000  0.80204000  0.98838000  1.0
  O  O113  1  0.64618000  0.80204000  0.51162000  1.0
  O  O114  1  0.22249000  0.39368000  0.05693000  1.0
  O  O115  1  0.38383000  0.39368000  0.44307000  1.0
  O  O116  1  0.77751000  0.60632000  0.94307000  1.0
  O  O117  1  0.61617000  0.60632000  0.55693000  1.0
  O  O118  1  0.34716000  0.69214000  0.23148000  1.0
  O  O119  1  0.96069000  0.69213000  0.26851000  1.0
  O  O120  1  0.65283000  0.30786000  0.76852000  1.0
  O  O121  1  0.03931000  0.30787000  0.73149000  1.0
  O  O122  1  0.15092000  0.33858000  0.88066000  1.0
  O  O123  1  0.51050000  0.33858000  0.61934000  1.0
  O  O124  1  0.84908000  0.66142000  0.11934000  1.0
  O  O125  1  0.48950000  0.66142000  0.38066000  1.0
  O  O126  1  0.28508000  0.00934000  0.95075000  1.0
  O  O127  1  0.70558000  0.00934000  0.54925000  1.0
  O  O128  1  0.71492000  0.99066000  0.04925000  1.0
  O  O129  1  0.29442000  0.99066000  0.45075000  1.0
