# generated using pymatgen
data_PrFe2H25C36(NO4)2
_symmetry_space_group_name_H-M   'P 1'
_cell_length_a   11.61980000
_cell_length_b   12.04390000
_cell_length_c   13.70120000
_cell_angle_alpha   94.57000000
_cell_angle_beta   109.31300000
_cell_angle_gamma   117.50900000
_symmetry_Int_Tables_number   1
_chemical_formula_structural   PrFe2H25C36(NO4)2
_chemical_formula_sum   'Pr2 Fe4 H50 C72 N4 O16'
_cell_volume   1541.83483536
_cell_formula_units_Z   2
loop_
 _symmetry_equiv_pos_site_id
 _symmetry_equiv_pos_as_xyz
  1  'x, y, z'
loop_
 _atom_site_type_symbol
 _atom_site_label
 _atom_site_symmetry_multiplicity
 _atom_site_fract_x
 _atom_site_fract_y
 _atom_site_fract_z
 _atom_site_occupancy
  Pr  Pr0  1  0.80055000  0.35877000  0.38351000  1.0
  Pr  Pr1  1  0.19944000  0.64123000  0.61649000  1.0
  Fe  Fe2  1  0.84943000  0.76124000  0.25034000  1.0
  Fe  Fe3  1  0.15057000  0.23876000  0.74966000  1.0
  Fe  Fe4  1  0.77316000  0.65560000  0.75205000  1.0
  Fe  Fe5  1  0.22684000  0.34440000  0.24795000  1.0
  H  H6  1  0.52124000  0.32228000  0.11604000  1.0
  H  H7  1  0.47876000  0.67772000  0.88396000  1.0
  H  H8  1  0.69234000  0.59195000  0.34774000  1.0
  H  H9  1  0.30766000  0.40805000  0.65226000  1.0
  H  H10  1  0.60778000  0.75283000  0.26440000  1.0
  H  H11  1  0.39222000  0.24717000  0.73559000  1.0
  H  H12  1  0.84355000  0.98843000  0.31301000  1.0
  H  H13  1  0.15645000  0.01157000  0.68699000  1.0
  H  H14  1  0.07492000  0.97459000  0.42634000  1.0
  H  H15  1  0.92507000  0.02541000  0.57366000  1.0
  H  H16  1  0.62004000  0.63702000  0.04492000  1.0
  H  H17  1  0.37996000  0.36298000  0.95508000  1.0
  H  H18  1  0.83673000  0.88193000  0.08161000  1.0
  H  H19  1  0.16327000  0.11807000  0.91839000  1.0
  H  H20  1  0.08537000  0.89917000  0.20040000  1.0
  H  H21  1  0.91463000  0.10083000  0.79960000  1.0
  H  H22  1  0.02049000  0.66160000  0.23811000  1.0
  H  H23  1  0.97952000  0.33841000  0.76189000  1.0
  H  H24  1  0.57607000  0.39739000  0.62715000  1.0
  H  H25  1  0.42392000  0.60261000  0.37284000  1.0
  H  H26  1  0.56759000  0.47953000  0.81402000  1.0
  H  H27  1  0.43240000  0.52047000  0.18598000  1.0
  H  H28  1  0.83833000  0.63101000  0.96406000  1.0
  H  H29  1  0.16166000  0.36899000  0.03594000  1.0
  H  H30  1  0.01610000  0.64530000  0.87126000  1.0
  H  H31  1  0.98390000  0.35470000  0.12874000  1.0
  H  H32  1  0.57243000  0.63543000  0.55921000  1.0
  H  H33  1  0.42757000  0.36457000  0.44079000  1.0
  H  H34  1  0.84705000  0.73868000  0.58424000  1.0
  H  H35  1  0.15295000  0.26132000  0.41577000  1.0
  H  H36  1  0.01956000  0.89468000  0.78699000  1.0
  H  H37  1  0.98044000  0.10532000  0.21301000  1.0
  H  H38  1  0.85159000  0.88721000  0.88946000  1.0
  H  H39  1  0.14841000  0.11279000  0.11054000  1.0
  H  H40  1  0.83226000  0.22909000  0.17292000  1.0
  H  H41  1  0.16774000  0.77091000  0.82708000  1.0
  H  H42  1  0.73510000  0.02784000  0.02565000  1.0
  H  H43  1  0.26490000  0.97215000  0.97435000  1.0
  H  H44  1  0.52318000  0.82104000  0.01100000  1.0
  H  H45  1  0.47682000  0.17896000  0.98900000  1.0
  H  H46  1  0.22622000  0.83585000  0.36121000  1.0
  H  H47  1  0.77378000  0.16415000  0.63879000  1.0
  H  H48  1  0.33781000  0.04675000  0.49613000  1.0
  H  H49  1  0.66220000  0.95325000  0.50387000  1.0
  H  H50  1  0.56135000  0.23979000  0.50299000  1.0
  H  H51  1  0.43865000  0.76022000  0.49702000  1.0
  H  H52  1  0.33613000  0.70420000  0.07835000  1.0
  H  H53  1  0.66388000  0.29580000  0.92166000  1.0
  H  H54  1  0.22650000  0.70930000  0.20409000  1.0
  H  H55  1  0.77350000  0.29069000  0.79592000  1.0
  C  C56  1  0.00554000  0.71696000  0.46383000  1.0
  C  C57  1  0.99446000  0.28304000  0.53617000  1.0
  C  C58  1  0.91486000  0.76738000  0.40854000  1.0
  C  C59  1  0.08514000  0.23262000  0.59145000  1.0
  C  C60  1  0.76102000  0.69413000  0.35469000  1.0
  C  C61  1  0.23898000  0.30588000  0.64530000  1.0
  C  C62  1  0.71701000  0.77899000  0.31099000  1.0
  C  C63  1  0.28298000  0.22101000  0.68900000  1.0
  C  C64  1  0.84208000  0.90372000  0.33596000  1.0
  C  C65  1  0.15792000  0.09628000  0.66403000  1.0
  C  C66  1  0.96419000  0.89702000  0.39620000  1.0
  C  C67  1  0.03581000  0.10298000  0.60380000  1.0
  C  C68  1  0.71636000  0.47056000  0.14854000  1.0
  C  C69  1  0.28364000  0.52944000  0.85145000  1.0
  C  C70  1  0.79446000  0.60319000  0.13968000  1.0
  C  C71  1  0.20555000  0.39681000  0.86032000  1.0
  C  C72  1  0.73314000  0.67516000  0.08911000  1.0
  C  C73  1  0.26686000  0.32485000  0.91089000  1.0
  C  C74  1  0.84811000  0.80368000  0.10830000  1.0
  C  C75  1  0.15189000  0.19632000  0.89170000  1.0
  C  C76  1  0.97995000  0.81233000  0.17077000  1.0
  C  C77  1  0.02005000  0.18767000  0.82923000  1.0
  C  C78  1  0.94716000  0.68890000  0.19108000  1.0
  C  C79  1  0.05284000  0.31110000  0.80892000  1.0
  C  C80  1  0.87249000  0.50971000  0.64045000  1.0
  C  C81  1  0.12751000  0.49029000  0.35955000  1.0
  C  C82  1  0.81490000  0.51461000  0.72169000  1.0
  C  C83  1  0.18510000  0.48539000  0.27830000  1.0
  C  C84  1  0.66717000  0.45795000  0.70344000  1.0
  C  C85  1  0.33282000  0.54205000  0.29656000  1.0
  C  C86  1  0.66274000  0.50039000  0.80204000  1.0
  C  C87  1  0.33726000  0.49961000  0.19796000  1.0
  C  C88  1  0.80657000  0.58182000  0.88177000  1.0
  C  C89  1  0.19343000  0.41817000  0.11823000  1.0
  C  C90  1  0.90045000  0.59106000  0.83268000  1.0
  C  C91  1  0.09955000  0.40894000  0.16732000  1.0
  C  C92  1  0.54469000  0.71429000  0.75639000  1.0
  C  C93  1  0.45531000  0.28571000  0.24361000  1.0
  C  C94  1  0.66939000  0.75408000  0.73068000  1.0
  C  C95  1  0.33061000  0.24592000  0.26932000  1.0
  C  C96  1  0.66773000  0.70492000  0.63045000  1.0
  C  C97  1  0.33227000  0.29508000  0.36955000  1.0
  C  C98  1  0.81224000  0.75976000  0.64395000  1.0
  C  C99  1  0.18776000  0.24024000  0.35605000  1.0
  C  C100  1  0.90383000  0.84176000  0.75208000  1.0
  C  C101  1  0.09617000  0.15824000  0.24792000  1.0
  C  C102  1  0.81641000  0.83849000  0.80613000  1.0
  C  C103  1  0.18359000  0.16151000  0.19388000  1.0
  C  C104  1  0.73888000  0.13669000  0.16199000  1.0
  C  C105  1  0.26112000  0.86331000  0.83801000  1.0
  C  C106  1  0.68554000  0.02415000  0.08134000  1.0
  C  C107  1  0.31446000  0.97584000  0.91866000  1.0
  C  C108  1  0.56798000  0.90987000  0.07286000  1.0
  C  C109  1  0.43202000  0.09013000  0.92714000  1.0
  C  C110  1  0.50400000  0.90868000  0.14451000  1.0
  C  C111  1  0.49600000  0.09132000  0.85549000  1.0
  C  C112  1  0.56568000  0.02709000  0.22397000  1.0
  C  C113  1  0.43432000  0.97290000  0.77603000  1.0
  C  C114  1  0.50315000  0.02971000  0.29879000  1.0
  C  C115  1  0.49685000  0.97029000  0.70122000  1.0
  C  C116  1  0.37884000  0.91451000  0.28972000  1.0
  C  C117  1  0.62116000  0.08549000  0.71029000  1.0
  C  C118  1  0.31917000  0.92207000  0.36302000  1.0
  C  C119  1  0.68083000  0.07794000  0.63699000  1.0
  C  C120  1  0.38135000  0.03880000  0.43842000  1.0
  C  C121  1  0.61865000  0.96121000  0.56159000  1.0
  C  C122  1  0.50563000  0.14659000  0.44258000  1.0
  C  C123  1  0.49437000  0.85341000  0.55743000  1.0
  C  C124  1  0.38050000  0.79424000  0.13905000  1.0
  C  C125  1  0.61951000  0.20576000  0.86095000  1.0
  C  C126  1  0.32000000  0.79724000  0.20867000  1.0
  C  C127  1  0.68000000  0.20276000  0.79133000  1.0
  N  N128  1  0.68144000  0.13864000  0.23124000  1.0
  N  N129  1  0.31856000  0.86136000  0.76876000  1.0
  N  N130  1  0.56540000  0.14282000  0.37550000  1.0
  N  N131  1  0.43460000  0.85718000  0.62450000  1.0
  O  O132  1  0.95066000  0.59325000  0.44638000  1.0
  O  O133  1  0.04934000  0.40675000  0.55362000  1.0
  O  O134  1  0.13451000  0.79650000  0.52932000  1.0
  O  O135  1  0.86549000  0.20350000  0.47068000  1.0
  O  O136  1  0.77822000  0.42506000  0.20999000  1.0
  O  O137  1  0.22178000  0.57494000  0.79001000  1.0
  O  O138  1  0.57877000  0.40531000  0.08708000  1.0
  O  O139  1  0.42123000  0.59469000  0.91292000  1.0
  O  O140  1  0.78964000  0.41593000  0.55389000  1.0
  O  O141  1  0.21036000  0.58407000  0.44611000  1.0
  O  O142  1  0.99976000  0.59924000  0.66358000  1.0
  O  O143  1  0.00023000  0.40076000  0.33641000  1.0
  O  O144  1  0.57006000  0.76827000  0.85188000  1.0
  O  O145  1  0.42994000  0.23173000  0.14812000  1.0
  O  O146  1  0.42075000  0.62958000  0.68475000  1.0
  O  O147  1  0.57926000  0.37042000  0.31525000  1.0
