# generated using pymatgen
data_V2CuPH12C19N2O9F
_symmetry_space_group_name_H-M   'P 1'
_cell_length_a   9.95985000
_cell_length_b   11.08060000
_cell_length_c   11.26280000
_cell_angle_alpha   114.39200000
_cell_angle_beta   104.74300000
_cell_angle_gamma   102.43900000
_symmetry_Int_Tables_number   1
_chemical_formula_structural   V2CuPH12C19N2O9F
_chemical_formula_sum   'V4 Cu2 P2 H24 C38 N4 O18 F2'
_cell_volume   1019.70578152
_cell_formula_units_Z   2
loop_
 _symmetry_equiv_pos_site_id
 _symmetry_equiv_pos_as_xyz
  1  'x, y, z'
loop_
 _atom_site_type_symbol
 _atom_site_label
 _atom_site_symmetry_multiplicity
 _atom_site_fract_x
 _atom_site_fract_y
 _atom_site_fract_z
 _atom_site_occupancy
  V  V0  1  0.12854000  0.43878000  0.46213000  1.0
  V  V1  1  0.87146000  0.56123000  0.53787000  1.0
  V  V2  1  0.54635000  0.30063000  0.32175000  1.0
  V  V3  1  0.45365000  0.69938000  0.67825000  1.0
  Cu  Cu4  1  0.22485000  0.84150000  0.74424000  1.0
  Cu  Cu5  1  0.77515000  0.15850000  0.25577000  1.0
  P  P6  1  0.35989000  0.52680000  0.34665000  1.0
  P  P7  1  0.64011000  0.47320000  0.65335000  1.0
  H  H8  1  0.56669000  0.56940000  0.21618000  1.0
  H  H9  1  0.43331000  0.43061000  0.78382000  1.0
  H  H10  1  0.56343000  0.65114000  0.03960000  1.0
  H  H11  1  0.43658000  0.34887000  0.96041000  1.0
  H  H12  1  0.15668000  0.72005000  0.04460000  1.0
  H  H13  1  0.84331000  0.27993000  0.95539000  1.0
  H  H14  1  0.15664000  0.63498000  0.21913000  1.0
  H  H15  1  0.84336000  0.36503000  0.78087000  1.0
  H  H16  1  0.20140000  0.96845000  0.03801000  1.0
  H  H17  1  0.79860000  0.03154000  0.96199000  1.0
  H  H18  1  0.12917000  0.17474000  0.16949000  1.0
  H  H19  1  0.87082000  0.82525000  0.83051000  1.0
  H  H20  1  0.08390000  0.33022000  0.06923000  1.0
  H  H21  1  0.91610000  0.66977000  0.93077000  1.0
  H  H22  1  0.08516000  0.39095000  0.86963000  1.0
  H  H23  1  0.91484000  0.60904000  0.13037000  1.0
  H  H24  1  0.12111000  0.33275000  0.64767000  1.0
  H  H25  1  0.87888000  0.66724000  0.35233000  1.0
  H  H26  1  0.20044000  0.17824000  0.45519000  1.0
  H  H27  1  0.79956000  0.82176000  0.54481000  1.0
  H  H28  1  0.27943000  0.96849000  0.35903000  1.0
  H  H29  1  0.72058000  0.03151000  0.64098000  1.0
  H  H30  1  0.29074000  0.82064000  0.47925000  1.0
  H  H31  1  0.70927000  0.17936000  0.52076000  1.0
  C  C32  1  0.36155000  0.59652000  0.22782000  1.0
  C  C33  1  0.63846000  0.40348000  0.77218000  1.0
  C  C34  1  0.47785000  0.60375000  0.17948000  1.0
  C  C35  1  0.52215000  0.39626000  0.82052000  1.0
  C  C36  1  0.47624000  0.64943000  0.08127000  1.0
  C  C37  1  0.52377000  0.35058000  0.91874000  1.0
  C  C38  1  0.35929000  0.68888000  0.03061000  1.0
  C  C39  1  0.64072000  0.31112000  0.96939000  1.0
  C  C40  1  0.35206000  0.72504000  0.91558000  1.0
  C  C41  1  0.64795000  0.27496000  0.08442000  1.0
  C  C42  1  0.24616000  0.68756000  0.08357000  1.0
  C  C43  1  0.75384000  0.31243000  0.91642000  1.0
  C  C44  1  0.24672000  0.64075000  0.18095000  1.0
  C  C45  1  0.75328000  0.35925000  0.81905000  1.0
  C  C46  1  0.17848000  0.03821000  0.99691000  1.0
  C  C47  1  0.82152000  0.96179000  0.00309000  1.0
  C  C48  1  0.13799000  0.15322000  0.06890000  1.0
  C  C49  1  0.86201000  0.84678000  0.93111000  1.0
  C  C50  1  0.11232000  0.23935000  0.01231000  1.0
  C  C51  1  0.88768000  0.76064000  0.98769000  1.0
  C  C52  1  0.12846000  0.21208000  0.88362000  1.0
  C  C53  1  0.87154000  0.78791000  0.11638000  1.0
  C  C54  1  0.16797000  0.09345000  0.81783000  1.0
  C  C55  1  0.83203000  0.90654000  0.18217000  1.0
  C  C56  1  0.11176000  0.29712000  0.81767000  1.0
  C  C57  1  0.88823000  0.70288000  0.18233000  1.0
  C  C58  1  0.13292000  0.26534000  0.69437000  1.0
  C  C59  1  0.86707000  0.73466000  0.30563000  1.0
  C  C60  1  0.17417000  0.14616000  0.62664000  1.0
  C  C61  1  0.82582000  0.85383000  0.37335000  1.0
  C  C62  1  0.18936000  0.05961000  0.68890000  1.0
  C  C63  1  0.81063000  0.94039000  0.31109000  1.0
  C  C64  1  0.20713000  0.11174000  0.50419000  1.0
  C  C65  1  0.79287000  0.88826000  0.49581000  1.0
  C  C66  1  0.25047000  0.99613000  0.45144000  1.0
  C  C67  1  0.74953000  0.00388000  0.54856000  1.0
  C  C68  1  0.25883000  0.91337000  0.51825000  1.0
  C  C69  1  0.74117000  0.08663000  0.48175000  1.0
  N  N70  1  0.19200000  0.00953000  0.87471000  1.0
  N  N71  1  0.80800000  0.99047000  0.12528000  1.0
  N  N72  1  0.22901000  0.94481000  0.63388000  1.0
  N  N73  1  0.77099000  0.05519000  0.36612000  1.0
  O  O74  1  0.40529000  0.39726000  0.29548000  1.0
  O  O75  1  0.59471000  0.60275000  0.70452000  1.0
  O  O76  1  0.46602000  0.64836000  0.49618000  1.0
  O  O77  1  0.53398000  0.35165000  0.50382000  1.0
  O  O78  1  0.19576000  0.48554000  0.33471000  1.0
  O  O79  1  0.80424000  0.51447000  0.66529000  1.0
  O  O80  1  0.43954000  0.69257000  0.85212000  1.0
  O  O81  1  0.56048000  0.30745000  0.14789000  1.0
  O  O82  1  0.25977000  0.78292000  0.88978000  1.0
  O  O83  1  0.74023000  0.21708000  0.11022000  1.0
  O  O84  1  0.28358000  0.43893000  0.55795000  1.0
  O  O85  1  0.71641000  0.56107000  0.44205000  1.0
  O  O86  1  0.44581000  0.13408000  0.24062000  1.0
  O  O87  1  0.55419000  0.86592000  0.75937000  1.0
  O  O88  1  0.27117000  0.69104000  0.62113000  1.0
  O  O89  1  0.72883000  0.30896000  0.37887000  1.0
  O  O90  1  0.97512000  0.73049000  0.64467000  1.0
  O  O91  1  0.02487000  0.26951000  0.35533000  1.0
  F  F92  1  0.03441000  0.47674000  0.59740000  1.0
  F  F93  1  0.96559000  0.52326000  0.40260000  1.0
