# generated using pymatgen
data_Cu3H34C44(NO3)4
_symmetry_space_group_name_H-M   'P 1'
_cell_length_a   8.76739000
_cell_length_b   10.06570000
_cell_length_c   11.83430000
_cell_angle_alpha   89.60450000
_cell_angle_beta   68.78470000
_cell_angle_gamma   86.15220000
_symmetry_Int_Tables_number   1
_chemical_formula_structural   Cu3H34C44(NO3)4
_chemical_formula_sum   'Cu3 H34 C44 N4 O12'
_cell_volume   971.23144173
_cell_formula_units_Z   1
loop_
 _symmetry_equiv_pos_site_id
 _symmetry_equiv_pos_as_xyz
  1  'x, y, z'
loop_
 _atom_site_type_symbol
 _atom_site_label
 _atom_site_symmetry_multiplicity
 _atom_site_fract_x
 _atom_site_fract_y
 _atom_site_fract_z
 _atom_site_occupancy
  Cu  Cu0  1  0.50000000  0.50000000  0.50000000  1.0
  Cu  Cu1  1  0.62458000  0.23934000  0.23889000  1.0
  Cu  Cu2  1  0.37543000  0.76066000  0.76111000  1.0
  H  H3  1  0.18079000  0.44485000  0.89552000  1.0
  H  H4  1  0.81922000  0.55515000  0.10449000  1.0
  H  H5  1  0.15827000  0.27688000  0.86342000  1.0
  H  H6  1  0.84173000  0.72312000  0.13658000  1.0
  H  H7  1  0.03114000  0.35169000  0.00295000  1.0
  H  H8  1  0.96887000  0.64831000  0.99705000  1.0
  H  H9  1  0.08929000  0.63774000  0.54526000  1.0
  H  H10  1  0.91072000  0.36227000  0.45475000  1.0
  H  H11  1  0.90431000  0.73736000  0.61944000  1.0
  H  H12  1  0.09570000  0.26264000  0.38057000  1.0
  H  H13  1  0.91023000  0.61103000  0.51533000  1.0
  H  H14  1  0.08977000  0.38898000  0.48468000  1.0
  H  H15  1  0.44744000  0.42298000  0.95254000  1.0
  H  H16  1  0.55256000  0.57702000  0.04747000  1.0
  H  H17  1  0.52777000  0.25548000  0.91554000  1.0
  H  H18  1  0.47223000  0.74452000  0.08447000  1.0
  H  H19  1  0.47368000  0.35563000  0.80938000  1.0
  H  H20  1  0.52632000  0.64437000  0.19062000  1.0
  H  H21  1  0.36219000  0.26825000  0.12789000  1.0
  H  H22  1  0.63781000  0.73177000  0.87211000  1.0
  H  H23  1  0.14278000  0.12332000  0.11714000  1.0
  H  H24  1  0.85720000  0.87671000  0.88287000  1.0
  H  H25  1  0.12363000  0.89904000  0.21178000  1.0
  H  H26  1  0.87635000  0.10099000  0.78822000  1.0
  H  H27  1  0.31638000  0.82827000  0.31743000  1.0
  H  H28  1  0.68361000  0.17173000  0.68256000  1.0
  H  H29  1  0.52698000  0.77007000  0.36714000  1.0
  H  H30  1  0.47301000  0.22993000  0.63285000  1.0
  H  H31  1  0.74182000  0.74027000  0.45601000  1.0
  H  H32  1  0.25816000  0.25972000  0.54398000  1.0
  H  H33  1  0.90589000  0.93497000  0.46336000  1.0
  H  H34  1  0.09410000  0.06500000  0.53664000  1.0
  H  H35  1  0.84353000  0.15324000  0.37713000  1.0
  H  H36  1  0.15648000  0.84675000  0.62287000  1.0
  C  C37  1  0.75624000  0.28889000  0.00365000  1.0
  C  C38  1  0.24378000  0.71111000  0.99635000  1.0
  C  C39  1  0.80861000  0.37124000  0.89084000  1.0
  C  C40  1  0.19140000  0.62876000  0.10916000  1.0
  C  C41  1  0.96854000  0.41471000  0.84862000  1.0
  C  C42  1  0.03147000  0.58529000  0.15138000  1.0
  C  C43  1  0.09075000  0.37066000  0.90607000  1.0
  C  C44  1  0.90925000  0.62934000  0.09393000  1.0
  C  C45  1  0.01194000  0.50140000  0.75022000  1.0
  C  C46  1  0.98807000  0.49860000  0.24978000  1.0
  C  C47  1  0.18108000  0.55164000  0.70373000  1.0
  C  C48  1  0.81893000  0.44835000  0.29628000  1.0
  C  C49  1  0.90491000  0.53975000  0.69009000  1.0
  C  C50  1  0.09510000  0.46025000  0.30992000  1.0
  C  C51  1  0.95557000  0.63587000  0.58696000  1.0
  C  C52  1  0.04443000  0.36413000  0.41305000  1.0
  C  C53  1  0.75107000  0.48452000  0.72841000  1.0
  C  C54  1  0.24892000  0.51548000  0.27160000  1.0
  C  C55  1  0.64849000  0.51172000  0.65256000  1.0
  C  C56  1  0.35151000  0.48828000  0.34744000  1.0
  C  C57  1  0.69878000  0.40359000  0.83106000  1.0
  C  C58  1  0.30123000  0.59640000  0.16894000  1.0
  C  C59  1  0.52817000  0.35605000  0.87923000  1.0
  C  C60  1  0.47183000  0.64395000  0.12078000  1.0
  C  C61  1  0.34822000  0.16907000  0.16616000  1.0
  C  C62  1  0.65178000  0.83094000  0.83384000  1.0
  C  C63  1  0.22658000  0.08904000  0.16208000  1.0
  C  C64  1  0.77341000  0.91098000  0.83792000  1.0
  C  C65  1  0.21512000  0.96461000  0.21632000  1.0
  C  C66  1  0.78487000  0.03541000  0.78367000  1.0
  C  C67  1  0.32422000  0.92431000  0.27328000  1.0
  C  C68  1  0.67577000  0.07570000  0.72671000  1.0
  C  C69  1  0.44573000  0.00840000  0.27155000  1.0
  C  C70  1  0.55427000  0.99160000  0.72844000  1.0
  C  C71  1  0.56961000  0.97782000  0.32692000  1.0
  C  C72  1  0.43038000  0.02218000  0.67307000  1.0
  C  C73  1  0.59815000  0.85345000  0.37117000  1.0
  C  C74  1  0.40184000  0.14655000  0.62882000  1.0
  C  C75  1  0.72024000  0.83671000  0.42061000  1.0
  C  C76  1  0.27975000  0.16328000  0.57937000  1.0
  C  C77  1  0.81024000  0.94431000  0.42484000  1.0
  C  C78  1  0.18976000  0.05566000  0.57515000  1.0
  C  C79  1  0.77664000  0.06550000  0.37829000  1.0
  C  C80  1  0.22336000  0.93448000  0.62171000  1.0
  N  N81  1  0.45547000  0.12839000  0.21822000  1.0
  N  N82  1  0.54453000  0.87162000  0.78178000  1.0
  N  N83  1  0.65945000  0.08139000  0.33071000  1.0
  N  N84  1  0.34055000  0.91860000  0.66929000  1.0
  O  O85  1  0.64729000  0.35115000  0.09746000  1.0
  O  O86  1  0.35273000  0.64886000  0.90254000  1.0
  O  O87  1  0.81772000  0.17378000  0.00470000  1.0
  O  O88  1  0.18228000  0.82622000  0.99530000  1.0
  O  O89  1  0.29256000  0.47108000  0.63356000  1.0
  O  O90  1  0.70743000  0.52891000  0.36644000  1.0
  O  O91  1  0.19476000  0.66878000  0.73677000  1.0
  O  O92  1  0.80526000  0.33121000  0.26325000  1.0
  O  O93  1  0.59857000  0.62883000  0.63819000  1.0
  O  O94  1  0.40143000  0.37117000  0.36181000  1.0
  O  O95  1  0.62346000  0.41068000  0.59613000  1.0
  O  O96  1  0.37654000  0.58932000  0.40388000  1.0
