# generated using pymatgen
data_Zn4H14(C8O5)3
_symmetry_space_group_name_H-M   'P 1'
_cell_length_a   18.50201145
_cell_length_b   18.54103898
_cell_length_c   18.54500000
_cell_angle_alpha   60.57988915
_cell_angle_beta   60.12024737
_cell_angle_gamma   60.18241499
_symmetry_Int_Tables_number   1
_chemical_formula_structural   Zn4H14(C8O5)3
_chemical_formula_sum   'Zn8 H28 C48 O30'
_cell_volume   4528.24785136
_cell_formula_units_Z   2
loop_
 _symmetry_equiv_pos_site_id
 _symmetry_equiv_pos_as_xyz
  1  'x, y, z'
loop_
 _atom_site_type_symbol
 _atom_site_label
 _atom_site_symmetry_multiplicity
 _atom_site_fract_x
 _atom_site_fract_y
 _atom_site_fract_z
 _atom_site_occupancy
  Zn  Zn0  1  0.45705000  0.45576000  0.13362000  1.0
  Zn  Zn1  1  0.45277000  0.45640000  0.96324000  1.0
  Zn  Zn2  1  0.63043000  0.45283000  0.95917000  1.0
  Zn  Zn3  1  0.46027000  0.62637000  0.96133000  1.0
  Zn  Zn4  1  0.04624000  0.04102000  0.37189000  1.0
  Zn  Zn5  1  0.87548000  0.03605000  0.54283000  1.0
  Zn  Zn6  1  0.04271000  0.04045000  0.54741000  1.0
  Zn  Zn7  1  0.05136000  0.86638000  0.54024000  1.0
  H  H8  1  0.06862000  0.79633000  0.10225000  1.0
  H  H9  1  0.30380000  0.59538000  0.79308000  1.0
  H  H10  1  0.45474000  0.58546000  0.22814000  1.0
  H  H11  1  0.30924000  0.76547000  0.77905000  1.0
  H  H12  1  0.89625000  0.19284000  0.71289000  1.0
  H  H13  1  0.72947000  0.23495000  0.68028000  1.0
  H  H14  1  0.80299000  0.30566000  0.78764000  1.0
  H  H15  1  0.64550000  0.26658000  0.81579000  1.0
  H  H16  1  0.18879000  0.21544000  0.41050000  1.0
  H  H17  1  0.24551000  0.17144000  0.24568000  1.0
  H  H18  1  0.30692000  0.28507000  0.31832000  1.0
  H  H19  1  0.81638000  0.29236000  0.09683000  1.0
  H  H20  1  0.26546000  0.31142000  0.16355000  1.0
  H  H21  1  0.51255000  0.58810000  0.32086000  1.0
  H  H22  1  0.43242000  0.70983000  0.38570000  1.0
  H  H23  1  0.02694000  0.89867000  0.28874000  1.0
  H  H24  1  0.97020000  0.89014000  0.19988000  1.0
  H  H25  1  0.22244000  0.70822000  0.09825000  1.0
  H  H26  1  0.90313000  0.23058000  0.19629000  1.0
  H  H27  1  0.61678000  0.16923000  0.43478000  1.0
  H  H28  1  0.24421000  0.97136000  0.32192000  1.0
  H  H29  1  0.65646000  0.31065000  0.26604000  1.0
  H  H30  1  0.91281000  0.68099000  0.69310000  1.0
  H  H31  1  0.74173000  0.84019000  0.71564000  1.0
  H  H32  1  0.81781000  0.58877000  0.78285000  1.0
  H  H33  1  0.66082000  0.75709000  0.81055000  1.0
  H  H34  1  0.21795000  0.68862000  0.69217000  1.0
  H  H35  1  0.20681000  0.84766000  0.71581000  1.0
  C  C36  1  0.37258000  0.63669000  0.85838000  1.0
  C  C37  1  0.03863000  0.85201000  0.19758000  1.0
  C  C38  1  0.09433000  0.79862000  0.14248000  1.0
  C  C39  1  0.63969000  0.36835000  0.13862000  1.0
  C  C40  1  0.18004000  0.74941000  0.14035000  1.0
  C  C41  1  0.83664000  0.22720000  0.22370000  1.0
  C  C42  1  0.81358000  0.17255000  0.30698000  1.0
  C  C43  1  0.78250000  0.27966000  0.16768000  1.0
  C  C44  1  0.69367000  0.31653000  0.19688000  1.0
  C  C45  1  0.84156000  0.71386000  0.71818000  1.0
  C  C46  1  0.81192000  0.80236000  0.69441000  1.0
  C  C47  1  0.32446000  0.76652000  0.34034000  1.0
  C  C48  1  0.78587000  0.65906000  0.77388000  1.0
  C  C49  1  0.69779000  0.68809000  0.81555000  1.0
  C  C50  1  0.23253000  0.72133000  0.71641000  1.0
  C  C51  1  0.35515000  0.36790000  0.14441000  1.0
  C  C52  1  0.19633000  0.80966000  0.69407000  1.0
  C  C53  1  0.28778000  0.66642000  0.77142000  1.0
  C  C54  1  0.32060000  0.69582000  0.79862000  1.0
  C  C55  1  0.82571000  0.22245000  0.72162000  1.0
  C  C56  1  0.79782000  0.20536000  0.67865000  1.0
  C  C57  1  0.77051000  0.27759000  0.77719000  1.0
  C  C58  1  0.28240000  0.76037000  0.29647000  1.0
  C  C59  1  0.68263000  0.29472000  0.81959000  1.0
  C  C60  1  0.22243000  0.22026000  0.34107000  1.0
  C  C61  1  0.21059000  0.17347000  0.31283000  1.0
  C  C62  1  0.27840000  0.27458000  0.28633000  1.0
  C  C63  1  0.64335000  0.63033000  0.86982000  1.0
  C  C64  1  0.29555000  0.31510000  0.19891000  1.0
  C  C65  1  0.87034000  0.85619000  0.63794000  1.0
  C  C66  1  0.15022000  0.12190000  0.37045000  1.0
  C  C67  1  0.87255000  0.12556000  0.36055000  1.0
  C  C68  1  0.13963000  0.86226000  0.63870000  1.0
  C  C69  1  0.33367000  0.69610000  0.25101000  1.0
  C  C70  1  0.85833000  0.14420000  0.62727000  1.0
  C  C71  1  0.13414000  0.86623000  0.35652000  1.0
  C  C72  1  0.63051000  0.35291000  0.87417000  1.0
  C  C73  1  0.35761000  0.63581000  0.14260000  1.0
  C  C74  1  0.41735000  0.63504000  0.26076000  1.0
  C  C75  1  0.44969000  0.63647000  0.31230000  1.0
  C  C76  1  0.40373000  0.70390000  0.35061000  1.0
  C  C77  1  0.73172000  0.14782000  0.35103000  1.0
  C  C78  1  0.29347000  0.84429000  0.36676000  1.0
  C  C79  1  0.19469000  0.81178000  0.29655000  1.0
  C  C80  1  0.15961000  0.80774000  0.24647000  1.0
  C  C81  1  0.21515000  0.75104000  0.19275000  1.0
  C  C82  1  0.30022000  0.69554000  0.19759000  1.0
  C  C83  1  0.07021000  0.85643000  0.24792000  1.0
  O  O84  1  0.50056000  0.49729000  0.00472000  1.0
  O  O85  1  0.11713000  0.94574000  0.61730000  1.0
  O  O86  1  0.82233000  0.12819000  0.59533000  1.0
  O  O87  1  0.39274000  0.67527000  0.88378000  1.0
  O  O88  1  0.12819000  0.82562000  0.43722000  1.0
  O  O89  1  0.94001000  0.11177000  0.61960000  1.0
  O  O90  1  0.09205000  0.94686000  0.32401000  1.0
  O  O91  1  0.94981000  0.13151000  0.32432000  1.0
  O  O92  1  0.11688000  0.82196000  0.61829000  1.0
  O  O93  1  0.83006000  0.93887000  0.62534000  1.0
  O  O94  1  0.10716000  0.12170000  0.44949000  1.0
  O  O95  1  0.39050000  0.37685000  0.18243000  1.0
  O  O96  1  0.55615000  0.39621000  0.17814000  1.0
  O  O97  1  0.36627000  0.39997000  0.06223000  1.0
  O  O98  1  0.68190000  0.54752000  0.88416000  1.0
  O  O99  1  0.54673000  0.36979000  0.90406000  1.0
  O  O100  1  0.38383000  0.67388000  0.05990000  1.0
  O  O101  1  0.67212000  0.38154000  0.88668000  1.0
  O  O102  1  0.37543000  0.55334000  0.18246000  1.0
  O  O103  1  0.72663000  0.09182000  0.33899000  1.0
  O  O104  1  0.66482000  0.19327000  0.40657000  1.0
  O  O105  1  0.29397000  0.84203000  0.43352000  1.0
  O  O106  1  0.56001000  0.67023000  0.89794000  1.0
  O  O107  1  0.26996000  0.92007000  0.30245000  1.0
  O  O108  1  0.39251000  0.55380000  0.88036000  1.0
  O  O109  1  0.67897000  0.38062000  0.05625000  1.0
  O  O110  1  0.00498000  0.99581000  0.50036000  1.0
  O  O111  1  0.95346000  0.81819000  0.60695000  1.0
  O  O112  1  0.14580000  0.08025000  0.33436000  1.0
  O  O113  1  0.83883000  0.08244000  0.44024000  1.0
