# generated using pymatgen
data_CdH20C18N4O5
_symmetry_space_group_name_H-M   'P 1'
_cell_length_a   9.34411000
_cell_length_b   11.43690000
_cell_length_c   11.43690000
_cell_angle_alpha   85.53070000
_cell_angle_beta   68.59680000
_cell_angle_gamma   68.59690000
_symmetry_Int_Tables_number   1
_chemical_formula_structural   CdH20C18N4O5
_chemical_formula_sum   'Cd2 H40 C36 N8 O10'
_cell_volume   1057.31262903
_cell_formula_units_Z   2
loop_
 _symmetry_equiv_pos_site_id
 _symmetry_equiv_pos_as_xyz
  1  'x, y, z'
loop_
 _atom_site_type_symbol
 _atom_site_label
 _atom_site_symmetry_multiplicity
 _atom_site_fract_x
 _atom_site_fract_y
 _atom_site_fract_z
 _atom_site_occupancy
  Cd  Cd0  1  0.76120000  0.66582000  0.41989000  1.0
  Cd  Cd1  1  0.26120000  0.41989000  0.66582000  1.0
  H  H2  1  0.40753000  0.68405000  0.62553000  1.0
  H  H3  1  0.90754000  0.62553000  0.68405000  1.0
  H  H4  1  0.19033000  0.80963000  0.82092000  1.0
  H  H5  1  0.69034000  0.82092000  0.80963000  1.0
  H  H6  1  0.44652000  0.07000000  0.75037000  1.0
  H  H7  1  0.94652000  0.75037000  0.07000000  1.0
  H  H8  1  0.65892000  0.93002000  0.56046000  1.0
  H  H9  1  0.15892000  0.56046000  0.93002000  1.0
  H  H10  1  0.46432000  0.78970000  0.14121000  1.0
  H  H11  1  0.96432000  0.14121000  0.78970000  1.0
  H  H12  1  0.56787000  0.62704000  0.10376000  1.0
  H  H13  1  0.06787000  0.10376000  0.62703000  1.0
  H  H14  1  0.32692000  0.59021000  0.27592000  1.0
  H  H15  1  0.82692000  0.27592000  0.59021000  1.0
  H  H16  1  0.15214000  0.87461000  0.26827000  1.0
  H  H17  1  0.65215000  0.26826000  0.87460000  1.0
  H  H18  1  0.21509000  0.80024000  0.39385000  1.0
  H  H19  1  0.71509000  0.39385000  0.80024000  1.0
  H  H20  1  0.17275000  0.12707000  0.91810000  1.0
  H  H21  1  0.67275000  0.91810000  0.12707000  1.0
  H  H22  1  0.86379000  0.94827000  0.17321000  1.0
  H  H23  1  0.36379000  0.17321000  0.94827000  1.0
  H  H24  1  0.59244000  0.41209000  0.44132000  1.0
  H  H25  1  0.09243000  0.44132000  0.41209000  1.0
  H  H26  1  0.82478000  0.27839000  0.25662000  1.0
  H  H27  1  0.32478000  0.25662000  0.27839000  1.0
  H  H28  1  0.59465000  0.00030000  0.34351000  1.0
  H  H29  1  0.09464000  0.34351000  0.00030000  1.0
  H  H30  1  0.36975000  0.14680000  0.52415000  1.0
  H  H31  1  0.86975000  0.52415000  0.14680000  1.0
  H  H32  1  0.24786000  0.74704000  0.06087000  1.0
  H  H33  1  0.74786000  0.06087000  0.74704000  1.0
  H  H34  1  0.15668000  0.63858000  0.14306000  1.0
  H  H35  1  0.65668000  0.14306000  0.63858000  1.0
  H  H36  1  0.36934000  0.58331000  0.04672000  1.0
  H  H37  1  0.86935000  0.04672000  0.58331000  1.0
  H  H38  1  0.86000000  0.46705000  0.59010000  1.0
  H  H39  1  0.36000000  0.59010000  0.46705000  1.0
  H  H40  1  0.66631000  0.50188000  0.61835000  1.0
  H  H41  1  0.16631000  0.61835000  0.50188000  1.0
  C  C42  1  0.41324000  0.76919000  0.65696000  1.0
  C  C43  1  0.91324000  0.65696000  0.76919000  1.0
  C  C44  1  0.29264000  0.83898000  0.76572000  1.0
  C  C45  1  0.79264000  0.76572000  0.83898000  1.0
  C  C46  1  0.30230000  0.94948000  0.80213000  1.0
  C  C47  1  0.80230000  0.80213000  0.94948000  1.0
  C  C48  1  0.43519000  0.98427000  0.72665000  1.0
  C  C49  1  0.93519000  0.72665000  0.98427000  1.0
  C  C50  1  0.55250000  0.90749000  0.62082000  1.0
  C  C51  1  0.05250000  0.62082000  0.90749000  1.0
  C  C52  1  0.55799000  0.68471000  0.27787000  1.0
  C  C53  1  0.05799000  0.27787000  0.68471000  1.0
  C  C54  1  0.47684000  0.69750000  0.18131000  1.0
  C  C55  1  0.97685000  0.18130000  0.69750000  1.0
  C  C56  1  0.31280000  0.67732000  0.22537000  1.0
  C  C57  1  0.81280000  0.22537000  0.67731000  1.0
  C  C58  1  0.17502000  0.78741000  0.31800000  1.0
  C  C59  1  0.67502000  0.31800000  0.78741000  1.0
  C  C60  1  0.01723000  0.75988000  0.37509000  1.0
  C  C61  1  0.51723000  0.37509000  0.75988000  1.0
  C  C62  1  0.17811000  0.03030000  0.91263000  1.0
  C  C63  1  0.67811000  0.91263000  0.03030000  1.0
  C  C64  1  0.85842000  0.04498000  0.17859000  1.0
  C  C65  1  0.35842000  0.17859000  0.04498000  1.0
  C  C66  1  0.59683000  0.32069000  0.41627000  1.0
  C  C67  1  0.09683000  0.41627000  0.32069000  1.0
  C  C68  1  0.72563000  0.24642000  0.31363000  1.0
  C  C69  1  0.22563000  0.31363000  0.24642000  1.0
  C  C70  1  0.72771000  0.12860000  0.28474000  1.0
  C  C71  1  0.22771000  0.28474000  0.12860000  1.0
  C  C72  1  0.59760000  0.09139000  0.36164000  1.0
  C  C73  1  0.09760000  0.36164000  0.09139000  1.0
  C  C74  1  0.47242000  0.17242000  0.46176000  1.0
  C  C75  1  0.97242000  0.46176000  0.17242000  1.0
  C  C76  1  0.26924000  0.66077000  0.11248000  1.0
  C  C77  1  0.76924000  0.11248000  0.66077000  1.0
  N  N78  1  0.54140000  0.80263000  0.58558000  1.0
  N  N79  1  0.04141000  0.58558000  0.80262000  1.0
  N  N80  1  0.07514000  0.99031000  0.99941000  1.0
  N  N81  1  0.57514000  0.99941000  0.99032000  1.0
  N  N82  1  0.96513000  0.08370000  0.09423000  1.0
  N  N83  1  0.46513000  0.09423000  0.08370000  1.0
  N  N84  1  0.47155000  0.28488000  0.48946000  1.0
  N  N85  1  0.97155000  0.48946000  0.28488000  1.0
  O  O86  1  0.66082000  0.73984000  0.25721000  1.0
  O  O87  1  0.16082000  0.25721000  0.73984000  1.0
  O  O88  1  0.75932000  0.53474000  0.58483000  1.0
  O  O89  1  0.25932000  0.58483000  0.53474000  1.0
  O  O90  1  0.53117000  0.61587000  0.37050000  1.0
  O  O91  1  0.03117000  0.37050000  0.61587000  1.0
  O  O92  1  0.89775000  0.81493000  0.33792000  1.0
  O  O93  1  0.39775000  0.33792000  0.81493000  1.0
  O  O94  1  0.01222000  0.67519000  0.45525000  1.0
  O  O95  1  0.51222000  0.45525000  0.67519000  1.0
