# generated using pymatgen
data_ZnH18C18(NO)4
_symmetry_space_group_name_H-M   'P 1'
_cell_length_a   10.60120000
_cell_length_b   14.94430000
_cell_length_c   14.94520352
_cell_angle_alpha   120.00200000
_cell_angle_beta   90.00219987
_cell_angle_gamma   89.99890000
_symmetry_Int_Tables_number   1
_chemical_formula_structural   ZnH18C18(NO)4
_chemical_formula_sum   'Zn3 H54 C54 N12 O12'
_cell_volume   2050.47423835
_cell_formula_units_Z   3
loop_
 _symmetry_equiv_pos_site_id
 _symmetry_equiv_pos_as_xyz
  1  'x, y, z'
loop_
 _atom_site_type_symbol
 _atom_site_label
 _atom_site_symmetry_multiplicity
 _atom_site_fract_x
 _atom_site_fract_y
 _atom_site_fract_z
 _atom_site_occupancy
  Zn  Zn0  1  0.33333333  0.81432000  0.62864000  1.0
  Zn  Zn1  1  0.00000000  0.37130000  0.18565000  1.0
  Zn  Zn2  1  0.66666667  0.81432000  0.18568000  1.0
  H  H3  1  0.32706000  0.59776000  0.56339000  1.0
  H  H4  1  0.99362000  0.43656000  0.03435000  1.0
  H  H5  1  0.00638000  0.43656000  0.40221000  1.0
  H  H6  1  0.66038000  0.96562000  0.40219000  1.0
  H  H7  1  0.33962000  0.96562000  0.56343000  1.0
  H  H8  1  0.67293000  0.59776000  0.03437000  1.0
  H  H9  1  0.41904000  0.41677000  0.51076000  1.0
  H  H10  1  0.08574000  0.48923000  0.90596000  1.0
  H  H11  1  0.91426000  0.48924000  0.58328000  1.0
  H  H12  1  0.75245000  0.09402000  0.58326000  1.0
  H  H13  1  0.24754000  0.09402000  0.51076000  1.0
  H  H14  1  0.58096000  0.41677000  0.90601000  1.0
  H  H15  1  0.58455000  0.39898000  0.48733000  1.0
  H  H16  1  0.25127000  0.51265000  0.91172000  1.0
  H  H17  1  0.74873000  0.51265000  0.60093000  1.0
  H  H18  1  0.91798000  0.08834000  0.60100000  1.0
  H  H19  1  0.08202000  0.08834000  0.48734000  1.0
  H  H20  1  0.41545000  0.39898000  0.91165000  1.0
  H  H21  1  0.47915000  0.36871000  0.38434000  1.0
  H  H22  1  0.14586000  0.61568000  0.98439000  1.0
  H  H23  1  0.85413000  0.61568000  0.63129000  1.0
  H  H24  1  0.81256000  0.01562000  0.63127000  1.0
  H  H25  1  0.18744000  0.01561000  0.38434000  1.0
  H  H26  1  0.52085000  0.36870000  0.98437000  1.0
  H  H27  1  0.56430000  0.83351000  0.51448000  1.0
  H  H28  1  0.23091000  0.48556000  0.31900000  1.0
  H  H29  1  0.76909000  0.48557000  0.16656000  1.0
  H  H30  1  0.89756000  0.68090000  0.16650000  1.0
  H  H31  1  0.10244000  0.68090000  0.51440000  1.0
  H  H32  1  0.43570000  0.83351000  0.31903000  1.0
  H  H33  1  0.67325000  0.74373000  0.42268000  1.0
  H  H34  1  0.33989000  0.57736000  0.32103000  1.0
  H  H35  1  0.66011000  0.57736000  0.25633000  1.0
  H  H36  1  0.00655000  0.67887000  0.25629000  1.0
  H  H37  1  0.99344000  0.67888000  0.42258000  1.0
  H  H38  1  0.32675000  0.74373000  0.32105000  1.0
  H  H39  1  0.70425000  0.80055000  0.55645000  1.0
  H  H40  1  0.37087000  0.44361000  0.24409000  1.0
  H  H41  1  0.62913000  0.44361000  0.19952000  1.0
  H  H42  1  0.03754000  0.75579000  0.19947000  1.0
  H  H43  1  0.96246000  0.75579000  0.55632000  1.0
  H  H44  1  0.29575000  0.80056000  0.24411000  1.0
  H  H45  1  0.58804000  0.16221000  0.71060000  1.0
  H  H46  1  0.25477000  0.28939000  0.45162000  1.0
  H  H47  1  0.74523000  0.28939000  0.83777000  1.0
  H  H48  1  0.92142000  0.54841000  0.83776000  1.0
  H  H49  1  0.07858000  0.54841000  0.71065000  1.0
  H  H50  1  0.41196000  0.16221000  0.45161000  1.0
  H  H51  1  0.58837000  0.99688000  0.87659000  1.0
  H  H52  1  0.25508000  0.12343000  0.12029000  1.0
  H  H53  1  0.74492000  0.12343000  0.00314000  1.0
  H  H54  1  0.92174000  0.87974000  0.00313000  1.0
  H  H55  1  0.07826000  0.87974000  0.87661000  1.0
  H  H56  1  0.41163000  0.99688000  0.12029000  1.0
  C  C57  1  0.49713000  0.42352000  0.46646000  1.0
  C  C58  1  0.16379000  0.53354000  0.95706000  1.0
  C  C59  1  0.83621000  0.53354000  0.57648000  1.0
  C  C60  1  0.83055000  0.04294000  0.57647000  1.0
  C  C61  1  0.16945000  0.04294000  0.46647000  1.0
  C  C62  1  0.50287000  0.42352000  0.95706000  1.0
  C  C63  1  0.50807000  0.53124000  0.48656000  1.0
  C  C64  1  0.17460000  0.51346000  0.04468000  1.0
  C  C65  1  0.82540000  0.51346000  0.46878000  1.0
  C  C66  1  0.84141000  0.95534000  0.46874000  1.0
  C  C67  1  0.15860000  0.95534000  0.48660000  1.0
  C  C68  1  0.49193000  0.53124000  0.04468000  1.0
  C  C69  1  0.60562000  0.58093000  0.46456000  1.0
  C  C70  1  0.27212000  0.53551000  0.11639000  1.0
  C  C71  1  0.72788000  0.53552000  0.41912000  1.0
  C  C72  1  0.93891000  0.88361000  0.41907000  1.0
  C  C73  1  0.06109000  0.88360000  0.46454000  1.0
  C  C74  1  0.39438000  0.58093000  0.11637000  1.0
  C  C75  1  0.56231000  0.68271000  0.49991000  1.0
  C  C76  1  0.22889000  0.50014000  0.18280000  1.0
  C  C77  1  0.77111000  0.50014000  0.31734000  1.0
  C  C78  1  0.89564000  0.81716000  0.31729000  1.0
  C  C79  1  0.10436000  0.81716000  0.49987000  1.0
  C  C80  1  0.43769000  0.68271000  0.18280000  1.0
  C  C81  1  0.62873000  0.76966000  0.49810000  1.0
  C  C82  1  0.29534000  0.50194000  0.27154000  1.0
  C  C83  1  0.70466000  0.50194000  0.23040000  1.0
  C  C84  1  0.96200000  0.72833000  0.23034000  1.0
  C  C85  1  0.03800000  0.72833000  0.49799000  1.0
  C  C86  1  0.37127000  0.76966000  0.27156000  1.0
  C  C87  1  0.48986000  0.99703000  0.70684000  1.0
  C  C88  1  0.15651000  0.29319000  0.29032000  1.0
  C  C89  1  0.84349000  0.29319000  0.00287000  1.0
  C  C90  1  0.82320000  0.70981000  0.00297000  1.0
  C  C91  1  0.17681000  0.70980000  0.70683000  1.0
  C  C92  1  0.51014000  0.99703000  0.29019000  1.0
  C  C93  1  0.62353000  0.15502000  0.77511000  1.0
  C  C94  1  0.29019000  0.22484000  0.37990000  1.0
  C  C95  1  0.70981000  0.22484000  0.84494000  1.0
  C  C96  1  0.95687000  0.62015000  0.84499000  1.0
  C  C97  1  0.04314000  0.62016000  0.77517000  1.0
  C  C98  1  0.37647000  0.15503000  0.37991000  1.0
  C  C99  1  0.57999000  0.07239000  0.78600000  1.0
  C  C100  1  0.24662000  0.21399000  0.28642000  1.0
  C  C101  1  0.75338000  0.21399000  0.92757000  1.0
  C  C102  1  0.91330000  0.71364000  0.92761000  1.0
  C  C103  1  0.08670000  0.71364000  0.78603000  1.0
  C  C104  1  0.42001000  0.07239000  0.28639000  1.0
  C  C105  1  0.62333000  0.06114000  0.86860000  1.0
  C  C106  1  0.29001000  0.13142000  0.19255000  1.0
  C  C107  1  0.71000000  0.13142000  0.93887000  1.0
  C  C108  1  0.95668000  0.80747000  0.93887000  1.0
  C  C109  1  0.04332000  0.80747000  0.86859000  1.0
  C  C110  1  0.37666000  0.06113000  0.19254000  1.0
  N  N111  1  0.41507000  0.60094000  0.53154000  1.0
  N  N112  1  0.08164000  0.46842000  0.06937000  1.0
  N  N113  1  0.91836000  0.46842000  0.39905000  1.0
  N  N114  1  0.74841000  0.93063000  0.39903000  1.0
  N  N115  1  0.25159000  0.93063000  0.53160000  1.0
  N  N116  1  0.58493000  0.60094000  0.06940000  1.0
  N  N117  1  0.44592000  0.69316000  0.54066000  1.0
  N  N118  1  0.11252000  0.45931000  0.15246000  1.0
  N  N119  1  0.88748000  0.45931000  0.30685000  1.0
  N  N120  1  0.77926000  0.84751000  0.30684000  1.0
  N  N121  1  0.22074000  0.84751000  0.54067000  1.0
  N  N122  1  0.55408000  0.69316000  0.15250000  1.0
  O  O123  1  0.46892000  0.00404000  0.62724000  1.0
  O  O124  1  0.13552000  0.37275000  0.37695000  1.0
  O  O125  1  0.86448000  0.37275000  0.99580000  1.0
  O  O126  1  0.80219000  0.62317000  0.99588000  1.0
  O  O127  1  0.19781000  0.62316000  0.62728000  1.0
  O  O128  1  0.53108000  0.00404000  0.37680000  1.0
  O  O129  1  0.44147000  0.92910000  0.72565000  1.0
  O  O130  1  0.10818000  0.27443000  0.20357000  1.0
  O  O131  1  0.89182000  0.27443000  0.07086000  1.0
  O  O132  1  0.77489000  0.79656000  0.07096000  1.0
  O  O133  1  0.22511000  0.79656000  0.72560000  1.0
  O  O134  1  0.55853000  0.92910000  0.20345000  1.0
