# generated using pymatgen
data_KMnH3(CO2)3
_symmetry_space_group_name_H-M   'P 1'
_cell_length_a   6.97959000
_cell_length_b   7.09809000
_cell_length_c   7.09801000
_cell_angle_alpha   80.34950000
_cell_angle_beta   87.02450000
_cell_angle_gamma   87.02320000
_symmetry_Int_Tables_number   1
_chemical_formula_structural   KMnH3(CO2)3
_chemical_formula_sum   'K2 Mn2 H6 C6 O12'
_cell_volume   345.87032330
_cell_formula_units_Z   2
loop_
 _symmetry_equiv_pos_site_id
 _symmetry_equiv_pos_as_xyz
  1  'x, y, z'
loop_
 _atom_site_type_symbol
 _atom_site_label
 _atom_site_symmetry_multiplicity
 _atom_site_fract_x
 _atom_site_fract_y
 _atom_site_fract_z
 _atom_site_occupancy
  K  K0  1  0.25001000  0.59703000  0.40296000  1.0
  K  K1  1  0.75000000  0.40296000  0.59704000  1.0
  Mn  Mn2  1  0.00002000  0.49998000  0.00000000  1.0
  Mn  Mn3  1  0.49999000  0.00001000  0.50000000  1.0
  H  H4  1  0.00051000  0.06124000  0.19344000  1.0
  H  H5  1  0.49949000  0.80652000  0.93878000  1.0
  H  H6  1  0.99950000  0.93876000  0.80655000  1.0
  H  H7  1  0.50049000  0.19349000  0.06123000  1.0
  H  H8  1  0.25003000  0.11985000  0.88019000  1.0
  H  H9  1  0.74998000  0.88016000  0.11980000  1.0
  C  C10  1  0.25000000  0.24117000  0.75884000  1.0
  C  C11  1  0.75000000  0.75882000  0.24117000  1.0
  C  C12  1  0.12769000  0.11730000  0.25006000  1.0
  C  C13  1  0.37231000  0.74994000  0.88273000  1.0
  C  C14  1  0.87231000  0.88270000  0.74994000  1.0
  C  C15  1  0.62770000  0.25007000  0.11726000  1.0
  O  O16  1  0.11556000  0.36864000  0.75737000  1.0
  O  O17  1  0.38443000  0.24262000  0.63132000  1.0
  O  O18  1  0.88444000  0.63135000  0.24262000  1.0
  O  O19  1  0.61556000  0.75739000  0.36868000  1.0
  O  O20  1  0.14653000  0.29673000  0.21610000  1.0
  O  O21  1  0.35347000  0.78391000  0.70329000  1.0
  O  O22  1  0.85347000  0.70328000  0.78392000  1.0
  O  O23  1  0.64653000  0.21608000  0.29673000  1.0
  O  O24  1  0.24094000  0.99415000  0.34195000  1.0
  O  O25  1  0.25908000  0.65806000  0.00586000  1.0
  O  O26  1  0.75906000  0.00586000  0.65805000  1.0
  O  O27  1  0.74093000  0.34194000  0.99413000  1.0
