# generated using pymatgen
data_Zn2H30C34S5(NO13)2
_symmetry_space_group_name_H-M   'P 1'
_cell_length_a   10.24580000
_cell_length_b   10.76180000
_cell_length_c   11.18120000
_cell_angle_alpha   93.32710000
_cell_angle_beta   92.78840000
_cell_angle_gamma   96.42610000
_symmetry_Int_Tables_number   1
_chemical_formula_structural   Zn2H30C34S5(NO13)2
_chemical_formula_sum   'Zn2 H30 C34 S5 N2 O26'
_cell_volume   1221.17342908
_cell_formula_units_Z   1
loop_
 _symmetry_equiv_pos_site_id
 _symmetry_equiv_pos_as_xyz
  1  'x, y, z'
loop_
 _atom_site_type_symbol
 _atom_site_label
 _atom_site_symmetry_multiplicity
 _atom_site_fract_x
 _atom_site_fract_y
 _atom_site_fract_z
 _atom_site_occupancy
  Zn  Zn0  1  0.35759000  0.49653000  0.49344000  1.0
  Zn  Zn1  1  0.65784000  0.51320000  0.46376000  1.0
  H  H2  1  0.68109000  0.51932000  0.11214000  1.0
  H  H3  1  0.22903000  0.84460000  0.37531000  1.0
  H  H4  1  0.16121000  0.65682000  0.61725000  1.0
  H  H5  1  0.11230000  0.33789000  0.24850000  1.0
  H  H6  1  0.11442000  0.24058000  0.37179000  1.0
  H  H7  1  0.20522000  0.46326000  0.16144000  1.0
  H  H8  1  0.01904000  0.53463000  0.04586000  1.0
  H  H9  1  0.07041000  0.70266000  0.90101000  1.0
  H  H10  1  0.69222000  0.55141000  0.89656000  1.0
  H  H11  1  0.68433000  0.90927000  0.62526000  1.0
  H  H12  1  0.09892000  0.13088000  0.20172000  1.0
  H  H13  1  0.18387000  0.00250000  0.16371000  1.0
  H  H14  1  0.18574000  0.14535000  0.99779000  1.0
  H  H15  1  0.25979000  0.27275000  0.09529000  1.0
  H  H16  1  0.34910000  0.14376000  0.05987000  1.0
  H  H17  1  0.28176000  0.05130000  0.61064000  1.0
  H  H18  1  0.17284000  0.91627000  0.56019000  1.0
  H  H19  1  0.98014000  0.02840000  0.61518000  1.0
  H  H20  1  0.09712000  0.03040000  0.73699000  1.0
  H  H21  1  0.08867000  0.16771000  0.65573000  1.0
  H  H22  1  0.68015000  0.62295000  0.71689000  1.0
  H  H23  1  0.65057000  0.36549000  0.22317000  1.0
  H  H24  1  0.02305000  0.06541000  0.39336000  1.0
  H  H25  1  0.44445000  0.89422000  0.98510000  1.0
  H  H26  1  0.62871000  0.18782000  0.85713000  1.0
  H  H27  1  0.58034000  0.28102000  0.73959000  1.0
  H  H28  1  0.81516000  0.36190000  0.71568000  1.0
  H  H29  1  0.78039000  0.38505000  0.86999000  1.0
  H  H30  1  0.86712000  0.25897000  0.82364000  1.0
  H  H31  1  0.19798000  0.70907000  0.13332000  1.0
  C  C32  1  0.50678000  0.28237000  0.52968000  1.0
  C  C33  1  0.35383000  0.53522000  0.04496000  1.0
  C  C34  1  0.47012000  0.50681000  0.11136000  1.0
  C  C35  1  0.59064000  0.52794000  0.06015000  1.0
  C  C36  1  0.59921000  0.55586000  0.93902000  1.0
  C  C37  1  0.48962000  0.58488000  0.87435000  1.0
  C  C38  1  0.41956000  0.06550000  0.45552000  1.0
  C  C39  1  0.50681000  0.14420000  0.53528000  1.0
  C  C40  1  0.59778000  0.07907000  0.60091000  1.0
  C  C41  1  0.60834000  0.94981000  0.57427000  1.0
  C  C42  1  0.52463000  0.87615000  0.49026000  1.0
  C  C43  1  0.47035000  0.47376000  0.24021000  1.0
  C  C44  1  0.42809000  0.93884000  0.43533000  1.0
  C  C45  1  0.30980000  0.91244000  0.35023000  1.0
  C  C46  1  0.29009000  0.05846000  0.37831000  1.0
  C  C47  1  0.93343000  0.42738000  0.41931000  1.0
  C  C48  1  0.96014000  0.59213000  0.55493000  1.0
  C  C49  1  0.09736000  0.58935000  0.55826000  1.0
  C  C50  1  0.06971000  0.42818000  0.42144000  1.0
  C  C51  1  0.07022000  0.31908000  0.33457000  1.0
  C  C52  1  0.91441000  0.31019000  0.33037000  1.0
  C  C53  1  0.52072000  0.73618000  0.47199000  1.0
  C  C54  1  0.48053000  0.57252000  0.74066000  1.0
  C  C55  1  0.22253000  0.51315000  0.08127000  1.0
  C  C56  1  0.11899000  0.55716000  0.01855000  1.0
  C  C57  1  0.14541000  0.64598000  0.93191000  1.0
  C  C58  1  0.27175000  0.66861000  0.89525000  1.0
  C  C59  1  0.37151000  0.59581000  0.93546000  1.0
  C  C60  1  0.19638000  0.10405000  0.18277000  1.0
  C  C61  1  0.25163000  0.17078000  0.07794000  1.0
  C  C62  1  0.18343000  0.01919000  0.57010000  1.0
  C  C63  1  0.08027000  0.06498000  0.64768000  1.0
  C  C64  1  0.65993000  0.23050000  0.77433000  1.0
  C  C65  1  0.78847000  0.31459000  0.79668000  1.0
  S  S66  1  0.90796000  0.71499000  0.65496000  1.0
  S  S67  1  0.85117000  0.33484000  0.17872000  1.0
  S  S68  1  0.84663000  0.16563000  0.39820000  1.0
  S  S69  1  0.31827000  0.81748000  0.83289000  1.0
  S  S70  1  0.35319000  0.84896000  0.20735000  1.0
  N  N71  1  0.87254000  0.51059000  0.48315000  1.0
  N  N72  1  0.15533000  0.50579000  0.48961000  1.0
  O  O73  1  0.39520000  0.32231000  0.51306000  1.0
  O  O74  1  0.61842000  0.35058000  0.53398000  1.0
  O  O75  1  0.36941000  0.47506000  0.29886000  1.0
  O  O76  1  0.58362000  0.44916000  0.28897000  1.0
  O  O77  1  0.40771000  0.67742000  0.48244000  1.0
  O  O78  1  0.62520000  0.68711000  0.44947000  1.0
  O  O79  1  0.37318000  0.53062000  0.68771000  1.0
  O  O80  1  0.58538000  0.59154000  0.67824000  1.0
  O  O81  1  0.28749000  0.13798000  0.28723000  1.0
  O  O82  1  0.17533000  0.06874000  0.44975000  1.0
  O  O83  1  0.02927000  0.76894000  0.71822000  1.0
  O  O84  1  0.84427000  0.79486000  0.57685000  1.0
  O  O85  1  0.81924000  0.64456000  0.73605000  1.0
  O  O86  1  0.88058000  0.46933000  0.17080000  1.0
  O  O87  1  0.90900000  0.25051000  0.09830000  1.0
  O  O88  1  0.70208000  0.29747000  0.17504000  1.0
  O  O89  1  0.87750000  0.19642000  0.52390000  1.0
  O  O90  1  0.71550000  0.12740000  0.35067000  1.0
  O  O91  1  0.93351000  0.06477000  0.34827000  1.0
  O  O92  1  0.34579000  0.80208000  0.70834000  1.0
  O  O93  1  0.22742000  0.90146000  0.87291000  1.0
  O  O94  1  0.45770000  0.85976000  0.90166000  1.0
  O  O95  1  0.68284000  0.12792000  0.69174000  1.0
  O  O96  1  0.41330000  0.94321000  0.13337000  1.0
  O  O97  1  0.42299000  0.74292000  0.22889000  1.0
  O  O98  1  0.20960000  0.80158000  0.14895000  1.0
