# generated using pymatgen
data_CuH8(CO)7
_symmetry_space_group_name_H-M   'P 1'
_cell_length_a   6.47950000
_cell_length_b   8.60701000
_cell_length_c   9.63973000
_cell_angle_alpha   68.73610000
_cell_angle_beta   77.38290000
_cell_angle_gamma   85.50350000
_symmetry_Int_Tables_number   1
_chemical_formula_structural   CuH8(CO)7
_chemical_formula_sum   'Cu2 H16 C14 O14'
_cell_volume   488.90093937
_cell_formula_units_Z   2
loop_
 _symmetry_equiv_pos_site_id
 _symmetry_equiv_pos_as_xyz
  1  'x, y, z'
loop_
 _atom_site_type_symbol
 _atom_site_label
 _atom_site_symmetry_multiplicity
 _atom_site_fract_x
 _atom_site_fract_y
 _atom_site_fract_z
 _atom_site_occupancy
  Cu  Cu0  1  0.58968000  0.80978000  0.34888000  1.0
  Cu  Cu1  1  0.41031000  0.19022000  0.65112000  1.0
  H  H2  1  0.77564000  0.86285000  0.97199000  1.0
  H  H3  1  0.22436000  0.13716000  0.02800000  1.0
  H  H4  1  0.65024000  0.91312000  0.73389000  1.0
  H  H5  1  0.34974000  0.08690000  0.26611000  1.0
  H  H6  1  0.04258000  0.65404000  0.62163000  1.0
  H  H7  1  0.95743000  0.34596000  0.37836000  1.0
  H  H8  1  0.89966000  0.64326000  0.51096000  1.0
  H  H9  1  0.10036000  0.35674000  0.48902000  1.0
  H  H10  1  0.36614000  0.62055000  0.31684000  1.0
  H  H11  1  0.63386000  0.37945000  0.68316000  1.0
  H  H12  1  0.21128000  0.73554000  0.38743000  1.0
  H  H13  1  0.78872000  0.26446000  0.61256000  1.0
  H  H14  1  0.89615000  0.89696000  0.40987000  1.0
  H  H15  1  0.10385000  0.10304000  0.59012000  1.0
  H  H16  1  0.72808000  0.04930000  0.37675000  1.0
  H  H17  1  0.27192000  0.95070000  0.62325000  1.0
  C  C18  1  0.79048000  0.57366000  0.19655000  1.0
  C  C19  1  0.20951000  0.42634000  0.80346000  1.0
  C  C20  1  0.66039000  0.61172000  0.07709000  1.0
  C  C21  1  0.33959000  0.38829000  0.92292000  1.0
  C  C22  1  0.53883000  0.48498000  0.06793000  1.0
  C  C23  1  0.46116000  0.51502000  0.93208000  1.0
  C  C24  1  0.68397000  0.76717000  0.96313000  1.0
  C  C25  1  0.31602000  0.23284000  0.03687000  1.0
  C  C26  1  0.61046000  0.79614000  0.82915000  1.0
  C  C27  1  0.38953000  0.20388000  0.17085000  1.0
  C  C28  1  0.48905000  0.32914000  0.19013000  1.0
  C  C29  1  0.51096000  0.67086000  0.80988000  1.0
  C  C30  1  0.49261000  0.31020000  0.34944000  1.0
  C  C31  1  0.50741000  0.68980000  0.65057000  1.0
  O  O32  1  0.80599000  0.68178000  0.25761000  1.0
  O  O33  1  0.19402000  0.31822000  0.74241000  1.0
  O  O34  1  0.89060000  0.43768000  0.22616000  1.0
  O  O35  1  0.10939000  0.56233000  0.77384000  1.0
  O  O36  1  0.40731000  0.42290000  0.39836000  1.0
  O  O37  1  0.59271000  0.57710000  0.60164000  1.0
  O  O38  1  0.55637000  0.17326000  0.44107000  1.0
  O  O39  1  0.44363000  0.82672000  0.55893000  1.0
  O  O40  1  0.00682000  0.71436000  0.51609000  1.0
  O  O41  1  0.99319000  0.28564000  0.48390000  1.0
  O  O42  1  0.34251000  0.74139000  0.30490000  1.0
  O  O43  1  0.65749000  0.25860000  0.69510000  1.0
  O  O44  1  0.80854000  0.96508000  0.33596000  1.0
  O  O45  1  0.19147000  0.03492000  0.66404000  1.0
