# generated using pymatgen
data_KH5C6N(O2F)3
_symmetry_space_group_name_H-M   'P 1'
_cell_length_a   7.53407000
_cell_length_b   7.53409000
_cell_length_c   18.36080000
_cell_angle_alpha   89.99990000
_cell_angle_beta   89.99990000
_cell_angle_gamma   102.73600000
_symmetry_Int_Tables_number   1
_chemical_formula_structural   KH5C6N(O2F)3
_chemical_formula_sum   'K4 H20 C24 N4 O24 F12'
_cell_volume   1016.56024617
_cell_formula_units_Z   4
loop_
 _symmetry_equiv_pos_site_id
 _symmetry_equiv_pos_as_xyz
  1  'x, y, z'
loop_
 _atom_site_type_symbol
 _atom_site_label
 _atom_site_symmetry_multiplicity
 _atom_site_fract_x
 _atom_site_fract_y
 _atom_site_fract_z
 _atom_site_occupancy
  K  K0  1  0.93152000  0.37703000  0.82700000  1.0
  K  K1  1  0.06849000  0.62298000  0.32700000  1.0
  K  K2  1  0.37703000  0.93151000  0.17300000  1.0
  K  K3  1  0.62297000  0.06848000  0.67300000  1.0
  H  H4  1  0.27347000  0.86536000  0.84564000  1.0
  H  H5  1  0.72653000  0.13465000  0.34564000  1.0
  H  H6  1  0.86536000  0.27347000  0.15436000  1.0
  H  H7  1  0.13464000  0.72653000  0.65436000  1.0
  H  H8  1  0.96537000  0.94690000  0.94602000  1.0
  H  H9  1  0.03463000  0.05310000  0.44602000  1.0
  H  H10  1  0.94690000  0.96537000  0.05398000  1.0
  H  H11  1  0.05310000  0.03463000  0.55398000  1.0
  H  H12  1  0.54804000  0.03243000  0.89579000  1.0
  H  H13  1  0.45195000  0.96757000  0.39579000  1.0
  H  H14  1  0.03243000  0.54804000  0.10421000  1.0
  H  H15  1  0.96757000  0.45196000  0.60421000  1.0
  H  H16  1  0.59294000  0.05839000  0.98886000  1.0
  H  H17  1  0.40706000  0.94161000  0.48886000  1.0
  H  H18  1  0.05839000  0.59294000  0.01114000  1.0
  H  H19  1  0.94161000  0.40706000  0.51114000  1.0
  H  H20  1  0.84385000  0.75759000  0.73695000  1.0
  H  H21  1  0.15616000  0.24241000  0.23695000  1.0
  H  H22  1  0.75759000  0.84385000  0.26305000  1.0
  H  H23  1  0.24241000  0.15615000  0.76305000  1.0
  C  C24  1  0.20826000  0.86913000  0.89860000  1.0
  C  C25  1  0.79174000  0.13087000  0.39860000  1.0
  C  C26  1  0.86913000  0.20826000  0.10140000  1.0
  C  C27  1  0.13086000  0.79174000  0.60140000  1.0
  C  C28  1  0.01387000  0.87957000  0.89986000  1.0
  C  C29  1  0.98613000  0.12043000  0.39986000  1.0
  C  C30  1  0.87956000  0.01387000  0.10014000  1.0
  C  C31  1  0.12043000  0.98613000  0.60014000  1.0
  C  C32  1  0.91056000  0.88486000  0.83019000  1.0
  C  C33  1  0.08945000  0.11513000  0.33019000  1.0
  C  C34  1  0.88487000  0.91055000  0.16982000  1.0
  C  C35  1  0.11514000  0.08944000  0.66981000  1.0
  C  C36  1  0.32834000  0.93722000  0.96375000  1.0
  C  C37  1  0.67166000  0.06278000  0.46374000  1.0
  C  C38  1  0.93723000  0.32834000  0.03626000  1.0
  C  C39  1  0.06277000  0.67166000  0.53626000  1.0
  C  C40  1  0.48640000  0.51084000  0.88109000  1.0
  C  C41  1  0.51361000  0.48916000  0.38109000  1.0
  C  C42  1  0.51083000  0.48639000  0.11891000  1.0
  C  C43  1  0.48917000  0.51361000  0.61891000  1.0
  C  C44  1  0.43345000  0.33113000  0.83644000  1.0
  C  C45  1  0.56655000  0.66887000  0.33644000  1.0
  C  C46  1  0.33113000  0.43345000  0.16356000  1.0
  C  C47  1  0.66887000  0.56655000  0.66356000  1.0
  N  N48  1  0.50199000  0.01333000  0.94791000  1.0
  N  N49  1  0.49801000  0.98668000  0.44791000  1.0
  N  N50  1  0.01332000  0.50199000  0.05209000  1.0
  N  N51  1  0.98667000  0.49801000  0.55209000  1.0
  O  O52  1  0.06767000  0.71094000  0.91480000  1.0
  O  O53  1  0.93233000  0.28907000  0.41480000  1.0
  O  O54  1  0.71093000  0.06767000  0.08520000  1.0
  O  O55  1  0.28907000  0.93233000  0.58520000  1.0
  O  O56  1  0.81723000  0.99843000  0.82048000  1.0
  O  O57  1  0.18276000  0.00158000  0.32048000  1.0
  O  O58  1  0.99841000  0.81724000  0.17952000  1.0
  O  O59  1  0.00158000  0.18277000  0.67952000  1.0
  O  O60  1  0.92967000  0.75784000  0.78312000  1.0
  O  O61  1  0.07033000  0.24217000  0.28312000  1.0
  O  O62  1  0.75783000  0.92967000  0.21688000  1.0
  O  O63  1  0.24216000  0.07032000  0.71688000  1.0
  O  O64  1  0.26393000  0.91556000  0.02641000  1.0
  O  O65  1  0.73607000  0.08444000  0.52641000  1.0
  O  O66  1  0.91556000  0.26393000  0.97359000  1.0
  O  O67  1  0.08444000  0.73607000  0.47359000  1.0
  O  O68  1  0.26376000  0.28321000  0.82263000  1.0
  O  O69  1  0.73625000  0.71679000  0.32263000  1.0
  O  O70  1  0.28322000  0.26376000  0.17737000  1.0
  O  O71  1  0.71679000  0.73624000  0.67737000  1.0
  O  O72  1  0.55811000  0.25769000  0.81671000  1.0
  O  O73  1  0.44190000  0.74231000  0.31672000  1.0
  O  O74  1  0.25768000  0.55810000  0.18328000  1.0
  O  O75  1  0.74231000  0.44189000  0.68329000  1.0
  F  F76  1  0.65493000  0.53594000  0.91158000  1.0
  F  F77  1  0.34508000  0.46406000  0.41158000  1.0
  F  F78  1  0.53593000  0.65492000  0.08842000  1.0
  F  F79  1  0.46406000  0.34508000  0.58842000  1.0
  F  F80  1  0.48960000  0.65567000  0.83511000  1.0
  F  F81  1  0.51041000  0.34433000  0.33511000  1.0
  F  F82  1  0.65568000  0.48959000  0.16489000  1.0
  F  F83  1  0.34433000  0.51041000  0.66489000  1.0
  F  F84  1  0.36665000  0.52118000  0.93526000  1.0
  F  F85  1  0.63335000  0.47882000  0.43526000  1.0
  F  F86  1  0.52118000  0.36665000  0.06474000  1.0
  F  F87  1  0.47882000  0.63335000  0.56474000  1.0
