# generated using pymatgen
data_CuH7C8N3O2
_symmetry_space_group_name_H-M   'P 1'
_cell_length_a   4.96057000
_cell_length_b   6.35003000
_cell_length_c   27.12500000
_cell_angle_alpha   90.00010000
_cell_angle_beta   89.99210000
_cell_angle_gamma   89.99990000
_symmetry_Int_Tables_number   1
_chemical_formula_structural   CuH7C8N3O2
_chemical_formula_sum   'Cu4 H28 C32 N12 O8'
_cell_volume   854.43120748
_cell_formula_units_Z   4
loop_
 _symmetry_equiv_pos_site_id
 _symmetry_equiv_pos_as_xyz
  1  'x, y, z'
loop_
 _atom_site_type_symbol
 _atom_site_label
 _atom_site_symmetry_multiplicity
 _atom_site_fract_x
 _atom_site_fract_y
 _atom_site_fract_z
 _atom_site_occupancy
  Cu  Cu0  1  0.00154000  0.63044000  0.74818000  1.0
  Cu  Cu1  1  0.49830000  0.36941000  0.24820000  1.0
  Cu  Cu2  1  0.99844000  0.13044000  0.75182000  1.0
  Cu  Cu3  1  0.50171000  0.86941000  0.25180000  1.0
  H  H4  1  0.09460000  0.33972000  0.56321000  1.0
  H  H5  1  0.40533000  0.66027000  0.06317000  1.0
  H  H6  1  0.90540000  0.83971000  0.93679000  1.0
  H  H7  1  0.59469000  0.16027000  0.43683000  1.0
  H  H8  1  0.18919000  0.35026000  0.62627000  1.0
  H  H9  1  0.31072000  0.64967000  0.12625000  1.0
  H  H10  1  0.81081000  0.85026000  0.87373000  1.0
  H  H11  1  0.68930000  0.14967000  0.37375000  1.0
  H  H12  1  0.92222000  0.18543000  0.60795000  1.0
  H  H13  1  0.57767000  0.81453000  0.10792000  1.0
  H  H14  1  0.07778000  0.68541000  0.89205000  1.0
  H  H15  1  0.42235000  0.31453000  0.39208000  1.0
  H  H16  1  0.84613000  0.62879000  0.55704000  1.0
  H  H17  1  0.65391000  0.37136000  0.05712000  1.0
  H  H18  1  0.15385000  0.12879000  0.94296000  1.0
  H  H19  1  0.34608000  0.87137000  0.44288000  1.0
  H  H20  1  0.76924000  0.92095000  0.49771000  1.0
  H  H21  1  0.73058000  0.07925000  0.99776000  1.0
  H  H22  1  0.23075000  0.42095000  0.00229000  1.0
  H  H23  1  0.26942000  0.57925000  0.50224000  1.0
  H  H24  1  0.58071000  0.61428000  0.63478000  1.0
  H  H25  1  0.91952000  0.38570000  0.13482000  1.0
  H  H26  1  0.41928000  0.11429000  0.86522000  1.0
  H  H27  1  0.08048000  0.88571000  0.36518000  1.0
  H  H28  1  0.43187000  0.19944000  0.51695000  1.0
  H  H29  1  0.06788000  0.80064000  0.01694000  1.0
  H  H30  1  0.56813000  0.69944000  0.98305000  1.0
  H  H31  1  0.93214000  0.30063000  0.48306000  1.0
  C  C32  1  0.31773000  0.07040000  0.58708000  1.0
  C  C33  1  0.18219000  0.92959000  0.08707000  1.0
  C  C34  1  0.68226000  0.57039000  0.91292000  1.0
  C  C35  1  0.81782000  0.42959000  0.41293000  1.0
  C  C36  1  0.21917000  0.88652000  0.66831000  1.0
  C  C37  1  0.28089000  0.11334000  0.16830000  1.0
  C  C38  1  0.78082000  0.38652000  0.83169000  1.0
  C  C39  1  0.71912000  0.61334000  0.33170000  1.0
  C  C40  1  0.36158000  0.90038000  0.61988000  1.0
  C  C41  1  0.13850000  0.09957000  0.11989000  1.0
  C  C42  1  0.63840000  0.40038000  0.88012000  1.0
  C  C43  1  0.86152000  0.59957000  0.38011000  1.0
  C  C44  1  0.12045000  0.24525000  0.59670000  1.0
  C  C45  1  0.37945000  0.75472000  0.09667000  1.0
  C  C46  1  0.87954000  0.74524000  0.90329000  1.0
  C  C47  1  0.62057000  0.25471000  0.40333000  1.0
  C  C48  1  0.69729000  0.74994000  0.56506000  1.0
  C  C49  1  0.80274000  0.25016000  0.06511000  1.0
  C  C50  1  0.30270000  0.24995000  0.93494000  1.0
  C  C51  1  0.19727000  0.75017000  0.43489000  1.0
  C  C52  1  0.65423000  0.91495000  0.53201000  1.0
  C  C53  1  0.84565000  0.08517000  0.03205000  1.0
  C  C54  1  0.34576000  0.41496000  0.96798000  1.0
  C  C55  1  0.15436000  0.58517000  0.46795000  1.0
  C  C56  1  0.54886000  0.74188000  0.60858000  1.0
  C  C57  1  0.95124000  0.25814000  0.10861000  1.0
  C  C58  1  0.45113000  0.24188000  0.89142000  1.0
  C  C59  1  0.04877000  0.75814000  0.39139000  1.0
  C  C60  1  0.46583000  0.07118000  0.54302000  1.0
  C  C61  1  0.03402000  0.92886000  0.04303000  1.0
  C  C62  1  0.53416000  0.57118000  0.95698000  1.0
  C  C63  1  0.96599000  0.42887000  0.45697000  1.0
  N  N64  1  0.75055000  0.88165000  0.74553000  1.0
  N  N65  1  0.74973000  0.11831000  0.24569000  1.0
  N  N66  1  0.24942000  0.38165000  0.75447000  1.0
  N  N67  1  0.25028000  0.61831000  0.25432000  1.0
  N  N68  1  0.54855000  0.87936000  0.77055000  1.0
  N  N69  1  0.95261000  0.12067000  0.27041000  1.0
  N  N70  1  0.45146000  0.37935000  0.72944000  1.0
  N  N71  1  0.04740000  0.62068000  0.22959000  1.0
  N  N72  1  0.34687000  0.87765000  0.79250000  1.0
  N  N73  1  0.15499000  0.12246000  0.29219000  1.0
  N  N74  1  0.65310000  0.37764000  0.70750000  1.0
  N  N75  1  0.84502000  0.62246000  0.20781000  1.0
  O  O76  1  0.16868000  0.70269000  0.68523000  1.0
  O  O77  1  0.33127000  0.29715000  0.18527000  1.0
  O  O78  1  0.83131000  0.20268000  0.81477000  1.0
  O  O79  1  0.66873000  0.79715000  0.31473000  1.0
  O  O80  1  0.16733000  0.06102000  0.68947000  1.0
  O  O81  1  0.33281000  0.93887000  0.18947000  1.0
  O  O82  1  0.83265000  0.56102000  0.81053000  1.0
  O  O83  1  0.66721000  0.43886000  0.31053000  1.0
