# generated using pymatgen
data_CaH9C11N3O5
_symmetry_space_group_name_H-M   'P 1'
_cell_length_a   8.76567000
_cell_length_b   11.38490000
_cell_length_c   12.71700000
_cell_angle_alpha   90.00000000
_cell_angle_beta   100.19800000
_cell_angle_gamma   90.00000000
_symmetry_Int_Tables_number   1
_chemical_formula_structural   CaH9C11N3O5
_chemical_formula_sum   'Ca4 H36 C44 N12 O20'
_cell_volume   1249.05959084
_cell_formula_units_Z   4
loop_
 _symmetry_equiv_pos_site_id
 _symmetry_equiv_pos_as_xyz
  1  'x, y, z'
loop_
 _atom_site_type_symbol
 _atom_site_label
 _atom_site_symmetry_multiplicity
 _atom_site_fract_x
 _atom_site_fract_y
 _atom_site_fract_z
 _atom_site_occupancy
  Ca  Ca0  1  0.83444000  0.01223000  0.88453000  1.0
  Ca  Ca1  1  0.83444000  0.98777000  0.38453000  1.0
  Ca  Ca2  1  0.37155000  0.40835000  0.02382000  1.0
  Ca  Ca3  1  0.37156000  0.59165000  0.52382000  1.0
  H  H4  1  0.24721000  0.31312000  0.41335000  1.0
  H  H5  1  0.24721000  0.68688000  0.91335000  1.0
  H  H6  1  0.08146000  0.25900000  0.45884000  1.0
  H  H7  1  0.08146000  0.74100000  0.95884000  1.0
  H  H8  1  0.39257000  0.05871000  0.38751000  1.0
  H  H9  1  0.39257000  0.94130000  0.88752000  1.0
  H  H10  1  0.20226000  0.22383000  0.64256000  1.0
  H  H11  1  0.20226000  0.77617000  0.14256000  1.0
  H  H12  1  0.54540000  0.92925000  0.52473000  1.0
  H  H13  1  0.54539000  0.07075000  0.02473000  1.0
  H  H14  1  0.36419000  0.09127000  0.76822000  1.0
  H  H15  1  0.36419000  0.90873000  0.26822000  1.0
  H  H16  1  0.57665000  0.34804000  0.44113000  1.0
  H  H17  1  0.57665000  0.65196000  0.94112000  1.0
  H  H18  1  0.68956000  0.22765000  0.50036000  1.0
  H  H19  1  0.68956000  0.77235000  0.00036000  1.0
  H  H20  1  0.90328000  0.36607000  0.67822000  1.0
  H  H21  1  0.90328000  0.63393000  0.17822000  1.0
  H  H22  1  0.77115000  0.43468000  0.33989000  1.0
  H  H23  1  0.77115000  0.56532000  0.83989000  1.0
  H  H24  1  0.14730000  0.46739000  0.67333000  1.0
  H  H25  1  0.14729000  0.53261000  0.17333000  1.0
  H  H26  1  0.02511000  0.53780000  0.34959000  1.0
  H  H27  1  0.02511000  0.46220000  0.84959000  1.0
  H  H28  1  0.25586000  0.27946000  0.22155000  1.0
  H  H29  1  0.25586000  0.72054000  0.72155000  1.0
  H  H30  1  0.71857000  0.20207000  0.70568000  1.0
  H  H31  1  0.71856000  0.79793000  0.20568000  1.0
  H  H32  1  0.03903000  0.21645000  0.77898000  1.0
  H  H33  1  0.03903000  0.78354000  0.27898000  1.0
  H  H34  1  0.16835000  0.25164000  0.86945000  1.0
  H  H35  1  0.16835000  0.74836000  0.36945000  1.0
  H  H36  1  0.56786000  0.92489000  0.73564000  1.0
  H  H37  1  0.56786000  0.07511000  0.23564000  1.0
  H  H38  1  0.65620000  0.80170000  0.76514000  1.0
  H  H39  1  0.65620000  0.19830000  0.26514000  1.0
  C  C40  1  0.13085000  0.16609000  0.03335000  1.0
  C  C41  1  0.13086000  0.83391000  0.53335000  1.0
  C  C42  1  0.10375000  0.14342000  0.14333000  1.0
  C  C43  1  0.10375000  0.85658000  0.64333000  1.0
  C  C44  1  0.00927000  0.06605000  0.18894000  1.0
  C  C45  1  0.00927000  0.93395000  0.68894000  1.0
  C  C46  1  0.91251000  0.96158000  0.14834000  1.0
  C  C47  1  0.91251000  0.03841000  0.64835000  1.0
  C  C48  1  0.12690000  0.17856000  0.31723000  1.0
  C  C49  1  0.12690000  0.82144000  0.81723000  1.0
  C  C50  1  0.18225000  0.23230000  0.42403000  1.0
  C  C51  1  0.18225000  0.76770000  0.92403000  1.0
  C  C52  1  0.28189000  0.15201000  0.50258000  1.0
  C  C53  1  0.28189000  0.84799000  0.00259000  1.0
  C  C54  1  0.38208000  0.06853000  0.47111000  1.0
  C  C55  1  0.38208000  0.93147000  0.97111000  1.0
  C  C56  1  0.27631000  0.16056000  0.61148000  1.0
  C  C57  1  0.27631000  0.83944000  0.11149000  1.0
  C  C58  1  0.46924000  0.99685000  0.54780000  1.0
  C  C59  1  0.46924000  0.00315000  0.04780000  1.0
  C  C60  1  0.36747000  0.08594000  0.68297000  1.0
  C  C61  1  0.36747000  0.91406000  0.18297000  1.0
  C  C62  1  0.60581000  0.26366000  0.88706000  1.0
  C  C63  1  0.60581000  0.73633000  0.38706000  1.0
  C  C64  1  0.58015000  0.32323000  0.78057000  1.0
  C  C65  1  0.58014000  0.67677000  0.28057000  1.0
  C  C66  1  0.50029000  0.42282000  0.73528000  1.0
  C  C67  1  0.50028000  0.57718000  0.23527000  1.0
  C  C68  1  0.41123000  0.51864000  0.77689000  1.0
  C  C69  1  0.41123000  0.48136000  0.27689000  1.0
  C  C70  1  0.60466000  0.34094000  0.60991000  1.0
  C  C71  1  0.60465000  0.65906000  0.10991000  1.0
  C  C72  1  0.66558000  0.32182000  0.50897000  1.0
  C  C73  1  0.66558000  0.67818000  0.00897000  1.0
  C  C74  1  0.81439000  0.38947000  0.50863000  1.0
  C  C75  1  0.81439000  0.61053000  0.00863000  1.0
  C  C76  1  0.92314000  0.40199000  0.60259000  1.0
  C  C77  1  0.92314000  0.59801000  0.10259000  1.0
  C  C78  1  0.85181000  0.43929000  0.41571000  1.0
  C  C79  1  0.85181000  0.56071000  0.91571000  1.0
  C  C80  1  0.06197000  0.45976000  0.60020000  1.0
  C  C81  1  0.06196000  0.54024000  0.10020000  1.0
  C  C82  1  0.99350000  0.49671000  0.42030000  1.0
  C  C83  1  0.99350000  0.50329000  0.92030000  1.0
  N  N84  1  0.02504000  0.09110000  0.29672000  1.0
  N  N85  1  0.02504000  0.90890000  0.79672000  1.0
  N  N86  1  0.17708000  0.21130000  0.22671000  1.0
  N  N87  1  0.17708000  0.78870000  0.72671000  1.0
  N  N88  1  0.46221000  0.00494000  0.65238000  1.0
  N  N89  1  0.46221000  0.99506000  0.15238000  1.0
  N  N90  1  0.64413000  0.27472000  0.69898000  1.0
  N  N91  1  0.64413000  0.72528000  0.19897000  1.0
  N  N92  1  0.51669000  0.43118000  0.62921000  1.0
  N  N93  1  0.51668000  0.56882000  0.12921000  1.0
  N  N94  1  0.09910000  0.50652000  0.51087000  1.0
  N  N95  1  0.09910000  0.49348000  0.01087000  1.0
  O  O96  1  0.24216000  0.23502000  0.02231000  1.0
  O  O97  1  0.24216000  0.76499000  0.52231000  1.0
  O  O98  1  0.04241000  0.11944000  0.95611000  1.0
  O  O99  1  0.04241000  0.88057000  0.45610000  1.0
  O  O100  1  0.88307000  0.93415000  0.05089000  1.0
  O  O101  1  0.88307000  0.06585000  0.55089000  1.0
  O  O102  1  0.86393000  0.90052000  0.22108000  1.0
  O  O103  1  0.86392000  0.09948000  0.72108000  1.0
  O  O104  1  0.66332000  0.16093000  0.88928000  1.0
  O  O105  1  0.66332000  0.83907000  0.38927000  1.0
  O  O106  1  0.57013000  0.31593000  0.96698000  1.0
  O  O107  1  0.57013000  0.68407000  0.46698000  1.0
  O  O108  1  0.37255000  0.51334000  0.86781000  1.0
  O  O109  1  0.37255000  0.48666000  0.36781000  1.0
  O  O110  1  0.37833000  0.60604000  0.71264000  1.0
  O  O111  1  0.37833000  0.39395000  0.21264000  1.0
  O  O112  1  0.12261000  0.27433000  0.79583000  1.0
  O  O113  1  0.12261000  0.72567000  0.29583000  1.0
  O  O114  1  0.64425000  0.87923000  0.79437000  1.0
  O  O115  1  0.64425000  0.12077000  0.29437000  1.0
