# generated using pymatgen
data_ZnH24C28N4O5
_symmetry_space_group_name_H-M   'P 1'
_cell_length_a   14.66620000
_cell_length_b   19.35610000
_cell_length_c   19.63450000
_cell_angle_alpha   90.00000000
_cell_angle_beta   90.00000000
_cell_angle_gamma   90.00000000
_symmetry_Int_Tables_number   1
_chemical_formula_structural   ZnH24C28N4O5
_chemical_formula_sum   'Zn8 H192 C224 N32 O40'
_cell_volume   5573.85037784
_cell_formula_units_Z   8
loop_
 _symmetry_equiv_pos_site_id
 _symmetry_equiv_pos_as_xyz
  1  'x, y, z'
loop_
 _atom_site_type_symbol
 _atom_site_label
 _atom_site_symmetry_multiplicity
 _atom_site_fract_x
 _atom_site_fract_y
 _atom_site_fract_z
 _atom_site_occupancy
  Zn  Zn0  1  0.65288000  0.99733000  0.21039000  1.0
  Zn  Zn1  1  0.84712000  0.50267000  0.21038000  1.0
  Zn  Zn2  1  0.34712000  0.49733000  0.28961000  1.0
  Zn  Zn3  1  0.15288000  0.00267000  0.28961000  1.0
  Zn  Zn4  1  0.34712000  0.00267000  0.78961000  1.0
  Zn  Zn5  1  0.15288000  0.49733000  0.78961000  1.0
  Zn  Zn6  1  0.65288000  0.50267000  0.71039000  1.0
  Zn  Zn7  1  0.84712000  0.99733000  0.71039000  1.0
  H  H8  1  0.48799000  0.02214000  0.29976000  1.0
  H  H9  1  0.01201000  0.47786000  0.29976000  1.0
  H  H10  1  0.51201000  0.52214000  0.20024000  1.0
  H  H11  1  0.98799000  0.97786000  0.20024000  1.0
  H  H12  1  0.51201000  0.97786000  0.70024000  1.0
  H  H13  1  0.98799000  0.52214000  0.70024000  1.0
  H  H14  1  0.48799000  0.47786000  0.79976000  1.0
  H  H15  1  0.01201000  0.02214000  0.79976000  1.0
  H  H16  1  0.36202000  0.10363000  0.30771000  1.0
  H  H17  1  0.13798000  0.39637000  0.30771000  1.0
  H  H18  1  0.63798000  0.60363000  0.19229000  1.0
  H  H19  1  0.86202000  0.89637000  0.19229000  1.0
  H  H20  1  0.63798000  0.89637000  0.69229000  1.0
  H  H21  1  0.86202000  0.60363000  0.69229000  1.0
  H  H22  1  0.36202000  0.39637000  0.80771000  1.0
  H  H23  1  0.13798000  0.10363000  0.80771000  1.0
  H  H24  1  0.46200000  0.19602000  0.11913000  1.0
  H  H25  1  0.03800000  0.30398000  0.11913000  1.0
  H  H26  1  0.53800000  0.69602000  0.38086000  1.0
  H  H27  1  0.96200000  0.80398000  0.38087000  1.0
  H  H28  1  0.53800000  0.80398000  0.88087000  1.0
  H  H29  1  0.96200000  0.69602000  0.88087000  1.0
  H  H30  1  0.46200000  0.30398000  0.61914000  1.0
  H  H31  1  0.03800000  0.19602000  0.61913000  1.0
  H  H32  1  0.58726000  0.11098000  0.12317000  1.0
  H  H33  1  0.91274000  0.38902000  0.12317000  1.0
  H  H34  1  0.41274000  0.61098000  0.37683000  1.0
  H  H35  1  0.08726000  0.88903000  0.37683000  1.0
  H  H36  1  0.41274000  0.88902000  0.87683000  1.0
  H  H37  1  0.08726000  0.61098000  0.87683000  1.0
  H  H38  1  0.58726000  0.38902000  0.62317000  1.0
  H  H39  1  0.91274000  0.11098000  0.62317000  1.0
  H  H40  1  0.31862000  0.21350000  0.10912000  1.0
  H  H41  1  0.18138000  0.28650000  0.10912000  1.0
  H  H42  1  0.68138000  0.71350000  0.39088000  1.0
  H  H43  1  0.81862000  0.78650000  0.39088000  1.0
  H  H44  1  0.68138000  0.78650000  0.89088000  1.0
  H  H45  1  0.81862000  0.71350000  0.89088000  1.0
  H  H46  1  0.31862000  0.28650000  0.60912000  1.0
  H  H47  1  0.18138000  0.21350000  0.60912000  1.0
  H  H48  1  0.33822000  0.29354000  0.15141000  1.0
  H  H49  1  0.16179000  0.20646000  0.15141000  1.0
  H  H50  1  0.66179000  0.79354000  0.34859000  1.0
  H  H51  1  0.83822000  0.70646000  0.34859000  1.0
  H  H52  1  0.66179000  0.70646000  0.84859000  1.0
  H  H53  1  0.83822000  0.79354000  0.84859000  1.0
  H  H54  1  0.33822000  0.20646000  0.65142000  1.0
  H  H55  1  0.16179000  0.29354000  0.65142000  1.0
  H  H56  1  0.31756000  0.21163000  0.32091000  1.0
  H  H57  1  0.18244000  0.28837000  0.32091000  1.0
  H  H58  1  0.68244000  0.71163000  0.17909000  1.0
  H  H59  1  0.81756000  0.78837000  0.17909000  1.0
  H  H60  1  0.68244000  0.78837000  0.67909000  1.0
  H  H61  1  0.81756000  0.71163000  0.67909000  1.0
  H  H62  1  0.31756000  0.28837000  0.82091000  1.0
  H  H63  1  0.18244000  0.21163000  0.82091000  1.0
  H  H64  1  0.22145000  0.17331000  0.28155000  1.0
  H  H65  1  0.27855000  0.32669000  0.28155000  1.0
  H  H66  1  0.77855000  0.67331000  0.21845000  1.0
  H  H67  1  0.72145000  0.82669000  0.21845000  1.0
  H  H68  1  0.77855000  0.82669000  0.71845000  1.0
  H  H69  1  0.72145000  0.67331000  0.71845000  1.0
  H  H70  1  0.22145000  0.32669000  0.78155000  1.0
  H  H71  1  0.27855000  0.17331000  0.78155000  1.0
  H  H72  1  0.80632000  0.08179000  0.25166000  1.0
  H  H73  1  0.69368000  0.41821000  0.25166000  1.0
  H  H74  1  0.19368000  0.58179000  0.24834000  1.0
  H  H75  1  0.30632000  0.91821000  0.24834000  1.0
  H  H76  1  0.19368000  0.91821000  0.74834000  1.0
  H  H77  1  0.30632000  0.58179000  0.74834000  1.0
  H  H78  1  0.80632000  0.41821000  0.75166000  1.0
  H  H79  1  0.69368000  0.08179000  0.75166000  1.0
  H  H80  1  0.91332000  0.09243000  0.34535000  1.0
  H  H81  1  0.58668000  0.40757000  0.34535000  1.0
  H  H82  1  0.08668000  0.59243000  0.15465000  1.0
  H  H83  1  0.41332000  0.90757000  0.15465000  1.0
  H  H84  1  0.08668000  0.90757000  0.65465000  1.0
  H  H85  1  0.41332000  0.59243000  0.65465000  1.0
  H  H86  1  0.91332000  0.40757000  0.84535000  1.0
  H  H87  1  0.58668000  0.09243000  0.84535000  1.0
  H  H88  1  0.78052000  0.91524000  0.43850000  1.0
  H  H89  1  0.71948000  0.58476000  0.43850000  1.0
  H  H90  1  0.21948000  0.41524000  0.06150000  1.0
  H  H91  1  0.28052000  0.08476000  0.06150000  1.0
  H  H92  1  0.21948000  0.08476000  0.56150000  1.0
  H  H93  1  0.28052000  0.41524000  0.56150000  1.0
  H  H94  1  0.78052000  0.58476000  0.93850000  1.0
  H  H95  1  0.71948000  0.91524000  0.93850000  1.0
  H  H96  1  0.67500000  0.91597000  0.34125000  1.0
  H  H97  1  0.82500000  0.58403000  0.34124000  1.0
  H  H98  1  0.32500000  0.41597000  0.15875000  1.0
  H  H99  1  0.17500000  0.08403000  0.15876000  1.0
  H  H100  1  0.32500000  0.08403000  0.65876000  1.0
  H  H101  1  0.17500000  0.41597000  0.65876000  1.0
  H  H102  1  0.67500000  0.58403000  0.84124000  1.0
  H  H103  1  0.82500000  0.91597000  0.84124000  1.0
  H  H104  1  0.88464000  0.91024000  0.49782000  1.0
  H  H105  1  0.61536000  0.58976000  0.49782000  1.0
  H  H106  1  0.11536000  0.41024000  0.00218000  1.0
  H  H107  1  0.38464000  0.08976000  0.00218000  1.0
  H  H108  1  0.11536000  0.08976000  0.50217000  1.0
  H  H109  1  0.38464000  0.41024000  0.50218000  1.0
  H  H110  1  0.88464000  0.58976000  0.99783000  1.0
  H  H111  1  0.61536000  0.91024000  0.99782000  1.0
  H  H112  1  0.88338000  0.98300000  0.55288000  1.0
  H  H113  1  0.61662000  0.51700000  0.55288000  1.0
  H  H114  1  0.11662000  0.48300000  0.94712000  1.0
  H  H115  1  0.38338000  0.01700000  0.94712000  1.0
  H  H116  1  0.11662000  0.01700000  0.44712000  1.0
  H  H117  1  0.38338000  0.48300000  0.44712000  1.0
  H  H118  1  0.88338000  0.51700000  0.05288000  1.0
  H  H119  1  0.61662000  0.98300000  0.05288000  1.0
  H  H120  1  0.95153000  0.09746000  0.50150000  1.0
  H  H121  1  0.54847000  0.40254000  0.50150000  1.0
  H  H122  1  0.04847000  0.59746000  0.99850000  1.0
  H  H123  1  0.45153000  0.90254000  0.99850000  1.0
  H  H124  1  0.04847000  0.90254000  0.49850000  1.0
  H  H125  1  0.45153000  0.59746000  0.49850000  1.0
  H  H126  1  0.95153000  0.40254000  0.00150000  1.0
  H  H127  1  0.54847000  0.09746000  0.00150000  1.0
  H  H128  1  0.99441000  0.09174000  0.41662000  1.0
  H  H129  1  0.50559000  0.40826000  0.41662000  1.0
  H  H130  1  0.00559000  0.59174000  0.08338000  1.0
  H  H131  1  0.49441000  0.90826000  0.08338000  1.0
  H  H132  1  0.00559000  0.90826000  0.58338000  1.0
  H  H133  1  0.49441000  0.59174000  0.58338000  1.0
  H  H134  1  0.99441000  0.40826000  0.91662000  1.0
  H  H135  1  0.50559000  0.09174000  0.91662000  1.0
  H  H136  1  0.57090000  0.80370000  0.11265000  1.0
  H  H137  1  0.92910000  0.69630000  0.11265000  1.0
  H  H138  1  0.42910000  0.30370000  0.38735000  1.0
  H  H139  1  0.07090000  0.19630000  0.38735000  1.0
  H  H140  1  0.42910000  0.19630000  0.88735000  1.0
  H  H141  1  0.07090000  0.30370000  0.88735000  1.0
  H  H142  1  0.57090000  0.69630000  0.61265000  1.0
  H  H143  1  0.92910000  0.80370000  0.61265000  1.0
  H  H144  1  0.47802000  0.70121000  0.07687000  1.0
  H  H145  1  0.02198000  0.79879000  0.07687000  1.0
  H  H146  1  0.52198000  0.20121000  0.42313000  1.0
  H  H147  1  0.97802000  0.29879000  0.42313000  1.0
  H  H148  1  0.52198000  0.29879000  0.92313000  1.0
  H  H149  1  0.97802000  0.20121000  0.92313000  1.0
  H  H150  1  0.47802000  0.79879000  0.57687000  1.0
  H  H151  1  0.02198000  0.70121000  0.57687000  1.0
  H  H152  1  0.32655000  0.71373000  0.26413000  1.0
  H  H153  1  0.17345000  0.78627000  0.26413000  1.0
  H  H154  1  0.67345000  0.21373000  0.23587000  1.0
  H  H155  1  0.82655000  0.28627000  0.23587000  1.0
  H  H156  1  0.67345000  0.28627000  0.73587000  1.0
  H  H157  1  0.82655000  0.21373000  0.73587000  1.0
  H  H158  1  0.32655000  0.78627000  0.76413000  1.0
  H  H159  1  0.17345000  0.71373000  0.76413000  1.0
  H  H160  1  0.42129000  0.81642000  0.29980000  1.0
  H  H161  1  0.07871000  0.68358000  0.29980000  1.0
  H  H162  1  0.57871000  0.31642000  0.20020000  1.0
  H  H163  1  0.92129000  0.18358000  0.20020000  1.0
  H  H164  1  0.57871000  0.18358000  0.70020000  1.0
  H  H165  1  0.92129000  0.31642000  0.70020000  1.0
  H  H166  1  0.42129000  0.68358000  0.79980000  1.0
  H  H167  1  0.07871000  0.81642000  0.79980000  1.0
  H  H168  1  0.23244000  0.69166000  0.06182000  1.0
  H  H169  1  0.26756000  0.80834000  0.06182000  1.0
  H  H170  1  0.76755000  0.19166000  0.43818000  1.0
  H  H171  1  0.73245000  0.30834000  0.43818000  1.0
  H  H172  1  0.76755000  0.30834000  0.93818000  1.0
  H  H173  1  0.73245000  0.19166000  0.93818000  1.0
  H  H174  1  0.23245000  0.80834000  0.56182000  1.0
  H  H175  1  0.26755000  0.69166000  0.56182000  1.0
  H  H176  1  0.20689000  0.63667000  0.94732000  1.0
  H  H177  1  0.29311000  0.86333000  0.94732000  1.0
  H  H178  1  0.79311000  0.13667000  0.55268000  1.0
  H  H179  1  0.70689000  0.36333000  0.55268000  1.0
  H  H180  1  0.79311000  0.36333000  0.05268000  1.0
  H  H181  1  0.70689000  0.13667000  0.05268000  1.0
  H  H182  1  0.20689000  0.86333000  0.44732000  1.0
  H  H183  1  0.29311000  0.63667000  0.44732000  1.0
  H  H184  1  0.41413000  0.48693000  0.99076000  1.0
  H  H185  1  0.08587000  0.01307000  0.99076000  1.0
  H  H186  1  0.58587000  0.98693000  0.50924000  1.0
  H  H187  1  0.91413000  0.51307000  0.50924000  1.0
  H  H188  1  0.58587000  0.51307000  0.00924000  1.0
  H  H189  1  0.91413000  0.98693000  0.00924000  1.0
  H  H190  1  0.41413000  0.01307000  0.49076000  1.0
  H  H191  1  0.08587000  0.48693000  0.49076000  1.0
  H  H192  1  0.44529000  0.54479000  0.10322000  1.0
  H  H193  1  0.05471000  0.95521000  0.10322000  1.0
  H  H194  1  0.55471000  0.04479000  0.39678000  1.0
  H  H195  1  0.94529000  0.45521000  0.39678000  1.0
  H  H196  1  0.55471000  0.45521000  0.89678000  1.0
  H  H197  1  0.94529000  0.04479000  0.89678000  1.0
  H  H198  1  0.44529000  0.95521000  0.60322000  1.0
  H  H199  1  0.05471000  0.54479000  0.60322000  1.0
  C  C200  1  0.48134000  0.06322000  0.26213000  1.0
  C  C201  1  0.01867000  0.43678000  0.26213000  1.0
  C  C202  1  0.51867000  0.56322000  0.23787000  1.0
  C  C203  1  0.98134000  0.93678000  0.23787000  1.0
  C  C204  1  0.51867000  0.93678000  0.73787000  1.0
  C  C205  1  0.98134000  0.56322000  0.73787000  1.0
  C  C206  1  0.48134000  0.43678000  0.76213000  1.0
  C  C207  1  0.01866000  0.06322000  0.76213000  1.0
  C  C208  1  0.41023000  0.10966000  0.26594000  1.0
  C  C209  1  0.08976000  0.39034000  0.26594000  1.0
  C  C210  1  0.58977000  0.60966000  0.23406000  1.0
  C  C211  1  0.91023000  0.89034000  0.23406000  1.0
  C  C212  1  0.58976000  0.89034000  0.73406000  1.0
  C  C213  1  0.91023000  0.60966000  0.73406000  1.0
  C  C214  1  0.41023000  0.39034000  0.76594000  1.0
  C  C215  1  0.08977000  0.10966000  0.76594000  1.0
  C  C216  1  0.39873000  0.15937000  0.21370000  1.0
  C  C217  1  0.10127000  0.34064000  0.21370000  1.0
  C  C218  1  0.60127000  0.65936000  0.28630000  1.0
  C  C219  1  0.89873000  0.84064000  0.28630000  1.0
  C  C220  1  0.60127000  0.84064000  0.78630000  1.0
  C  C221  1  0.89873000  0.65936000  0.78630000  1.0
  C  C222  1  0.39873000  0.34064000  0.71370000  1.0
  C  C223  1  0.10127000  0.15936000  0.71370000  1.0
  C  C224  1  0.46373000  0.15834000  0.16025000  1.0
  C  C225  1  0.03627000  0.34166000  0.16025000  1.0
  C  C226  1  0.53627000  0.65834000  0.33974000  1.0
  C  C227  1  0.96373000  0.84166000  0.33974000  1.0
  C  C228  1  0.53627000  0.84166000  0.83974000  1.0
  C  C229  1  0.96373000  0.65834000  0.83974000  1.0
  C  C230  1  0.46373000  0.34166000  0.66026000  1.0
  C  C231  1  0.03627000  0.15834000  0.66026000  1.0
  C  C232  1  0.53439000  0.11122000  0.16214000  1.0
  C  C233  1  0.96561000  0.38878000  0.16214000  1.0
  C  C234  1  0.46561000  0.61122000  0.33786000  1.0
  C  C235  1  0.03439000  0.88878000  0.33786000  1.0
  C  C236  1  0.46561000  0.88878000  0.83786000  1.0
  C  C237  1  0.03439000  0.61122000  0.83786000  1.0
  C  C238  1  0.53439000  0.38878000  0.66214000  1.0
  C  C239  1  0.96561000  0.11122000  0.66214000  1.0
  C  C240  1  0.30141000  0.24382000  0.15470000  1.0
  C  C241  1  0.19859000  0.25618000  0.15470000  1.0
  C  C242  1  0.69859000  0.74382000  0.34530000  1.0
  C  C243  1  0.80141000  0.75618000  0.34530000  1.0
  C  C244  1  0.69859000  0.75618000  0.84530000  1.0
  C  C245  1  0.80141000  0.74382000  0.84530000  1.0
  C  C246  1  0.30141000  0.25618000  0.65470000  1.0
  C  C247  1  0.19859000  0.24382000  0.65470000  1.0
  C  C248  1  0.27271000  0.21457000  0.27616000  1.0
  C  C249  1  0.22729000  0.28543000  0.27616000  1.0
  C  C250  1  0.72729000  0.71457000  0.22384000  1.0
  C  C251  1  0.77271000  0.78543000  0.22384000  1.0
  C  C252  1  0.72729000  0.78543000  0.72384000  1.0
  C  C253  1  0.77271000  0.71457000  0.72384000  1.0
  C  C254  1  0.27271000  0.28543000  0.77616000  1.0
  C  C255  1  0.22729000  0.21457000  0.77616000  1.0
  C  C256  1  0.80340000  0.04548000  0.29403000  1.0
  C  C257  1  0.69660000  0.45452000  0.29404000  1.0
  C  C258  1  0.19660000  0.54548000  0.20596000  1.0
  C  C259  1  0.30340000  0.95452000  0.20596000  1.0
  C  C260  1  0.19660000  0.95452000  0.70596000  1.0
  C  C261  1  0.30340000  0.54548000  0.70596000  1.0
  C  C262  1  0.80340000  0.45452000  0.79404000  1.0
  C  C263  1  0.69660000  0.04548000  0.79404000  1.0
  C  C264  1  0.86449000  0.05046000  0.34697000  1.0
  C  C265  1  0.63551000  0.44954000  0.34697000  1.0
  C  C266  1  0.13551000  0.55046000  0.15303000  1.0
  C  C267  1  0.36449000  0.94954000  0.15303000  1.0
  C  C268  1  0.13551000  0.94954000  0.65303000  1.0
  C  C269  1  0.36449000  0.55046000  0.65303000  1.0
  C  C270  1  0.86449000  0.44954000  0.84697000  1.0
  C  C271  1  0.63551000  0.05046000  0.84697000  1.0
  C  C272  1  0.86279000  0.00201000  0.40111000  1.0
  C  C273  1  0.63721000  0.49799000  0.40111000  1.0
  C  C274  1  0.13721000  0.50201000  0.09889000  1.0
  C  C275  1  0.36279000  0.99799000  0.09889000  1.0
  C  C276  1  0.13721000  0.99799000  0.59889000  1.0
  C  C277  1  0.36279000  0.50201000  0.59889000  1.0
  C  C278  1  0.86279000  0.49799000  0.90111000  1.0
  C  C279  1  0.63721000  0.00201000  0.90111000  1.0
  C  C280  1  0.79191000  0.95231000  0.39782000  1.0
  C  C281  1  0.70809000  0.54769000  0.39782000  1.0
  C  C282  1  0.20809000  0.45231000  0.10218000  1.0
  C  C283  1  0.29191000  0.04769000  0.10218000  1.0
  C  C284  1  0.20809000  0.04769000  0.60218000  1.0
  C  C285  1  0.29191000  0.45231000  0.60218000  1.0
  C  C286  1  0.79191000  0.54769000  0.89782000  1.0
  C  C287  1  0.70809000  0.95231000  0.89782000  1.0
  C  C288  1  0.73197000  0.95208000  0.34356000  1.0
  C  C289  1  0.76803000  0.54792000  0.34356000  1.0
  C  C290  1  0.26803000  0.45208000  0.15644000  1.0
  C  C291  1  0.23197000  0.04792000  0.15644000  1.0
  C  C292  1  0.26803000  0.04792000  0.65644000  1.0
  C  C293  1  0.23197000  0.45208000  0.65644000  1.0
  C  C294  1  0.73197000  0.54792000  0.84356000  1.0
  C  C295  1  0.76803000  0.95208000  0.84356000  1.0
  C  C296  1  0.92103000  0.95771000  0.51113000  1.0
  C  C297  1  0.57897000  0.54229000  0.51113000  1.0
  C  C298  1  0.07897000  0.45771000  0.98887000  1.0
  C  C299  1  0.42103000  0.04229000  0.98887000  1.0
  C  C300  1  0.07897000  0.04229000  0.48887000  1.0
  C  C301  1  0.42103000  0.45771000  0.48887000  1.0
  C  C302  1  0.92103000  0.54229000  0.01113000  1.0
  C  C303  1  0.57897000  0.95771000  0.01113000  1.0
  C  C304  1  0.98444000  0.06300000  0.46389000  1.0
  C  C305  1  0.51556000  0.43700000  0.46389000  1.0
  C  C306  1  0.01556000  0.56300000  0.03611000  1.0
  C  C307  1  0.48444000  0.93700000  0.03611000  1.0
  C  C308  1  0.01556000  0.93700000  0.53611000  1.0
  C  C309  1  0.48444000  0.56300000  0.53611000  1.0
  C  C310  1  0.98444000  0.43700000  0.96389000  1.0
  C  C311  1  0.51556000  0.06300000  0.96389000  1.0
  C  C312  1  0.55382000  0.87902000  0.22894000  1.0
  C  C313  1  0.94618000  0.62098000  0.22895000  1.0
  C  C314  1  0.44618000  0.37902000  0.27106000  1.0
  C  C315  1  0.05382000  0.12098000  0.27106000  1.0
  C  C316  1  0.44618000  0.12098000  0.77106000  1.0
  C  C317  1  0.05382000  0.37902000  0.77105000  1.0
  C  C318  1  0.55382000  0.62098000  0.72894000  1.0
  C  C319  1  0.94618000  0.87902000  0.72894000  1.0
  C  C320  1  0.50155000  0.81615000  0.20833000  1.0
  C  C321  1  0.99845000  0.68385000  0.20833000  1.0
  C  C322  1  0.49845000  0.31615000  0.29167000  1.0
  C  C323  1  0.00155000  0.18385000  0.29167000  1.0
  C  C324  1  0.49845000  0.18385000  0.79167000  1.0
  C  C325  1  0.00155000  0.31615000  0.79167000  1.0
  C  C326  1  0.50155000  0.68385000  0.70833000  1.0
  C  C327  1  0.99845000  0.81615000  0.70833000  1.0
  C  C328  1  0.51694000  0.78382000  0.14542000  1.0
  C  C329  1  0.98306000  0.71618000  0.14542000  1.0
  C  C330  1  0.48306000  0.28382000  0.35458000  1.0
  C  C331  1  0.01694000  0.21618000  0.35458000  1.0
  C  C332  1  0.48306000  0.21618000  0.85458000  1.0
  C  C333  1  0.01694000  0.28382000  0.85458000  1.0
  C  C334  1  0.51694000  0.71618000  0.64542000  1.0
  C  C335  1  0.98306000  0.78382000  0.64542000  1.0
  C  C336  1  0.46515000  0.72715000  0.12517000  1.0
  C  C337  1  0.03484000  0.77285000  0.12517000  1.0
  C  C338  1  0.53484000  0.22715000  0.37483000  1.0
  C  C339  1  0.96516000  0.27285000  0.37483000  1.0
  C  C340  1  0.53484000  0.27285000  0.87483000  1.0
  C  C341  1  0.96516000  0.22715000  0.87483000  1.0
  C  C342  1  0.46516000  0.77285000  0.62517000  1.0
  C  C343  1  0.03484000  0.72715000  0.62517000  1.0
  C  C344  1  0.39686000  0.70263000  0.16875000  1.0
  C  C345  1  0.10314000  0.79737000  0.16875000  1.0
  C  C346  1  0.60314000  0.20263000  0.33125000  1.0
  C  C347  1  0.89686000  0.29737000  0.33125000  1.0
  C  C348  1  0.60314000  0.29737000  0.83125000  1.0
  C  C349  1  0.89686000  0.20263000  0.83125000  1.0
  C  C350  1  0.39686000  0.79737000  0.66875000  1.0
  C  C351  1  0.10314000  0.70263000  0.66875000  1.0
  C  C352  1  0.38019000  0.73443000  0.23162000  1.0
  C  C353  1  0.11981000  0.76556000  0.23162000  1.0
  C  C354  1  0.61981000  0.23443000  0.26838000  1.0
  C  C355  1  0.88019000  0.26557000  0.26838000  1.0
  C  C356  1  0.61981000  0.26556000  0.76838000  1.0
  C  C357  1  0.88019000  0.23444000  0.76838000  1.0
  C  C358  1  0.38019000  0.76557000  0.73162000  1.0
  C  C359  1  0.11981000  0.73444000  0.73162000  1.0
  C  C360  1  0.43273000  0.79061000  0.25117000  1.0
  C  C361  1  0.06727000  0.70939000  0.25117000  1.0
  C  C362  1  0.56727000  0.29061000  0.24882000  1.0
  C  C363  1  0.93273000  0.20939000  0.24882000  1.0
  C  C364  1  0.56727000  0.20939000  0.74883000  1.0
  C  C365  1  0.93273000  0.29061000  0.74883000  1.0
  C  C366  1  0.43273000  0.70939000  0.75118000  1.0
  C  C367  1  0.06727000  0.79061000  0.75118000  1.0
  C  C368  1  0.33985000  0.62072000  0.08806000  1.0
  C  C369  1  0.16015000  0.87928000  0.08806000  1.0
  C  C370  1  0.66015000  0.12072000  0.41194000  1.0
  C  C371  1  0.83985000  0.37928000  0.41194000  1.0
  C  C372  1  0.66015000  0.37928000  0.91194000  1.0
  C  C373  1  0.83985000  0.12072000  0.91194000  1.0
  C  C374  1  0.33985000  0.87928000  0.58806000  1.0
  C  C375  1  0.16015000  0.62072000  0.58806000  1.0
  C  C376  1  0.27376000  0.64818000  0.04468000  1.0
  C  C377  1  0.22624000  0.85182000  0.04468000  1.0
  C  C378  1  0.72624000  0.14818000  0.45532000  1.0
  C  C379  1  0.77376000  0.35182000  0.45532000  1.0
  C  C380  1  0.72624000  0.35182000  0.95532000  1.0
  C  C381  1  0.77376000  0.14818000  0.95532000  1.0
  C  C382  1  0.27376000  0.85182000  0.54468000  1.0
  C  C383  1  0.22624000  0.64818000  0.54468000  1.0
  C  C384  1  0.25895000  0.61697000  0.98179000  1.0
  C  C385  1  0.24105000  0.88303000  0.98179000  1.0
  C  C386  1  0.74105000  0.11697000  0.51821000  1.0
  C  C387  1  0.75895000  0.38303000  0.51821000  1.0
  C  C388  1  0.74105000  0.38303000  0.01821000  1.0
  C  C389  1  0.75895000  0.11697000  0.01821000  1.0
  C  C390  1  0.25895000  0.88303000  0.48179000  1.0
  C  C391  1  0.24105000  0.61697000  0.48179000  1.0
  C  C392  1  0.30816000  0.55787000  0.96284000  1.0
  C  C393  1  0.19184000  0.94213000  0.96284000  1.0
  C  C394  1  0.69184000  0.05787000  0.53716000  1.0
  C  C395  1  0.80816000  0.44212000  0.53716000  1.0
  C  C396  1  0.69184000  0.44212000  0.03716000  1.0
  C  C397  1  0.80816000  0.05787000  0.03716000  1.0
  C  C398  1  0.30816000  0.94213000  0.46284000  1.0
  C  C399  1  0.19184000  0.55787000  0.46284000  1.0
  C  C400  1  0.37664000  0.53301000  0.00607000  1.0
  C  C401  1  0.12336000  0.96699000  0.00607000  1.0
  C  C402  1  0.62336000  0.03301000  0.49393000  1.0
  C  C403  1  0.87664000  0.46699000  0.49393000  1.0
  C  C404  1  0.62336000  0.46699000  0.99393000  1.0
  C  C405  1  0.87664000  0.03301000  0.99393000  1.0
  C  C406  1  0.37664000  0.96699000  0.50607000  1.0
  C  C407  1  0.12336000  0.53301000  0.50607000  1.0
  C  C408  1  0.39358000  0.56465000  0.06858000  1.0
  C  C409  1  0.10642000  0.93535000  0.06858000  1.0
  C  C410  1  0.60642000  0.06465000  0.43142000  1.0
  C  C411  1  0.89358000  0.43535000  0.43142000  1.0
  C  C412  1  0.60642000  0.43535000  0.93142000  1.0
  C  C413  1  0.89358000  0.06465000  0.93142000  1.0
  C  C414  1  0.39358000  0.93535000  0.56858000  1.0
  C  C415  1  0.10642000  0.56465000  0.56858000  1.0
  C  C416  1  0.28228000  0.51742000  0.90018000  1.0
  C  C417  1  0.21772000  0.98258000  0.90018000  1.0
  C  C418  1  0.71772000  0.01742000  0.59982000  1.0
  C  C419  1  0.78228000  0.48258000  0.59982000  1.0
  C  C420  1  0.71772000  0.48258000  0.09982000  1.0
  C  C421  1  0.78228000  0.01742000  0.09982000  1.0
  C  C422  1  0.28228000  0.98258000  0.40018000  1.0
  C  C423  1  0.21772000  0.51742000  0.40018000  1.0
  N  N424  1  0.54462000  0.06356000  0.21188000  1.0
  N  N425  1  0.95538000  0.43644000  0.21188000  1.0
  N  N426  1  0.45538000  0.56356000  0.28812000  1.0
  N  N427  1  0.04462000  0.93644000  0.28812000  1.0
  N  N428  1  0.45538000  0.93644000  0.78812000  1.0
  N  N429  1  0.04462000  0.56356000  0.78812000  1.0
  N  N430  1  0.54462000  0.43644000  0.71188000  1.0
  N  N431  1  0.95538000  0.06356000  0.71188000  1.0
  N  N432  1  0.32813000  0.20495000  0.21491000  1.0
  N  N433  1  0.17188000  0.29505000  0.21491000  1.0
  N  N434  1  0.67188000  0.70495000  0.28509000  1.0
  N  N435  1  0.82812000  0.79505000  0.28509000  1.0
  N  N436  1  0.67188000  0.79504000  0.78509000  1.0
  N  N437  1  0.82812000  0.70495000  0.78509000  1.0
  N  N438  1  0.32812000  0.29505000  0.71491000  1.0
  N  N439  1  0.17188000  0.20495000  0.71491000  1.0
  N  N440  1  0.73709000  0.99704000  0.29106000  1.0
  N  N441  1  0.76291000  0.50296000  0.29106000  1.0
  N  N442  1  0.26291000  0.49704000  0.20894000  1.0
  N  N443  1  0.23709000  0.00296000  0.20894000  1.0
  N  N444  1  0.26291000  0.00296000  0.70894000  1.0
  N  N445  1  0.23709000  0.49704000  0.70894000  1.0
  N  N446  1  0.73709000  0.50296000  0.79106000  1.0
  N  N447  1  0.76291000  0.99704000  0.79106000  1.0
  N  N448  1  0.92621000  0.00319000  0.45214000  1.0
  N  N449  1  0.57379000  0.49681000  0.45214000  1.0
  N  N450  1  0.07379000  0.50319000  0.04786000  1.0
  N  N451  1  0.42621000  0.99681000  0.04786000  1.0
  N  N452  1  0.07379000  0.99681000  0.54786000  1.0
  N  N453  1  0.42621000  0.50319000  0.54786000  1.0
  N  N454  1  0.92621000  0.49681000  0.95214000  1.0
  N  N455  1  0.57379000  0.00319000  0.95214000  1.0
  O  O456  1  0.60504000  0.90601000  0.18154000  1.0
  O  O457  1  0.89496000  0.59399000  0.18154000  1.0
  O  O458  1  0.39496000  0.40601000  0.31846000  1.0
  O  O459  1  0.10504000  0.09399000  0.31846000  1.0
  O  O460  1  0.39496000  0.09399000  0.81846000  1.0
  O  O461  1  0.10504000  0.40601000  0.81846000  1.0
  O  O462  1  0.60504000  0.59399000  0.68154000  1.0
  O  O463  1  0.89496000  0.90601000  0.68154000  1.0
  O  O464  1  0.54567000  0.90325000  0.28786000  1.0
  O  O465  1  0.95433000  0.59675000  0.28786000  1.0
  O  O466  1  0.45433000  0.40325000  0.21214000  1.0
  O  O467  1  0.04567000  0.09675000  0.21214000  1.0
  O  O468  1  0.45433000  0.09675000  0.71214000  1.0
  O  O469  1  0.04567000  0.40325000  0.71214000  1.0
  O  O470  1  0.54567000  0.59675000  0.78786000  1.0
  O  O471  1  0.95433000  0.90325000  0.78786000  1.0
  O  O472  1  0.34468000  0.64573000  0.15452000  1.0
  O  O473  1  0.15532000  0.85427000  0.15452000  1.0
  O  O474  1  0.65532000  0.14573000  0.34548000  1.0
  O  O475  1  0.84468000  0.35427000  0.34548000  1.0
  O  O476  1  0.65532000  0.35427000  0.84548000  1.0
  O  O477  1  0.84468000  0.14573000  0.84548000  1.0
  O  O478  1  0.34468000  0.85427000  0.65452000  1.0
  O  O479  1  0.15532000  0.64573000  0.65452000  1.0
  O  O480  1  0.21949000  0.54658000  0.86298000  1.0
  O  O481  1  0.28051000  0.95342000  0.86298000  1.0
  O  O482  1  0.78051000  0.04658000  0.63702000  1.0
  O  O483  1  0.71949000  0.45342000  0.63702000  1.0
  O  O484  1  0.78051000  0.45342000  0.13702000  1.0
  O  O485  1  0.71949000  0.04658000  0.13702000  1.0
  O  O486  1  0.21949000  0.95342000  0.36298000  1.0
  O  O487  1  0.28051000  0.54658000  0.36298000  1.0
  O  O488  1  0.31729000  0.45978000  0.88945000  1.0
  O  O489  1  0.18271000  0.04022000  0.88945000  1.0
  O  O490  1  0.68271000  0.95978000  0.61055000  1.0
  O  O491  1  0.81729000  0.54021000  0.61055000  1.0
  O  O492  1  0.68271000  0.54021000  0.11055000  1.0
  O  O493  1  0.81729000  0.95978000  0.11055000  1.0
  O  O494  1  0.31729000  0.04022000  0.38945000  1.0
  O  O495  1  0.18271000  0.45978000  0.38945000  1.0
