# generated using pymatgen
data_ZnH12C27N3O10
_symmetry_space_group_name_H-M   'P 1'
_cell_length_a   13.80800000
_cell_length_b   15.19430000
_cell_length_c   19.10210000
_cell_angle_alpha   89.72870000
_cell_angle_beta   89.33060000
_cell_angle_gamma   89.41680000
_symmetry_Int_Tables_number   1
_chemical_formula_structural   ZnH12C27N3O10
_chemical_formula_sum   'Zn2 H24 C54 N6 O20'
_cell_volume   4007.15205174
_cell_formula_units_Z   2
loop_
 _symmetry_equiv_pos_site_id
 _symmetry_equiv_pos_as_xyz
  1  'x, y, z'
loop_
 _atom_site_type_symbol
 _atom_site_label
 _atom_site_symmetry_multiplicity
 _atom_site_fract_x
 _atom_site_fract_y
 _atom_site_fract_z
 _atom_site_occupancy
  Zn  Zn0  1  0.39754000  0.50385000  0.50209000  1.0
  Zn  Zn1  1  0.59882000  0.50949000  0.50237000  1.0
  H  H2  1  0.34502000  0.49429000  0.27915000  1.0
  H  H3  1  0.65659000  0.48114000  0.72349000  1.0
  H  H4  1  0.34584000  0.47795000  0.72490000  1.0
  H  H5  1  0.65463000  0.46706000  0.28186000  1.0
  H  H6  1  0.34507000  0.45781000  0.15129000  1.0
  H  H7  1  0.65692000  0.44470000  0.85170000  1.0
  H  H8  1  0.34528000  0.44246000  0.85331000  1.0
  H  H9  1  0.65593000  0.43321000  0.15334000  1.0
  H  H10  1  0.35717000  0.79007000  0.44312000  1.0
  H  H11  1  0.64061000  0.22266000  0.56083000  1.0
  H  H12  1  0.69989000  0.91578000  0.60066000  1.0
  H  H13  1  0.30593000  0.09624000  0.39518000  1.0
  H  H14  1  0.70900000  0.07802000  0.59760000  1.0
  H  H15  1  0.29445000  0.93483000  0.40077000  1.0
  H  H16  1  0.25039000  0.59840000  0.42896000  1.0
  H  H17  1  0.74571000  0.41183000  0.57455000  1.0
  H  H18  1  0.24377000  0.38823000  0.56628000  1.0
  H  H19  1  0.75234000  0.61877000  0.43440000  1.0
  H  H20  1  0.62689000  0.66262000  0.64306000  1.0
  H  H21  1  0.37458000  0.32354000  0.33420000  1.0
  H  H22  1  0.18608000  0.21760000  0.62860000  1.0
  H  H23  1  0.80187000  0.71430000  0.30527000  1.0
  H  H24  1  0.19506000  0.77654000  0.36134000  1.0
  H  H25  1  0.80328000  0.31897000  0.71153000  1.0
  C  C26  1  0.51454000  0.33582000  0.50272000  1.0
  C  C27  1  0.48234000  0.67657000  0.50077000  1.0
  C  C28  1  0.56169000  0.81627000  0.53912000  1.0
  C  C29  1  0.44202000  0.19597000  0.45868000  1.0
  C  C30  1  0.56985000  0.90880000  0.53757000  1.0
  C  C31  1  0.43482000  0.10336000  0.45966000  1.0
  C  C32  1  0.49908000  0.95935000  0.50002000  1.0
  C  C33  1  0.50492000  0.05284000  0.49784000  1.0
  C  C34  1  0.42184000  0.91632000  0.46517000  1.0
  C  C35  1  0.58099000  0.09607000  0.53383000  1.0
  C  C36  1  0.64551000  0.95436000  0.57289000  1.0
  C  C37  1  0.35965000  0.05786000  0.42378000  1.0
  C  C38  1  0.65075000  0.04404000  0.57096000  1.0
  C  C39  1  0.35320000  0.96839000  0.42717000  1.0
  C  C40  1  0.20402000  0.55381000  0.45866000  1.0
  C  C41  1  0.79223000  0.45504000  0.54372000  1.0
  C  C42  1  0.20028000  0.43540000  0.53701000  1.0
  C  C43  1  0.79587000  0.57120000  0.46316000  1.0
  C  C44  1  0.09851000  0.43445000  0.53935000  1.0
  C  C45  1  0.89738000  0.56841000  0.45723000  1.0
  C  C46  1  0.10286000  0.55930000  0.45628000  1.0
  C  C47  1  0.89333000  0.44772000  0.54429000  1.0
  C  C48  1  0.04914000  0.49923000  0.49841000  1.0
  C  C49  1  0.94680000  0.50518000  0.49967000  1.0
  C  C50  1  0.04271000  0.37534000  0.58310000  1.0
  C  C51  1  0.95318000  0.62644000  0.41245000  1.0
  C  C52  1  0.05290000  0.62261000  0.41335000  1.0
  C  C53  1  0.94339000  0.38365000  0.58649000  1.0
  C  C54  1  0.49918000  0.49709000  0.36554000  1.0
  C  C55  1  0.50068000  0.50004000  0.63971000  1.0
  C  C56  1  0.41261000  0.48003000  0.25119000  1.0
  C  C57  1  0.58885000  0.47245000  0.75245000  1.0
  C  C58  1  0.41333000  0.47059000  0.75338000  1.0
  C  C59  1  0.58759000  0.46549000  0.25244000  1.0
  C  C60  1  0.41257000  0.46034000  0.18019000  1.0
  C  C61  1  0.58917000  0.45227000  0.82348000  1.0
  C  C62  1  0.41306000  0.45094000  0.82445000  1.0
  C  C63  1  0.58822000  0.44660000  0.18134000  1.0
  C  C64  1  0.50052000  0.44288000  0.14477000  1.0
  C  C65  1  0.50111000  0.44109000  0.86004000  1.0
  C  C66  1  0.49991000  0.48177000  0.28801000  1.0
  C  C67  1  0.50101000  0.48143000  0.71680000  1.0
  C  C68  1  0.50099000  0.42124000  0.93512000  1.0
  C  C69  1  0.50063000  0.42226000  0.06999000  1.0
  C  C70  1  0.41592000  0.82436000  0.46883000  1.0
  C  C71  1  0.58422000  0.18828000  0.53264000  1.0
  C  C72  1  0.48525000  0.77498000  0.50438000  1.0
  C  C73  1  0.51512000  0.23771000  0.49660000  1.0
  C  C74  1  0.63192000  0.75953000  0.57863000  1.0
  C  C75  1  0.37347000  0.24875000  0.41431000  1.0
  C  C76  1  0.08848000  0.30595000  0.62851000  1.0
  C  C77  1  0.90838000  0.69319000  0.36430000  1.0
  C  C78  1  0.11345000  0.67789000  0.36406000  1.0
  C  C79  1  0.88274000  0.32156000  0.63018000  1.0
  N  N80  1  0.58623000  0.40783000  0.03642000  1.0
  N  N81  1  0.41527000  0.40965000  0.96889000  1.0
  N  N82  1  0.58650000  0.40681000  0.96753000  1.0
  N  N83  1  0.41496000  0.40964000  0.03776000  1.0
  N  N84  1  0.24971000  0.49427000  0.49862000  1.0
  N  N85  1  0.74665000  0.51516000  0.50428000  1.0
  O  O86  1  0.43240000  0.37327000  0.49495000  1.0
  O  O87  1  0.56384000  0.63862000  0.48982000  1.0
  O  O88  1  0.40093000  0.63917000  0.50727000  1.0
  O  O89  1  0.59338000  0.37432000  0.51641000  1.0
  O  O90  1  0.41726000  0.51286000  0.39465000  1.0
  O  O91  1  0.58148000  0.52009000  0.61074000  1.0
  O  O92  1  0.42020000  0.49307000  0.60855000  1.0
  O  O93  1  0.58008000  0.49108000  0.39660000  1.0
  O  O94  1  0.71959000  0.75657000  0.56918000  1.0
  O  O95  1  0.58433000  0.71107000  0.62782000  1.0
  O  O96  1  0.28547000  0.25187000  0.42141000  1.0
  O  O97  1  0.42187000  0.28818000  0.36038000  1.0
  O  O98  1  0.06034000  0.28923000  0.68782000  1.0
  O  O99  1  0.16248000  0.26286000  0.59601000  1.0
  O  O100  1  0.94563000  0.76356000  0.35004000  1.0
  O  O101  1  0.82382000  0.66647000  0.33611000  1.0
  O  O102  1  0.12582000  0.65944000  0.30266000  1.0
  O  O103  1  0.15775000  0.74467000  0.39725000  1.0
  O  O104  1  0.86802000  0.24539000  0.61442000  1.0
  O  O105  1  0.84180000  0.36289000  0.68600000  1.0
