# generated using pymatgen
data_ZnH20C26(NO2)2
_symmetry_space_group_name_H-M   'P 1'
_cell_length_a   9.86517000
_cell_length_b   14.93880000
_cell_length_c   18.02010000
_cell_angle_alpha   85.71570000
_cell_angle_beta   89.99990000
_cell_angle_gamma   89.99950000
_symmetry_Int_Tables_number   1
_chemical_formula_structural   ZnH20C26(NO2)2
_chemical_formula_sum   'Zn4 H80 C104 N8 O16'
_cell_volume   2648.26969035
_cell_formula_units_Z   4
loop_
 _symmetry_equiv_pos_site_id
 _symmetry_equiv_pos_as_xyz
  1  'x, y, z'
loop_
 _atom_site_type_symbol
 _atom_site_label
 _atom_site_symmetry_multiplicity
 _atom_site_fract_x
 _atom_site_fract_y
 _atom_site_fract_z
 _atom_site_occupancy
  Zn  Zn0  1  0.61043000  0.63345000  0.28087000  1.0
  Zn  Zn1  1  0.61043000  0.86655000  0.71913000  1.0
  Zn  Zn2  1  0.38957000  0.36655000  0.71913000  1.0
  Zn  Zn3  1  0.38957000  0.13345000  0.28087000  1.0
  H  H4  1  0.90357000  0.75959000  0.41663000  1.0
  H  H5  1  0.90358000  0.74042000  0.58338000  1.0
  H  H6  1  0.09643000  0.24041000  0.58338000  1.0
  H  H7  1  0.09643000  0.25959000  0.41662000  1.0
  H  H8  1  0.06537000  0.86751000  0.46931000  1.0
  H  H9  1  0.06537000  0.63249000  0.53069000  1.0
  H  H10  1  0.93463000  0.13249000  0.53069000  1.0
  H  H11  1  0.93463000  0.36751000  0.46931000  1.0
  H  H12  1  0.05054000  0.03006000  0.42971000  1.0
  H  H13  1  0.05053000  0.46993000  0.57029000  1.0
  H  H14  1  0.94947000  0.96994000  0.57029000  1.0
  H  H15  1  0.94947000  0.53006000  0.42971000  1.0
  H  H16  1  0.87401000  0.08562000  0.33811000  1.0
  H  H17  1  0.87400000  0.41438000  0.66189000  1.0
  H  H18  1  0.12599000  0.91438000  0.66189000  1.0
  H  H19  1  0.12599000  0.58563000  0.33811000  1.0
  H  H20  1  0.72072000  0.97602000  0.28198000  1.0
  H  H21  1  0.72072000  0.52399000  0.71802000  1.0
  H  H22  1  0.27928000  0.02399000  0.71802000  1.0
  H  H23  1  0.27928000  0.47602000  0.28198000  1.0
  H  H24  1  0.29270000  0.64207000  0.10602000  1.0
  H  H25  1  0.29270000  0.85793000  0.89398000  1.0
  H  H26  1  0.70731000  0.35793000  0.89399000  1.0
  H  H27  1  0.70730000  0.14207000  0.10602000  1.0
  H  H28  1  0.08346000  0.68843000  0.03609000  1.0
  H  H29  1  0.08346000  0.81157000  0.96390000  1.0
  H  H30  1  0.91655000  0.31157000  0.96391000  1.0
  H  H31  1  0.91655000  0.18842000  0.03609000  1.0
  H  H32  1  0.90348000  0.77464000  0.09740000  1.0
  H  H33  1  0.90349000  0.72536000  0.90260000  1.0
  H  H34  1  0.09652000  0.22536000  0.90260000  1.0
  H  H35  1  0.09651000  0.27464000  0.09740000  1.0
  H  H36  1  0.93213000  0.81101000  0.22865000  1.0
  H  H37  1  0.93214000  0.68899000  0.77134000  1.0
  H  H38  1  0.06786000  0.18898000  0.77134000  1.0
  H  H39  1  0.06786000  0.31101000  0.22865000  1.0
  H  H40  1  0.14062000  0.76119000  0.29902000  1.0
  H  H41  1  0.14063000  0.73881000  0.70098000  1.0
  H  H42  1  0.85937000  0.23881000  0.70098000  1.0
  H  H43  1  0.85937000  0.26118000  0.29902000  1.0
  H  H44  1  0.67184000  0.59800000  0.44220000  1.0
  H  H45  1  0.67184000  0.90200000  0.55780000  1.0
  H  H46  1  0.32816000  0.40200000  0.55780000  1.0
  H  H47  1  0.32816000  0.09800000  0.44220000  1.0
  H  H48  1  0.68124000  0.46558000  0.53593000  1.0
  H  H49  1  0.68124000  0.03442000  0.46407000  1.0
  H  H50  1  0.31876000  0.53442000  0.46407000  1.0
  H  H51  1  0.31876000  0.96558000  0.53593000  1.0
  H  H52  1  0.55853000  0.30051000  0.35974000  1.0
  H  H53  1  0.55852000  0.19950000  0.64026000  1.0
  H  H54  1  0.44147000  0.69949000  0.64026000  1.0
  H  H55  1  0.44147000  0.80051000  0.35974000  1.0
  H  H56  1  0.54934000  0.43820000  0.27548000  1.0
  H  H57  1  0.54933000  0.06181000  0.72452000  1.0
  H  H58  1  0.45066000  0.56181000  0.72452000  1.0
  H  H59  1  0.45066000  0.93819000  0.27548000  1.0
  H  H60  1  0.63010000  0.30745000  0.56805000  1.0
  H  H61  1  0.63009000  0.19256000  0.43194000  1.0
  H  H62  1  0.36990000  0.69255000  0.43194000  1.0
  H  H63  1  0.36990000  0.80745000  0.56805000  1.0
  H  H64  1  0.87983000  0.53633000  0.27930000  1.0
  H  H65  1  0.87984000  0.96367000  0.72070000  1.0
  H  H66  1  0.12016000  0.46366000  0.72070000  1.0
  H  H67  1  0.12016000  0.03634000  0.27930000  1.0
  H  H68  1  0.03575000  0.47747000  0.18650000  1.0
  H  H69  1  0.03576000  0.02252000  0.81350000  1.0
  H  H70  1  0.96425000  0.52252000  0.81350000  1.0
  H  H71  1  0.96424000  0.97748000  0.18650000  1.0
  H  H72  1  0.76001000  0.58392000  0.01469000  1.0
  H  H73  1  0.76001000  0.91608000  0.98531000  1.0
  H  H74  1  0.23999000  0.41607000  0.98532000  1.0
  H  H75  1  0.23999000  0.08393000  0.01468000  1.0
  H  H76  1  0.61625000  0.63925000  0.11575000  1.0
  H  H77  1  0.61625000  0.86075000  0.88425000  1.0
  H  H78  1  0.38375000  0.36075000  0.88426000  1.0
  H  H79  1  0.38374000  0.13925000  0.11574000  1.0
  H  H80  1  0.09183000  0.45498000  0.06130000  1.0
  H  H81  1  0.09183000  0.04502000  0.93870000  1.0
  H  H82  1  0.90816000  0.54502000  0.93871000  1.0
  H  H83  1  0.90816000  0.95498000  0.06129000  1.0
  C  C84  1  0.71409000  0.79647000  0.30882000  1.0
  C  C85  1  0.71409000  0.70353000  0.69118000  1.0
  C  C86  1  0.28591000  0.20353000  0.69119000  1.0
  C  C87  1  0.28591000  0.29647000  0.30882000  1.0
  C  C88  1  0.80363000  0.86149000  0.34571000  1.0
  C  C89  1  0.80364000  0.63851000  0.65429000  1.0
  C  C90  1  0.19637000  0.13851000  0.65429000  1.0
  C  C91  1  0.19636000  0.36150000  0.34571000  1.0
  C  C92  1  0.89948000  0.83105000  0.39937000  1.0
  C  C93  1  0.89948000  0.66895000  0.60064000  1.0
  C  C94  1  0.10052000  0.16896000  0.60063000  1.0
  C  C95  1  0.10052000  0.33105000  0.39937000  1.0
  C  C96  1  0.98886000  0.89150000  0.42886000  1.0
  C  C97  1  0.98886000  0.60850000  0.57114000  1.0
  C  C98  1  0.01114000  0.10850000  0.57114000  1.0
  C  C99  1  0.01114000  0.39150000  0.42886000  1.0
  C  C100  1  0.98071000  0.98302000  0.40642000  1.0
  C  C101  1  0.98071000  0.51698000  0.59358000  1.0
  C  C102  1  0.01929000  0.01699000  0.59358000  1.0
  C  C103  1  0.01929000  0.48302000  0.40642000  1.0
  C  C104  1  0.88275000  0.01416000  0.35464000  1.0
  C  C105  1  0.88275000  0.48584000  0.64536000  1.0
  C  C106  1  0.11725000  0.98584000  0.64536000  1.0
  C  C107  1  0.11725000  0.51416000  0.35464000  1.0
  C  C108  1  0.79573000  0.95339000  0.32368000  1.0
  C  C109  1  0.79573000  0.54661000  0.67632000  1.0
  C  C110  1  0.20428000  0.04662000  0.67632000  1.0
  C  C111  1  0.20427000  0.45339000  0.32368000  1.0
  C  C112  1  0.35387000  0.67112000  0.24910000  1.0
  C  C113  1  0.35387000  0.82888000  0.75089000  1.0
  C  C114  1  0.64614000  0.32888000  0.75090000  1.0
  C  C115  1  0.64613000  0.17112000  0.24910000  1.0
  C  C116  1  0.22862000  0.69869000  0.20664000  1.0
  C  C117  1  0.22862000  0.80131000  0.79336000  1.0
  C  C118  1  0.77139000  0.30131000  0.79336000  1.0
  C  C119  1  0.77138000  0.19869000  0.20664000  1.0
  C  C120  1  0.21282000  0.67894000  0.13231000  1.0
  C  C121  1  0.21283000  0.82106000  0.86769000  1.0
  C  C122  1  0.78719000  0.32106000  0.86769000  1.0
  C  C123  1  0.78718000  0.17894000  0.13230000  1.0
  C  C124  1  0.09610000  0.70594000  0.09326000  1.0
  C  C125  1  0.09610000  0.79407000  0.90674000  1.0
  C  C126  1  0.90391000  0.29406000  0.90674000  1.0
  C  C127  1  0.90390000  0.20593000  0.09326000  1.0
  C  C128  1  0.99545000  0.75401000  0.12768000  1.0
  C  C129  1  0.99545000  0.74599000  0.87232000  1.0
  C  C130  1  0.00455000  0.24598000  0.87232000  1.0
  C  C131  1  0.00455000  0.25401000  0.12768000  1.0
  C  C132  1  0.01094000  0.77413000  0.20169000  1.0
  C  C133  1  0.01095000  0.72587000  0.79831000  1.0
  C  C134  1  0.98906000  0.22587000  0.79831000  1.0
  C  C135  1  0.98905000  0.27413000  0.20169000  1.0
  C  C136  1  0.12681000  0.74613000  0.24120000  1.0
  C  C137  1  0.12681000  0.75386000  0.75880000  1.0
  C  C138  1  0.87319000  0.25386000  0.75880000  1.0
  C  C139  1  0.87319000  0.24613000  0.24120000  1.0
  C  C140  1  0.64771000  0.53047000  0.42705000  1.0
  C  C141  1  0.64772000  0.96954000  0.57295000  1.0
  C  C142  1  0.35229000  0.46953000  0.57295000  1.0
  C  C143  1  0.35228000  0.03046000  0.42705000  1.0
  C  C144  1  0.65302000  0.45661000  0.47844000  1.0
  C  C145  1  0.65302000  0.04340000  0.52156000  1.0
  C  C146  1  0.34698000  0.54339000  0.52156000  1.0
  C  C147  1  0.34697000  0.95660000  0.47844000  1.0
  C  C148  1  0.62219000  0.37070000  0.45584000  1.0
  C  C149  1  0.62219000  0.12930000  0.54415000  1.0
  C  C150  1  0.37781000  0.62930000  0.54416000  1.0
  C  C151  1  0.37781000  0.87070000  0.45584000  1.0
  C  C152  1  0.58476000  0.36457000  0.38099000  1.0
  C  C153  1  0.58475000  0.13543000  0.61901000  1.0
  C  C154  1  0.41524000  0.63543000  0.61901000  1.0
  C  C155  1  0.41524000  0.86457000  0.38099000  1.0
  C  C156  1  0.58055000  0.44146000  0.33333333  1.0
  C  C157  1  0.58054000  0.05854000  0.66666667  1.0
  C  C158  1  0.41945000  0.55854000  0.66666667  1.0
  C  C159  1  0.41945000  0.94146000  0.33333333  1.0
  C  C160  1  0.62568000  0.29301000  0.50953000  1.0
  C  C161  1  0.62567000  0.20699000  0.49047000  1.0
  C  C162  1  0.37432000  0.70699000  0.49047000  1.0
  C  C163  1  0.37432000  0.79301000  0.50953000  1.0
  C  C164  1  0.85730000  0.54567000  0.22001000  1.0
  C  C165  1  0.85731000  0.95433000  0.77999000  1.0
  C  C166  1  0.14270000  0.45433000  0.77999000  1.0
  C  C167  1  0.14269000  0.04567000  0.22000000  1.0
  C  C168  1  0.94354000  0.51243000  0.16786000  1.0
  C  C169  1  0.94354000  0.98757000  0.83214000  1.0
  C  C170  1  0.05646000  0.48757000  0.83215000  1.0
  C  C171  1  0.05646000  0.01243000  0.16785000  1.0
  C  C172  1  0.91201000  0.52531000  0.09174000  1.0
  C  C173  1  0.91201000  0.97468000  0.90826000  1.0
  C  C174  1  0.08799000  0.47468000  0.90827000  1.0
  C  C175  1  0.08799000  0.02532000  0.09173000  1.0
  C  C176  1  0.79135000  0.57178000  0.07255000  1.0
  C  C177  1  0.79136000  0.92822000  0.92745000  1.0
  C  C178  1  0.20864000  0.42822000  0.92745000  1.0
  C  C179  1  0.20864000  0.07178000  0.07254000  1.0
  C  C180  1  0.71065000  0.60312000  0.12793000  1.0
  C  C181  1  0.71065000  0.89687000  0.87207000  1.0
  C  C182  1  0.28935000  0.39687000  0.87208000  1.0
  C  C183  1  0.28935000  0.10313000  0.12792000  1.0
  C  C184  1  0.00552000  0.49283000  0.03736000  1.0
  C  C185  1  0.00552000  0.00717000  0.96264000  1.0
  C  C186  1  0.99448000  0.50717000  0.96264000  1.0
  C  C187  1  0.99447000  0.99283000  0.03735000  1.0
  N  N188  1  0.61194000  0.52337000  0.35546000  1.0
  N  N189  1  0.61194000  0.97663000  0.64454000  1.0
  N  N190  1  0.38806000  0.47663000  0.64454000  1.0
  N  N191  1  0.38805000  0.02337000  0.35546000  1.0
  N  N192  1  0.74268000  0.59032000  0.20077000  1.0
  N  N193  1  0.74268000  0.90968000  0.79923000  1.0
  N  N194  1  0.25732000  0.40968000  0.79924000  1.0
  N  N195  1  0.25731000  0.09032000  0.20077000  1.0
  O  O196  1  0.70846000  0.71586000  0.34187000  1.0
  O  O197  1  0.70846000  0.78414000  0.65813000  1.0
  O  O198  1  0.29154000  0.28414000  0.65814000  1.0
  O  O199  1  0.29154000  0.21586000  0.34186000  1.0
  O  O200  1  0.65376000  0.82006000  0.24957000  1.0
  O  O201  1  0.65375000  0.67995000  0.75043000  1.0
  O  O202  1  0.34624000  0.17994000  0.75043000  1.0
  O  O203  1  0.34624000  0.32006000  0.24957000  1.0
  O  O204  1  0.45444000  0.64254000  0.21106000  1.0
  O  O205  1  0.45444000  0.85747000  0.78894000  1.0
  O  O206  1  0.54557000  0.35746000  0.78895000  1.0
  O  O207  1  0.54556000  0.14253000  0.21106000  1.0
  O  O208  1  0.35938000  0.67694000  0.31826000  1.0
  O  O209  1  0.35939000  0.82306000  0.68174000  1.0
  O  O210  1  0.64062000  0.32306000  0.68175000  1.0
  O  O211  1  0.64062000  0.17693000  0.31825000  1.0
