# generated using pymatgen
data_ZnH17C26N5O8
_symmetry_space_group_name_H-M   'P 1'
_cell_length_a   17.15540000
_cell_length_b   18.31970000
_cell_length_c   19.55270000
_cell_angle_alpha   87.67120000
_cell_angle_beta   88.92530000
_cell_angle_gamma   83.37190000
_symmetry_Int_Tables_number   1
_chemical_formula_structural   ZnH17C26N5O8
_chemical_formula_sum   'Zn2 H34 C52 N10 O16'
_cell_volume   6098.33170344
_cell_formula_units_Z   2
loop_
 _symmetry_equiv_pos_site_id
 _symmetry_equiv_pos_as_xyz
  1  'x, y, z'
loop_
 _atom_site_type_symbol
 _atom_site_label
 _atom_site_symmetry_multiplicity
 _atom_site_fract_x
 _atom_site_fract_y
 _atom_site_fract_z
 _atom_site_occupancy
  Zn  Zn0  1  0.50749000  0.42498000  0.49666000  1.0
  Zn  Zn1  1  0.49089000  0.58383000  0.49594000  1.0
  H  H2  1  0.73124000  0.60496000  0.44504000  1.0
  H  H3  1  0.27395000  0.39644000  0.42664000  1.0
  H  H4  1  0.24579000  0.62672000  0.46649000  1.0
  H  H5  1  0.75031000  0.37558000  0.50430000  1.0
  H  H6  1  0.99227000  0.57996000  0.41860000  1.0
  H  H7  1  0.00523000  0.41100000  0.42823000  1.0
  H  H8  1  0.89114000  0.36164000  0.46811000  1.0
  H  H9  1  0.10327000  0.63362000  0.44077000  1.0
  H  H10  1  0.13215000  0.40207000  0.40088000  1.0
  H  H11  1  0.87051000  0.59203000  0.40710000  1.0
  H  H12  1  0.44027000  0.60318000  0.27813000  1.0
  H  H13  1  0.55613000  0.39658000  0.71121000  1.0
  H  H14  1  0.43077000  0.59784000  0.15135000  1.0
  H  H15  1  0.56537000  0.39333000  0.83805000  1.0
  H  H16  1  0.59782000  0.40242000  0.15667000  1.0
  H  H17  1  0.40010000  0.58954000  0.84330000  1.0
  H  H18  1  0.62869000  0.46002000  0.05084000  1.0
  H  H19  1  0.36804000  0.52606000  0.94472000  1.0
  H  H20  1  0.61602000  0.45678000  0.92568000  1.0
  H  H21  1  0.38078000  0.52917000  0.06984000  1.0
  H  H22  1  0.45816000  0.31879000  0.40622000  1.0
  H  H23  1  0.56868000  0.69365000  0.42286000  1.0
  H  H24  1  0.44412000  0.18436000  0.40947000  1.0
  H  H25  1  0.58225000  0.82775000  0.42816000  1.0
  H  H26  1  0.62967000  0.05115000  0.50960000  1.0
  H  H27  1  0.37232000  0.95733000  0.49069000  1.0
  H  H28  1  0.64224000  0.16993000  0.62036000  1.0
  H  H29  1  0.58461000  0.10178000  0.61335000  1.0
  H  H30  1  0.33306000  0.83013000  0.60207000  1.0
  H  H31  1  0.38803000  0.90196000  0.59976000  1.0
  H  H32  1  0.60619000  0.28353000  0.63808000  1.0
  H  H33  1  0.61618000  0.35506000  0.57904000  1.0
  H  H34  1  0.35937000  0.71578000  0.62083000  1.0
  H  H35  1  0.36544000  0.65058000  0.56053000  1.0
  C  C36  1  0.47668000  0.49710000  0.62838000  1.0
  C  C37  1  0.52120000  0.50981000  0.36492000  1.0
  C  C38  1  0.64888000  0.50058000  0.50092000  1.0
  C  C39  1  0.35182000  0.50613000  0.47049000  1.0
  C  C40  1  0.73291000  0.49170000  0.47918000  1.0
  C  C41  1  0.26807000  0.51077000  0.45001000  1.0
  C  C42  1  0.76722000  0.55210000  0.45041000  1.0
  C  C43  1  0.23575000  0.44805000  0.42978000  1.0
  C  C44  1  0.84519000  0.54442000  0.42941000  1.0
  C  C45  1  0.15640000  0.45156000  0.41559000  1.0
  C  C46  1  0.89218000  0.47615000  0.43718000  1.0
  C  C47  1  0.10661000  0.51801000  0.42148000  1.0
  C  C48  1  0.85608000  0.41522000  0.46314000  1.0
  C  C49  1  0.14087000  0.58153000  0.43739000  1.0
  C  C50  1  0.77777000  0.42282000  0.48404000  1.0
  C  C51  1  0.22011000  0.57799000  0.45203000  1.0
  C  C52  1  0.97665000  0.46757000  0.42495000  1.0
  C  C53  1  0.02152000  0.52367000  0.41852000  1.0
  C  C54  1  0.47472000  0.56000000  0.25027000  1.0
  C  C55  1  0.52179000  0.43823000  0.74094000  1.0
  C  C56  1  0.46905000  0.55612000  0.17979000  1.0
  C  C57  1  0.52746000  0.43721000  0.81187000  1.0
  C  C58  1  0.51302000  0.49965000  0.14440000  1.0
  C  C59  1  0.48419000  0.49129000  0.85065000  1.0
  C  C60  1  0.56352000  0.44770000  0.18191000  1.0
  C  C61  1  0.43431000  0.54593000  0.81580000  1.0
  C  C62  1  0.56855000  0.45273000  0.25236000  1.0
  C  C63  1  0.42905000  0.54540000  0.74500000  1.0
  C  C64  1  0.52412000  0.50797000  0.28834000  1.0
  C  C65  1  0.47289000  0.49283000  0.70552000  1.0
  C  C66  1  0.57108000  0.47333000  0.02787000  1.0
  C  C67  1  0.42564000  0.51256000  0.96765000  1.0
  C  C68  1  0.56389000  0.47145000  0.95723000  1.0
  C  C69  1  0.43284000  0.51438000  0.03823000  1.0
  C  C70  1  0.49114000  0.49144000  0.92573000  1.0
  C  C71  1  0.50579000  0.49534000  0.06969000  1.0
  C  C72  1  0.48455000  0.28146000  0.44629000  1.0
  C  C73  1  0.53177000  0.72936000  0.45649000  1.0
  C  C74  1  0.47628000  0.20752000  0.44921000  1.0
  C  C75  1  0.53947000  0.80294000  0.46066000  1.0
  C  C76  1  0.51073000  0.16230000  0.50323000  1.0
  C  C77  1  0.49063000  0.84599000  0.50621000  1.0
  C  C78  1  0.55397000  0.19375000  0.55197000  1.0
  C  C79  1  0.43511000  0.81248000  0.54625000  1.0
  C  C80  1  0.56128000  0.27054000  0.54441000  1.0
  C  C81  1  0.42927000  0.73597000  0.53752000  1.0
  C  C82  1  0.57194000  0.03177000  0.50977000  1.0
  C  C83  1  0.42899000  0.97656000  0.49937000  1.0
  C  C84  1  0.56718000  0.95642000  0.51358000  1.0
  C  C85  1  0.43307000  0.05190000  0.50094000  1.0
  C  C86  1  0.49608000  0.92580000  0.50833000  1.0
  C  C87  1  0.50422000  0.08242000  0.50602000  1.0
  N  N88  1  0.52500000  0.31256000  0.49400000  1.0
  N  N89  1  0.47823000  0.69642000  0.49495000  1.0
  N  N90  1  0.58791000  0.15671000  0.60950000  1.0
  N  N91  1  0.38711000  0.84716000  0.59560000  1.0
  N  N92  1  0.60898000  0.30073000  0.58819000  1.0
  N  N93  1  0.37029000  0.70411000  0.57078000  1.0
  N  N94  1  0.64182000  0.90911000  0.52560000  1.0
  N  N95  1  0.35723000  0.09928000  0.49881000  1.0
  N  N96  1  0.62526000  0.39731000  0.28761000  1.0
  N  N97  1  0.37299000  0.60165000  0.71154000  1.0
  O  O98  1  0.47385000  0.43727000  0.59859000  1.0
  O  O99  1  0.49574000  0.57077000  0.39039000  1.0
  O  O100  1  0.48666000  0.55959000  0.60147000  1.0
  O  O101  1  0.54150000  0.44925000  0.39732000  1.0
  O  O102  1  0.61924000  0.44402000  0.52625000  1.0
  O  O103  1  0.37545000  0.56411000  0.49337000  1.0
  O  O104  1  0.61044000  0.56379000  0.49158000  1.0
  O  O105  1  0.39434000  0.44490000  0.46412000  1.0
  O  O106  1  0.64201000  0.86171000  0.57242000  1.0
  O  O107  1  0.69890000  0.92203000  0.48915000  1.0
  O  O108  1  0.34668000  0.14780000  0.54123000  1.0
  O  O109  1  0.30928000  0.08539000  0.45589000  1.0
  O  O110  1  0.68316000  0.41978000  0.31266000  1.0
  O  O111  1  0.61225000  0.33227000  0.28615000  1.0
  O  O112  1  0.33027000  0.58121000  0.66749000  1.0
  O  O113  1  0.37119000  0.66618000  0.72983000  1.0
