# generated using pymatgen
data_AgH9C9N2O7
_symmetry_space_group_name_H-M   'P 1'
_cell_length_a   7.67916000
_cell_length_b   9.97772000
_cell_length_c   15.33810000
_cell_angle_alpha   90.00010000
_cell_angle_beta   90.00010000
_cell_angle_gamma   95.01500000
_symmetry_Int_Tables_number   1
_chemical_formula_structural   AgH9C9N2O7
_chemical_formula_sum   'Ag4 H36 C36 N8 O28'
_cell_volume   1170.71412291
_cell_formula_units_Z   4
loop_
 _symmetry_equiv_pos_site_id
 _symmetry_equiv_pos_as_xyz
  1  'x, y, z'
loop_
 _atom_site_type_symbol
 _atom_site_label
 _atom_site_symmetry_multiplicity
 _atom_site_fract_x
 _atom_site_fract_y
 _atom_site_fract_z
 _atom_site_occupancy
  Ag  Ag0  1  0.93849000  0.85774000  0.64813000  1.0
  Ag  Ag1  1  0.56152000  0.14225000  0.14813000  1.0
  Ag  Ag2  1  0.06152000  0.14225000  0.35187000  1.0
  Ag  Ag3  1  0.43848000  0.85774000  0.85187000  1.0
  H  H4  1  0.62345000  0.22202000  0.46294000  1.0
  H  H5  1  0.87655000  0.77799000  0.96294000  1.0
  H  H6  1  0.37654000  0.77798000  0.53706000  1.0
  H  H7  1  0.12345000  0.22202000  0.03706000  1.0
  H  H8  1  0.66112000  0.84278000  0.33313000  1.0
  H  H9  1  0.83889000  0.15722000  0.83313000  1.0
  H  H10  1  0.33888000  0.15723000  0.66687000  1.0
  H  H11  1  0.16112000  0.84278000  0.16687000  1.0
  H  H12  1  0.92884000  0.50155000  0.39864000  1.0
  H  H13  1  0.57116000  0.49846000  0.89864000  1.0
  H  H14  1  0.07116000  0.49845000  0.60136000  1.0
  H  H15  1  0.42884000  0.50155000  0.10136000  1.0
  H  H16  1  0.70642000  0.45112000  0.36680000  1.0
  H  H17  1  0.79358000  0.54888000  0.86680000  1.0
  H  H18  1  0.29358000  0.54888000  0.63320000  1.0
  H  H19  1  0.20642000  0.45112000  0.13320000  1.0
  H  H20  1  0.76792000  0.46299000  0.48084000  1.0
  H  H21  1  0.73208000  0.53701000  0.98084000  1.0
  H  H22  1  0.23208000  0.53701000  0.51916000  1.0
  H  H23  1  0.26792000  0.46299000  0.01916000  1.0
  H  H24  1  0.56654000  0.07587000  0.33080000  1.0
  H  H25  1  0.93346000  0.92414000  0.83080000  1.0
  H  H26  1  0.43346000  0.92414000  0.66920000  1.0
  H  H27  1  0.06654000  0.07586000  0.16920000  1.0
  H  H28  1  0.85392000  0.37912000  0.70048000  1.0
  H  H29  1  0.64608000  0.62088000  0.20048000  1.0
  H  H30  1  0.14608000  0.62088000  0.29952000  1.0
  H  H31  1  0.35392000  0.37912000  0.79952000  1.0
  H  H32  1  0.65635000  0.29600000  0.74422000  1.0
  H  H33  1  0.84365000  0.70400000  0.24422000  1.0
  H  H34  1  0.34365000  0.70401000  0.25578000  1.0
  H  H35  1  0.15635000  0.29600000  0.75578000  1.0
  H  H36  1  0.64675000  0.43699000  0.67092000  1.0
  H  H37  1  0.85326000  0.56301000  0.17091000  1.0
  H  H38  1  0.35325000  0.56301000  0.32909000  1.0
  H  H39  1  0.14675000  0.43699000  0.82909000  1.0
  C  C40  1  0.78621000  0.15254000  0.61294000  1.0
  C  C41  1  0.71379000  0.84746000  0.11294000  1.0
  C  C42  1  0.21379000  0.84746000  0.38706000  1.0
  C  C43  1  0.28621000  0.15254000  0.88706000  1.0
  C  C44  1  0.66502000  0.12075000  0.46056000  1.0
  C  C45  1  0.83498000  0.87925000  0.96055000  1.0
  C  C46  1  0.33498000  0.87925000  0.53945000  1.0
  C  C47  1  0.16502000  0.12075000  0.03945000  1.0
  C  C48  1  0.68515000  0.90924000  0.38880000  1.0
  C  C49  1  0.81485000  0.09076000  0.88880000  1.0
  C  C50  1  0.31485000  0.09076000  0.61120000  1.0
  C  C51  1  0.18515000  0.90924000  0.11120000  1.0
  C  C52  1  0.83251000  0.72770000  0.46680000  1.0
  C  C53  1  0.66749000  0.27230000  0.96680000  1.0
  C  C54  1  0.16749000  0.27230000  0.53320000  1.0
  C  C55  1  0.33251000  0.72770000  0.03320000  1.0
  C  C56  1  0.77012000  0.86576000  0.46270000  1.0
  C  C57  1  0.72987000  0.13424000  0.96270000  1.0
  C  C58  1  0.22987000  0.13424000  0.53730000  1.0
  C  C59  1  0.27012000  0.86576000  0.03730000  1.0
  C  C60  1  0.75074000  0.06957000  0.53214000  1.0
  C  C61  1  0.74926000  0.93042000  0.03214000  1.0
  C  C62  1  0.24926000  0.93042000  0.46787000  1.0
  C  C63  1  0.25074000  0.06957000  0.96786000  1.0
  C  C64  1  0.79063000  0.50442000  0.41527000  1.0
  C  C65  1  0.70937000  0.49558000  0.91527000  1.0
  C  C66  1  0.20938000  0.49558000  0.58473000  1.0
  C  C67  1  0.29063000  0.50442000  0.08473000  1.0
  C  C68  1  0.63325000  0.03941000  0.38756000  1.0
  C  C69  1  0.86675000  0.96060000  0.88756000  1.0
  C  C70  1  0.36674000  0.96059000  0.61244000  1.0
  C  C71  1  0.13325000  0.03941000  0.11244000  1.0
  C  C72  1  0.71572000  0.34921000  0.68755000  1.0
  C  C73  1  0.78429000  0.65079000  0.18755000  1.0
  C  C74  1  0.28429000  0.65079000  0.31245000  1.0
  C  C75  1  0.21572000  0.34921000  0.81245000  1.0
  N  N76  1  0.80453000  0.94489000  0.53279000  1.0
  N  N77  1  0.69547000  0.05511000  0.03279000  1.0
  N  N78  1  0.19547000  0.05511000  0.46721000  1.0
  N  N79  1  0.30453000  0.94489000  0.96721000  1.0
  N  N80  1  0.06890000  0.69831000  0.79146000  1.0
  N  N81  1  0.43110000  0.30169000  0.29146000  1.0
  N  N82  1  0.93110000  0.30169000  0.20854000  1.0
  N  N83  1  0.56890000  0.69832000  0.70854000  1.0
  O  O84  1  0.12731000  0.66867000  0.86452000  1.0
  O  O85  1  0.37269000  0.33133000  0.36452000  1.0
  O  O86  1  0.87269000  0.33133000  0.13548000  1.0
  O  O87  1  0.62730000  0.66867000  0.63548000  1.0
  O  O88  1  0.95403000  0.69812000  0.51288000  1.0
  O  O89  1  0.54596000  0.30188000  0.01288000  1.0
  O  O90  1  0.04596000  0.30188000  0.48712000  1.0
  O  O91  1  0.45404000  0.69812000  0.98712000  1.0
  O  O92  1  0.12208000  0.81504000  0.75740000  1.0
  O  O93  1  0.37793000  0.18496000  0.25740000  1.0
  O  O94  1  0.87793000  0.18496000  0.24260000  1.0
  O  O95  1  0.62208000  0.81504000  0.74260000  1.0
  O  O96  1  0.74145000  0.64208000  0.41334000  1.0
  O  O97  1  0.75855000  0.35792000  0.91334000  1.0
  O  O98  1  0.25855000  0.35792000  0.58665000  1.0
  O  O99  1  0.24145000  0.64208000  0.08665000  1.0
  O  O100  1  0.96036000  0.62135000  0.75003000  1.0
  O  O101  1  0.53964000  0.37866000  0.25002000  1.0
  O  O102  1  0.03964000  0.37866000  0.24997000  1.0
  O  O103  1  0.46036000  0.62135000  0.74997000  1.0
  O  O104  1  0.88317000  0.12370000  0.67251000  1.0
  O  O105  1  0.61683000  0.87630000  0.17251000  1.0
  O  O106  1  0.11683000  0.87629000  0.32749000  1.0
  O  O107  1  0.38317000  0.12370000  0.82749000  1.0
  O  O108  1  0.69698000  0.26192000  0.61177000  1.0
  O  O109  1  0.80302000  0.73808000  0.11176000  1.0
  O  O110  1  0.30302000  0.73808000  0.38824000  1.0
  O  O111  1  0.19698000  0.26192000  0.88824000  1.0
