# generated using pymatgen
data_ZnH16C21N2O5
_symmetry_space_group_name_H-M   'P 1'
_cell_length_a   9.30290000
_cell_length_b   10.28680000
_cell_length_c   13.35540000
_cell_angle_alpha   82.95910000
_cell_angle_beta   70.74170000
_cell_angle_gamma   71.91020000
_symmetry_Int_Tables_number   1
_chemical_formula_structural   ZnH16C21N2O5
_chemical_formula_sum   'Zn2 H32 C42 N4 O10'
_cell_volume   1146.62505420
_cell_formula_units_Z   2
loop_
 _symmetry_equiv_pos_site_id
 _symmetry_equiv_pos_as_xyz
  1  'x, y, z'
loop_
 _atom_site_type_symbol
 _atom_site_label
 _atom_site_symmetry_multiplicity
 _atom_site_fract_x
 _atom_site_fract_y
 _atom_site_fract_z
 _atom_site_occupancy
  Zn  Zn0  1  0.66784000  0.12405000  0.44423000  1.0
  Zn  Zn1  1  0.33216000  0.87595000  0.55577000  1.0
  H  H2  1  0.72912000  0.93379000  0.94307000  1.0
  H  H3  1  0.27088000  0.06621000  0.05693000  1.0
  H  H4  1  0.45200000  0.19480000  0.99079000  1.0
  H  H5  1  0.54800000  0.80520000  0.00921000  1.0
  H  H6  1  0.63194000  0.58948000  0.46801000  1.0
  H  H7  1  0.36806000  0.41052000  0.53198000  1.0
  H  H8  1  0.03932000  0.74466000  0.36264000  1.0
  H  H9  1  0.96068000  0.25533000  0.63737000  1.0
  H  H10  1  0.36667000  0.28830000  0.17299000  1.0
  H  H11  1  0.63333000  0.71171000  0.82701000  1.0
  H  H12  1  0.44119000  0.24021000  0.65520000  1.0
  H  H13  1  0.55881000  0.75979000  0.34480000  1.0
  H  H14  1  0.44392000  0.29857000  0.33172000  1.0
  H  H15  1  0.55608000  0.70143000  0.66828000  1.0
  H  H16  1  0.09775000  0.31659000  0.32897000  1.0
  H  H17  1  0.90226000  0.68341000  0.67103000  1.0
  H  H18  1  0.89107000  0.96214000  0.57149000  1.0
  H  H19  1  0.10893000  0.03786000  0.42851000  1.0
  H  H20  1  0.86479000  0.99219000  0.22434000  1.0
  H  H21  1  0.13521000  0.00781000  0.77566000  1.0
  H  H22  1  0.40524000  0.19262000  0.84658000  1.0
  H  H23  1  0.59476000  0.80738000  0.15342000  1.0
  H  H24  1  0.87814000  0.90532000  0.75743000  1.0
  H  H25  1  0.12186000  0.09468000  0.24257000  1.0
  H  H26  1  0.80827000  0.96803000  0.05884000  1.0
  H  H27  1  0.19173000  0.03197000  0.94116000  1.0
  H  H28  1  0.28626000  0.68566000  0.24259000  1.0
  H  H29  1  0.71374000  0.31434000  0.75741000  1.0
  H  H30  1  0.45369000  0.54739000  0.25613000  1.0
  H  H31  1  0.54631000  0.45261000  0.74387000  1.0
  H  H32  1  0.30433000  0.62779000  0.37196000  1.0
  H  H33  1  0.69567000  0.37221000  0.62804000  1.0
  C  C34  1  0.51042000  0.09616000  0.02229000  1.0
  C  C35  1  0.48958000  0.90384000  0.97771000  1.0
  C  C36  1  0.75938000  0.57338000  0.43062000  1.0
  C  C37  1  0.24063000  0.42662000  0.56938000  1.0
  C  C38  1  0.99142000  0.65863000  0.37070000  1.0
  C  C39  1  0.00858000  0.34137000  0.62930000  1.0
  C  C40  1  0.47962000  0.22065000  0.17955000  1.0
  C  C41  1  0.52038000  0.77935000  0.82045000  1.0
  C  C42  1  0.63745000  0.04130000  0.82061000  1.0
  C  C43  1  0.36255000  0.95870000  0.17939000  1.0
  C  C44  1  0.61355000  0.99212000  0.93352000  1.0
  C  C45  1  0.38645000  0.00788000  0.06648000  1.0
  C  C46  1  0.57757000  0.12226000  0.10311000  1.0
  C  C47  1  0.42243000  0.87774000  0.89689000  1.0
  C  C48  1  0.53440000  0.16615000  0.68187000  1.0
  C  C49  1  0.46560000  0.83385000  0.31813000  1.0
  C  C50  1  0.52181000  0.22792000  0.26871000  1.0
  C  C51  1  0.47819000  0.77209000  0.73128000  1.0
  C  C52  1  0.79123000  0.32328000  0.41169000  1.0
  C  C53  1  0.20877000  0.67672000  0.58831000  1.0
  C  C54  1  0.02172000  0.41955000  0.35183000  1.0
  C  C55  1  0.97828000  0.58046000  0.64817000  1.0
  C  C56  1  0.78564000  0.01269000  0.63445000  1.0
  C  C57  1  0.21436000  0.98731000  0.36556000  1.0
  C  C58  1  0.85805000  0.44216000  0.39705000  1.0
  C  C59  1  0.14195000  0.55784000  0.60295000  1.0
  C  C60  1  0.82667000  0.68120000  0.41674000  1.0
  C  C61  1  0.17333000  0.31880000  0.58326000  1.0
  C  C62  1  0.75712000  0.05727000  0.20811000  1.0
  C  C63  1  0.24288000  0.94273000  0.79189000  1.0
  C  C64  1  0.08846000  0.52742000  0.33874000  1.0
  C  C65  1  0.91154000  0.47258000  0.66126000  1.0
  C  C66  1  0.51625000  0.13922000  0.78901000  1.0
  C  C67  1  0.48375000  0.86078000  0.21099000  1.0
  C  C68  1  0.77662000  0.98082000  0.74039000  1.0
  C  C69  1  0.22338000  0.01918000  0.25961000  1.0
  C  C70  1  0.72322000  0.04392000  0.11633000  1.0
  C  C71  1  0.27678000  0.95607000  0.88367000  1.0
  C  C72  1  0.32613000  0.59596000  0.29134000  1.0
  C  C73  1  0.67387000  0.40404000  0.70866000  1.0
  C  C74  1  0.72411000  0.82387000  0.45024000  1.0
  C  C75  1  0.27589000  0.17613000  0.54976000  1.0
  N  N76  1  0.65568000  0.14393000  0.28488000  1.0
  N  N77  1  0.34432000  0.85607000  0.71512000  1.0
  N  N78  1  0.66506000  0.10154000  0.60551000  1.0
  N  N79  1  0.33494000  0.89846000  0.39449000  1.0
  O  O80  1  0.64067000  0.34442000  0.44670000  1.0
  O  O81  1  0.35933000  0.65558000  0.55330000  1.0
  O  O82  1  0.79024000  0.92003000  0.41683000  1.0
  O  O83  1  0.20976000  0.07997000  0.58317000  1.0
  O  O84  1  0.88655000  0.20322000  0.38989000  1.0
  O  O85  1  0.11345000  0.79678000  0.61011000  1.0
  O  O86  1  0.58191000  0.84073000  0.50849000  1.0
  O  O87  1  0.41809000  0.15927000  0.49151000  1.0
  O  O88  1  0.25016000  0.49398000  0.29349000  1.0
  O  O89  1  0.74984000  0.50603000  0.70651000  1.0
