# generated using pymatgen
data_CdH10C12(N4O)2
_symmetry_space_group_name_H-M   'P 1'
_cell_length_a   11.48890000
_cell_length_b   13.49533034
_cell_length_c   13.50170000
_cell_angle_alpha   79.56934668
_cell_angle_beta   64.82270000
_cell_angle_gamma   64.83867329
_symmetry_Int_Tables_number   1
_chemical_formula_structural   CdH10C12(N4O)2
_chemical_formula_sum   'Cd4 H40 C48 N32 O8'
_cell_volume   1714.74802673
_cell_formula_units_Z   4
loop_
 _symmetry_equiv_pos_site_id
 _symmetry_equiv_pos_as_xyz
  1  'x, y, z'
loop_
 _atom_site_type_symbol
 _atom_site_label
 _atom_site_symmetry_multiplicity
 _atom_site_fract_x
 _atom_site_fract_y
 _atom_site_fract_z
 _atom_site_occupancy
  Cd  Cd0  1  0.49999000  0.50000000  0.50001000  1.0
  Cd  Cd1  1  0.00001000  1.00000000  0.00000000  1.0
  Cd  Cd2  1  0.99999000  0.00000000  0.50000000  1.0
  Cd  Cd3  1  0.00000000  0.50000000  0.00000000  1.0
  H  H4  1  0.18028000  0.68517000  0.53092000  1.0
  H  H5  1  0.45063000  0.04889000  0.38714000  1.0
  H  H6  1  0.74332000  0.85259000  0.40597000  1.0
  H  H7  1  0.69916000  0.95535000  0.30933000  1.0
  H  H8  1  0.77296000  0.81324000  0.27651000  1.0
  H  H9  1  0.89660000  0.81480000  0.96925000  1.0
  H  H10  1  0.38658000  0.45118000  0.11281000  1.0
  H  H11  1  0.50189000  0.64758000  0.09422000  1.0
  H  H12  1  0.46374000  0.54481000  0.19085000  1.0
  H  H13  1  0.36266000  0.68695000  0.22357000  1.0
  H  H14  1  0.86579000  0.03091000  0.31480000  1.0
  H  H15  1  0.49941000  0.88706000  0.95135000  1.0
  H  H16  1  0.59599000  0.90600000  0.14754000  1.0
  H  H17  1  0.65451000  0.80935000  0.04484000  1.0
  H  H18  1  0.58635000  0.77650000  0.18691000  1.0
  H  H19  1  0.71152000  0.46895000  0.18512000  1.0
  H  H20  1  0.83771000  0.61317000  0.54862000  1.0
  H  H21  1  0.14948000  0.59426000  0.35231000  1.0
  H  H22  1  0.00870000  0.69099000  0.45498000  1.0
  H  H23  1  0.04971000  0.72369000  0.31289000  1.0
  H  H24  1  0.81971000  0.31484000  0.46907000  1.0
  H  H25  1  0.54937000  0.95112000  0.61285000  1.0
  H  H26  1  0.25668000  0.14742000  0.59403000  1.0
  H  H27  1  0.30084000  0.04466000  0.69067000  1.0
  H  H28  1  0.22704000  0.18676000  0.72349000  1.0
  H  H29  1  0.10340000  0.18519000  0.03075000  1.0
  H  H30  1  0.61342000  0.54882000  0.88719000  1.0
  H  H31  1  0.49812000  0.35241000  0.90578000  1.0
  H  H32  1  0.53625000  0.45519000  0.80914000  1.0
  H  H33  1  0.63734000  0.31305000  0.77642000  1.0
  H  H34  1  0.13421000  0.96910000  0.68521000  1.0
  H  H35  1  0.50060000  0.11293000  0.04866000  1.0
  H  H36  1  0.40401000  0.09400000  0.85247000  1.0
  H  H37  1  0.34549000  0.19065000  0.95517000  1.0
  H  H38  1  0.41366000  0.22350000  0.81309000  1.0
  H  H39  1  0.28848000  0.53105000  0.81487000  1.0
  H  H40  1  0.16228000  0.38683000  0.45138000  1.0
  H  H41  1  0.85052000  0.40574000  0.64768000  1.0
  H  H42  1  0.99129000  0.30901000  0.54502000  1.0
  H  H43  1  0.95029000  0.27631000  0.68710000  1.0
  C  C44  1  0.24527000  0.73182000  0.50592000  1.0
  C  C45  1  0.55810000  0.87259000  0.38759000  1.0
  C  C46  1  0.44006000  0.97056000  0.40650000  1.0
  C  C47  1  0.30380000  0.97197000  0.44729000  1.0
  C  C48  1  0.70116000  0.87436000  0.34190000  1.0
  C  C49  1  0.42626000  0.77166000  0.44727000  1.0
  C  C50  1  0.98323000  0.76820000  0.99417000  1.0
  C  C51  1  0.31846000  0.62750000  0.11235000  1.0
  C  C52  1  0.31719000  0.52952000  0.09341000  1.0
  C  C53  1  0.22308000  0.52809000  0.05266000  1.0
  C  C54  1  0.41743000  0.62577000  0.15822000  1.0
  C  C55  1  0.14545000  0.72843000  0.05268000  1.0
  C  C56  1  0.97735000  0.00603000  0.26818000  1.0
  C  C57  1  0.43075000  0.88769000  0.12757000  1.0
  C  C58  1  0.41058000  0.90653000  0.02964000  1.0
  C  C59  1  0.27575000  0.94750000  0.02821000  1.0
  C  C60  1  0.57560000  0.84191000  0.12578000  1.0
  C  C61  1  0.19805000  0.94751000  0.22845000  1.0
  C  C62  1  0.75141000  0.49404000  0.23177000  1.0
  C  C63  1  0.94588000  0.61255000  0.37238000  1.0
  C  C64  1  0.84655000  0.59379000  0.47031000  1.0
  C  C65  1  0.75100000  0.55304000  0.47175000  1.0
  C  C66  1  0.04329000  0.65832000  0.37407000  1.0
  C  C67  1  0.87372000  0.55282000  0.27151000  1.0
  C  C68  1  0.75473000  0.26818000  0.49408000  1.0
  C  C69  1  0.44189000  0.12742000  0.61241000  1.0
  C  C70  1  0.55994000  0.02945000  0.59349000  1.0
  C  C71  1  0.69620000  0.02804000  0.55270000  1.0
  C  C72  1  0.29883000  0.12565000  0.65810000  1.0
  C  C73  1  0.57375000  0.22834000  0.55272000  1.0
  C  C74  1  0.01677000  0.23180000  0.00583000  1.0
  C  C75  1  0.68153000  0.37249000  0.88766000  1.0
  C  C76  1  0.68281000  0.47047000  0.90659000  1.0
  C  C77  1  0.77691000  0.47191000  0.94734000  1.0
  C  C78  1  0.58257000  0.37422000  0.84177000  1.0
  C  C79  1  0.85454000  0.27157000  0.94732000  1.0
  C  C80  1  0.02265000  0.99398000  0.73183000  1.0
  C  C81  1  0.56925000  0.11231000  0.87243000  1.0
  C  C82  1  0.58942000  0.09346000  0.97036000  1.0
  C  C83  1  0.72427000  0.05249000  0.97180000  1.0
  C  C84  1  0.42440000  0.15809000  0.87422000  1.0
  C  C85  1  0.80196000  0.05249000  0.77155000  1.0
  C  C86  1  0.24859000  0.50596000  0.76823000  1.0
  C  C87  1  0.05411000  0.38746000  0.62762000  1.0
  C  C88  1  0.15345000  0.40621000  0.52969000  1.0
  C  C89  1  0.24901000  0.44695000  0.52825000  1.0
  C  C90  1  0.95670000  0.34169000  0.62593000  1.0
  C  C91  1  0.12628000  0.44718000  0.72849000  1.0
  N  N92  1  0.19132000  0.84065000  0.50478000  1.0
  N  N93  1  0.38562000  0.68551000  0.47334000  1.0
  N  N94  1  0.55329000  0.77180000  0.40742000  1.0
  N  N95  1  0.30613000  0.86572000  0.46859000  1.0
  N  N96  1  0.03687000  0.65938000  0.99527000  1.0
  N  N97  1  0.04476000  0.81455000  0.02667000  1.0
  N  N98  1  0.23279000  0.72830000  0.09251000  1.0
  N  N99  1  0.14064000  0.63433000  0.03134000  1.0
  N  N100  1  0.03213000  0.00493000  0.15939000  1.0
  N  N101  1  0.07134000  0.97354000  0.31453000  1.0
  N  N102  1  0.32521000  0.90764000  0.22832000  1.0
  N  N103  1  0.17194000  0.96886000  0.13439000  1.0
  N  N104  1  0.69615000  0.49532000  0.34056000  1.0
  N  N105  1  0.85926000  0.52657000  0.18544000  1.0
  N  N106  1  0.96099000  0.59262000  0.27162000  1.0
  N  N107  1  0.77480000  0.53156000  0.36557000  1.0
  N  N108  1  0.80869000  0.15935000  0.49521000  1.0
  N  N109  1  0.61437000  0.31450000  0.52665000  1.0
  N  N110  1  0.44671000  0.22821000  0.59258000  1.0
  N  N111  1  0.69387000  0.13428000  0.53140000  1.0
  N  N112  1  0.96313000  0.34062000  0.00473000  1.0
  N  N113  1  0.95524000  0.18545000  0.97334000  1.0
  N  N114  1  0.76721000  0.27169000  0.90749000  1.0
  N  N115  1  0.85936000  0.36566000  0.96866000  1.0
  N  N116  1  0.96788000  0.99507000  0.84061000  1.0
  N  N117  1  0.92867000  0.02646000  0.68547000  1.0
  N  N118  1  0.67479000  0.09236000  0.77169000  1.0
  N  N119  1  0.82806000  0.03114000  0.86561000  1.0
  N  N120  1  0.30385000  0.50468000  0.65944000  1.0
  N  N121  1  0.14074000  0.47343000  0.81456000  1.0
  N  N122  1  0.03901000  0.40738000  0.72838000  1.0
  N  N123  1  0.22520000  0.46844000  0.63443000  1.0
  O  O124  1  0.18814000  0.05283000  0.46633000  1.0
  O  O125  1  0.20720000  0.44722000  0.03364000  1.0
  O  O126  1  0.24085000  0.96663000  0.94737000  1.0
  O  O127  1  0.65426000  0.53409000  0.55262000  1.0
  O  O128  1  0.81186000  0.94718000  0.53366000  1.0
  O  O129  1  0.79280000  0.55277000  0.96637000  1.0
  O  O130  1  0.75915000  0.03337000  0.05264000  1.0
  O  O131  1  0.34575000  0.46590000  0.44738000  1.0
