# generated using pymatgen
data_Mn3H42C56(NO3)4
_symmetry_space_group_name_H-M   'P 1'
_cell_length_a   9.18940000
_cell_length_b   11.93240000
_cell_length_c   12.38295461
_cell_angle_alpha   61.47035943
_cell_angle_beta   80.71014614
_cell_angle_gamma   76.74690000
_symmetry_Int_Tables_number   1
_chemical_formula_structural   Mn3H42C56(NO3)4
_chemical_formula_sum   'Mn3 H42 C56 N4 O12'
_cell_volume   1159.01720496
_cell_formula_units_Z   1
loop_
 _symmetry_equiv_pos_site_id
 _symmetry_equiv_pos_as_xyz
  1  'x, y, z'
loop_
 _atom_site_type_symbol
 _atom_site_label
 _atom_site_symmetry_multiplicity
 _atom_site_fract_x
 _atom_site_fract_y
 _atom_site_fract_z
 _atom_site_occupancy
  Mn  Mn0  1  0.00027000  0.49969000  0.99976000  1.0
  Mn  Mn1  1  0.20633000  0.34541000  0.81949000  1.0
  Mn  Mn2  1  0.79334000  0.65498000  0.18083000  1.0
  H  H3  1  0.16670000  0.18239000  0.69877000  1.0
  H  H4  1  0.83276000  0.81786000  0.30159000  1.0
  H  H5  1  0.40106000  0.49949000  0.88729000  1.0
  H  H6  1  0.59909000  0.50070000  0.11277000  1.0
  H  H7  1  0.27455000  0.14747000  0.51606000  1.0
  H  H8  1  0.72482000  0.85244000  0.48447000  1.0
  H  H9  1  0.19844000  0.83379000  0.66762000  1.0
  H  H10  1  0.80155000  0.16667000  0.33212000  1.0
  H  H11  1  0.53012000  0.23075000  0.21325000  1.0
  H  H12  1  0.47028000  0.76905000  0.78697000  1.0
  H  H13  1  0.75665000  0.32328000  0.10091000  1.0
  H  H14  1  0.24374000  0.67646000  0.89915000  1.0
  H  H15  1  0.01474000  0.67524000  0.48377000  1.0
  H  H16  1  0.98496000  0.32503000  0.51631000  1.0
  H  H17  1  0.74570000  0.37862000  0.59801000  1.0
  H  H18  1  0.25393000  0.62141000  0.40194000  1.0
  H  H19  1  0.63316000  0.34000000  0.48818000  1.0
  H  H20  1  0.36648000  0.65977000  0.51209000  1.0
  H  H21  1  0.29790000  0.17672000  0.27277000  1.0
  H  H22  1  0.70193000  0.82367000  0.72679000  1.0
  H  H23  1  0.22521000  0.02981000  0.46889000  1.0
  H  H24  1  0.77462000  0.97062000  0.53074000  1.0
  H  H25  1  0.04062000  0.87281000  0.28388000  1.0
  H  H26  1  0.95903000  0.12738000  0.71609000  1.0
  H  H27  1  0.85224000  0.06266000  0.94110000  1.0
  H  H28  1  0.14758000  0.93709000  0.05895000  1.0
  H  H29  1  0.43996000  0.96687000  0.30031000  1.0
  H  H30  1  0.56000000  0.03327000  0.70011000  1.0
  H  H31  1  0.39008000  0.98943000  0.15907000  1.0
  H  H32  1  0.61022000  0.01012000  0.84145000  1.0
  H  H33  1  0.04505000  0.16386000  0.24297000  1.0
  H  H34  1  0.95497000  0.83637000  0.75647000  1.0
  H  H35  1  0.11877000  0.06776000  0.16791000  1.0
  H  H36  1  0.88143000  0.93218000  0.83184000  1.0
  H  H37  1  0.83875000  0.48461000  0.69882000  1.0
  H  H38  1  0.16117000  0.51552000  0.30089000  1.0
  H  H39  1  0.62674000  0.96754000  0.05434000  1.0
  H  H40  1  0.37309000  0.03229000  0.94587000  1.0
  H  H41  1  0.51582000  0.22845000  0.40899000  1.0
  H  H42  1  0.48363000  0.77129000  0.59144000  1.0
  H  H43  1  0.66544000  0.54523000  0.84799000  1.0
  H  H44  1  0.33476000  0.45496000  0.15178000  1.0
  C  C45  1  0.26878000  0.21697000  0.64785000  1.0
  C  C46  1  0.73073000  0.78315000  0.35250000  1.0
  C  C47  1  0.48108000  0.47631000  0.82240000  1.0
  C  C48  1  0.51897000  0.52382000  0.17765000  1.0
  C  C49  1  0.33075000  0.19694000  0.54700000  1.0
  C  C50  1  0.66869000  0.80301000  0.45345000  1.0
  C  C51  1  0.26064000  0.26017000  0.08155000  1.0
  C  C52  1  0.74005000  0.73951000  0.91794000  1.0
  C  C53  1  0.52367000  0.38678000  0.68759000  1.0
  C  C54  1  0.47608000  0.61328000  0.31253000  1.0
  C  C55  1  0.16301000  0.84299000  0.58339000  1.0
  C  C56  1  0.83686000  0.15744000  0.41640000  1.0
  C  C57  1  0.60052000  0.19254000  0.15420000  1.0
  C  C58  1  0.39980000  0.80721000  0.84602000  1.0
  C  C59  1  0.72616000  0.24642000  0.09014000  1.0
  C  C60  1  0.27414000  0.75331000  0.90998000  1.0
  C  C61  1  0.09807000  0.61838000  0.70530000  1.0
  C  C62  1  0.90249000  0.38189000  0.29455000  1.0
  C  C63  1  0.10343000  0.74218000  0.58866000  1.0
  C  C64  1  0.89645000  0.25820000  0.41125000  1.0
  C  C65  1  0.46080000  0.32199000  0.63412000  1.0
  C  C66  1  0.53884000  0.67803000  0.36612000  1.0
  C  C67  1  0.05886000  0.75465000  0.47973000  1.0
  C  C68  1  0.94084000  0.24566000  0.52026000  1.0
  C  C69  1  0.67156000  0.40884000  0.66079000  1.0
  C  C70  1  0.32821000  0.59121000  0.33919000  1.0
  C  C71  1  0.52954000  0.30453000  0.53265000  1.0
  C  C72  1  0.47004000  0.69534000  0.46765000  1.0
  C  C73  1  0.56053000  0.09331000  0.14087000  1.0
  C  C74  1  0.43963000  0.90647000  0.85940000  1.0
  C  C75  1  0.28468000  0.14239000  0.20733000  1.0
  C  C76  1  0.71537000  0.85767000  0.79243000  1.0
  C  C77  1  0.17818000  0.95253000  0.47160000  1.0
  C  C78  1  0.82164000  0.04786000  0.52814000  1.0
  C  C79  1  0.13238000  0.96644000  0.36255000  1.0
  C  C80  1  0.86743000  0.03383000  0.63723000  1.0
  C  C81  1  0.94584000  0.26506000  0.93826000  1.0
  C  C82  1  0.05434000  0.73443000  0.06164000  1.0
  C  C83  1  0.07326000  0.86509000  0.36853000  1.0
  C  C84  1  0.92641000  0.13517000  0.63141000  1.0
  C  C85  1  0.81639000  0.20173000  0.01099000  1.0
  C  C86  1  0.18373000  0.79799000  0.98905000  1.0
  C  C87  1  0.78041000  0.09946000  0.00039000  1.0
  C  C88  1  0.21955000  0.90028000  0.99970000  1.0
  C  C89  1  0.41971000  0.04021000  0.20451000  1.0
  C  C90  1  0.58042000  0.95964000  0.79579000  1.0
  C  C91  1  0.13809000  0.08724000  0.24230000  1.0
  C  C92  1  0.86193000  0.91288000  0.75738000  1.0
  C  C93  1  0.72357000  0.46737000  0.71744000  1.0
  C  C94  1  0.27637000  0.53273000  0.28241000  1.0
  C  C95  1  0.65397000  0.04630000  0.06446000  1.0
  C  C96  1  0.34601000  0.95347000  0.93575000  1.0
  C  C97  1  0.46346000  0.24184000  0.48835000  1.0
  C  C98  1  0.53602000  0.75802000  0.51203000  1.0
  C  C99  1  0.62687000  0.50142000  0.80048000  1.0
  C  C100  1  0.37320000  0.49871000  0.19941000  1.0
  N  N101  1  0.42978000  0.42137000  0.76686000  1.0
  N  N102  1  0.57012000  0.57873000  0.23331000  1.0
  N  N103  1  0.33095000  0.27891000  0.68981000  1.0
  N  N104  1  0.66861000  0.72127000  0.31043000  1.0
  O  O105  1  0.97168000  0.36027000  0.94949000  1.0
  O  O106  1  0.02910000  0.63904000  0.05052000  1.0
  O  O107  1  0.10548000  0.61602000  0.80795000  1.0
  O  O108  1  0.89637000  0.38392000  0.19187000  1.0
  O  O109  1  0.21011000  0.37181000  0.07481000  1.0
  O  O110  1  0.79124000  0.62827000  0.92397000  1.0
  O  O111  1  0.02926000  0.22551000  0.86593000  1.0
  O  O112  1  0.97051000  0.77410000  0.13382000  1.0
  O  O113  1  0.09275000  0.51911000  0.69182000  1.0
  O  O114  1  0.90738000  0.48119000  0.30810000  1.0
  O  O115  1  0.28591000  0.23491000  0.99053000  1.0
  O  O116  1  0.71467000  0.76425000  0.00925000  1.0
