# generated using pymatgen
data_CdH6(C2O3)2
_symmetry_space_group_name_H-M   'P 1'
_cell_length_a   9.12027000
_cell_length_b   12.07370000
_cell_length_c   12.31100000
_cell_angle_alpha   90.00000000
_cell_angle_beta   90.00000000
_cell_angle_gamma   90.00000000
_symmetry_Int_Tables_number   1
_chemical_formula_structural   CdH6(C2O3)2
_chemical_formula_sum   'Cd8 H48 C32 O48'
_cell_volume   1355.63073740
_cell_formula_units_Z   8
loop_
 _symmetry_equiv_pos_site_id
 _symmetry_equiv_pos_as_xyz
  1  'x, y, z'
loop_
 _atom_site_type_symbol
 _atom_site_label
 _atom_site_symmetry_multiplicity
 _atom_site_fract_x
 _atom_site_fract_y
 _atom_site_fract_z
 _atom_site_occupancy
  Cd  Cd0  1  0.08254000  0.22695000  0.73369000  1.0
  Cd  Cd1  1  0.41745000  0.77305000  0.23369000  1.0
  Cd  Cd2  1  0.58255000  0.27305000  0.26631000  1.0
  Cd  Cd3  1  0.91746000  0.72695000  0.76631000  1.0
  Cd  Cd4  1  0.91746000  0.77305000  0.26631000  1.0
  Cd  Cd5  1  0.58255000  0.22695000  0.76631000  1.0
  Cd  Cd6  1  0.41746000  0.72695000  0.73368000  1.0
  Cd  Cd7  1  0.08254000  0.27305000  0.23369000  1.0
  H  H8  1  0.10468000  0.27993000  0.95597000  1.0
  H  H9  1  0.39532000  0.72007000  0.45597000  1.0
  H  H10  1  0.60468000  0.22007000  0.04403000  1.0
  H  H11  1  0.89532000  0.77993000  0.54403000  1.0
  H  H12  1  0.89532000  0.72006000  0.04403000  1.0
  H  H13  1  0.60468000  0.27993000  0.54403000  1.0
  H  H14  1  0.39532000  0.77993000  0.95597000  1.0
  H  H15  1  0.10468000  0.22007000  0.45597000  1.0
  H  H16  1  0.93858000  0.30272000  0.92689000  1.0
  H  H17  1  0.56142000  0.69728000  0.42688000  1.0
  H  H18  1  0.43858000  0.19728000  0.07312000  1.0
  H  H19  1  0.06142000  0.80272000  0.57311000  1.0
  H  H20  1  0.06142000  0.69728000  0.07311000  1.0
  H  H21  1  0.43858000  0.30272000  0.57312000  1.0
  H  H22  1  0.56142000  0.80272000  0.92688000  1.0
  H  H23  1  0.93858000  0.19728000  0.42689000  1.0
  H  H24  1  0.01972000  0.49748000  0.34616000  1.0
  H  H25  1  0.48028000  0.50252000  0.84616000  1.0
  H  H26  1  0.51972000  0.00253000  0.65384000  1.0
  H  H27  1  0.98028000  0.99748000  0.15384000  1.0
  H  H28  1  0.98028000  0.50252000  0.65384000  1.0
  H  H29  1  0.51972000  0.49748000  0.15384000  1.0
  H  H30  1  0.48028000  0.99747000  0.34616000  1.0
  H  H31  1  0.01972000  0.00252000  0.84617000  1.0
  H  H32  1  0.34510000  0.51119000  0.53517000  1.0
  H  H33  1  0.15490000  0.48880000  0.03517000  1.0
  H  H34  1  0.84510000  0.98880000  0.46483000  1.0
  H  H35  1  0.65490000  0.01119000  0.96483000  1.0
  H  H36  1  0.65490000  0.48880000  0.46483000  1.0
  H  H37  1  0.84510000  0.51119000  0.96483000  1.0
  H  H38  1  0.15490000  0.01120000  0.53517000  1.0
  H  H39  1  0.34510000  0.98881000  0.03517000  1.0
  H  H40  1  0.16193000  0.56025000  0.53093000  1.0
  H  H41  1  0.33807000  0.43975000  0.03092000  1.0
  H  H42  1  0.66193000  0.93975000  0.46908000  1.0
  H  H43  1  0.83807000  0.06025000  0.96907000  1.0
  H  H44  1  0.83807000  0.43975000  0.46907000  1.0
  H  H45  1  0.66193000  0.56025000  0.96908000  1.0
  H  H46  1  0.33807000  0.06025000  0.53092000  1.0
  H  H47  1  0.16193000  0.93975000  0.03093000  1.0
  H  H48  1  0.26003000  0.54841000  0.34754000  1.0
  H  H49  1  0.23997000  0.45159000  0.84754000  1.0
  H  H50  1  0.76003000  0.95159000  0.65246000  1.0
  H  H51  1  0.73997000  0.04841000  0.15246000  1.0
  H  H52  1  0.73997000  0.45159000  0.65246000  1.0
  H  H53  1  0.76003000  0.54841000  0.15246000  1.0
  H  H54  1  0.23997000  0.04841000  0.34754000  1.0
  H  H55  1  0.26003000  0.95159000  0.84754000  1.0
  C  C56  1  0.18650000  0.38822000  0.57403000  1.0
  C  C57  1  0.31350000  0.61178000  0.07403000  1.0
  C  C58  1  0.68649000  0.11178000  0.42596000  1.0
  C  C59  1  0.81350000  0.88822000  0.92597000  1.0
  C  C60  1  0.81350000  0.61178000  0.42597000  1.0
  C  C61  1  0.68650000  0.38822000  0.92597000  1.0
  C  C62  1  0.31350000  0.88822000  0.57404000  1.0
  C  C63  1  0.18650000  0.11178000  0.07404000  1.0
  C  C64  1  0.23242000  0.48967000  0.51059000  1.0
  C  C65  1  0.26758000  0.51033000  0.01058000  1.0
  C  C66  1  0.73242000  0.01033000  0.48941000  1.0
  C  C67  1  0.76757000  0.98967000  0.98941000  1.0
  C  C68  1  0.76758000  0.51033000  0.48941000  1.0
  C  C69  1  0.73242000  0.48967000  0.98942000  1.0
  C  C70  1  0.26758000  0.98967000  0.51059000  1.0
  C  C71  1  0.23242000  0.01034000  0.01059000  1.0
  C  C72  1  0.22991000  0.46988000  0.38771000  1.0
  C  C73  1  0.27010000  0.53012000  0.88771000  1.0
  C  C74  1  0.72990000  0.03012000  0.61228000  1.0
  C  C75  1  0.77009000  0.96988000  0.11229000  1.0
  C  C76  1  0.77010000  0.53012000  0.61228000  1.0
  C  C77  1  0.72991000  0.46988000  0.11229000  1.0
  C  C78  1  0.27009000  0.96988000  0.38772000  1.0
  C  C79  1  0.22990000  0.03013000  0.88772000  1.0
  C  C80  1  0.34748000  0.38825000  0.35068000  1.0
  C  C81  1  0.15252000  0.61175000  0.85067000  1.0
  C  C82  1  0.84748000  0.11175000  0.64932000  1.0
  C  C83  1  0.65252000  0.88824000  0.14932000  1.0
  C  C84  1  0.65252000  0.61175000  0.64932000  1.0
  C  C85  1  0.84748000  0.38825000  0.14932000  1.0
  C  C86  1  0.15252000  0.88825000  0.35068000  1.0
  C  C87  1  0.34748000  0.11176000  0.85068000  1.0
  O  O88  1  0.24050000  0.29420000  0.55044000  1.0
  O  O89  1  0.25949000  0.70580000  0.05044000  1.0
  O  O90  1  0.74050000  0.20579000  0.44955000  1.0
  O  O91  1  0.75949000  0.79420000  0.94955000  1.0
  O  O92  1  0.75949000  0.70580000  0.44955000  1.0
  O  O93  1  0.74051000  0.29420000  0.94956000  1.0
  O  O94  1  0.25950000  0.79420000  0.55045000  1.0
  O  O95  1  0.24051000  0.20580000  0.05045000  1.0
  O  O96  1  0.04007000  0.31092000  0.89950000  1.0
  O  O97  1  0.45993000  0.68908000  0.39950000  1.0
  O  O98  1  0.54008000  0.18908000  0.10050000  1.0
  O  O99  1  0.95993000  0.81092000  0.60050000  1.0
  O  O100  1  0.95993000  0.68908000  0.10050000  1.0
  O  O101  1  0.54007000  0.31092000  0.60050000  1.0
  O  O102  1  0.45993000  0.81092000  0.89950000  1.0
  O  O103  1  0.04007000  0.18908000  0.39950000  1.0
  O  O104  1  0.09488000  0.39954000  0.65300000  1.0
  O  O105  1  0.40512000  0.60046000  0.15300000  1.0
  O  O106  1  0.59488000  0.10045000  0.34700000  1.0
  O  O107  1  0.90512000  0.89954000  0.84700000  1.0
  O  O108  1  0.90512000  0.60046000  0.34700000  1.0
  O  O109  1  0.59488000  0.39954000  0.84701000  1.0
  O  O110  1  0.40512000  0.89955000  0.65300000  1.0
  O  O111  1  0.09488000  0.10046000  0.15300000  1.0
  O  O112  1  0.31629000  0.30967000  0.28393000  1.0
  O  O113  1  0.18371000  0.69033000  0.78392000  1.0
  O  O114  1  0.81629000  0.19033000  0.71607000  1.0
  O  O115  1  0.68371000  0.80967000  0.21607000  1.0
  O  O116  1  0.68371000  0.69033000  0.71607000  1.0
  O  O117  1  0.81630000  0.30967000  0.21608000  1.0
  O  O118  1  0.18370000  0.80967000  0.28393000  1.0
  O  O119  1  0.31629000  0.19034000  0.78393000  1.0
  O  O120  1  0.47782000  0.40380000  0.38168000  1.0
  O  O121  1  0.02218000  0.59620000  0.88167000  1.0
  O  O122  1  0.97782000  0.09620000  0.61832000  1.0
  O  O123  1  0.52217000  0.90380000  0.11833000  1.0
  O  O124  1  0.52218000  0.59620000  0.61832000  1.0
  O  O125  1  0.97782000  0.40380000  0.11832000  1.0
  O  O126  1  0.02217000  0.90380000  0.38168000  1.0
  O  O127  1  0.47782000  0.09620000  0.88168000  1.0
  O  O128  1  0.08945000  0.43317000  0.35193000  1.0
  O  O129  1  0.41055000  0.56683000  0.85193000  1.0
  O  O130  1  0.58945000  0.06683000  0.64807000  1.0
  O  O131  1  0.91055000  0.93317000  0.14807000  1.0
  O  O132  1  0.91056000  0.56683000  0.64806000  1.0
  O  O133  1  0.58945000  0.43317000  0.14807000  1.0
  O  O134  1  0.41055000  0.93317000  0.35194000  1.0
  O  O135  1  0.08944000  0.06683000  0.85194000  1.0
