# generated using pymatgen
data_KH24C12(NO2)3
_symmetry_space_group_name_H-M   'P 1'
_cell_length_a   7.43191000
_cell_length_b   7.83611000
_cell_length_c   13.93010000
_cell_angle_alpha   89.99990000
_cell_angle_beta   90.00000000
_cell_angle_gamma   95.69070000
_symmetry_Int_Tables_number   1
_chemical_formula_structural   KH24C12(NO2)3
_chemical_formula_sum   'K2 H48 C24 N6 O12'
_cell_volume   807.25280928
_cell_formula_units_Z   2
loop_
 _symmetry_equiv_pos_site_id
 _symmetry_equiv_pos_as_xyz
  1  'x, y, z'
loop_
 _atom_site_type_symbol
 _atom_site_label
 _atom_site_symmetry_multiplicity
 _atom_site_fract_x
 _atom_site_fract_y
 _atom_site_fract_z
 _atom_site_occupancy
  K  K0  1  0.49998000  0.50002000  0.50001000  1.0
  K  K1  1  0.00002000  0.49998000  0.00000000  1.0
  H  H2  1  0.51018000  0.81090000  0.21710000  1.0
  H  H3  1  0.98980000  0.18910000  0.71710000  1.0
  H  H4  1  0.48980000  0.18910000  0.78290000  1.0
  H  H5  1  0.01018000  0.81090000  0.28289000  1.0
  H  H6  1  0.34034000  0.75818000  0.30676000  1.0
  H  H7  1  0.15965000  0.24181000  0.80676000  1.0
  H  H8  1  0.65965000  0.24181000  0.69325000  1.0
  H  H9  1  0.84035000  0.75818000  0.19323000  1.0
  H  H10  1  0.34947000  0.53545000  0.17903000  1.0
  H  H11  1  0.15052000  0.46454000  0.67903000  1.0
  H  H12  1  0.65052000  0.46455000  0.82097000  1.0
  H  H13  1  0.84947000  0.53545000  0.32097000  1.0
  H  H14  1  0.57562000  0.50388000  0.21213000  1.0
  H  H15  1  0.92437000  0.49612000  0.71212000  1.0
  H  H16  1  0.42438000  0.49613000  0.78787000  1.0
  H  H17  1  0.07562000  0.50388000  0.28787000  1.0
  H  H18  1  0.43702000  0.19089000  0.27088000  1.0
  H  H19  1  0.06296000  0.80911000  0.77088000  1.0
  H  H20  1  0.56298000  0.80911000  0.72911000  1.0
  H  H21  1  0.93702000  0.19088000  0.22912000  1.0
  H  H22  1  0.23550000  0.26244000  0.22257000  1.0
  H  H23  1  0.26449000  0.73756000  0.72257000  1.0
  H  H24  1  0.76451000  0.73756000  0.77743000  1.0
  H  H25  1  0.73549000  0.26244000  0.27743000  1.0
  H  H26  1  0.09478000  0.24678000  0.38742000  1.0
  H  H27  1  0.40522000  0.75321000  0.88741000  1.0
  H  H28  1  0.90523000  0.75322000  0.61259000  1.0
  H  H29  1  0.59478000  0.24678000  0.11258000  1.0
  H  H30  1  0.15832000  0.04439000  0.34656000  1.0
  H  H31  1  0.34168000  0.95560000  0.84656000  1.0
  H  H32  1  0.84168000  0.95560000  0.65344000  1.0
  H  H33  1  0.65831000  0.04440000  0.15344000  1.0
  H  H34  1  0.18380000  0.95218000  0.51463000  1.0
  H  H35  1  0.31620000  0.04781000  0.01462000  1.0
  H  H36  1  0.81620000  0.04781000  0.48537000  1.0
  H  H37  1  0.68381000  0.95218000  0.98537000  1.0
  H  H38  1  0.11120000  0.15661000  0.54774000  1.0
  H  H39  1  0.38880000  0.84339000  0.04774000  1.0
  H  H40  1  0.88880000  0.84339000  0.45226000  1.0
  H  H41  1  0.61120000  0.15661000  0.95226000  1.0
  H  H42  1  0.51801000  0.96402000  0.40411000  1.0
  H  H43  1  0.98199000  0.03598000  0.90410000  1.0
  H  H44  1  0.48199000  0.03598000  0.59590000  1.0
  H  H45  1  0.01800000  0.96402000  0.09589000  1.0
  H  H46  1  0.70951000  0.98890000  0.32619000  1.0
  H  H47  1  0.79048000  0.01110000  0.82619000  1.0
  H  H48  1  0.29048000  0.01111000  0.67382000  1.0
  H  H49  1  0.20951000  0.98889000  0.17381000  1.0
  C  C50  1  0.46965000  0.72307000  0.27719000  1.0
  C  C51  1  0.03035000  0.27692000  0.77719000  1.0
  C  C52  1  0.53035000  0.27693000  0.72281000  1.0
  C  C53  1  0.96965000  0.72307000  0.22281000  1.0
  C  C54  1  0.44622000  0.54227000  0.23916000  1.0
  C  C55  1  0.05377000  0.45772000  0.73915000  1.0
  C  C56  1  0.55378000  0.45773000  0.76084000  1.0
  C  C57  1  0.94622000  0.54227000  0.26084000  1.0
  C  C58  1  0.31984000  0.26217000  0.28794000  1.0
  C  C59  1  0.18016000  0.73783000  0.78793000  1.0
  C  C60  1  0.68017000  0.73783000  0.71206000  1.0
  C  C61  1  0.81983000  0.26217000  0.21207000  1.0
  C  C62  1  0.21115000  0.17549000  0.36915000  1.0
  C  C63  1  0.28884000  0.82451000  0.86914000  1.0
  C  C64  1  0.78885000  0.82451000  0.63085000  1.0
  C  C65  1  0.71115000  0.17549000  0.13085000  1.0
  C  C66  1  0.23016000  0.08745000  0.53141000  1.0
  C  C67  1  0.26984000  0.91255000  0.03140000  1.0
  C  C68  1  0.76984000  0.91255000  0.46859000  1.0
  C  C69  1  0.73016000  0.08745000  0.96859000  1.0
  C  C70  1  0.64352000  0.90859000  0.38393000  1.0
  C  C71  1  0.85648000  0.09141000  0.88393000  1.0
  C  C72  1  0.35648000  0.09141000  0.61607000  1.0
  C  C73  1  0.14352000  0.90859000  0.11607000  1.0
  N  N74  1  0.12475000  0.60772000  0.50407000  1.0
  N  N75  1  0.37530000  0.39232000  0.00407000  1.0
  N  N76  1  0.87531000  0.39232000  0.49593000  1.0
  N  N77  1  0.62474000  0.60772000  0.99593000  1.0
  N  N78  1  0.00002000  0.50001000  0.50000000  1.0
  N  N79  1  0.50002000  0.50002000  0.00000000  1.0
  O  O80  1  0.60463000  0.73636000  0.35065000  1.0
  O  O81  1  0.89537000  0.26364000  0.85065000  1.0
  O  O82  1  0.39537000  0.26365000  0.64935000  1.0
  O  O83  1  0.10463000  0.73635000  0.14935000  1.0
  O  O84  1  0.37764000  0.43296000  0.31624000  1.0
  O  O85  1  0.12236000  0.56704000  0.81624000  1.0
  O  O86  1  0.62237000  0.56704000  0.68376000  1.0
  O  O87  1  0.87763000  0.43296000  0.18376000  1.0
  O  O88  1  0.32556000  0.16723000  0.45103000  1.0
  O  O89  1  0.17443000  0.83277000  0.95103000  1.0
  O  O90  1  0.67444000  0.83277000  0.54897000  1.0
  O  O91  1  0.82556000  0.16723000  0.04897000  1.0
