# generated using pymatgen
data_CuPH6(CO)4
_symmetry_space_group_name_H-M   'P 1'
_cell_length_a   7.40525000
_cell_length_b   7.50283000
_cell_length_c   10.76320000
_cell_angle_alpha   89.99970000
_cell_angle_beta   92.91930000
_cell_angle_gamma   89.99950000
_symmetry_Int_Tables_number   1
_chemical_formula_structural   CuPH6(CO)4
_chemical_formula_sum   'Cu4 P4 H24 C16 O16'
_cell_volume   597.23090528
_cell_formula_units_Z   4
loop_
 _symmetry_equiv_pos_site_id
 _symmetry_equiv_pos_as_xyz
  1  'x, y, z'
loop_
 _atom_site_type_symbol
 _atom_site_label
 _atom_site_symmetry_multiplicity
 _atom_site_fract_x
 _atom_site_fract_y
 _atom_site_fract_z
 _atom_site_occupancy
  Cu  Cu0  1  0.06928000  0.68963000  0.03578000  1.0
  Cu  Cu1  1  0.43073000  0.18963000  0.96423000  1.0
  Cu  Cu2  1  0.93074000  0.31036000  0.96422000  1.0
  Cu  Cu3  1  0.56927000  0.81038000  0.03577000  1.0
  P  P4  1  0.84504000  0.95092000  0.85429000  1.0
  P  P5  1  0.65496000  0.45091000  0.14571000  1.0
  P  P6  1  0.15496000  0.04908000  0.14571000  1.0
  P  P7  1  0.34504000  0.54908000  0.85430000  1.0
  H  H8  1  0.14125000  0.43746000  0.17183000  1.0
  H  H9  1  0.35875000  0.93747000  0.82817000  1.0
  H  H10  1  0.85876000  0.56254000  0.82817000  1.0
  H  H11  1  0.64125000  0.06254000  0.17183000  1.0
  H  H12  1  0.30814000  0.57226000  0.17797000  1.0
  H  H13  1  0.19185000  0.07227000  0.82203000  1.0
  H  H14  1  0.69186000  0.42773000  0.82203000  1.0
  H  H15  1  0.80814000  0.92773000  0.17796000  1.0
  H  H16  1  0.67113000  0.82376000  0.68432000  1.0
  H  H17  1  0.82886000  0.32376000  0.31568000  1.0
  H  H18  1  0.32886000  0.17624000  0.31569000  1.0
  H  H19  1  0.17113000  0.67624000  0.68432000  1.0
  H  H20  1  0.64807000  0.05779000  0.69441000  1.0
  H  H21  1  0.85193000  0.55780000  0.30560000  1.0
  H  H22  1  0.35192000  0.94220000  0.30559000  1.0
  H  H23  1  0.14808000  0.44221000  0.69441000  1.0
  H  H24  1  0.88233000  0.69718000  0.54160000  1.0
  H  H25  1  0.61766000  0.19718000  0.45840000  1.0
  H  H26  1  0.11766000  0.30282000  0.45840000  1.0
  H  H27  1  0.38233000  0.80282000  0.54160000  1.0
  H  H28  1  0.09393000  0.74357000  0.37252000  1.0
  H  H29  1  0.40606000  0.24357000  0.62749000  1.0
  H  H30  1  0.90606000  0.25642000  0.62749000  1.0
  H  H31  1  0.59393000  0.75643000  0.37252000  1.0
  C  C32  1  0.74754000  0.94871000  0.69588000  1.0
  C  C33  1  0.75245000  0.44872000  0.30412000  1.0
  C  C34  1  0.25245000  0.05128000  0.30412000  1.0
  C  C35  1  0.24755000  0.55129000  0.69588000  1.0
  C  C36  1  0.87956000  0.97379000  0.59607000  1.0
  C  C37  1  0.62043000  0.47379000  0.40392000  1.0
  C  C38  1  0.12043000  0.02621000  0.40392000  1.0
  C  C39  1  0.37956000  0.52621000  0.59607000  1.0
  C  C40  1  0.93438000  0.83018000  0.52376000  1.0
  C  C41  1  0.56562000  0.33020000  0.47624000  1.0
  C  C42  1  0.06562000  0.16979000  0.47624000  1.0
  C  C43  1  0.43438000  0.66981000  0.52376000  1.0
  C  C44  1  0.05246000  0.85596000  0.42862000  1.0
  C  C45  1  0.44754000  0.35597000  0.57137000  1.0
  C  C46  1  0.94755000  0.14403000  0.57137000  1.0
  C  C47  1  0.55246000  0.64404000  0.42862000  1.0
  O  O48  1  0.17392000  0.56479000  0.18971000  1.0
  O  O49  1  0.32608000  0.06480000  0.81029000  1.0
  O  O50  1  0.82609000  0.43521000  0.81028000  1.0
  O  O51  1  0.67392000  0.93521000  0.18971000  1.0
  O  O52  1  0.93665000  0.76794000  0.87889000  1.0
  O  O53  1  0.56335000  0.26793000  0.12111000  1.0
  O  O54  1  0.06336000  0.23207000  0.12111000  1.0
  O  O55  1  0.43666000  0.73206000  0.87889000  1.0
  O  O56  1  0.98800000  0.10218000  0.86567000  1.0
  O  O57  1  0.51200000  0.60217000  0.13433000  1.0
  O  O58  1  0.01201000  0.89782000  0.13433000  1.0
  O  O59  1  0.48801000  0.39783000  0.86566000  1.0
  O  O60  1  0.68905000  0.99332000  0.94001000  1.0
  O  O61  1  0.81093000  0.49334000  0.05999000  1.0
  O  O62  1  0.31094000  0.00667000  0.05999000  1.0
  O  O63  1  0.18905000  0.50668000  0.94001000  1.0
