# generated using pymatgen
data_SnH21C15NO4
_symmetry_space_group_name_H-M   'P 1'
_cell_length_a   9.53953000
_cell_length_b   14.21057832
_cell_length_c   22.76100000
_cell_angle_alpha   93.71156675
_cell_angle_beta   102.09790000
_cell_angle_gamma   109.62142775
_symmetry_Int_Tables_number   1
_chemical_formula_structural   SnH21C15NO4
_chemical_formula_sum   'Sn6 H126 C90 N6 O24'
_cell_volume   2811.06814868
_cell_formula_units_Z   6
loop_
 _symmetry_equiv_pos_site_id
 _symmetry_equiv_pos_as_xyz
  1  'x, y, z'
loop_
 _atom_site_type_symbol
 _atom_site_label
 _atom_site_symmetry_multiplicity
 _atom_site_fract_x
 _atom_site_fract_y
 _atom_site_fract_z
 _atom_site_occupancy
  Sn  Sn0  1  0.47688000  0.86627000  0.76446000  1.0
  Sn  Sn1  1  0.65381000  0.36624000  0.26447000  1.0
  Sn  Sn2  1  0.65283000  0.24630000  0.50345000  1.0
  Sn  Sn3  1  0.59696000  0.74624000  0.00341000  1.0
  Sn  Sn4  1  0.86539000  0.18421000  0.96635000  1.0
  Sn  Sn5  1  0.78516000  0.68430000  0.46637000  1.0
  H  H6  1  0.58449000  0.00957000  0.65314000  1.0
  H  H7  1  0.57847000  0.50953000  0.15315000  1.0
  H  H8  1  0.73313000  0.32376000  0.72745000  1.0
  H  H9  1  0.81784000  0.82371000  0.22764000  1.0
  H  H10  1  0.69805000  0.26759000  0.82924000  1.0
  H  H11  1  0.89863000  0.76743000  0.32939000  1.0
  H  H12  1  0.77943000  0.95495000  0.79569000  1.0
  H  H13  1  0.47109000  0.45487000  0.29568000  1.0
  H  H14  1  0.71066000  0.90948000  0.85954000  1.0
  H  H15  1  0.55835000  0.40951000  0.35955000  1.0
  H  H16  1  0.76969000  0.78402000  0.75810000  1.0
  H  H17  1  0.27235000  0.28390000  0.25815000  1.0
  H  H18  1  0.68591000  0.73237000  0.81640000  1.0
  H  H19  1  0.36283000  0.23234000  0.31648000  1.0
  H  H20  1  0.00335000  0.89829000  0.83758000  1.0
  H  H21  1  0.23251000  0.39825000  0.33758000  1.0
  H  H22  1  0.91987000  0.84113000  0.89454000  1.0
  H  H23  1  0.31574000  0.34114000  0.39457000  1.0
  H  H24  1  0.91720000  0.67197000  0.84913000  1.0
  H  H25  1  0.10380000  0.17195000  0.34915000  1.0
  H  H26  1  0.10591000  0.76409000  0.87089000  1.0
  H  H27  1  0.02897000  0.26406000  0.37091000  1.0
  H  H28  1  0.00603000  0.73255000  0.79344000  1.0
  H  H29  1  0.01988000  0.23252000  0.29346000  1.0
  H  H30  1  0.26238000  0.84099000  0.66383000  1.0
  H  H31  1  0.74231000  0.34086000  0.16384000  1.0
  H  H32  1  0.18085000  0.77331000  0.71851000  1.0
  H  H33  1  0.81090000  0.27323000  0.21854000  1.0
  H  H34  1  0.25998000  0.00254000  0.71621000  1.0
  H  H35  1  0.95864000  0.50248000  0.21620000  1.0
  H  H36  1  0.18174000  0.93685000  0.77161000  1.0
  H  H37  1  0.02673000  0.43682000  0.27157000  1.0
  H  H38  1  0.02828000  0.89389000  0.63479000  1.0
  H  H39  1  0.00048000  0.39408000  0.13475000  1.0
  H  H40  1  0.95042000  0.82719000  0.69002000  1.0
  H  H41  1  0.06677000  0.32725000  0.18993000  1.0
  H  H42  1  0.94647000  0.98942000  0.74199000  1.0
  H  H43  1  0.28482000  0.48946000  0.24208000  1.0
  H  H44  1  0.83202000  0.95576000  0.66636000  1.0
  H  H45  1  0.29025000  0.45596000  0.16646000  1.0
  H  H46  1  0.01589000  0.05376000  0.68383000  1.0
  H  H47  1  0.22180000  0.55391000  0.18395000  1.0
  H  H48  1  0.31291000  0.52337000  0.01109000  1.0
  H  H49  1  0.72164000  0.02348000  0.51115000  1.0
  H  H50  1  0.96361000  0.44219000  0.84302000  1.0
  H  H51  1  0.82183000  0.94248000  0.34309000  1.0
  H  H52  1  0.13379000  0.59465000  0.80550000  1.0
  H  H53  1  0.76649000  0.09489000  0.30559000  1.0
  H  H54  1  0.89627000  0.39467000  0.56811000  1.0
  H  H55  1  0.56683000  0.89465000  0.06814000  1.0
  H  H56  1  0.94797000  0.28784000  0.55463000  1.0
  H  H57  1  0.39475000  0.78782000  0.05463000  1.0
  H  H58  1  0.90585000  0.42853000  0.45938000  1.0
  H  H59  1  0.48229000  0.92861000  0.95942000  1.0
  H  H60  1  0.97462000  0.32929000  0.45060000  1.0
  H  H61  1  0.30548000  0.82936000  0.95066000  1.0
  H  H62  1  0.13559000  0.51299000  0.55008000  1.0
  H  H63  1  0.42775000  0.01301000  0.05017000  1.0
  H  H64  1  0.20612000  0.41699000  0.53387000  1.0
  H  H65  1  0.24496000  0.91700000  0.03392000  1.0
  H  H66  1  0.21283000  0.46701000  0.42899000  1.0
  H  H67  1  0.18350000  0.96705000  0.92905000  1.0
  H  H68  1  0.32812000  0.56955000  0.48711000  1.0
  H  H69  1  0.22884000  0.06958000  0.98717000  1.0
  H  H70  1  0.14362000  0.56381000  0.44659000  1.0
  H  H71  1  0.36715000  0.06386000  0.94667000  1.0
  H  H72  1  0.36519000  0.19730000  0.44316000  1.0
  H  H73  1  0.77540000  0.69732000  0.94317000  1.0
  H  H74  1  0.39332000  0.08369000  0.46157000  1.0
  H  H75  1  0.65188000  0.58368000  0.96149000  1.0
  H  H76  1  0.37718000  0.12248000  0.56781000  1.0
  H  H77  1  0.81280000  0.62237000  0.06780000  1.0
  H  H78  1  0.36805000  0.24112000  0.55470000  1.0
  H  H79  1  0.92763000  0.74103000  0.05474000  1.0
  H  H80  1  0.12241000  0.03859000  0.49039000  1.0
  H  H81  1  0.90646000  0.53851000  0.99046000  1.0
  H  H82  1  0.11156000  0.15902000  0.48313000  1.0
  H  H83  1  0.03048000  0.65895000  0.98319000  1.0
  H  H84  1  0.14092000  0.06822000  0.60280000  1.0
  H  H85  1  0.03009000  0.56817000  0.10287000  1.0
  H  H86  1  0.96935000  0.07827000  0.56092000  1.0
  H  H87  1  0.16976000  0.57828000  0.06095000  1.0
  H  H88  1  0.12840000  0.18899000  0.59607000  1.0
  H  H89  1  0.15662000  0.68897000  0.09611000  1.0
  H  H90  1  0.66387000  0.78669000  0.57856000  1.0
  H  H91  1  0.20108000  0.28659000  0.07858000  1.0
  H  H92  1  0.43355000  0.54583000  0.66911000  1.0
  H  H93  1  0.28121000  0.04581000  0.16915000  1.0
  H  H94  1  0.49020000  0.42444000  0.59748000  1.0
  H  H95  1  0.03151000  0.92434000  0.09752000  1.0
  H  H96  1  0.97203000  0.06373000  0.90956000  1.0
  H  H97  1  0.50129000  0.56374000  0.40956000  1.0
  H  H98  1  0.88306000  0.12412000  0.85607000  1.0
  H  H99  1  0.59723000  0.62409000  0.35607000  1.0
  H  H100  1  0.12206000  0.28190000  0.88541000  1.0
  H  H101  1  0.54536000  0.78188000  0.38535000  1.0
  H  H102  1  0.21218000  0.22078000  0.93736000  1.0
  H  H103  1  0.44606000  0.72079000  0.43731000  1.0
  H  H104  1  0.18336000  0.09030000  0.85076000  1.0
  H  H105  1  0.25779000  0.59023000  0.35073000  1.0
  H  H106  1  0.08845000  0.15062000  0.79995000  1.0
  H  H107  1  0.36208000  0.65063000  0.29990000  1.0
  H  H108  1  0.32804000  0.30853000  0.82575000  1.0
  H  H109  1  0.30609000  0.80844000  0.32577000  1.0
  H  H110  1  0.36373000  0.20197000  0.79687000  1.0
  H  H111  1  0.13499000  0.70184000  0.29690000  1.0
  H  H112  1  0.42364000  0.24605000  0.87595000  1.0
  H  H113  1  0.19830000  0.74587000  0.37598000  1.0
  H  H114  1  0.65187000  0.15264000  0.02621000  1.0
  H  H115  1  0.02696000  0.65270000  0.52617000  1.0
  H  H116  1  0.82205000  0.24724000  0.07260000  1.0
  H  H117  1  0.99794000  0.74733000  0.57258000  1.0
  H  H118  1  0.77325000  0.37999000  0.01692000  1.0
  H  H119  1  0.12386000  0.88004000  0.51689000  1.0
  H  H120  1  0.63378000  0.29138000  0.95737000  1.0
  H  H121  1  0.11498000  0.79142000  0.45731000  1.0
  H  H122  1  0.59526000  0.32121000  0.08686000  1.0
  H  H123  1  0.31290000  0.82118000  0.58678000  1.0
  H  H124  1  0.45871000  0.23549000  0.02543000  1.0
  H  H125  1  0.30224000  0.73548000  0.52533000  1.0
  H  H126  1  0.58309000  0.46753000  0.03204000  1.0
  H  H127  1  0.41656000  0.96753000  0.53199000  1.0
  H  H128  1  0.39992000  0.39331000  0.04061000  1.0
  H  H129  1  0.53412000  0.89335000  0.54057000  1.0
  H  H130  1  0.44517000  0.38205000  0.96936000  1.0
  H  H131  1  0.40639000  0.88210000  0.46931000  1.0
  C  C132  1  0.60750000  0.06921000  0.69038000  1.0
  C  C133  1  0.65220000  0.56916000  0.19042000  1.0
  C  C134  1  0.66133000  0.17120000  0.68310000  1.0
  C  C135  1  0.69292000  0.67116000  0.18318000  1.0
  C  C136  1  0.69299000  0.24426000  0.73315000  1.0
  C  C137  1  0.78423000  0.74417000  0.23328000  1.0
  C  C138  1  0.67081000  0.21392000  0.78846000  1.0
  C  C139  1  0.83145000  0.71380000  0.28857000  1.0
  C  C140  1  0.60949000  0.11054000  0.79107000  1.0
  C  C141  1  0.79213000  0.61042000  0.29114000  1.0
  C  C142  1  0.56927000  0.07109000  0.84795000  1.0
  C  C143  1  0.84988000  0.57099000  0.34799000  1.0
  C  C144  1  0.67330000  0.20101000  0.62189000  1.0
  C  C145  1  0.64967000  0.70104000  0.12198000  1.0
  C  C146  1  0.70864000  0.88863000  0.81203000  1.0
  C  C147  1  0.49197000  0.38861000  0.31204000  1.0
  C  C148  1  0.76530000  0.80148000  0.80541000  1.0
  C  C149  1  0.34155000  0.30142000  0.30545000  1.0
  C  C150  1  0.92560000  0.82682000  0.84704000  1.0
  C  C151  1  0.24822000  0.32680000  0.34707000  1.0
  C  C152  1  0.99216000  0.74435000  0.83982000  1.0
  C  C153  1  0.09193000  0.24432000  0.33985000  1.0
  C  C154  1  0.25265000  0.84796000  0.71102000  1.0
  C  C155  1  0.80627000  0.34788000  0.21103000  1.0
  C  C156  1  0.18565000  0.92820000  0.72360000  1.0
  C  C157  1  0.96608000  0.42816000  0.22358000  1.0
  C  C158  1  0.02370000  0.90208000  0.68283000  1.0
  C  C159  1  0.06120000  0.40216000  0.18280000  1.0
  C  C160  1  0.95026000  0.97961000  0.69415000  1.0
  C  C161  1  0.22351000  0.47972000  0.19421000  1.0
  C  C162  1  0.26736000  0.53658000  0.96561000  1.0
  C  C163  1  0.73499000  0.03673000  0.46568000  1.0
  C  C164  1  0.12473000  0.47214000  0.92957000  1.0
  C  C165  1  0.77719000  0.97234000  0.42965000  1.0
  C  C166  1  0.07429000  0.49253000  0.87118000  1.0
  C  C167  1  0.78966000  0.99278000  0.37127000  1.0
  C  C168  1  0.16629000  0.57542000  0.85057000  1.0
  C  C169  1  0.75986000  0.07564000  0.35066000  1.0
  C  C170  1  0.30556000  0.63686000  0.88960000  1.0
  C  C171  1  0.72096000  0.13702000  0.38968000  1.0
  C  C172  1  0.41079000  0.72831000  0.87029000  1.0
  C  C173  1  0.68773000  0.22839000  0.37034000  1.0
  C  C174  1  0.02798000  0.38025000  0.95076000  1.0
  C  C175  1  0.80316000  0.88043000  0.45082000  1.0
  C  C176  1  0.89380000  0.33781000  0.53240000  1.0
  C  C177  1  0.47664000  0.83783000  0.03242000  1.0
  C  C178  1  0.97140000  0.38707000  0.48454000  1.0
  C  C179  1  0.40046000  0.88712000  0.98459000  1.0
  C  C180  1  0.13636000  0.45969000  0.51273000  1.0
  C  C181  1  0.33635000  0.95972000  0.01281000  1.0
  C  C182  1  0.20974000  0.51848000  0.46643000  1.0
  C  C183  1  0.27550000  0.01852000  0.96651000  1.0
  C  C184  1  0.40934000  0.16094000  0.48018000  1.0
  C  C185  1  0.73176000  0.66090000  0.98015000  1.0
  C  C186  1  0.33413000  0.16282000  0.53273000  1.0
  C  C187  1  0.86127000  0.66273000  0.03274000  1.0
  C  C188  1  0.15859000  0.11557000  0.51506000  1.0
  C  C189  1  0.97193000  0.61551000  0.01511000  1.0
  C  C190  1  0.09494000  0.11246000  0.57142000  1.0
  C  C191  1  0.08887000  0.61243000  0.07148000  1.0
  C  C192  1  0.62247000  0.70725000  0.58416000  1.0
  C  C193  1  0.16867000  0.20715000  0.08418000  1.0
  C  C194  1  0.54327000  0.67396000  0.62860000  1.0
  C  C195  1  0.25901000  0.17390000  0.12864000  1.0
  C  C196  1  0.49407000  0.57122000  0.63413000  1.0
  C  C197  1  0.21105000  0.07117000  0.13417000  1.0
  C  C198  1  0.52390000  0.50503000  0.59517000  1.0
  C  C199  1  0.07607000  0.00492000  0.09520000  1.0
  C  C200  1  0.60208000  0.54388000  0.55169000  1.0
  C  C201  1  0.99329000  0.04375000  0.05168000  1.0
  C  C202  1  0.63893000  0.47575000  0.50868000  1.0
  C  C203  1  0.84540000  0.97561000  0.00861000  1.0
  C  C204  1  0.51450000  0.74657000  0.67104000  1.0
  C  C205  1  0.40287000  0.24655000  0.17107000  1.0
  C  C206  1  0.96897000  0.13753000  0.89921000  1.0
  C  C207  1  0.56781000  0.63753000  0.39919000  1.0
  C  C208  1  0.12544000  0.20737000  0.89429000  1.0
  C  C209  1  0.47627000  0.70737000  0.39424000  1.0
  C  C210  1  0.17713000  0.16454000  0.84258000  1.0
  C  C211  1  0.32999000  0.66449000  0.34255000  1.0
  C  C212  1  0.33160000  0.23414000  0.83492000  1.0
  C  C213  1  0.23737000  0.73402000  0.33493000  1.0
  C  C214  1  0.74395000  0.22477000  0.02704000  1.0
  C  C215  1  0.00793000  0.72484000  0.52701000  1.0
  C  C216  1  0.67997000  0.30555000  0.00695000  1.0
  C  C217  1  0.13260000  0.80559000  0.50689000  1.0
  C  C218  1  0.55288000  0.30967000  0.03717000  1.0
  C  C219  1  0.29402000  0.80966000  0.53710000  1.0
  C  C220  1  0.49192000  0.39256000  0.01882000  1.0
  C  C221  1  0.41959000  0.89260000  0.51876000  1.0
  N  N222  1  0.57864000  0.04031000  0.74278000  1.0
  N  N223  1  0.70458000  0.54022000  0.24280000  1.0
  N  N224  1  0.35457000  0.61753000  0.94590000  1.0
  N  N225  1  0.70895000  0.11767000  0.44598000  1.0
  N  N226  1  0.65120000  0.64311000  0.54667000  1.0
  N  N227  1  0.03837000  0.14298000  0.04668000  1.0
  O  O228  1  0.47994000  0.97972000  0.84222000  1.0
  O  O229  1  0.84226000  0.47966000  0.34224000  1.0
  O  O230  1  0.62418000  0.13189000  0.89727000  1.0
  O  O231  1  0.90502000  0.63177000  0.39732000  1.0
  O  O232  1  0.66573000  0.28645000  0.61207000  1.0
  O  O233  1  0.73301000  0.78645000  0.11218000  1.0
  O  O234  1  0.68353000  0.13888000  0.58128000  1.0
  O  O235  1  0.53664000  0.63895000  0.08135000  1.0
  O  O236  1  0.54299000  0.77448000  0.90512000  1.0
  O  O237  1  0.63663000  0.27461000  0.40518000  1.0
  O  O238  1  0.35740000  0.75098000  0.81961000  1.0
  O  O239  1  0.71286000  0.25094000  0.31961000  1.0
  O  O240  1  0.89326000  0.33231000  0.91732000  1.0
  O  O241  1  0.85670000  0.83258000  0.41743000  1.0
  O  O242  1  0.08338000  0.34975000  0.99845000  1.0
  O  O243  1  0.76466000  0.84981000  0.49844000  1.0
  O  O244  1  0.72958000  0.51638000  0.47627000  1.0
  O  O245  1  0.76296000  0.01626000  0.97622000  1.0
  O  O246  1  0.57546000  0.38197000  0.50875000  1.0
  O  O247  1  0.81530000  0.88183000  0.00858000  1.0
  O  O248  1  0.44243000  0.70956000  0.71055000  1.0
  O  O249  1  0.47740000  0.20956000  0.21060000  1.0
  O  O250  1  0.56408000  0.84035000  0.66768000  1.0
  O  O251  1  0.44376000  0.34033000  0.16768000  1.0
