# generated using pymatgen
data_ZnH6C19N4(O2F3)2
_symmetry_space_group_name_H-M   'P 1'
_cell_length_a   17.24520000
_cell_length_b   22.85500000
_cell_length_c   23.94260000
_cell_angle_alpha   86.19950000
_cell_angle_beta   89.88580000
_cell_angle_gamma   84.09440000
_symmetry_Int_Tables_number   1
_chemical_formula_structural   ZnH6C19N4(O2F3)2
_chemical_formula_sum   'Zn4 H24 C76 N16 O16 F24'
_cell_volume   9365.87768618
_cell_formula_units_Z   4
loop_
 _symmetry_equiv_pos_site_id
 _symmetry_equiv_pos_as_xyz
  1  'x, y, z'
loop_
 _atom_site_type_symbol
 _atom_site_label
 _atom_site_symmetry_multiplicity
 _atom_site_fract_x
 _atom_site_fract_y
 _atom_site_fract_z
 _atom_site_occupancy
  Zn  Zn0  1  0.00167000  0.95161000  0.54008000  1.0
  Zn  Zn1  1  0.00166000  0.03657000  0.45003000  1.0
  Zn  Zn2  1  0.05267000  0.52886000  0.94705000  1.0
  Zn  Zn3  1  0.05226000  0.44296000  0.03465000  1.0
  H  H4  1  0.97152000  0.64865000  0.92345000  1.0
  H  H5  1  0.96123000  0.72938000  0.84517000  1.0
  H  H6  1  0.90886000  0.86500000  0.73274000  1.0
  H  H7  1  0.09504000  0.75668000  0.65497000  1.0
  H  H8  1  0.94651000  0.41604000  0.12864000  1.0
  H  H9  1  0.93665000  0.33703000  0.20691000  1.0
  H  H10  1  0.89364000  0.23295000  0.34062000  1.0
  H  H11  1  0.10275000  0.14461000  0.27020000  1.0
  H  H12  1  0.24445000  0.05124000  0.43632000  1.0
  H  H13  1  0.39073000  0.04751000  0.43802000  1.0
  H  H14  1  0.60416000  0.08516000  0.42833000  1.0
  H  H15  1  0.61474000  0.92793000  0.54004000  1.0
  H  H16  1  0.05523000  0.55383000  0.17254000  1.0
  H  H17  1  0.04269000  0.63100000  0.24312000  1.0
  H  H18  1  0.04944000  0.71647000  0.37377000  1.0
  H  H19  1  0.98056000  0.85225000  0.24383000  1.0
  H  H20  1  0.00425000  0.42616000  0.81265000  1.0
  H  H21  1  0.96628000  0.35524000  0.74406000  1.0
  H  H22  1  0.94994000  0.27256000  0.61266000  1.0
  H  H23  1  0.93721000  0.13759000  0.74672000  1.0
  H  H24  1  0.29402000  0.53918000  0.92893000  1.0
  H  H25  1  0.43957000  0.54057000  0.93321000  1.0
  H  H26  1  0.66156000  0.53714000  0.89393000  1.0
  H  H27  1  0.65571000  0.46442000  0.06511000  1.0
  C  C28  1  0.15104000  0.99167000  0.50224000  1.0
  C  C29  1  0.01078000  0.91220000  0.42627000  1.0
  C  C30  1  0.85274000  0.99867000  0.48655000  1.0
  C  C31  1  0.98266000  0.07477000  0.56513000  1.0
  C  C32  1  0.04482000  0.56747000  0.06162000  1.0
  C  C33  1  0.90051000  0.49941000  0.99045000  1.0
  C  C34  1  0.03271000  0.40758000  0.92149000  1.0
  C  C35  1  0.20254000  0.47678000  0.99354000  1.0
  C  C36  1  0.00383000  0.64456000  0.88455000  1.0
  C  C37  1  0.99850000  0.68842000  0.84175000  1.0
  C  C38  1  0.04254000  0.67978000  0.79277000  1.0
  C  C39  1  0.08998000  0.62657000  0.78965000  1.0
  C  C40  1  0.09104000  0.58449000  0.83493000  1.0
  C  C41  1  0.94941000  0.85644000  0.69872000  1.0
  C  C42  1  0.00199000  0.80561000  0.69986000  1.0
  C  C43  1  0.05363000  0.79582000  0.65533000  1.0
  C  C44  1  0.04908000  0.83859000  0.61151000  1.0
  C  C45  1  0.95121000  0.89572000  0.65199000  1.0
  C  C46  1  0.98959000  0.37779000  0.13465000  1.0
  C  C47  1  0.98432000  0.33447000  0.17708000  1.0
  C  C48  1  0.04192000  0.28588000  0.18162000  1.0
  C  C49  1  0.10188000  0.28345000  0.14205000  1.0
  C  C50  1  0.10247000  0.32954000  0.10044000  1.0
  C  C51  1  0.93975000  0.19677000  0.34064000  1.0
  C  C52  1  0.99791000  0.19475000  0.29993000  1.0
  C  C53  1  0.05676000  0.14744000  0.30130000  1.0
  C  C54  1  0.05328000  0.10447000  0.34438000  1.0
  C  C55  1  0.94336000  0.15036000  0.38144000  1.0
  C  C56  1  0.23835000  0.98897000  0.50652000  1.0
  C  C57  1  0.27906000  0.02329000  0.46763000  1.0
  C  C58  1  0.35942000  0.02146000  0.46847000  1.0
  C  C59  1  0.40345000  0.98480000  0.50907000  1.0
  C  C60  1  0.36342000  0.95071000  0.54824000  1.0
  C  C61  1  0.28212000  0.95284000  0.54704000  1.0
  C  C62  1  0.63801000  0.04952000  0.45266000  1.0
  C  C63  1  0.60037000  0.00717000  0.48424000  1.0
  C  C64  1  0.64384000  0.96109000  0.51571000  1.0
  C  C65  1  0.72415000  0.95906000  0.51495000  1.0
  C  C66  1  0.76541000  0.00086000  0.48443000  1.0
  C  C67  1  0.71877000  0.04556000  0.45344000  1.0
  C  C68  1  0.03515000  0.61551000  0.10165000  1.0
  C  C69  1  0.04296000  0.60043000  0.15955000  1.0
  C  C70  1  0.03578000  0.64267000  0.19845000  1.0
  C  C71  1  0.01911000  0.70281000  0.18110000  1.0
  C  C72  1  0.01013000  0.71819000  0.12349000  1.0
  C  C73  1  0.01842000  0.67513000  0.08441000  1.0
  C  C74  1  0.03337000  0.76264000  0.36071000  1.0
  C  C75  1  0.01590000  0.77955000  0.30447000  1.0
  C  C76  1  0.99485000  0.83906000  0.28741000  1.0
  C  C77  1  0.99307000  0.88020000  0.32729000  1.0
  C  C78  1  0.01147000  0.86596000  0.38437000  1.0
  C  C79  1  0.03094000  0.80571000  0.39903000  1.0
  C  C80  1  0.00582000  0.36405000  0.88354000  1.0
  C  C81  1  0.99425000  0.38117000  0.82624000  1.0
  C  C82  1  0.97263000  0.34258000  0.78857000  1.0
  C  C83  1  0.96063000  0.28429000  0.80684000  1.0
  C  C84  1  0.96853000  0.26757000  0.86428000  1.0
  C  C85  1  0.99134000  0.30681000  0.90205000  1.0
  C  C86  1  0.95021000  0.22633000  0.62697000  1.0
  C  C87  1  0.94324000  0.21001000  0.68402000  1.0
  C  C88  1  0.94319000  0.15046000  0.70247000  1.0
  C  C89  1  0.95364000  0.10853000  0.66346000  1.0
  C  C90  1  0.96519000  0.12189000  0.60564000  1.0
  C  C91  1  0.96144000  0.18249000  0.58948000  1.0
  C  C92  1  0.28976000  0.47408000  0.99695000  1.0
  C  C93  1  0.32935000  0.51086000  0.95955000  1.0
  C  C94  1  0.40930000  0.51165000  0.96171000  1.0
  C  C95  1  0.45397000  0.47500000  0.00195000  1.0
  C  C96  1  0.41518000  0.43792000  0.03914000  1.0
  C  C97  1  0.33430000  0.43731000  0.03661000  1.0
  C  C98  1  0.69169000  0.52187000  0.93293000  1.0
  C  C99  1  0.65009000  0.50032000  0.97879000  1.0
  C  C100  1  0.68833000  0.48055000  0.02937000  1.0
  C  C101  1  0.76798000  0.48210000  0.03212000  1.0
  C  C102  1  0.81327000  0.50215000  0.98707000  1.0
  C  C103  1  0.77173000  0.52212000  0.93793000  1.0
  N  N104  1  0.04990000  0.59314000  0.88077000  1.0
  N  N105  1  0.04443000  0.71979000  0.74559000  1.0
  N  N106  1  0.99837000  0.76624000  0.74802000  1.0
  N  N107  1  0.99963000  0.88800000  0.60893000  1.0
  N  N108  1  0.04878000  0.37526000  0.09712000  1.0
  N  N109  1  0.04545000  0.23838000  0.22249000  1.0
  N  N110  1  0.99266000  0.24303000  0.25909000  1.0
  N  N111  1  0.99854000  0.10477000  0.38420000  1.0
  N  N112  1  0.48514000  0.97840000  0.51327000  1.0
  N  N113  1  0.51818000  0.01469000  0.48128000  1.0
  N  N114  1  0.01108000  0.74945000  0.21686000  1.0
  N  N115  1  0.02224000  0.73313000  0.26817000  1.0
  N  N116  1  0.94854000  0.23941000  0.77149000  1.0
  N  N117  1  0.94285000  0.25652000  0.72000000  1.0
  N  N118  1  0.53487000  0.47337000  0.00930000  1.0
  N  N119  1  0.56916000  0.50036000  0.97004000  1.0
  O  O120  1  0.11881000  0.94910000  0.52591000  1.0
  O  O121  1  0.11682000  0.03620000  0.47418000  1.0
  O  O122  1  0.03263000  0.96154000  0.40872000  1.0
  O  O123  1  0.98862000  0.89790000  0.47545000  1.0
  O  O124  1  0.88716000  0.01768000  0.44313000  1.0
  O  O125  1  0.88468000  0.97829000  0.53252000  1.0
  O  O126  1  0.01114000  0.02443000  0.58543000  1.0
  O  O127  1  0.96777000  0.08926000  0.51381000  1.0
  O  O128  1  0.06590000  0.58136000  0.01197000  1.0
  O  O129  1  0.03183000  0.51630000  0.08139000  1.0
  O  O130  1  0.93434000  0.45360000  0.01663000  1.0
  O  O131  1  0.93296000  0.54151000  0.96636000  1.0
  O  O132  1  0.06078000  0.38871000  0.96900000  1.0
  O  O133  1  0.02488000  0.46128000  0.90219000  1.0
  O  O134  1  0.17048000  0.50304000  0.94964000  1.0
  O  O135  1  0.16745000  0.45372000  0.03483000  1.0
  F  F136  1  0.13542000  0.53346000  0.83175000  1.0
  F  F137  1  0.13378000  0.61472000  0.74473000  1.0
  F  F138  1  0.90191000  0.94458000  0.64880000  1.0
  F  F139  1  0.09618000  0.83169000  0.56771000  1.0
  F  F140  1  0.15936000  0.32722000  0.06285000  1.0
  F  F141  1  0.15859000  0.23881000  0.14296000  1.0
  F  F142  1  0.88902000  0.15040000  0.42088000  1.0
  F  F143  1  0.10787000  0.05837000  0.34823000  1.0
  F  F144  1  0.24900000  0.91934000  0.58710000  1.0
  F  F145  1  0.40267000  0.91545000  0.58840000  1.0
  F  F146  1  0.75274000  0.08837000  0.42348000  1.0
  F  F147  1  0.76469000  0.91325000  0.54465000  1.0
  F  F148  1  0.00768000  0.69395000  0.02991000  1.0
  F  F149  1  0.99334000  0.77492000  0.10437000  1.0
  F  F150  1  0.05037000  0.78781000  0.45276000  1.0
  F  F151  1  0.97087000  0.93720000  0.31007000  1.0
  F  F152  1  0.99803000  0.28670000  0.95632000  1.0
  F  F153  1  0.95584000  0.21283000  0.88425000  1.0
  F  F154  1  0.97175000  0.20066000  0.53514000  1.0
  F  F155  1  0.95257000  0.05163000  0.68304000  1.0
  F  F156  1  0.30274000  0.39948000  0.07357000  1.0
  F  F157  1  0.45537000  0.40150000  0.07796000  1.0
  F  F158  1  0.81096000  0.54130000  0.89223000  1.0
  F  F159  1  0.80403000  0.46414000  0.08176000  1.0
