# generated using pymatgen
data_CuH14C14(N5O3)2
_symmetry_space_group_name_H-M   'P 1'
_cell_length_a   6.82054000
_cell_length_b   7.99241000
_cell_length_c   16.89780000
_cell_angle_alpha   89.99930000
_cell_angle_beta   89.99920000
_cell_angle_gamma   82.11340000
_symmetry_Int_Tables_number   1
_chemical_formula_structural   CuH14C14(N5O3)2
_chemical_formula_sum   'Cu2 H28 C28 N20 O12'
_cell_volume   912.42965373
_cell_formula_units_Z   2
loop_
 _symmetry_equiv_pos_site_id
 _symmetry_equiv_pos_as_xyz
  1  'x, y, z'
loop_
 _atom_site_type_symbol
 _atom_site_label
 _atom_site_symmetry_multiplicity
 _atom_site_fract_x
 _atom_site_fract_y
 _atom_site_fract_z
 _atom_site_occupancy
  Cu  Cu0  1  0.50000000  0.50000000  0.50000000  1.0
  Cu  Cu1  1  0.50000000  0.00000000  1.00000000  1.0
  H  H2  1  0.86319000  0.65041000  0.53778000  1.0
  H  H3  1  0.13681000  0.84958000  0.03778000  1.0
  H  H4  1  0.13681000  0.34959000  0.46222000  1.0
  H  H5  1  0.86319000  0.15042000  0.96222000  1.0
  H  H6  1  0.84739000  0.88301000  0.44776000  1.0
  H  H7  1  0.15261000  0.61700000  0.94776000  1.0
  H  H8  1  0.15262000  0.11700000  0.55223000  1.0
  H  H9  1  0.84739000  0.38300000  0.05224000  1.0
  H  H10  1  0.89172000  0.63479000  0.67650000  1.0
  H  H11  1  0.10827000  0.86520000  0.17650000  1.0
  H  H12  1  0.10827000  0.36522000  0.32350000  1.0
  H  H13  1  0.89174000  0.13480000  0.82349000  1.0
  H  H14  1  0.46350000  0.80935000  0.37573000  1.0
  H  H15  1  0.53651000  0.69066000  0.87573000  1.0
  H  H16  1  0.53651000  0.19065000  0.62428000  1.0
  H  H17  1  0.46349000  0.30935000  0.12427000  1.0
  H  H18  1  0.51956000  0.45123000  0.69066000  1.0
  H  H19  1  0.48043000  0.04876000  0.19067000  1.0
  H  H20  1  0.48043000  0.54876000  0.30934000  1.0
  H  H21  1  0.51957000  0.95124000  0.80933000  1.0
  H  H22  1  0.11911000  0.02300000  0.35523000  1.0
  H  H23  1  0.88090000  0.47701000  0.85522000  1.0
  H  H24  1  0.88091000  0.97700000  0.64477000  1.0
  H  H25  1  0.11910000  0.52299000  0.14477000  1.0
  H  H26  1  0.20164000  0.54134000  0.78373000  1.0
  H  H27  1  0.79835000  0.95865000  0.28373000  1.0
  H  H28  1  0.79835000  0.45867000  0.21627000  1.0
  H  H29  1  0.20166000  0.04135000  0.71627000  1.0
  C  C30  1  0.01062000  0.58485000  0.52084000  1.0
  C  C31  1  0.98938000  0.91515000  0.02084000  1.0
  C  C32  1  0.98938000  0.41515000  0.47916000  1.0
  C  C33  1  0.01062000  0.08485000  0.97916000  1.0
  C  C34  1  0.00248000  0.84021000  0.43551000  1.0
  C  C35  1  0.99752000  0.65980000  0.93551000  1.0
  C  C36  1  0.99753000  0.15979000  0.56449000  1.0
  C  C37  1  0.00248000  0.34020000  0.06449000  1.0
  C  C38  1  0.04704000  0.58433000  0.66782000  1.0
  C  C39  1  0.95295000  0.91566000  0.16782000  1.0
  C  C40  1  0.95295000  0.41568000  0.33217000  1.0
  C  C41  1  0.04705000  0.08433000  0.83217000  1.0
  C  C42  1  0.31816000  0.79822000  0.39922000  1.0
  C  C43  1  0.68184000  0.70179000  0.89922000  1.0
  C  C44  1  0.68185000  0.20178000  0.60078000  1.0
  C  C45  1  0.31816000  0.29821000  0.10078000  1.0
  C  C46  1  0.36873000  0.49160000  0.67199000  1.0
  C  C47  1  0.63126000  0.00839000  0.17199000  1.0
  C  C48  1  0.63126000  0.50840000  0.32801000  1.0
  C  C49  1  0.36874000  0.99161000  0.82801000  1.0
  C  C50  1  0.14075000  0.90803000  0.38987000  1.0
  C  C51  1  0.85925000  0.59198000  0.88986000  1.0
  C  C52  1  0.85926000  0.09197000  0.61014000  1.0
  C  C53  1  0.14074000  0.40802000  0.11014000  1.0
  C  C54  1  0.20277000  0.54093000  0.71969000  1.0
  C  C55  1  0.79722000  0.95906000  0.21969000  1.0
  C  C56  1  0.79722000  0.45907000  0.28031000  1.0
  C  C57  1  0.20278000  0.04094000  0.78031000  1.0
  N  N58  1  0.29072000  0.66734000  0.44599000  1.0
  N  N59  1  0.70928000  0.83267000  0.94599000  1.0
  N  N60  1  0.70928000  0.33266000  0.55401000  1.0
  N  N61  1  0.29072000  0.16734000  0.05401000  1.0
  N  N62  1  0.12149000  0.55874000  0.59341000  1.0
  N  N63  1  0.87851000  0.94125000  0.09341000  1.0
  N  N64  1  0.87850000  0.44125000  0.40659000  1.0
  N  N65  1  0.12150000  0.05875000  0.90659000  1.0
  N  N66  1  0.31901000  0.50049000  0.59485000  1.0
  N  N67  1  0.68098000  0.99951000  0.09486000  1.0
  N  N68  1  0.68098000  0.49951000  0.40514000  1.0
  N  N69  1  0.31902000  0.00050000  0.90514000  1.0
  N  N70  1  0.09720000  0.69668000  0.46852000  1.0
  N  N71  1  0.90280000  0.80332000  0.96852000  1.0
  N  N72  1  0.90280000  0.30332000  0.53147000  1.0
  N  N73  1  0.09720000  0.19668000  0.03147000  1.0
  N  N74  1  0.47424000  0.17330000  0.38534000  1.0
  N  N75  1  0.52577000  0.32669000  0.88533000  1.0
  N  N76  1  0.52576000  0.82669000  0.61467000  1.0
  N  N77  1  0.47424000  0.67331000  0.11467000  1.0
  O  O78  1  0.38844000  0.24197000  0.44737000  1.0
  O  O79  1  0.61156000  0.25800000  0.94735000  1.0
  O  O80  1  0.61155000  0.75800000  0.55264000  1.0
  O  O81  1  0.38844000  0.74201000  0.05265000  1.0
  O  O82  1  0.64550000  0.09328000  0.39149000  1.0
  O  O83  1  0.35450000  0.40671000  0.89148000  1.0
  O  O84  1  0.35449000  0.90669000  0.60852000  1.0
  O  O85  1  0.64550000  0.59329000  0.10852000  1.0
  O  O86  1  0.38474000  0.18829000  0.31964000  1.0
  O  O87  1  0.61526000  0.31174000  0.81963000  1.0
  O  O88  1  0.61526000  0.81174000  0.68037000  1.0
  O  O89  1  0.38474000  0.68826000  0.18037000  1.0
