# generated using pymatgen
data_CdH20C26(N2O3)2
_symmetry_space_group_name_H-M   'P 1'
_cell_length_a   9.30617000
_cell_length_b   12.32960000
_cell_length_c   12.57500000
_cell_angle_alpha   110.03700000
_cell_angle_beta   98.44230000
_cell_angle_gamma   104.84400000
_symmetry_Int_Tables_number   1
_chemical_formula_structural   CdH20C26(N2O3)2
_chemical_formula_sum   'Cd2 H40 C52 N8 O12'
_cell_volume   1265.82493965
_cell_formula_units_Z   2
loop_
 _symmetry_equiv_pos_site_id
 _symmetry_equiv_pos_as_xyz
  1  'x, y, z'
loop_
 _atom_site_type_symbol
 _atom_site_label
 _atom_site_symmetry_multiplicity
 _atom_site_fract_x
 _atom_site_fract_y
 _atom_site_fract_z
 _atom_site_occupancy
  Cd  Cd0  1  0.98797000  0.41742000  0.60355000  1.0
  Cd  Cd1  1  0.01203000  0.58258000  0.39645000  1.0
  H  H2  1  0.37694000  0.54218000  0.63502000  1.0
  H  H3  1  0.57739000  0.73721000  0.83597000  1.0
  H  H4  1  0.12012000  0.66634000  0.87120000  1.0
  H  H5  1  0.62406000  0.78620000  0.04440000  1.0
  H  H6  1  0.72197000  0.95542000  0.23941000  1.0
  H  H7  1  0.32147000  0.06225000  0.17582000  1.0
  H  H8  1  0.22518000  0.89444000  0.97878000  1.0
  H  H9  1  0.83233000  0.16523000  0.34790000  1.0
  H  H10  1  0.37748000  0.14005000  0.38005000  1.0
  H  H11  1  0.59002000  0.33484000  0.57330000  1.0
  H  H12  1  0.95863000  0.36880000  0.95854000  1.0
  H  H13  1  0.77574000  0.26619000  0.86499000  1.0
  H  H14  1  0.59490000  0.29965000  0.75542000  1.0
  H  H15  1  0.79132000  0.59380000  0.15627000  1.0
  H  H16  1  0.32124000  0.28566000  0.70118000  1.0
  H  H17  1  0.32477000  0.37034000  0.33931000  1.0
  H  H18  1  0.15406000  0.37278000  0.25765000  1.0
  H  H19  1  0.18412000  0.32600000  0.09523000  1.0
  H  H20  1  0.08768000  0.22737000  0.87890000  1.0
  H  H21  1  0.95686000  0.00379000  0.77698000  1.0
  H  H22  1  0.62306000  0.45782000  0.36498000  1.0
  H  H23  1  0.42260000  0.26280000  0.16403000  1.0
  H  H24  1  0.87987000  0.33365000  0.12880000  1.0
  H  H25  1  0.37593000  0.21380000  0.95559000  1.0
  H  H26  1  0.27803000  0.04457000  0.76059000  1.0
  H  H27  1  0.67853000  0.93776000  0.82419000  1.0
  H  H28  1  0.77481000  0.10557000  0.02123000  1.0
  H  H29  1  0.16767000  0.83478000  0.65210000  1.0
  H  H30  1  0.62252000  0.85995000  0.61995000  1.0
  H  H31  1  0.40998000  0.66516000  0.42671000  1.0
  H  H32  1  0.04137000  0.63120000  0.04146000  1.0
  H  H33  1  0.22427000  0.73381000  0.13500000  1.0
  H  H34  1  0.40510000  0.70035000  0.24458000  1.0
  H  H35  1  0.20868000  0.40621000  0.84373000  1.0
  H  H36  1  0.67877000  0.71434000  0.29883000  1.0
  H  H37  1  0.67523000  0.62965000  0.66069000  1.0
  H  H38  1  0.84594000  0.62722000  0.74235000  1.0
  H  H39  1  0.81588000  0.67399000  0.90477000  1.0
  H  H40  1  0.91232000  0.77263000  0.12110000  1.0
  H  H41  1  0.04313000  0.99620000  0.22302000  1.0
  C  C42  1  0.35407000  0.59713000  0.71433000  1.0
  C  C43  1  0.45413000  0.69283000  0.81209000  1.0
  C  C44  1  0.21534000  0.65985000  0.83188000  1.0
  C  C45  1  0.41957000  0.83046000  0.99868000  1.0
  C  C46  1  0.55963000  0.84852000  0.07177000  1.0
  C  C47  1  0.61450000  0.94385000  0.18197000  1.0
  C  C48  1  0.52859000  0.02097000  0.21945000  1.0
  C  C49  1  0.38748000  0.00169000  0.14692000  1.0
  C  C50  1  0.33311000  0.90682000  0.03621000  1.0
  C  C51  1  0.73869000  0.18552000  0.38381000  1.0
  C  C52  1  0.50209000  0.17461000  0.40218000  1.0
  C  C53  1  0.60842000  0.27038000  0.49702000  1.0
  C  C54  1  0.89996000  0.39080000  0.79857000  1.0
  C  C55  1  0.85379000  0.36129000  0.89961000  1.0
  C  C56  1  0.63965000  0.43211000  0.93142000  1.0
  C  C57  1  0.54843000  0.35506000  0.81978000  1.0
  C  C58  1  0.57931000  0.50541000  0.01657000  1.0
  C  C59  1  0.67115000  0.58589000  0.13101000  1.0
  C  C60  1  0.39260000  0.34678000  0.78934000  1.0
  C  C61  1  0.13125000  0.34043000  0.41271000  1.0
  C  C62  1  0.19887000  0.32551000  0.30721000  1.0
  C  C63  1  0.10694000  0.15620000  0.11808000  1.0
  C  C64  1  0.12592000  0.22740000  0.05306000  1.0
  C  C65  1  0.07042000  0.17108000  0.92954000  1.0
  C  C66  1  0.99729000  0.04665000  0.87215000  1.0
  C  C67  1  0.02708000  0.02710000  0.06253000  1.0
  C  C68  1  0.64592000  0.40287000  0.28567000  1.0
  C  C69  1  0.54586000  0.30718000  0.18790000  1.0
  C  C70  1  0.78465000  0.34015000  0.16811000  1.0
  C  C71  1  0.58042000  0.16955000  0.00132000  1.0
  C  C72  1  0.44036000  0.15149000  0.92823000  1.0
  C  C73  1  0.38550000  0.05615000  0.81803000  1.0
  C  C74  1  0.47141000  0.97903000  0.78054000  1.0
  C  C75  1  0.61252000  0.99832000  0.85309000  1.0
  C  C76  1  0.66688000  0.09318000  0.96379000  1.0
  C  C77  1  0.26131000  0.81448000  0.61619000  1.0
  C  C78  1  0.49791000  0.82539000  0.59782000  1.0
  C  C79  1  0.39158000  0.72962000  0.50298000  1.0
  C  C80  1  0.10004000  0.60920000  0.20143000  1.0
  C  C81  1  0.14622000  0.63871000  0.10039000  1.0
  C  C82  1  0.36036000  0.56789000  0.06858000  1.0
  C  C83  1  0.45158000  0.64494000  0.18022000  1.0
  C  C84  1  0.42069000  0.49460000  0.98344000  1.0
  C  C85  1  0.32886000  0.41411000  0.86900000  1.0
  C  C86  1  0.60741000  0.65322000  0.21066000  1.0
  C  C87  1  0.86876000  0.65957000  0.58729000  1.0
  C  C88  1  0.80113000  0.67448000  0.69279000  1.0
  C  C89  1  0.89305000  0.84379000  0.88192000  1.0
  C  C90  1  0.87408000  0.77259000  0.94694000  1.0
  C  C91  1  0.92958000  0.82891000  0.07046000  1.0
  C  C92  1  0.00270000  0.95334000  0.12785000  1.0
  C  C93  1  0.97292000  0.97289000  0.93747000  1.0
  N  N94  1  0.20631000  0.57733000  0.72810000  1.0
  N  N95  1  0.36466000  0.73284000  0.88616000  1.0
  N  N96  1  0.58642000  0.12079000  0.33056000  1.0
  N  N97  1  0.75475000  0.27604000  0.48405000  1.0
  N  N98  1  0.79369000  0.42267000  0.27189000  1.0
  N  N99  1  0.63533000  0.26716000  0.11383000  1.0
  N  N100  1  0.41358000  0.87922000  0.66944000  1.0
  N  N101  1  0.24525000  0.72396000  0.51595000  1.0
  O  O102  1  0.87949000  0.48244000  0.78293000  1.0
  O  O103  1  0.95927000  0.31849000  0.73544000  1.0
  O  O104  1  0.11492000  0.44580000  0.46034000  1.0
  O  O105  1  0.09733000  0.25736000  0.44950000  1.0
  O  O106  1  0.16454000  0.19834000  0.23678000  1.0
  O  O107  1  0.79005000  0.44358000  0.97126000  1.0
  O  O108  1  0.12051000  0.51755000  0.21706000  1.0
  O  O109  1  0.04074000  0.68151000  0.26456000  1.0
  O  O110  1  0.88509000  0.55420000  0.53966000  1.0
  O  O111  1  0.90268000  0.74264000  0.55051000  1.0
  O  O112  1  0.83546000  0.80166000  0.76322000  1.0
  O  O113  1  0.20996000  0.55642000  0.02874000  1.0
