# generated using pymatgen
data_CdH15C22S(NO)5
_symmetry_space_group_name_H-M   'P 1'
_cell_length_a   9.46367000
_cell_length_b   10.05560000
_cell_length_c   11.28000000
_cell_angle_alpha   70.81440000
_cell_angle_beta   85.90250000
_cell_angle_gamma   86.23640000
_symmetry_Int_Tables_number   1
_chemical_formula_structural   CdH15C22S(NO)5
_chemical_formula_sum   'Cd2 H30 C44 S2 N10 O10'
_cell_volume   1010.21297528
_cell_formula_units_Z   2
loop_
 _symmetry_equiv_pos_site_id
 _symmetry_equiv_pos_as_xyz
  1  'x, y, z'
loop_
 _atom_site_type_symbol
 _atom_site_label
 _atom_site_symmetry_multiplicity
 _atom_site_fract_x
 _atom_site_fract_y
 _atom_site_fract_z
 _atom_site_occupancy
  Cd  Cd0  1  0.73913000  0.17755000  0.48692000  1.0
  Cd  Cd1  1  0.26086000  0.82246000  0.51308000  1.0
  H  H2  1  0.83599000  0.89564000  0.47723000  1.0
  H  H3  1  0.16401000  0.10436000  0.52277000  1.0
  H  H4  1  0.66606000  0.90847000  0.47967000  1.0
  H  H5  1  0.33394000  0.09154000  0.52033000  1.0
  H  H6  1  0.14473000  0.10713000  0.14085000  1.0
  H  H7  1  0.85527000  0.89287000  0.85916000  1.0
  H  H8  1  0.04327000  0.29377000  0.95289000  1.0
  H  H9  1  0.95674000  0.70622000  0.04711000  1.0
  H  H10  1  0.46841000  0.41086000  0.45214000  1.0
  H  H11  1  0.53159000  0.58914000  0.54786000  1.0
  H  H12  1  0.36859000  0.62749000  0.29254000  1.0
  H  H13  1  0.63141000  0.37251000  0.70746000  1.0
  H  H14  1  0.66270000  0.78105000  0.70611000  1.0
  H  H15  1  0.33729000  0.21894000  0.29390000  1.0
  H  H16  1  0.85225000  0.61727000  0.65820000  1.0
  H  H17  1  0.14774000  0.38273000  0.34180000  1.0
  H  H18  1  0.02511000  0.31726000  0.74885000  1.0
  H  H19  1  0.97489000  0.68275000  0.25115000  1.0
  H  H20  1  0.05138000  0.46074000  0.60847000  1.0
  H  H21  1  0.94862000  0.53926000  0.39153000  1.0
  H  H22  1  0.01709000  0.06060000  0.34939000  1.0
  H  H23  1  0.98291000  0.93940000  0.65062000  1.0
  H  H24  1  0.52528000  0.90105000  0.89884000  1.0
  H  H25  1  0.47472000  0.09894000  0.10115000  1.0
  H  H26  1  0.32615000  0.84170000  0.07064000  1.0
  H  H27  1  0.67384000  0.15830000  0.92936000  1.0
  H  H28  1  0.09661000  0.97162000  0.02609000  1.0
  H  H29  1  0.90340000  0.02838000  0.97392000  1.0
  H  H30  1  0.48034000  0.69676000  0.06984000  1.0
  H  H31  1  0.51966000  0.30325000  0.93016000  1.0
  C  C32  1  0.40140000  0.06928000  0.77568000  1.0
  C  C33  1  0.59860000  0.93072000  0.22432000  1.0
  C  C34  1  0.95778000  0.28162000  0.58517000  1.0
  C  C35  1  0.04222000  0.71838000  0.41483000  1.0
  C  C36  1  0.80982000  0.32372000  0.18857000  1.0
  C  C37  1  0.19018000  0.67628000  0.81143000  1.0
  C  C38  1  0.68716000  0.40763000  0.21364000  1.0
  C  C39  1  0.31285000  0.59237000  0.78637000  1.0
  C  C40  1  0.04862000  0.16967000  0.14937000  1.0
  C  C41  1  0.95138000  0.83033000  0.85063000  1.0
  C  C42  1  0.99397000  0.27363000  0.04701000  1.0
  C  C43  1  0.00603000  0.72637000  0.95298000  1.0
  C  C44  1  0.51569000  0.44794000  0.35658000  1.0
  C  C45  1  0.48432000  0.55206000  0.64343000  1.0
  C  C46  1  0.26781000  0.14473000  0.76318000  1.0
  C  C47  1  0.73219000  0.85527000  0.23682000  1.0
  C  C48  1  0.45918000  0.56834000  0.26612000  1.0
  C  C49  1  0.54082000  0.43166000  0.73388000  1.0
  C  C50  1  0.63454000  0.52437000  0.11580000  1.0
  C  C51  1  0.36546000  0.47563000  0.88420000  1.0
  C  C52  1  0.87205000  0.35424000  0.06530000  1.0
  C  C53  1  0.12795000  0.64576000  0.93469000  1.0
  C  C54  1  0.70098000  0.68896000  0.78126000  1.0
  C  C55  1  0.29902000  0.31104000  0.21875000  1.0
  C  C56  1  0.81035000  0.59856000  0.75483000  1.0
  C  C57  1  0.18965000  0.40144000  0.24517000  1.0
  C  C58  1  0.81118000  0.46807000  0.96311000  1.0
  C  C59  1  0.18883000  0.53194000  0.03689000  1.0
  C  C60  1  0.69710000  0.55491000  0.98884000  1.0
  C  C61  1  0.30290000  0.44509000  0.01116000  1.0
  C  C62  1  0.05889000  0.34553000  0.64884000  1.0
  C  C63  1  0.94110000  0.65447000  0.35116000  1.0
  C  C64  1  0.97824000  0.14403000  0.26789000  1.0
  C  C65  1  0.02176000  0.85597000  0.73211000  1.0
  C  C66  1  0.42294000  0.95900000  0.88748000  1.0
  C  C67  1  0.57706000  0.04099000  0.11252000  1.0
  C  C68  1  0.31382000  0.92370000  0.98037000  1.0
  C  C69  1  0.68618000  0.07630000  0.01963000  1.0
  C  C70  1  0.52033000  0.10191000  0.67681000  1.0
  C  C71  1  0.47967000  0.89809000  0.32319000  1.0
  C  C72  1  0.18529000  0.99987000  0.95655000  1.0
  C  C73  1  0.81471000  0.00013000  0.04345000  1.0
  C  C74  1  0.51965000  0.60615000  0.14499000  1.0
  C  C75  1  0.48035000  0.39385000  0.85501000  1.0
  S  S76  1  0.24336000  0.29764000  0.63164000  1.0
  S  S77  1  0.75664000  0.70236000  0.36837000  1.0
  N  N78  1  0.62663000  0.37114000  0.33150000  1.0
  N  N79  1  0.37337000  0.62887000  0.66851000  1.0
  N  N80  1  0.86204000  0.21826000  0.28647000  1.0
  N  N81  1  0.13796000  0.78174000  0.71353000  1.0
  N  N82  1  0.64382000  0.66674000  0.89667000  1.0
  N  N83  1  0.35619000  0.33326000  0.10334000  1.0
  N  N84  1  0.86615000  0.49038000  0.84432000  1.0
  N  N85  1  0.13385000  0.50962000  0.15568000  1.0
  N  N86  1  0.16215000  0.10882000  0.85182000  1.0
  N  N87  1  0.83786000  0.89118000  0.14818000  1.0
  O  O88  1  0.99573000  0.17358000  0.55347000  1.0
  O  O89  1  0.00428000  0.82643000  0.44653000  1.0
  O  O90  1  0.75102000  0.94016000  0.50913000  1.0
  O  O91  1  0.24898000  0.05984000  0.49087000  1.0
  O  O92  1  0.83468000  0.34167000  0.56769000  1.0
  O  O93  1  0.16532000  0.65832000  0.43232000  1.0
  O  O94  1  0.64657000  0.08845000  0.71030000  1.0
  O  O95  1  0.35342000  0.91154000  0.28970000  1.0
  O  O96  1  0.48919000  0.14197000  0.56062000  1.0
  O  O97  1  0.51080000  0.85804000  0.43938000  1.0
