# generated using pymatgen
data_AlH12C24(NO4)3
_symmetry_space_group_name_H-M   'P 1'
_cell_length_a   4.22747000
_cell_length_b   27.77233021
_cell_length_c   27.77270000
_cell_angle_alpha   60.00067867
_cell_angle_beta   89.99840000
_cell_angle_gamma   89.99990000
_symmetry_Int_Tables_number   1
_chemical_formula_structural   AlH12C24(NO4)3
_chemical_formula_sum   'Al2 H24 C48 N6 O24'
_cell_volume   2823.86908652
_cell_formula_units_Z   2
loop_
 _symmetry_equiv_pos_site_id
 _symmetry_equiv_pos_as_xyz
  1  'x, y, z'
loop_
 _atom_site_type_symbol
 _atom_site_label
 _atom_site_symmetry_multiplicity
 _atom_site_fract_x
 _atom_site_fract_y
 _atom_site_fract_z
 _atom_site_occupancy
  Al  Al0  1  0.04554000  0.50000000  0.00000000  1.0
  Al  Al1  1  0.04553000  0.16667000  0.66666000  1.0
  H  H2  1  0.80375000  0.30438000  0.50941000  1.0
  H  H3  1  0.78210000  0.35225000  0.40501000  1.0
  H  H4  1  0.30144000  0.21029000  0.41648000  1.0
  H  H5  1  0.30147000  0.45637000  0.25020000  1.0
  H  H6  1  0.78207000  0.31442000  0.26165000  1.0
  H  H7  1  0.80370000  0.36228000  0.15726000  1.0
  H  H8  1  0.80373000  0.18621000  0.80438000  1.0
  H  H9  1  0.78209000  0.24275000  0.85224000  1.0
  H  H10  1  0.30145000  0.37323000  0.71029000  1.0
  H  H11  1  0.30147000  0.29343000  0.95638000  1.0
  H  H12  1  0.78210000  0.42392000  0.81442000  1.0
  H  H13  1  0.80375000  0.48045000  0.86229000  1.0
  H  H14  1  0.80373000  0.00941000  0.68621000  1.0
  H  H15  1  0.78208000  0.90501000  0.74274000  1.0
  H  H16  1  0.30150000  0.91648000  0.87324000  1.0
  H  H17  1  0.30147000  0.75018000  0.79344000  1.0
  H  H18  1  0.78206000  0.76166000  0.92392000  1.0
  H  H19  1  0.80371000  0.65726000  0.98046000  1.0
  H  H20  1  0.67561000  0.11445000  0.55117000  1.0
  H  H21  1  0.67566000  0.55222000  0.11550000  1.0
  H  H22  1  0.67561000  0.33438000  0.61444000  1.0
  H  H23  1  0.67560000  0.33229000  0.05222000  1.0
  H  H24  1  0.67567000  0.05118000  0.83438000  1.0
  H  H25  1  0.67566000  0.61548000  0.83230000  1.0
  C  C26  1  0.55011000  0.58414000  0.95523000  1.0
  C  C27  1  0.55010000  0.46063000  0.08414000  1.0
  C  C28  1  0.55012000  0.45523000  0.96063000  1.0
  C  C29  1  0.55011000  0.20604000  0.58253000  1.0
  C  C30  1  0.55010000  0.21143000  0.70604000  1.0
  C  C31  1  0.55011000  0.08252000  0.71144000  1.0
  C  C32  1  0.55342000  0.23199000  0.52098000  1.0
  C  C33  1  0.69088000  0.28462000  0.48844000  1.0
  C  C34  1  0.67849000  0.31122000  0.43084000  1.0
  C  C35  1  0.53433000  0.28419000  0.40518000  1.0
  C  C36  1  0.40643000  0.23081000  0.43736000  1.0
  C  C37  1  0.41139000  0.20487000  0.49510000  1.0
  C  C38  1  0.40643000  0.43586000  0.22932000  1.0
  C  C39  1  0.53431000  0.38248000  0.26149000  1.0
  C  C40  1  0.67844000  0.35544000  0.23584000  1.0
  C  C41  1  0.69084000  0.38205000  0.17823000  1.0
  C  C42  1  0.55342000  0.43468000  0.14569000  1.0
  C  C43  1  0.41142000  0.46179000  0.17158000  1.0
  C  C44  1  0.55340000  0.24704000  0.73198000  1.0
  C  C45  1  0.69085000  0.22695000  0.78461000  1.0
  C  C46  1  0.67847000  0.25795000  0.81122000  1.0
  C  C47  1  0.53431000  0.31064000  0.78417000  1.0
  C  C48  1  0.40641000  0.33184000  0.73080000  1.0
  C  C49  1  0.41136000  0.30003000  0.70487000  1.0
  C  C50  1  0.40644000  0.33482000  0.93587000  1.0
  C  C51  1  0.53432000  0.35603000  0.88249000  1.0
  C  C52  1  0.67848000  0.40872000  0.85544000  1.0
  C  C53  1  0.69089000  0.43972000  0.88205000  1.0
  C  C54  1  0.55344000  0.41963000  0.93468000  1.0
  C  C55  1  0.41143000  0.36663000  0.96180000  1.0
  C  C56  1  0.55344000  0.02097000  0.74704000  1.0
  C  C57  1  0.69088000  0.98843000  0.72695000  1.0
  C  C58  1  0.67848000  0.93083000  0.75795000  1.0
  C  C59  1  0.53434000  0.90519000  0.81063000  1.0
  C  C60  1  0.40647000  0.93736000  0.83184000  1.0
  C  C61  1  0.41143000  0.99510000  0.80004000  1.0
  C  C62  1  0.40643000  0.72931000  0.83482000  1.0
  C  C63  1  0.53430000  0.76148000  0.85603000  1.0
  C  C64  1  0.67844000  0.73584000  0.90871000  1.0
  C  C65  1  0.69084000  0.67823000  0.93972000  1.0
  C  C66  1  0.55343000  0.64569000  0.91963000  1.0
  C  C67  1  0.41143000  0.67156000  0.86664000  1.0
  C  C68  1  0.26499000  0.14806000  0.52743000  1.0
  C  C69  1  0.26504000  0.51861000  0.13924000  1.0
  C  C70  1  0.26496000  0.32451000  0.64805000  1.0
  C  C71  1  0.26501000  0.34216000  0.01861000  1.0
  C  C72  1  0.26505000  0.02744000  0.82451000  1.0
  C  C73  1  0.26503000  0.63922000  0.84216000  1.0
  N  N74  1  0.51973000  0.30702000  0.34704000  1.0
  N  N75  1  0.51973000  0.35964000  0.31964000  1.0
  N  N76  1  0.51972000  0.34595000  0.80702000  1.0
  N  N77  1  0.51972000  0.32072000  0.85964000  1.0
  N  N78  1  0.51972000  0.84703000  0.84595000  1.0
  N  N79  1  0.51971000  0.81963000  0.82072000  1.0
  O  O80  1  0.31118000  0.44913000  0.99132000  1.0
  O  O81  1  0.31119000  0.55955000  0.94913000  1.0
  O  O82  1  0.31117000  0.49132000  0.05955000  1.0
  O  O83  1  0.78037000  0.48879000  0.95015000  1.0
  O  O84  1  0.78034000  0.45015000  0.06106000  1.0
  O  O85  1  0.78034000  0.56106000  0.98879000  1.0
  O  O86  1  0.31116000  0.10711000  0.71754000  1.0
  O  O87  1  0.31118000  0.17535000  0.60712000  1.0
  O  O88  1  0.31116000  0.21753000  0.67535000  1.0
  O  O89  1  0.78034000  0.10561000  0.67787000  1.0
  O  O90  1  0.78033000  0.17788000  0.71651000  1.0
  O  O91  1  0.78037000  0.21651000  0.60561000  1.0
  O  O92  1  0.44218000  0.10441000  0.55908000  1.0
  O  O93  1  0.97973000  0.14308000  0.52153000  1.0
  O  O94  1  0.44223000  0.56226000  0.10759000  1.0
  O  O95  1  0.97979000  0.52359000  0.14515000  1.0
  O  O96  1  0.44215000  0.33651000  0.60441000  1.0
  O  O97  1  0.97971000  0.33539000  0.64308000  1.0
  O  O98  1  0.44219000  0.33015000  0.06227000  1.0
  O  O99  1  0.97974000  0.33128000  0.02359000  1.0
  O  O100  1  0.44223000  0.05909000  0.83650000  1.0
  O  O101  1  0.97979000  0.02153000  0.83540000  1.0
  O  O102  1  0.44221000  0.60757000  0.83016000  1.0
  O  O103  1  0.97977000  0.64513000  0.83128000  1.0
