# generated using pymatgen
data_KH7C10(NO2)4
_symmetry_space_group_name_H-M   'P 1'
_cell_length_a   6.92024000
_cell_length_b   8.44679000
_cell_length_c   12.11860000
_cell_angle_alpha   85.21940000
_cell_angle_beta   78.22390000
_cell_angle_gamma   65.81430000
_symmetry_Int_Tables_number   1
_chemical_formula_structural   KH7C10(NO2)4
_chemical_formula_sum   'K2 H14 C20 N8 O16'
_cell_volume   632.59780667
_cell_formula_units_Z   2
loop_
 _symmetry_equiv_pos_site_id
 _symmetry_equiv_pos_as_xyz
  1  'x, y, z'
loop_
 _atom_site_type_symbol
 _atom_site_label
 _atom_site_symmetry_multiplicity
 _atom_site_fract_x
 _atom_site_fract_y
 _atom_site_fract_z
 _atom_site_occupancy
  K  K0  1  0.07544000  0.94957000  0.45877000  1.0
  K  K1  1  0.02429000  0.05027000  0.95876000  1.0
  H  H2  1  0.05214000  0.98144000  0.21156000  1.0
  H  H3  1  0.03368000  0.01891000  0.71167000  1.0
  H  H4  1  0.14188000  0.33598000  0.44061000  1.0
  H  H5  1  0.47755000  0.66412000  0.94057000  1.0
  H  H6  1  0.54758000  0.11802000  0.14416000  1.0
  H  H7  1  0.66591000  0.88200000  0.64434000  1.0
  H  H8  1  0.42274000  0.14452000  0.76686000  1.0
  H  H9  1  0.56681000  0.85556000  0.26670000  1.0
  H  H10  1  0.61945000  0.33122000  0.46172000  1.0
  H  H11  1  0.95034000  0.66854000  0.96157000  1.0
  H  H12  1  0.07301000  0.61534000  0.37253000  1.0
  H  H13  1  0.68828000  0.38475000  0.87246000  1.0
  H  H14  1  0.20662000  0.42805000  0.83989000  1.0
  H  H15  1  0.63447000  0.57205000  0.33983000  1.0
  C  C16  1  0.22588000  0.72011000  0.16877000  1.0
  C  C17  1  0.94644000  0.27993000  0.66880000  1.0
  C  C18  1  0.27764000  0.53921000  0.20922000  1.0
  C  C19  1  0.81707000  0.46084000  0.70923000  1.0
  C  C20  1  0.18445000  0.50993000  0.31614000  1.0
  C  C21  1  0.69436000  0.49016000  0.81610000  1.0
  C  C22  1  0.35467000  0.20111000  0.29794000  1.0
  C  C23  1  0.55567000  0.79895000  0.79800000  1.0
  C  C24  1  0.42176000  0.38890000  0.13915000  1.0
  C  C25  1  0.81087000  0.61111000  0.63919000  1.0
  C  C26  1  0.14544000  0.73536000  0.73739000  1.0
  C  C27  1  0.88077000  0.26471000  0.23737000  1.0
  C  C28  1  0.27747000  0.55953000  0.68629000  1.0
  C  C29  1  0.83682000  0.44044000  0.18622000  1.0
  C  C30  1  0.29298000  0.41641000  0.75273000  1.0
  C  C31  1  0.70909000  0.58364000  0.25265000  1.0
  C  C32  1  0.53794000  0.21552000  0.60864000  1.0
  C  C33  1  0.75287000  0.78437000  0.10845000  1.0
  C  C34  1  0.39500000  0.53101000  0.56987000  1.0
  C  C35  1  0.92594000  0.46879000  0.06980000  1.0
  N  N36  1  0.22011000  0.34988000  0.35956000  1.0
  N  N37  1  0.56979000  0.65020000  0.85955000  1.0
  N  N38  1  0.44562000  0.22960000  0.19142000  1.0
  N  N39  1  0.67537000  0.77041000  0.69151000  1.0
  N  N40  1  0.41472000  0.25175000  0.71567000  1.0
  N  N41  1  0.66593000  0.74825000  0.21552000  1.0
  N  N42  1  0.52351000  0.35675000  0.54205000  1.0
  N  N43  1  0.87985000  0.64305000  0.04189000  1.0
  O  O44  1  0.10066000  0.83932000  0.24514000  1.0
  O  O45  1  0.94033000  0.16080000  0.74520000  1.0
  O  O46  1  0.29258000  0.75640000  0.07030000  1.0
  O  O47  1  0.04974000  0.24346000  0.57039000  1.0
  O  O48  1  0.38722000  0.05307000  0.33715000  1.0
  O  O49  1  0.44004000  0.94701000  0.83723000  1.0
  O  O50  1  0.52285000  0.38870000  0.04212000  1.0
  O  O51  1  0.91182000  0.61127000  0.54217000  1.0
  O  O52  1  0.13706000  0.86598000  0.67199000  1.0
  O  O53  1  0.00284000  0.13399000  0.17192000  1.0
  O  O54  1  0.05417000  0.75018000  0.83948000  1.0
  O  O55  1  0.80465000  0.24998000  0.33951000  1.0
  O  O56  1  0.65632000  0.06489000  0.57532000  1.0
  O  O57  1  0.72044000  0.93497000  0.07509000  1.0
  O  O58  1  0.39460000  0.64101000  0.49516000  1.0
  O  O59  1  0.03585000  0.35868000  0.99514000  1.0
