# generated using pymatgen
data_Zn2H42C55Br2(NO4)2
_symmetry_space_group_name_H-M   'P 1'
_cell_length_a   16.52180000
_cell_length_b   17.93860000
_cell_length_c   33.27290000
_cell_angle_alpha   90.21850000
_cell_angle_beta   89.86310000
_cell_angle_gamma   89.97630000
_symmetry_Int_Tables_number   1
_chemical_formula_structural   Zn2H42C55Br2(NO4)2
_chemical_formula_sum   'Zn4 H84 C110 Br4 N4 O16'
_cell_volume   9861.25353683
_cell_formula_units_Z   2
loop_
 _symmetry_equiv_pos_site_id
 _symmetry_equiv_pos_as_xyz
  1  'x, y, z'
loop_
 _atom_site_type_symbol
 _atom_site_label
 _atom_site_symmetry_multiplicity
 _atom_site_fract_x
 _atom_site_fract_y
 _atom_site_fract_z
 _atom_site_occupancy
  Zn  Zn0  1  0.58448000  0.49993000  0.50049000  1.0
  Zn  Zn1  1  0.41552000  0.49995000  0.50065000  1.0
  Zn  Zn2  1  0.41553000  0.50220000  0.96164000  1.0
  Zn  Zn3  1  0.58450000  0.50214000  0.96150000  1.0
  H  H4  1  0.28697000  0.58098000  0.54475000  1.0
  H  H5  1  0.28797000  0.41883000  0.45639000  1.0
  H  H6  1  0.71241000  0.58106000  0.54458000  1.0
  H  H7  1  0.71257000  0.41876000  0.45631000  1.0
  H  H8  1  0.62929000  0.73749000  0.50061000  1.0
  H  H9  1  0.37050000  0.73762000  0.50043000  1.0
  H  H10  1  0.62949000  0.26222000  0.50000000  1.0
  H  H11  1  0.37070000  0.26243000  0.49999000  1.0
  H  H12  1  0.37076000  0.50041000  0.62883000  1.0
  H  H13  1  0.62904000  0.50028000  0.62842000  1.0
  H  H14  1  0.62939000  0.50110000  0.83338000  1.0
  H  H15  1  0.37111000  0.50117000  0.83380000  1.0
  H  H16  1  0.37039000  0.50247000  0.08982000  1.0
  H  H17  1  0.62917000  0.50246000  0.08947000  1.0
  H  H18  1  0.37084000  0.50015000  0.37265000  1.0
  H  H19  1  0.62961000  0.50040000  0.37224000  1.0
  H  H20  1  0.71276000  0.58308000  0.91746000  1.0
  H  H21  1  0.71229000  0.42184000  0.00562000  1.0
  H  H22  1  0.28767000  0.58314000  0.91760000  1.0
  H  H23  1  0.28734000  0.42161000  0.00562000  1.0
  H  H24  1  0.37064000  0.73987000  0.96092000  1.0
  H  H25  1  0.62943000  0.73967000  0.96109000  1.0
  H  H26  1  0.37069000  0.26464000  0.96165000  1.0
  H  H27  1  0.62947000  0.26453000  0.96157000  1.0
  H  H28  1  0.14339000  0.34111000  0.45171000  1.0
  H  H29  1  0.06015000  0.40333000  0.44739000  1.0
  H  H30  1  0.14427000  0.41089000  0.41425000  1.0
  H  H31  1  0.14217000  0.65899000  0.54871000  1.0
  H  H32  1  0.05923000  0.59653000  0.55335000  1.0
  H  H33  1  0.14340000  0.58959000  0.58636000  1.0
  H  H34  1  0.85720000  0.41100000  0.41424000  1.0
  H  H35  1  0.94048000  0.40273000  0.44765000  1.0
  H  H36  1  0.85674000  0.34100000  0.45159000  1.0
  H  H37  1  0.85603000  0.58928000  0.58631000  1.0
  H  H38  1  0.94008000  0.59696000  0.55309000  1.0
  H  H39  1  0.85665000  0.65898000  0.54883000  1.0
  H  H40  1  0.30905000  0.87158000  0.52649000  1.0
  H  H41  1  0.35237000  0.94683000  0.49943000  1.0
  H  H42  1  0.30946000  0.87003000  0.47324000  1.0
  H  H43  1  0.69048000  0.87034000  0.47333000  1.0
  H  H44  1  0.64754000  0.94667000  0.50002000  1.0
  H  H45  1  0.69068000  0.87080000  0.52657000  1.0
  H  H46  1  0.30957000  0.12868000  0.47310000  1.0
  H  H47  1  0.35238000  0.05326000  0.50014000  1.0
  H  H48  1  0.30918000  0.13005000  0.52634000  1.0
  H  H49  1  0.69032000  0.12924000  0.52660000  1.0
  H  H50  1  0.64764000  0.05303000  0.49985000  1.0
  H  H51  1  0.69111000  0.12890000  0.47336000  1.0
  H  H52  1  0.69011000  0.55191000  0.16140000  1.0
  H  H53  1  0.64743000  0.50188000  0.20223000  1.0
  H  H54  1  0.69084000  0.45314000  0.16094000  1.0
  H  H55  1  0.30926000  0.45265000  0.16177000  1.0
  H  H56  1  0.35237000  0.50248000  0.20265000  1.0
  H  H57  1  0.30917000  0.55143000  0.16165000  1.0
  H  H58  1  0.69082000  0.45154000  0.29990000  1.0
  H  H59  1  0.64755000  0.50185000  0.25942000  1.0
  H  H60  1  0.69068000  0.55031000  0.30078000  1.0
  H  H61  1  0.30963000  0.55018000  0.30113000  1.0
  H  H62  1  0.35250000  0.50083000  0.25989000  1.0
  H  H63  1  0.30933000  0.45141000  0.30080000  1.0
  H  H64  1  0.85680000  0.34450000  0.01018000  1.0
  H  H65  1  0.94007000  0.40666000  0.01462000  1.0
  H  H66  1  0.85599000  0.41455000  0.04779000  1.0
  H  H67  1  0.85760000  0.66129000  0.91349000  1.0
  H  H68  1  0.94051000  0.59871000  0.90876000  1.0
  H  H69  1  0.85625000  0.59142000  0.87580000  1.0
  H  H70  1  0.14277000  0.41447000  0.04775000  1.0
  H  H71  1  0.05951000  0.40598000  0.01431000  1.0
  H  H72  1  0.14331000  0.34426000  0.01022000  1.0
  H  H73  1  0.14407000  0.59086000  0.87581000  1.0
  H  H74  1  0.05995000  0.59901000  0.90901000  1.0
  H  H75  1  0.14327000  0.66115000  0.91328000  1.0
  H  H76  1  0.69061000  0.87323000  0.93451000  1.0
  H  H77  1  0.64765000  0.94890000  0.96170000  1.0
  H  H78  1  0.69086000  0.87240000  0.98775000  1.0
  H  H79  1  0.30920000  0.87321000  0.98768000  1.0
  H  H80  1  0.35260000  0.94909000  0.96112000  1.0
  H  H81  1  0.30968000  0.87298000  0.93443000  1.0
  H  H82  1  0.69052000  0.13096000  0.98828000  1.0
  H  H83  1  0.64766000  0.05533000  0.96112000  1.0
  H  H84  1  0.69090000  0.13182000  0.93503000  1.0
  H  H85  1  0.30979000  0.13153000  0.93483000  1.0
  H  H86  1  0.35239000  0.05549000  0.96148000  1.0
  H  H87  1  0.30901000  0.13171000  0.98808000  1.0
  C  C88  1  0.49989000  0.64617000  0.50135000  1.0
  C  C89  1  0.49986000  0.50067000  0.57972000  1.0
  C  C90  1  0.50012000  0.35372000  0.50006000  1.0
  C  C91  1  0.50025000  0.49948000  0.42168000  1.0
  C  C92  1  0.50000000  0.64838000  0.96060000  1.0
  C  C93  1  0.50025000  0.50185000  0.88246000  1.0
  C  C94  1  0.50005000  0.35596000  0.96184000  1.0
  C  C95  1  0.49978000  0.50194000  0.04043000  1.0
  C  C96  1  0.25030000  0.54543000  0.52529000  1.0
  C  C97  1  0.16606000  0.54820000  0.52657000  1.0
  C  C98  1  0.12291000  0.50003000  0.50029000  1.0
  C  C99  1  0.16663000  0.45180000  0.47414000  1.0
  C  C100  1  0.25084000  0.45440000  0.47572000  1.0
  C  C101  1  0.03698000  0.50005000  0.50018000  1.0
  C  C102  1  0.96298000  0.50003000  0.50019000  1.0
  C  C103  1  0.87705000  0.50001000  0.50025000  1.0
  C  C104  1  0.83356000  0.54824000  0.52649000  1.0
  C  C105  1  0.74935000  0.54548000  0.52517000  1.0
  C  C106  1  0.74946000  0.45439000  0.47564000  1.0
  C  C107  1  0.83368000  0.45173000  0.47411000  1.0
  C  C108  1  0.49989000  0.72966000  0.50082000  1.0
  C  C109  1  0.57287000  0.76907000  0.50059000  1.0
  C  C110  1  0.57451000  0.84670000  0.50022000  1.0
  C  C111  1  0.49992000  0.88660000  0.50004000  1.0
  C  C112  1  0.42533000  0.84678000  0.50010000  1.0
  C  C113  1  0.42694000  0.76915000  0.50048000  1.0
  C  C114  1  0.49994000  0.96577000  0.49982000  1.0
  C  C115  1  0.49999000  0.03408000  0.49972000  1.0
  C  C116  1  0.50003000  0.11327000  0.49968000  1.0
  C  C117  1  0.57464000  0.15307000  0.49973000  1.0
  C  C118  1  0.57305000  0.23072000  0.49977000  1.0
  C  C119  1  0.50010000  0.27022000  0.49978000  1.0
  C  C120  1  0.42712000  0.23083000  0.49975000  1.0
  C  C121  1  0.42546000  0.15319000  0.49970000  1.0
  C  C122  1  0.42676000  0.50070000  0.64592000  1.0
  C  C123  1  0.42512000  0.50084000  0.68804000  1.0
  C  C124  1  0.35057000  0.50094000  0.71073000  1.0
  C  C125  1  0.57311000  0.50065000  0.64570000  1.0
  C  C126  1  0.57487000  0.50085000  0.68780000  1.0
  C  C127  1  0.64951000  0.50103000  0.71024000  1.0
  C  C128  1  0.57341000  0.50136000  0.81628000  1.0
  C  C129  1  0.57502000  0.50132000  0.77417000  1.0
  C  C130  1  0.64957000  0.50128000  0.75147000  1.0
  C  C131  1  0.42704000  0.50137000  0.81652000  1.0
  C  C132  1  0.42527000  0.50125000  0.77441000  1.0
  C  C133  1  0.35065000  0.50112000  0.75196000  1.0
  C  C134  1  0.49989000  0.50071000  0.62497000  1.0
  C  C135  1  0.50004000  0.50099000  0.70975000  1.0
  C  C136  1  0.50026000  0.50152000  0.83723000  1.0
  C  C137  1  0.50010000  0.50121000  0.75245000  1.0
  C  C138  1  0.49977000  0.50194000  0.08543000  1.0
  C  C139  1  0.42681000  0.50205000  0.10677000  1.0
  C  C140  1  0.42524000  0.50195000  0.14862000  1.0
  C  C141  1  0.49985000  0.50173000  0.16998000  1.0
  C  C142  1  0.57442000  0.50195000  0.14841000  1.0
  C  C143  1  0.57278000  0.50205000  0.10656000  1.0
  C  C144  1  0.49991000  0.50144000  0.21265000  1.0
  C  C145  1  0.50002000  0.50108000  0.24946000  1.0
  C  C146  1  0.50010000  0.50069000  0.29212000  1.0
  C  C147  1  0.42556000  0.50043000  0.31370000  1.0
  C  C148  1  0.42723000  0.50003000  0.35554000  1.0
  C  C149  1  0.50024000  0.49980000  0.37667000  1.0
  C  C150  1  0.57317000  0.50016000  0.35532000  1.0
  C  C151  1  0.57473000  0.50061000  0.31347000  1.0
  C  C152  1  0.74954000  0.54786000  0.93690000  1.0
  C  C153  1  0.83377000  0.55080000  0.93560000  1.0
  C  C154  1  0.87709000  0.50310000  0.96189000  1.0
  C  C155  1  0.83352000  0.45503000  0.98798000  1.0
  C  C156  1  0.74931000  0.45739000  0.98638000  1.0
  C  C157  1  0.96301000  0.50320000  0.96198000  1.0
  C  C158  1  0.03701000  0.50315000  0.96199000  1.0
  C  C159  1  0.12293000  0.50298000  0.96191000  1.0
  C  C160  1  0.16648000  0.55075000  0.93566000  1.0
  C  C161  1  0.25070000  0.54785000  0.93700000  1.0
  C  C162  1  0.25050000  0.45722000  0.98640000  1.0
  C  C163  1  0.16626000  0.45482000  0.98796000  1.0
  C  C164  1  0.50003000  0.73187000  0.96082000  1.0
  C  C165  1  0.42709000  0.77136000  0.96090000  1.0
  C  C166  1  0.42550000  0.84900000  0.96111000  1.0
  C  C167  1  0.50009000  0.88880000  0.96127000  1.0
  C  C168  1  0.57466000  0.84890000  0.96121000  1.0
  C  C169  1  0.57302000  0.77126000  0.96100000  1.0
  C  C170  1  0.50011000  0.96799000  0.96149000  1.0
  C  C171  1  0.50007000  0.03630000  0.96165000  1.0
  C  C172  1  0.50006000  0.11550000  0.96174000  1.0
  C  C173  1  0.42549000  0.15542000  0.96173000  1.0
  C  C174  1  0.42711000  0.23306000  0.96181000  1.0
  C  C175  1  0.50008000  0.27246000  0.96188000  1.0
  C  C176  1  0.57304000  0.23300000  0.96177000  1.0
  C  C177  1  0.57463000  0.15535000  0.96171000  1.0
  C  C178  1  0.12611000  0.39910000  0.44540000  1.0
  C  C179  1  0.12516000  0.60100000  0.55522000  1.0
  C  C180  1  0.87454000  0.39891000  0.44544000  1.0
  C  C181  1  0.87413000  0.60104000  0.55514000  1.0
  C  C182  1  0.34499000  0.88624000  0.49979000  1.0
  C  C183  1  0.65486000  0.88607000  0.50002000  1.0
  C  C184  1  0.34508000  0.11386000  0.49983000  1.0
  C  C185  1  0.65499000  0.11362000  0.49989000  1.0
  C  C186  1  0.65477000  0.50225000  0.16956000  1.0
  C  C187  1  0.34494000  0.50216000  0.16999000  1.0
  C  C188  1  0.65501000  0.50110000  0.29208000  1.0
  C  C189  1  0.34519000  0.50073000  0.29257000  1.0
  C  C190  1  0.87411000  0.40251000  0.01661000  1.0
  C  C191  1  0.87459000  0.60321000  0.90694000  1.0
  C  C192  1  0.12545000  0.40220000  0.01653000  1.0
  C  C193  1  0.12591000  0.60310000  0.90697000  1.0
  C  C194  1  0.65501000  0.88830000  0.96132000  1.0
  C  C195  1  0.34518000  0.88850000  0.96111000  1.0
  C  C196  1  0.65499000  0.11593000  0.96153000  1.0
  C  C197  1  0.34511000  0.11610000  0.96152000  1.0
  Br  Br198  1  0.25160000  0.50107000  0.78123000  1.0
  Br  Br199  1  0.25143000  0.50060000  0.68182000  1.0
  Br  Br200  1  0.74871000  0.50133000  0.78040000  1.0
  Br  Br201  1  0.74858000  0.50078000  0.68102000  1.0
  N  N202  1  0.29147000  0.49987000  0.50059000  1.0
  N  N203  1  0.70851000  0.49991000  0.50045000  1.0
  N  N204  1  0.70853000  0.50249000  0.96156000  1.0
  N  N205  1  0.29150000  0.50245000  0.96165000  1.0
  O  O206  1  0.56856000  0.61373000  0.50156000  1.0
  O  O207  1  0.43122000  0.61377000  0.50153000  1.0
  O  O208  1  0.43112000  0.50074000  0.56257000  1.0
  O  O209  1  0.56857000  0.50049000  0.56242000  1.0
  O  O210  1  0.43144000  0.38616000  0.50035000  1.0
  O  O211  1  0.56879000  0.38611000  0.50009000  1.0
  O  O212  1  0.56894000  0.49952000  0.43905000  1.0
  O  O213  1  0.43155000  0.49926000  0.43920000  1.0
  O  O214  1  0.43132000  0.61599000  0.96053000  1.0
  O  O215  1  0.56866000  0.61591000  0.96055000  1.0
  O  O216  1  0.56897000  0.50203000  0.89961000  1.0
  O  O217  1  0.43152000  0.50194000  0.89974000  1.0
  O  O218  1  0.56873000  0.38835000  0.96166000  1.0
  O  O219  1  0.43137000  0.38838000  0.96190000  1.0
  O  O220  1  0.43111000  0.50216000  0.02305000  1.0
  O  O221  1  0.56849000  0.50181000  0.02292000  1.0
