# generated using pymatgen
data_Ni3H14(C3O8)2
_symmetry_space_group_name_H-M   'P 1'
_cell_length_a   5.43255000
_cell_length_b   9.38161000
_cell_length_c   14.48850000
_cell_angle_alpha   78.69300000
_cell_angle_beta   89.99990000
_cell_angle_gamma   89.99950000
_symmetry_Int_Tables_number   1
_chemical_formula_structural   Ni3H14(C3O8)2
_chemical_formula_sum   'Ni6 H28 C12 O32'
_cell_volume   724.08959639
_cell_formula_units_Z   2
loop_
 _symmetry_equiv_pos_site_id
 _symmetry_equiv_pos_as_xyz
  1  'x, y, z'
loop_
 _atom_site_type_symbol
 _atom_site_label
 _atom_site_symmetry_multiplicity
 _atom_site_fract_x
 _atom_site_fract_y
 _atom_site_fract_z
 _atom_site_occupancy
  Ni  Ni0  1  0.11407000  0.94854000  0.67387000  1.0
  Ni  Ni1  1  0.61466000  0.05166000  0.82609000  1.0
  Ni  Ni2  1  0.88534000  0.05166000  0.32609000  1.0
  Ni  Ni3  1  0.38594000  0.94854000  0.17387000  1.0
  Ni  Ni4  1  0.00032000  0.49991000  0.00017000  1.0
  Ni  Ni5  1  0.49967000  0.49991000  0.50017000  1.0
  H  H6  1  0.23918000  0.82094000  0.53942000  1.0
  H  H7  1  0.73981000  0.17964000  0.96043000  1.0
  H  H8  1  0.76019000  0.17964000  0.46043000  1.0
  H  H9  1  0.26082000  0.82095000  0.03942000  1.0
  H  H10  1  0.24084000  0.99093000  0.48848000  1.0
  H  H11  1  0.74090000  0.00952000  0.01132000  1.0
  H  H12  1  0.75911000  0.00952000  0.51132000  1.0
  H  H13  1  0.25917000  0.99093000  0.98847000  1.0
  H  H14  1  0.62980000  0.95116000  0.65566000  1.0
  H  H15  1  0.12991000  0.04908000  0.84439000  1.0
  H  H16  1  0.37008000  0.04907000  0.34439000  1.0
  H  H17  1  0.87020000  0.95116000  0.15566000  1.0
  H  H18  1  0.71480000  0.79885000  0.62632000  1.0
  H  H19  1  0.21426000  0.20123000  0.87402000  1.0
  H  H20  1  0.28573000  0.20122000  0.37402000  1.0
  H  H21  1  0.78520000  0.79884000  0.12632000  1.0
  H  H22  1  0.10869000  0.81427000  0.92084000  1.0
  H  H23  1  0.60813000  0.18537000  0.57903000  1.0
  H  H24  1  0.89186000  0.18538000  0.07903000  1.0
  H  H25  1  0.39131000  0.81426000  0.42083000  1.0
  H  H26  1  0.44412000  0.62443000  0.03085000  1.0
  H  H27  1  0.94432000  0.37525000  0.46909000  1.0
  H  H28  1  0.55568000  0.37525000  0.96909000  1.0
  H  H29  1  0.05588000  0.62442000  0.53085000  1.0
  H  H30  1  0.28403000  0.61733000  0.12513000  1.0
  H  H31  1  0.78358000  0.38309000  0.37496000  1.0
  H  H32  1  0.71641000  0.38310000  0.87497000  1.0
  H  H33  1  0.21597000  0.61733000  0.62512000  1.0
  C  C34  1  0.97898000  0.81045000  0.86295000  1.0
  C  C35  1  0.47860000  0.18923000  0.63695000  1.0
  C  C36  1  0.02140000  0.18924000  0.13696000  1.0
  C  C37  1  0.52102000  0.81045000  0.36294000  1.0
  C  C38  1  0.09326000  0.69140000  0.81581000  1.0
  C  C39  1  0.59299000  0.30838000  0.68399000  1.0
  C  C40  1  0.90700000  0.30839000  0.18399000  1.0
  C  C41  1  0.40674000  0.69140000  0.31581000  1.0
  C  C42  1  0.73329000  0.76292000  0.91137000  1.0
  C  C43  1  0.23284000  0.23679000  0.58873000  1.0
  C  C44  1  0.26716000  0.23679000  0.08873000  1.0
  C  C45  1  0.76671000  0.76291000  0.41137000  1.0
  O  O46  1  0.27185000  0.92121000  0.54857000  1.0
  O  O47  1  0.77240000  0.07928000  0.95132000  1.0
  O  O48  1  0.72761000  0.07928000  0.45132000  1.0
  O  O49  1  0.22816000  0.92122000  0.04857000  1.0
  O  O50  1  0.76368000  0.89967000  0.62240000  1.0
  O  O51  1  0.26368000  0.10057000  0.87759000  1.0
  O  O52  1  0.23632000  0.10057000  0.37760000  1.0
  O  O53  1  0.73633000  0.89967000  0.12239000  1.0
  O  O54  1  0.96261000  0.94854000  0.80305000  1.0
  O  O55  1  0.46258000  0.05127000  0.69700000  1.0
  O  O56  1  0.03741000  0.05128000  0.19700000  1.0
  O  O57  1  0.53740000  0.94854000  0.30305000  1.0
  O  O58  1  0.16686000  0.72876000  0.73089000  1.0
  O  O59  1  0.66745000  0.27106000  0.76876000  1.0
  O  O60  1  0.83256000  0.27106000  0.26876000  1.0
  O  O61  1  0.33314000  0.72876000  0.23089000  1.0
  O  O62  1  0.11796000  0.56409000  0.86393000  1.0
  O  O63  1  0.61709000  0.43590000  0.63607000  1.0
  O  O64  1  0.88291000  0.43591000  0.13607000  1.0
  O  O65  1  0.38204000  0.56409000  0.36392000  1.0
  O  O66  1  0.54362000  0.83867000  0.88708000  1.0
  O  O67  1  0.04260000  0.16206000  0.61395000  1.0
  O  O68  1  0.45740000  0.16206000  0.11395000  1.0
  O  O69  1  0.95638000  0.83868000  0.38709000  1.0
  O  O70  1  0.72837000  0.65168000  0.97895000  1.0
  O  O71  1  0.22894000  0.34711000  0.52047000  1.0
  O  O72  1  0.27105000  0.34711000  0.02047000  1.0
  O  O73  1  0.77163000  0.65167000  0.47894000  1.0
  O  O74  1  0.27317000  0.63284000  0.05587000  1.0
  O  O75  1  0.77317000  0.36692000  0.44423000  1.0
  O  O76  1  0.72683000  0.36692000  0.94424000  1.0
  O  O77  1  0.22683000  0.63283000  0.55586000  1.0
