# generated using pymatgen
data_ZnH15C19NO4
_symmetry_space_group_name_H-M   'P 1'
_cell_length_a   7.58985000
_cell_length_b   10.80840000
_cell_length_c   11.13340000
_cell_angle_alpha   63.88260000
_cell_angle_beta   87.96050000
_cell_angle_gamma   88.85540000
_symmetry_Int_Tables_number   1
_chemical_formula_structural   ZnH15C19NO4
_chemical_formula_sum   'Zn2 H30 C38 N2 O8'
_cell_volume   819.53450291
_cell_formula_units_Z   2
loop_
 _symmetry_equiv_pos_site_id
 _symmetry_equiv_pos_as_xyz
  1  'x, y, z'
loop_
 _atom_site_type_symbol
 _atom_site_label
 _atom_site_symmetry_multiplicity
 _atom_site_fract_x
 _atom_site_fract_y
 _atom_site_fract_z
 _atom_site_occupancy
  Zn  Zn0  1  0.37781000  0.31931000  0.68339000  1.0
  Zn  Zn1  1  0.64296000  0.13260000  0.85861000  1.0
  H  H2  1  0.03802000  0.18568000  0.53384000  1.0
  H  H3  1  0.55407000  0.29384000  0.32001000  1.0
  H  H4  1  0.70825000  0.28688000  0.12052000  1.0
  H  H5  1  0.98267000  0.26505000  0.00840000  1.0
  H  H6  1  0.46664000  0.15752000  0.22218000  1.0
  H  H7  1  0.31241000  0.16457000  0.42159000  1.0
  H  H8  1  0.04183000  0.44641000  0.83601000  1.0
  H  H9  1  0.56497000  0.68092000  0.69722000  1.0
  H  H10  1  0.71242000  0.89217000  0.68094000  1.0
  H  H11  1  0.97828000  0.00541000  0.70545000  1.0
  H  H12  1  0.45621000  0.77166000  0.84228000  1.0
  H  H13  1  0.30838000  0.56006000  0.85981000  1.0
  H  H14  1  0.62547000  0.82942000  0.00471000  1.0
  H  H15  1  0.23528000  0.92926000  0.06036000  1.0
  H  H16  1  0.01771000  0.11413000  0.93882000  1.0
  H  H17  1  0.66898000  0.59192000  0.10997000  1.0
  H  H18  1  0.82673000  0.52852000  0.23764000  1.0
  H  H19  1  0.88076000  0.53906000  0.07794000  1.0
  H  H20  1  0.13455000  0.54840000  0.19520000  1.0
  H  H21  1  0.24238000  0.65708000  0.25100000  1.0
  H  H22  1  0.29688000  0.66653000  0.09111000  1.0
  H  H23  1  0.39255000  0.62444000  0.53584000  1.0
  H  H24  1  0.78458000  0.51813000  0.48299000  1.0
  H  H25  1  0.00498000  0.33549000  0.60433000  1.0
  H  H26  1  0.11821000  0.93668000  0.33814000  1.0
  H  H27  1  0.33768000  0.87334000  0.36247000  1.0
  H  H28  1  0.21506000  0.88573000  0.49498000  1.0
  H  H29  1  0.70266000  0.75272000  0.37396000  1.0
  H  H30  1  0.87035000  0.87059000  0.27641000  1.0
  H  H31  1  0.80966000  0.85615000  0.43677000  1.0
  C  C32  1  0.96483000  0.20914000  0.44387000  1.0
  C  C33  1  0.78586000  0.23779000  0.43987000  1.0
  C  C34  1  0.69354000  0.26813000  0.32142000  1.0
  C  C35  1  0.77890000  0.26586000  0.21124000  1.0
  C  C36  1  0.05567000  0.24161000  0.09849000  1.0
  C  C37  1  0.23468000  0.21298000  0.10251000  1.0
  C  C38  1  0.32706000  0.18289000  0.22087000  1.0
  C  C39  1  0.24163000  0.18524000  0.33100000  1.0
  C  C40  1  0.05756000  0.21175000  0.33037000  1.0
  C  C41  1  0.96296000  0.23926000  0.21192000  1.0
  C  C42  1  0.68818000  0.23827000  0.55921000  1.0
  C  C43  1  0.33247000  0.21250000  0.98316000  1.0
  C  C44  1  0.96826000  0.54269000  0.80500000  1.0
  C  C45  1  0.79332000  0.54985000  0.77108000  1.0
  C  C46  1  0.70184000  0.67772000  0.72446000  1.0
  C  C47  1  0.78380000  0.79450000  0.71444000  1.0
  C  C48  1  0.05212000  0.90928000  0.73627000  1.0
  C  C49  1  0.22720000  0.90235000  0.76983000  1.0
  C  C50  1  0.31901000  0.77464000  0.81580000  1.0
  C  C51  1  0.23695000  0.65767000  0.82630000  1.0
  C  C52  1  0.05703000  0.66162000  0.79357000  1.0
  C  C53  1  0.96359000  0.79036000  0.74757000  1.0
  C  C54  1  0.70039000  0.42547000  0.77773000  1.0
  C  C55  1  0.31981000  0.02673000  0.76359000  1.0
  C  C56  1  0.76233000  0.84618000  0.02039000  1.0
  C  C57  1  0.87623000  0.73508000  0.08434000  1.0
  C  C58  1  0.05213000  0.76337000  0.10052000  1.0
  C  C59  1  0.10044000  0.90188000  0.05161000  1.0
  C  C60  1  0.97995000  0.00618000  0.98533000  1.0
  C  C61  1  0.80949000  0.59165000  0.13001000  1.0
  C  C62  1  0.18740000  0.65198000  0.16335000  1.0
  C  C63  1  0.25598000  0.60620000  0.52072000  1.0
  C  C64  1  0.14036000  0.71605000  0.45655000  1.0
  C  C65  1  0.96482000  0.68582000  0.44138000  1.0
  C  C66  1  0.91897000  0.54681000  0.49112000  1.0
  C  C67  1  0.04106000  0.44379000  0.55754000  1.0
  C  C68  1  0.20562000  0.86024000  0.40997000  1.0
  C  C69  1  0.82951000  0.79706000  0.37837000  1.0
  N  N70  1  0.81201000  0.97873000  0.97041000  1.0
  N  N71  1  0.20827000  0.47306000  0.57185000  1.0
  O  O72  1  0.54396000  0.30619000  0.53791000  1.0
  O  O73  1  0.75727000  0.17134000  0.67283000  1.0
  O  O74  1  0.47729000  0.14534000  0.00452000  1.0
  O  O75  1  0.26310000  0.27868000  0.86952000  1.0
  O  O76  1  0.76968000  0.30745000  0.84522000  1.0
  O  O77  1  0.55770000  0.44751000  0.71397000  1.0
  O  O78  1  0.46170000  0.00455000  0.82831000  1.0
  O  O79  1  0.25104000  0.14481000  0.69552000  1.0
