# generated using pymatgen
data_AlH9C21(O2F)3
_symmetry_space_group_name_H-M   'P 1'
_cell_length_a   3.96567000
_cell_length_b   24.62850000
_cell_length_c   24.62582183
_cell_angle_alpha   119.99479099
_cell_angle_beta   89.99649926
_cell_angle_gamma   89.98890000
_symmetry_Int_Tables_number   1
_chemical_formula_structural   AlH9C21(O2F)3
_chemical_formula_sum   'Al2 H18 C42 O12 F6'
_cell_volume   2083.04511782
_cell_formula_units_Z   2
loop_
 _symmetry_equiv_pos_site_id
 _symmetry_equiv_pos_as_xyz
  1  'x, y, z'
loop_
 _atom_site_type_symbol
 _atom_site_label
 _atom_site_symmetry_multiplicity
 _atom_site_fract_x
 _atom_site_fract_y
 _atom_site_fract_z
 _atom_site_occupancy
  Al  Al0  1  0.00619000  0.99997000  0.49999000  1.0
  Al  Al1  1  0.00626000  0.33336000  0.16668000  1.0
  H  H2  1  0.69185000  0.70750000  0.27055000  1.0
  H  H3  1  0.69169000  0.62581000  0.39610000  1.0
  H  H4  1  0.28498000  0.50429000  0.17643000  1.0
  H  H5  1  0.29444000  0.62089000  0.23017000  1.0
  H  H6  1  0.28505000  0.82908000  0.49023000  1.0
  H  H7  1  0.29436000  0.71247000  0.43649000  1.0
  H  H8  1  0.69176000  0.22942000  0.43695000  1.0
  H  H9  1  0.69170000  0.10389000  0.22971000  1.0
  H  H10  1  0.28520000  0.32359000  0.32784000  1.0
  H  H11  1  0.29437000  0.26983000  0.39070000  1.0
  H  H12  1  0.28509000  0.00978000  0.33885000  1.0
  H  H13  1  0.29446000  0.06352000  0.27598000  1.0
  H  H14  1  0.69261000  0.06302000  0.79247000  1.0
  H  H15  1  0.69266000  0.27028000  0.87419000  1.0
  H  H16  1  0.28530000  0.17221000  0.99576000  1.0
  H  H17  1  0.29502000  0.10932000  0.87915000  1.0
  H  H18  1  0.28506000  0.16114000  0.67095000  1.0
  H  H19  1  0.29516000  0.22403000  0.78756000  1.0
  C  C20  1  0.50549000  0.04507000  0.59634000  1.0
  C  C21  1  0.50569000  0.90364000  0.44873000  1.0
  C  C22  1  0.50538000  0.05123000  0.45489000  1.0
  C  C23  1  0.50538000  0.42970000  0.21791000  1.0
  C  C24  1  0.50568000  0.28209000  0.21175000  1.0
  C  C25  1  0.50574000  0.28827000  0.07033000  1.0
  C  C26  1  0.49990000  0.83393000  0.41297000  1.0
  C  C27  1  0.49958000  0.49940000  0.25369000  1.0
  C  C28  1  0.61221000  0.79798000  0.35098000  1.0
  C  C29  1  0.60488000  0.73292000  0.31899000  1.0
  C  C30  1  0.61183000  0.53534000  0.31568000  1.0
  C  C31  1  0.60459000  0.60040000  0.34768000  1.0
  C  C32  1  0.38003000  0.53185000  0.22416000  1.0
  C  C33  1  0.38555000  0.59687000  0.25436000  1.0
  C  C34  1  0.38024000  0.80150000  0.44250000  1.0
  C  C35  1  0.38565000  0.73647000  0.41230000  1.0
  C  C36  1  0.49589000  0.70121000  0.34982000  1.0
  C  C37  1  0.49580000  0.63211000  0.31683000  1.0
  C  C38  1  0.49963000  0.08703000  0.42097000  1.0
  C  C39  1  0.49980000  0.24631000  0.24570000  1.0
  C  C40  1  0.61197000  0.14900000  0.44701000  1.0
  C  C41  1  0.60466000  0.18099000  0.41394000  1.0
  C  C42  1  0.61204000  0.18432000  0.21965000  1.0
  C  C43  1  0.60470000  0.15233000  0.25272000  1.0
  C  C44  1  0.38022000  0.27585000  0.30767000  1.0
  C  C45  1  0.38559000  0.24565000  0.34250000  1.0
  C  C46  1  0.38009000  0.05751000  0.35901000  1.0
  C  C47  1  0.38554000  0.08771000  0.32418000  1.0
  C  C48  1  0.49580000  0.15016000  0.35139000  1.0
  C  C49  1  0.49585000  0.18316000  0.31527000  1.0
  C  C50  1  0.49986000  0.07900000  0.66605000  1.0
  C  C51  1  0.50011000  0.25431000  0.00061000  1.0
  C  C52  1  0.61231000  0.05296000  0.70199000  1.0
  C  C53  1  0.60542000  0.08603000  0.76706000  1.0
  C  C54  1  0.61257000  0.28034000  0.96467000  1.0
  C  C55  1  0.60550000  0.24726000  0.89961000  1.0
  C  C56  1  0.38062000  0.19235000  0.96818000  1.0
  C  C57  1  0.38631000  0.15752000  0.90316000  1.0
  C  C58  1  0.38044000  0.14098000  0.69851000  1.0
  C  C59  1  0.38632000  0.17582000  0.76354000  1.0
  C  C60  1  0.49674000  0.14860000  0.79878000  1.0
  C  C61  1  0.49674000  0.18471000  0.86789000  1.0
  O  O62  1  0.27234000  0.01068000  0.44122000  1.0
  O  O63  1  0.27236000  0.05873000  0.56946000  1.0
  O  O64  1  0.27256000  0.93052000  0.48929000  1.0
  O  O65  1  0.74351000  0.06188000  0.49363000  1.0
  O  O66  1  0.74378000  0.93172000  0.43807000  1.0
  O  O67  1  0.74358000  0.00631000  0.56824000  1.0
  O  O68  1  0.27261000  0.27461000  0.09722000  1.0
  O  O69  1  0.27239000  0.40282000  0.17737000  1.0
  O  O70  1  0.27254000  0.32265000  0.22543000  1.0
  O  O71  1  0.74373000  0.32703000  0.09842000  1.0
  O  O72  1  0.74382000  0.27143000  0.17301000  1.0
  O  O73  1  0.74355000  0.40161000  0.22858000  1.0
  F  F74  1  0.72546000  0.82642000  0.31937000  1.0
  F  F75  1  0.72487000  0.50688000  0.34728000  1.0
  F  F76  1  0.72509000  0.18058000  0.50705000  1.0
  F  F77  1  0.72516000  0.15272000  0.15960000  1.0
  F  F78  1  0.72517000  0.99289000  0.67353000  1.0
  F  F79  1  0.72559000  0.34040000  0.99312000  1.0
