# generated using pymatgen
data_H16PbC14S2O17
_symmetry_space_group_name_H-M   'P 1'
_cell_length_a   6.81212000
_cell_length_b   11.79300000
_cell_length_c   14.23850000
_cell_angle_alpha   109.84600000
_cell_angle_beta   101.51600000
_cell_angle_gamma   97.70850000
_symmetry_Int_Tables_number   1
_chemical_formula_structural   H16PbC14S2O17
_chemical_formula_sum   'H32 Pb2 C28 S4 O34'
_cell_volume   1028.65136160
_cell_formula_units_Z   2
loop_
 _symmetry_equiv_pos_site_id
 _symmetry_equiv_pos_as_xyz
  1  'x, y, z'
loop_
 _atom_site_type_symbol
 _atom_site_label
 _atom_site_symmetry_multiplicity
 _atom_site_fract_x
 _atom_site_fract_y
 _atom_site_fract_z
 _atom_site_occupancy
  H  H0  1  0.34318000  0.42534000  0.56427000  1.0
  H  H1  1  0.65684000  0.57465000  0.43573000  1.0
  H  H2  1  0.57780000  0.43806000  0.56082000  1.0
  H  H3  1  0.42221000  0.56194000  0.43918000  1.0
  H  H4  1  0.74707000  0.98513000  0.89224000  1.0
  H  H5  1  0.25292000  0.01487000  0.10775000  1.0
  H  H6  1  0.92245000  0.90214000  0.88047000  1.0
  H  H7  1  0.07755000  0.09786000  0.11953000  1.0
  H  H8  1  0.97681000  0.71055000  0.76587000  1.0
  H  H9  1  0.02318000  0.28944000  0.23412000  1.0
  H  H10  1  0.90722000  0.67353000  0.64177000  1.0
  H  H11  1  0.09278000  0.32647000  0.35822000  1.0
  H  H12  1  0.28437000  0.93412000  0.76615000  1.0
  H  H13  1  0.71563000  0.06587000  0.23384000  1.0
  H  H14  1  0.16469000  0.01463000  0.23287000  1.0
  H  H15  1  0.83531000  0.98537000  0.76714000  1.0
  H  H16  1  0.37500000  0.21775000  0.52516000  1.0
  H  H17  1  0.62502000  0.78227000  0.47485000  1.0
  H  H18  1  0.22911000  0.29746000  0.01739000  1.0
  H  H19  1  0.77086000  0.70254000  0.98262000  1.0
  H  H20  1  0.42886000  0.57420000  0.29257000  1.0
  H  H21  1  0.57115000  0.42579000  0.70743000  1.0
  H  H22  1  0.11073000  0.49832000  0.71146000  1.0
  H  H23  1  0.88927000  0.50167000  0.28853000  1.0
  H  H24  1  0.12569000  0.81498000  0.35924000  1.0
  H  H25  1  0.87432000  0.18502000  0.64076000  1.0
  H  H26  1  0.35853000  0.10603000  0.72744000  1.0
  H  H27  1  0.64148000  0.89397000  0.27256000  1.0
  H  H28  1  0.15021000  0.35307000  0.78500000  1.0
  H  H29  1  0.84975000  0.64692000  0.21500000  1.0
  H  H30  1  0.33628000  0.71213000  0.12013000  1.0
  H  H31  1  0.66369000  0.28786000  0.87986000  1.0
  Pb  Pb32  1  0.53484000  0.70675000  0.72475000  1.0
  Pb  Pb33  1  0.46516000  0.29329000  0.27528000  1.0
  C  C34  1  0.24078000  0.91590000  0.62220000  1.0
  C  C35  1  0.75924000  0.08410000  0.37780000  1.0
  C  C36  1  0.17408000  0.83295000  0.51737000  1.0
  C  C37  1  0.82594000  0.16705000  0.48264000  1.0
  C  C38  1  0.17431000  0.87874000  0.43961000  1.0
  C  C39  1  0.82570000  0.12126000  0.56038000  1.0
  C  C40  1  0.24095000  0.00467000  0.46249000  1.0
  C  C41  1  0.75908000  0.99534000  0.53751000  1.0
  C  C42  1  0.30948000  0.08687000  0.56781000  1.0
  C  C43  1  0.69054000  0.91313000  0.43219000  1.0
  C  C44  1  0.30681000  0.04173000  0.64689000  1.0
  C  C45  1  0.69321000  0.95827000  0.35310000  1.0
  C  C46  1  0.24549000  0.05199000  0.38016000  1.0
  C  C47  1  0.75453000  0.94803000  0.61985000  1.0
  C  C48  1  0.26850000  0.65425000  0.95541000  1.0
  C  C49  1  0.73148000  0.34576000  0.04460000  1.0
  C  C50  1  0.21762000  0.55153000  0.85997000  1.0
  C  C51  1  0.78237000  0.44847000  0.14004000  1.0
  C  C52  1  0.18799000  0.43158000  0.85824000  1.0
  C  C53  1  0.81199000  0.56842000  0.14176000  1.0
  C  C54  1  0.21589000  0.41080000  0.95055000  1.0
  C  C55  1  0.78408000  0.58921000  0.04945000  1.0
  C  C56  1  0.27309000  0.51340000  0.04681000  1.0
  C  C57  1  0.72692000  0.48660000  0.95320000  1.0
  C  C58  1  0.29535000  0.63365000  0.04676000  1.0
  C  C59  1  0.70462000  0.36635000  0.95324000  1.0
  C  C60  1  0.32225000  0.49332000  0.14343000  1.0
  C  C61  1  0.67774000  0.50668000  0.85658000  1.0
  S  S62  1  0.09858000  0.67131000  0.48057000  1.0
  S  S63  1  0.90143000  0.32869000  0.51942000  1.0
  S  S64  1  0.30135000  0.80726000  0.95744000  1.0
  S  S65  1  0.69863000  0.19275000  0.04255000  1.0
  O  O66  1  0.91676000  0.64619000  0.51792000  1.0
  O  O67  1  0.08324000  0.35381000  0.48208000  1.0
  O  O68  1  0.48655000  0.46317000  0.60698000  1.0
  O  O69  1  0.51346000  0.53683000  0.39301000  1.0
  O  O70  1  0.27556000  0.63100000  0.52831000  1.0
  O  O71  1  0.72445000  0.36900000  0.47168000  1.0
  O  O72  1  0.80258000  0.92323000  0.84284000  1.0
  O  O73  1  0.19741000  0.07676000  0.15716000  1.0
  O  O74  1  0.05215000  0.62083000  0.36738000  1.0
  O  O75  1  0.94784000  0.37917000  0.63261000  1.0
  O  O76  1  0.86367000  0.66666667  0.70242000  1.0
  O  O77  1  0.13632000  0.33333333  0.29757000  1.0
  O  O78  1  0.24075000  0.86808000  0.69732000  1.0
  O  O79  1  0.75926000  0.13191000  0.30268000  1.0
  O  O80  1  0.15517000  0.97238000  0.28517000  1.0
  O  O81  1  0.84482000  0.02763000  0.71484000  1.0
  O  O82  1  0.33008000  0.16238000  0.39986000  1.0
  O  O83  1  0.66995000  0.83762000  0.60015000  1.0
  O  O84  1  0.37707000  0.20784000  0.59316000  1.0
  O  O85  1  0.62294000  0.79216000  0.40685000  1.0
  O  O86  1  0.10135000  0.81589000  0.89874000  1.0
  O  O87  1  0.89864000  0.18412000  0.10126000  1.0
  O  O88  1  0.46399000  0.82360000  0.90598000  1.0
  O  O89  1  0.53601000  0.17639000  0.09401000  1.0
  O  O90  1  0.35690000  0.89011000  0.06674000  1.0
  O  O91  1  0.64309000  0.10988000  0.93326000  1.0
  O  O92  1  0.19243000  0.29333000  0.94430000  1.0
  O  O93  1  0.80754000  0.70668000  0.05570000  1.0
  O  O94  1  0.38235000  0.59353000  0.22855000  1.0
  O  O95  1  0.61766000  0.40647000  0.77146000  1.0
  O  O96  1  0.31245000  0.38548000  0.14368000  1.0
  O  O97  1  0.68756000  0.61452000  0.85633000  1.0
  O  O98  1  0.20250000  0.57306000  0.77135000  1.0
  O  O99  1  0.79750000  0.42694000  0.22865000  1.0
