# generated using pymatgen
data_CdH22C16S2(N2O3)2
_symmetry_space_group_name_H-M   'P 1'
_cell_length_a   7.82185000
_cell_length_b   8.83069000
_cell_length_c   13.92820000
_cell_angle_alpha   90.00000000
_cell_angle_beta   90.00020000
_cell_angle_gamma   103.27100000
_symmetry_Int_Tables_number   1
_chemical_formula_structural   CdH22C16S2(N2O3)2
_chemical_formula_sum   'Cd2 H44 C32 S4 N8 O12'
_cell_volume   936.36180987
_cell_formula_units_Z   2
loop_
 _symmetry_equiv_pos_site_id
 _symmetry_equiv_pos_as_xyz
  1  'x, y, z'
loop_
 _atom_site_type_symbol
 _atom_site_label
 _atom_site_symmetry_multiplicity
 _atom_site_fract_x
 _atom_site_fract_y
 _atom_site_fract_z
 _atom_site_occupancy
  Cd  Cd0  1  0.00000000  0.50000000  0.00000000  1.0
  Cd  Cd1  1  0.50000000  0.50000000  0.50000000  1.0
  H  H2  1  0.15866000  0.42767000  0.58988000  1.0
  H  H3  1  0.34134000  0.57233000  0.08988000  1.0
  H  H4  1  0.84134000  0.57233000  0.41012000  1.0
  H  H5  1  0.65866000  0.42767000  0.91012000  1.0
  H  H6  1  0.81407000  0.30901000  0.50664000  1.0
  H  H7  1  0.68593000  0.69099000  0.00664000  1.0
  H  H8  1  0.18593000  0.69099000  0.49335000  1.0
  H  H9  1  0.31407000  0.30901000  0.99336000  1.0
  H  H10  1  0.86609000  0.06459000  0.58369000  1.0
  H  H11  1  0.63391000  0.93541000  0.08369000  1.0
  H  H12  1  0.13392000  0.93541000  0.41631000  1.0
  H  H13  1  0.36609000  0.06459000  0.91631000  1.0
  H  H14  1  0.62250000  0.89693000  0.67639000  1.0
  H  H15  1  0.87750000  0.10307000  0.17639000  1.0
  H  H16  1  0.37750000  0.10307000  0.32361000  1.0
  H  H17  1  0.12250000  0.89693000  0.82361000  1.0
  H  H18  1  0.33136000  0.97089000  0.68595000  1.0
  H  H19  1  0.16864000  0.02911000  0.18595000  1.0
  H  H20  1  0.66864000  0.02911000  0.31405000  1.0
  H  H21  1  0.83136000  0.97089000  0.81405000  1.0
  H  H22  1  0.18371000  0.19219000  0.53098000  1.0
  H  H23  1  0.31629000  0.80781000  0.03098000  1.0
  H  H24  1  0.81630000  0.80781000  0.46902000  1.0
  H  H25  1  0.68371000  0.19219000  0.96902000  1.0
  H  H26  1  0.16128000  0.15784000  0.65675000  1.0
  H  H27  1  0.33872000  0.84216000  0.15675000  1.0
  H  H28  1  0.83872000  0.84216000  0.34325000  1.0
  H  H29  1  0.66128000  0.15784000  0.84325000  1.0
  H  H30  1  0.40361000  0.38615000  0.74240000  1.0
  H  H31  1  0.09640000  0.61385000  0.24240000  1.0
  H  H32  1  0.59640000  0.61386000  0.25760000  1.0
  H  H33  1  0.90360000  0.38614000  0.75760000  1.0
  H  H34  1  0.18051000  0.38909000  0.75812000  1.0
  H  H35  1  0.31949000  0.61091000  0.25812000  1.0
  H  H36  1  0.81949000  0.61091000  0.24188000  1.0
  H  H37  1  0.68051000  0.38909000  0.74188000  1.0
  H  H38  1  0.25486000  0.67166000  0.69668000  1.0
  H  H39  1  0.24514000  0.32834000  0.19668000  1.0
  H  H40  1  0.74514000  0.32834000  0.30332000  1.0
  H  H41  1  0.75486000  0.67166000  0.80332000  1.0
  H  H42  1  0.47975000  0.65868000  0.69070000  1.0
  H  H43  1  0.02025000  0.34132000  0.19070000  1.0
  H  H44  1  0.52025000  0.34132000  0.30930000  1.0
  H  H45  1  0.97975000  0.65868000  0.80930000  1.0
  C  C46  1  0.71111000  0.23020000  0.54689000  1.0
  C  C47  1  0.78889000  0.76980000  0.04689000  1.0
  C  C48  1  0.28889000  0.76980000  0.45311000  1.0
  C  C49  1  0.21111000  0.23021000  0.95311000  1.0
  C  C50  1  0.73982000  0.09598000  0.58986000  1.0
  C  C51  1  0.76018000  0.90402000  0.08986000  1.0
  C  C52  1  0.26018000  0.90402000  0.41014000  1.0
  C  C53  1  0.23982000  0.09598000  0.91014000  1.0
  C  C54  1  0.60305000  0.00163000  0.64132000  1.0
  C  C55  1  0.89695000  0.99837000  0.14132000  1.0
  C  C56  1  0.39695000  0.99837000  0.35868000  1.0
  C  C57  1  0.10305000  0.00163000  0.85868000  1.0
  C  C58  1  0.44150000  0.04262000  0.64703000  1.0
  C  C59  1  0.05850000  0.95738000  0.14703000  1.0
  C  C60  1  0.55850000  0.95738000  0.35297000  1.0
  C  C61  1  0.94150000  0.04262000  0.85297000  1.0
  C  C62  1  0.42100000  0.17779000  0.60131000  1.0
  C  C63  1  0.07900000  0.82221000  0.10131000  1.0
  C  C64  1  0.57900000  0.82221000  0.39869000  1.0
  C  C65  1  0.92100000  0.17779000  0.89869000  1.0
  C  C66  1  0.24650000  0.22459000  0.60101000  1.0
  C  C67  1  0.25350000  0.77541000  0.10101000  1.0
  C  C68  1  0.75350000  0.77541000  0.39899000  1.0
  C  C69  1  0.74650000  0.22459000  0.89899000  1.0
  C  C70  1  0.29859000  0.43842000  0.71509000  1.0
  C  C71  1  0.20141000  0.56158000  0.21509000  1.0
  C  C72  1  0.70141000  0.56158000  0.28491000  1.0
  C  C73  1  0.79859000  0.43842000  0.78491000  1.0
  C  C74  1  0.35331000  0.61391000  0.72640000  1.0
  C  C75  1  0.14669000  0.38610000  0.22640000  1.0
  C  C76  1  0.64669000  0.38610000  0.27359000  1.0
  C  C77  1  0.85331000  0.61390000  0.77360000  1.0
  S  S78  1  0.38371000  0.67197000  0.84980000  1.0
  S  S79  1  0.11629000  0.32803000  0.34980000  1.0
  S  S80  1  0.61629000  0.32802000  0.15020000  1.0
  S  S81  1  0.88371000  0.67197000  0.65020000  1.0
  N  N82  1  0.55521000  0.26964000  0.55311000  1.0
  N  N83  1  0.94479000  0.73036000  0.05310000  1.0
  N  N84  1  0.44479000  0.73036000  0.44690000  1.0
  N  N85  1  0.05521000  0.26964000  0.94690000  1.0
  N  N86  1  0.26871000  0.39380000  0.61330000  1.0
  N  N87  1  0.23129000  0.60620000  0.11330000  1.0
  N  N88  1  0.73129000  0.60620000  0.38670000  1.0
  N  N89  1  0.76871000  0.39380000  0.88670000  1.0
  O  O90  1  0.48142000  0.83471000  0.84956000  1.0
  O  O91  1  0.01858000  0.16530000  0.34956000  1.0
  O  O92  1  0.51858000  0.16529000  0.15044000  1.0
  O  O93  1  0.98142000  0.83470000  0.65044000  1.0
  O  O94  1  0.20268000  0.65476000  0.88815000  1.0
  O  O95  1  0.29732000  0.34524000  0.38815000  1.0
  O  O96  1  0.79732000  0.34524000  0.11185000  1.0
  O  O97  1  0.70268000  0.65476000  0.61185000  1.0
  O  O98  1  0.47608000  0.56474000  0.89676000  1.0
  O  O99  1  0.02394000  0.43527000  0.39676000  1.0
  O  O100  1  0.52392000  0.43527000  0.10324000  1.0
  O  O101  1  0.97607000  0.56473000  0.60325000  1.0
