# generated using pymatgen
data_Zn2H11C12N11O6
_symmetry_space_group_name_H-M   'P 1'
_cell_length_a   9.57020000
_cell_length_b   9.67923000
_cell_length_c   10.72094542
_cell_angle_alpha   80.98062742
_cell_angle_beta   63.49044189
_cell_angle_gamma   90.01140000
_symmetry_Int_Tables_number   1
_chemical_formula_structural   Zn2H11C12N11O6
_chemical_formula_sum   'Zn4 H22 C24 N22 O12'
_cell_volume   874.93008074
_cell_formula_units_Z   2
loop_
 _symmetry_equiv_pos_site_id
 _symmetry_equiv_pos_as_xyz
  1  'x, y, z'
loop_
 _atom_site_type_symbol
 _atom_site_label
 _atom_site_symmetry_multiplicity
 _atom_site_fract_x
 _atom_site_fract_y
 _atom_site_fract_z
 _atom_site_occupancy
  Zn  Zn0  1  0.12875000  0.90625000  0.37590000  1.0
  Zn  Zn1  1  0.50471000  0.59377000  0.62406000  1.0
  Zn  Zn2  1  0.87125000  0.09376000  0.62410000  1.0
  Zn  Zn3  1  0.49529000  0.40623000  0.37594000  1.0
  H  H4  1  0.15887000  0.43878000  0.59254000  1.0
  H  H5  1  0.75145000  0.06107000  0.40755000  1.0
  H  H6  1  0.84113000  0.56122000  0.40746000  1.0
  H  H7  1  0.24856000  0.93894000  0.59245000  1.0
  H  H8  1  0.98022000  0.38788000  0.60760000  1.0
  H  H9  1  0.58794000  0.11211000  0.39238000  1.0
  H  H10  1  0.01978000  0.61213000  0.39240000  1.0
  H  H11  1  0.41208000  0.88789000  0.60761000  1.0
  H  H12  1  0.55568000  0.19882000  0.19096000  1.0
  H  H13  1  0.74662000  0.30122000  0.80901000  1.0
  H  H14  1  0.44432000  0.80118000  0.80904000  1.0
  H  H15  1  0.25337000  0.69878000  0.19099000  1.0
  H  H16  1  0.46578000  0.04397000  0.19477000  1.0
  H  H17  1  0.66069000  0.45613000  0.80517000  1.0
  H  H18  1  0.53423000  0.95604000  0.80522000  1.0
  H  H19  1  0.33930000  0.54387000  0.19484000  1.0
  H  H20  1  0.73107000  0.88196000  0.16032000  1.0
  H  H21  1  0.89143000  0.61786000  0.83968000  1.0
  H  H22  1  0.26892000  0.11802000  0.83970000  1.0
  H  H23  1  0.10857000  0.38214000  0.16032000  1.0
  H  H24  1  0.19872000  0.74993000  0.00008000  1.0
  H  H25  1  0.80127000  0.25008000  0.99993000  1.0
  C  C26  1  0.16053000  0.28787000  0.47528000  1.0
  C  C27  1  0.63611000  0.21227000  0.52450000  1.0
  C  C28  1  0.83948000  0.71214000  0.52471000  1.0
  C  C29  1  0.36390000  0.78774000  0.47549000  1.0
  C  C30  1  0.32859000  0.16535000  0.33416000  1.0
  C  C31  1  0.66295000  0.33480000  0.66569000  1.0
  C  C32  1  0.67142000  0.83465000  0.66583000  1.0
  C  C33  1  0.33706000  0.66521000  0.33430000  1.0
  C  C34  1  0.96812000  0.82249000  0.09168000  1.0
  C  C35  1  0.05975000  0.67733000  0.90838000  1.0
  C  C36  1  0.03188000  0.17749000  0.90833000  1.0
  C  C37  1  0.94025000  0.32266000  0.09163000  1.0
  C  C38  1  0.82309000  0.82504000  0.09021000  1.0
  C  C39  1  0.91334000  0.67484000  0.90975000  1.0
  C  C40  1  0.17689000  0.17494000  0.90981000  1.0
  C  C41  1  0.08665000  0.32515000  0.09026000  1.0
  C  C42  1  0.79850000  0.74997000  0.99994000  1.0
  C  C43  1  0.20150000  0.25002000  0.00007000  1.0
  C  C44  1  0.08522000  0.74991000  0.00004000  1.0
  C  C45  1  0.91478000  0.25008000  0.99996000  1.0
  C  C46  1  0.99656000  0.89430000  0.19356000  1.0
  C  C47  1  0.18998000  0.60529000  0.80660000  1.0
  C  C48  1  0.00344000  0.10569000  0.80644000  1.0
  C  C49  1  0.81002000  0.39471000  0.19339000  1.0
  N  N50  1  0.18781000  0.09983000  0.37785000  1.0
  N  N51  1  0.56593000  0.40031000  0.62193000  1.0
  N  N52  1  0.81219000  0.90018000  0.62214000  1.0
  N  N53  1  0.43408000  0.59969000  0.37806000  1.0
  N  N54  1  0.07832000  0.17885000  0.46987000  1.0
  N  N55  1  0.54852000  0.32131000  0.52988000  1.0
  N  N56  1  0.92169000  0.82116000  0.53012000  1.0
  N  N57  1  0.45149000  0.67870000  0.47011000  1.0
  N  N58  1  0.31744000  0.28415000  0.39021000  1.0
  N  N59  1  0.70787000  0.21601000  0.60965000  1.0
  N  N60  1  0.68255000  0.71586000  0.60979000  1.0
  N  N61  1  0.29213000  0.78399000  0.39035000  1.0
  N  N62  1  0.09873000  0.39052000  0.55082000  1.0
  N  N63  1  0.64971000  0.10956000  0.44911000  1.0
  N  N64  1  0.90128000  0.60948000  0.44917000  1.0
  N  N65  1  0.35029000  0.89044000  0.55089000  1.0
  N  N66  1  0.46928000  0.11979000  0.24935000  1.0
  N  N67  1  0.71874000  0.38030000  0.75060000  1.0
  N  N68  1  0.53071000  0.88021000  0.75065000  1.0
  N  N69  1  0.28126000  0.61970000  0.24940000  1.0
  N  N70  1  0.64572000  0.74994000  0.99987000  1.0
  N  N71  1  0.35429000  0.25006000  0.00013000  1.0
  O  O72  1  0.89728000  0.96917000  0.26648000  1.0
  O  O73  1  0.16338000  0.52991000  0.73420000  1.0
  O  O74  1  0.10272000  0.03083000  0.73352000  1.0
  O  O75  1  0.83663000  0.47010000  0.26579000  1.0
  O  O76  1  0.12742000  0.86890000  0.19959000  1.0
  O  O77  1  0.32697000  0.63102000  0.80024000  1.0
  O  O78  1  0.87258000  0.13109000  0.80041000  1.0
  O  O79  1  0.67304000  0.36899000  0.19975000  1.0
  O  O80  1  0.60784000  0.65464000  0.95259000  1.0
  O  O81  1  0.56049000  0.84523000  0.04711000  1.0
  O  O82  1  0.39217000  0.34536000  0.04740000  1.0
  O  O83  1  0.43952000  0.15478000  0.95289000  1.0
