# generated using pymatgen
data_AgH4C6NO2
_symmetry_space_group_name_H-M   'P 1'
_cell_length_a   3.60346000
_cell_length_b   13.75480000
_cell_length_c   14.26560000
_cell_angle_alpha   89.99290000
_cell_angle_beta   90.65440000
_cell_angle_gamma   89.99070000
_symmetry_Int_Tables_number   1
_chemical_formula_structural   AgH4C6NO2
_chemical_formula_sum   'Ag4 H16 C24 N4 O8'
_cell_volume   707.02649949
_cell_formula_units_Z   4
loop_
 _symmetry_equiv_pos_site_id
 _symmetry_equiv_pos_as_xyz
  1  'x, y, z'
loop_
 _atom_site_type_symbol
 _atom_site_label
 _atom_site_symmetry_multiplicity
 _atom_site_fract_x
 _atom_site_fract_y
 _atom_site_fract_z
 _atom_site_occupancy
  Ag  Ag0  1  0.47531000  0.56673000  0.92801000  1.0
  Ag  Ag1  1  0.52456000  0.06676000  0.57193000  1.0
  Ag  Ag2  1  0.52456000  0.43319000  0.07195000  1.0
  Ag  Ag3  1  0.47542000  0.93325000  0.42803000  1.0
  H  H4  1  0.15205000  0.41059000  0.71493000  1.0
  H  H5  1  0.84783000  0.91065000  0.78512000  1.0
  H  H6  1  0.84791000  0.58937000  0.28510000  1.0
  H  H7  1  0.15200000  0.08939000  0.21493000  1.0
  H  H8  1  0.42637000  0.29035000  0.60011000  1.0
  H  H9  1  0.57370000  0.79035000  0.89989000  1.0
  H  H10  1  0.57367000  0.70967000  0.39986000  1.0
  H  H11  1  0.42636000  0.20964000  0.10013000  1.0
  H  H12  1  0.33810000  0.06549000  0.79009000  1.0
  H  H13  1  0.66226000  0.56551000  0.70989000  1.0
  H  H14  1  0.66207000  0.93451000  0.20987000  1.0
  H  H15  1  0.33791000  0.43451000  0.29012000  1.0
  H  H16  1  0.06323000  0.17686000  0.91267000  1.0
  H  H17  1  0.93698000  0.67693000  0.58733000  1.0
  H  H18  1  0.93678000  0.82309000  0.08734000  1.0
  H  H19  1  0.06292000  0.32313000  0.41268000  1.0
  C  C20  1  0.90531000  0.37015000  0.89000000  1.0
  C  C21  1  0.09477000  0.87022000  0.60999000  1.0
  C  C22  1  0.09465000  0.62981000  0.10999000  1.0
  C  C23  1  0.90517000  0.12982000  0.39003000  1.0
  C  C24  1  0.08542000  0.30169000  0.82179000  1.0
  C  C25  1  0.91461000  0.80180000  0.67817000  1.0
  C  C26  1  0.91453000  0.69825000  0.17820000  1.0
  C  C27  1  0.08533000  0.19826000  0.32185000  1.0
  C  C28  1  0.19094000  0.33440000  0.73321000  1.0
  C  C29  1  0.80909000  0.83443000  0.76679000  1.0
  C  C30  1  0.80905000  0.66559000  0.26679000  1.0
  C  C31  1  0.19090000  0.16559000  0.23325000  1.0
  C  C32  1  0.34200000  0.26852000  0.67031000  1.0
  C  C33  1  0.65806000  0.76850000  0.82971000  1.0
  C  C34  1  0.65807000  0.73150000  0.32968000  1.0
  C  C35  1  0.34202000  0.23149000  0.17033000  1.0
  C  C36  1  0.29498000  0.14284000  0.77687000  1.0
  C  C37  1  0.70508000  0.64291000  0.72311000  1.0
  C  C38  1  0.70503000  0.85713000  0.22309000  1.0
  C  C39  1  0.29503000  0.35713000  0.27689000  1.0
  C  C40  1  0.14211000  0.20378000  0.84393000  1.0
  C  C41  1  0.85796000  0.70388000  0.65605000  1.0
  C  C42  1  0.85789000  0.79618000  0.15606000  1.0
  C  C43  1  0.14207000  0.29617000  0.34396000  1.0
  N  N44  1  0.39250000  0.17419000  0.69135000  1.0
  N  N45  1  0.60758000  0.67419000  0.80868000  1.0
  N  N46  1  0.60757000  0.82581000  0.30864000  1.0
  N  N47  1  0.39263000  0.32582000  0.19135000  1.0
  O  O48  1  0.87377000  0.45815000  0.86299000  1.0
  O  O49  1  0.12627000  0.95821000  0.63708000  1.0
  O  O50  1  0.12627000  0.54180000  0.13701000  1.0
  O  O51  1  0.87383000  0.04184000  0.36295000  1.0
  O  O52  1  0.79503000  0.33428000  0.96672000  1.0
  O  O53  1  0.20489000  0.83431000  0.53324000  1.0
  O  O54  1  0.20481000  0.66566000  0.03323000  1.0
  O  O55  1  0.79481000  0.16576000  0.46673000  1.0
