# generated using pymatgen
data_Zn2H25C39NO7
_symmetry_space_group_name_H-M   'P 1'
_cell_length_a   11.96120000
_cell_length_b   18.04580000
_cell_length_c   18.72950000
_cell_angle_alpha   90.00000000
_cell_angle_beta   89.99980000
_cell_angle_gamma   90.00000000
_symmetry_Int_Tables_number   1
_chemical_formula_structural   Zn2H25C39NO7
_chemical_formula_sum   'Zn8 H100 C156 N4 O28'
_cell_volume   4042.75176730
_cell_formula_units_Z   4
loop_
 _symmetry_equiv_pos_site_id
 _symmetry_equiv_pos_as_xyz
  1  'x, y, z'
loop_
 _atom_site_type_symbol
 _atom_site_label
 _atom_site_symmetry_multiplicity
 _atom_site_fract_x
 _atom_site_fract_y
 _atom_site_fract_z
 _atom_site_occupancy
  Zn  Zn0  1  0.39208000  0.30157000  0.00927000  1.0
  Zn  Zn1  1  0.10791000  0.30157000  0.99073000  1.0
  Zn  Zn2  1  0.60792000  0.19843000  0.00927000  1.0
  Zn  Zn3  1  0.89208000  0.19843000  0.99073000  1.0
  Zn  Zn4  1  0.60792000  0.69842000  0.99073000  1.0
  Zn  Zn5  1  0.89208000  0.69843000  0.00928000  1.0
  Zn  Zn6  1  0.39209000  0.80157000  0.99073000  1.0
  Zn  Zn7  1  0.10791000  0.80157000  0.00927000  1.0
  H  H8  1  0.87258000  0.76570000  0.79570000  1.0
  H  H9  1  0.53900000  0.49225000  0.92606000  1.0
  H  H10  1  0.87409000  0.66491000  0.23200000  1.0
  H  H11  1  0.64457000  0.58936000  0.86152000  1.0
  H  H12  1  0.87829000  0.66142000  0.36277000  1.0
  H  H13  1  0.84314000  0.69171000  0.59566000  1.0
  H  H14  1  0.91065000  0.43320000  0.82153000  1.0
  H  H15  1  0.80242000  0.33596000  0.88502000  1.0
  H  H16  1  0.78343000  0.66608000  0.86439000  1.0
  H  H17  1  0.84204000  0.69257000  0.46485000  1.0
  H  H18  1  0.01766000  0.60397000  0.65380000  1.0
  H  H19  1  0.92574000  0.50356000  0.72179000  1.0
  H  H20  1  0.75000000  0.09398000  0.00000000  1.0
  H  H21  1  0.62742000  0.76570000  0.20430000  1.0
  H  H22  1  0.96100000  0.49225000  0.07394000  1.0
  H  H23  1  0.62591000  0.66491000  0.76800000  1.0
  H  H24  1  0.85542000  0.58936000  0.13848000  1.0
  H  H25  1  0.62171000  0.66143000  0.63723000  1.0
  H  H26  1  0.65686000  0.69171000  0.40434000  1.0
  H  H27  1  0.58935000  0.43320000  0.17847000  1.0
  H  H28  1  0.69758000  0.33596000  0.11498000  1.0
  H  H29  1  0.71657000  0.66608000  0.13561000  1.0
  H  H30  1  0.65796000  0.69257000  0.53515000  1.0
  H  H31  1  0.48234000  0.60397000  0.34620000  1.0
  H  H32  1  0.57426000  0.50356000  0.27821000  1.0
  H  H33  1  0.12742000  0.73430000  0.79570000  1.0
  H  H34  1  0.46100000  0.00775000  0.92606000  1.0
  H  H35  1  0.12591000  0.83508000  0.23200000  1.0
  H  H36  1  0.35543000  0.91064000  0.86152000  1.0
  H  H37  1  0.12171000  0.83857000  0.36277000  1.0
  H  H38  1  0.15685000  0.80829000  0.59566000  1.0
  H  H39  1  0.08935000  0.06680000  0.82153000  1.0
  H  H40  1  0.19758000  0.16404000  0.88502000  1.0
  H  H41  1  0.21657000  0.83392000  0.86439000  1.0
  H  H42  1  0.15796000  0.80743000  0.46485000  1.0
  H  H43  1  0.98234000  0.89603000  0.65380000  1.0
  H  H44  1  0.07426000  0.99644000  0.72179000  1.0
  H  H45  1  0.25000000  0.40602000  0.00000000  1.0
  H  H46  1  0.37258000  0.73430000  0.20430000  1.0
  H  H47  1  0.03900000  0.00775000  0.07394000  1.0
  H  H48  1  0.37409000  0.83509000  0.76800000  1.0
  H  H49  1  0.14458000  0.91064000  0.13848000  1.0
  H  H50  1  0.37829000  0.83858000  0.63723000  1.0
  H  H51  1  0.34315000  0.80829000  0.40434000  1.0
  H  H52  1  0.41065000  0.06680000  0.17847000  1.0
  H  H53  1  0.30242000  0.16404000  0.11498000  1.0
  H  H54  1  0.28343000  0.83392000  0.13561000  1.0
  H  H55  1  0.34204000  0.80743000  0.53515000  1.0
  H  H56  1  0.51767000  0.89603000  0.34620000  1.0
  H  H57  1  0.42574000  0.99644000  0.27821000  1.0
  H  H58  1  0.12742000  0.23430000  0.20430000  1.0
  H  H59  1  0.46100000  0.50775000  0.07394000  1.0
  H  H60  1  0.12591000  0.33509000  0.76800000  1.0
  H  H61  1  0.35543000  0.41064000  0.13848000  1.0
  H  H62  1  0.12171000  0.33857000  0.63723000  1.0
  H  H63  1  0.15686000  0.30829000  0.40434000  1.0
  H  H64  1  0.08935000  0.56680000  0.17847000  1.0
  H  H65  1  0.19758000  0.66404000  0.11498000  1.0
  H  H66  1  0.21657000  0.33392000  0.13561000  1.0
  H  H67  1  0.15796000  0.30743000  0.53515000  1.0
  H  H68  1  0.98234000  0.39603000  0.34620000  1.0
  H  H69  1  0.07426000  0.49644000  0.27821000  1.0
  H  H70  1  0.25000000  0.90602000  0.00000000  1.0
  H  H71  1  0.37258000  0.23430000  0.79570000  1.0
  H  H72  1  0.03899000  0.50775000  0.92606000  1.0
  H  H73  1  0.37409000  0.33509000  0.23200000  1.0
  H  H74  1  0.14458000  0.41064000  0.86152000  1.0
  H  H75  1  0.37829000  0.33857000  0.36277000  1.0
  H  H76  1  0.34314000  0.30829000  0.59566000  1.0
  H  H77  1  0.41065000  0.56680000  0.82153000  1.0
  H  H78  1  0.30241000  0.66404000  0.88502000  1.0
  H  H79  1  0.28343000  0.33392000  0.86439000  1.0
  H  H80  1  0.34204000  0.30743000  0.46485000  1.0
  H  H81  1  0.51766000  0.39603000  0.65380000  1.0
  H  H82  1  0.42574000  0.49644000  0.72179000  1.0
  H  H83  1  0.87258000  0.26570000  0.20430000  1.0
  H  H84  1  0.53900000  0.99225000  0.07394000  1.0
  H  H85  1  0.87409000  0.16491000  0.76800000  1.0
  H  H86  1  0.64457000  0.08936000  0.13848000  1.0
  H  H87  1  0.87829000  0.16143000  0.63723000  1.0
  H  H88  1  0.84315000  0.19171000  0.40434000  1.0
  H  H89  1  0.91066000  0.93320000  0.17847000  1.0
  H  H90  1  0.80242000  0.83596000  0.11498000  1.0
  H  H91  1  0.78343000  0.16608000  0.13561000  1.0
  H  H92  1  0.84204000  0.19257000  0.53515000  1.0
  H  H93  1  0.01766000  0.10397000  0.34620000  1.0
  H  H94  1  0.92574000  0.00356000  0.27821000  1.0
  H  H95  1  0.75000000  0.59397000  0.00000000  1.0
  H  H96  1  0.62742000  0.26570000  0.79570000  1.0
  H  H97  1  0.96100000  0.99225000  0.92606000  1.0
  H  H98  1  0.62591000  0.16491000  0.23200000  1.0
  H  H99  1  0.85542000  0.08936000  0.86152000  1.0
  H  H100  1  0.62171000  0.16142000  0.36277000  1.0
  H  H101  1  0.65685000  0.19171000  0.59566000  1.0
  H  H102  1  0.58934000  0.93320000  0.82152000  1.0
  H  H103  1  0.69758000  0.83596000  0.88502000  1.0
  H  H104  1  0.71657000  0.16608000  0.86439000  1.0
  H  H105  1  0.65796000  0.19257000  0.46485000  1.0
  H  H106  1  0.48234000  0.10397000  0.65380000  1.0
  H  H107  1  0.57426000  0.00356000  0.72179000  1.0
  C  C108  1  0.60009000  0.35028000  0.94774000  1.0
  C  C109  1  0.66447000  0.40815000  0.90963000  1.0
  C  C110  1  0.88400000  0.70824000  0.77934000  1.0
  C  C111  1  0.94949000  0.69162000  0.71931000  1.0
  C  C112  1  0.62062000  0.47993000  0.90321000  1.0
  C  C113  1  0.92967000  0.70204000  0.26093000  1.0
  C  C114  1  0.68044000  0.53416000  0.86722000  1.0
  C  C115  1  0.78555000  0.51860000  0.83660000  1.0
  C  C116  1  0.84589000  0.57711000  0.79768000  1.0
  C  C117  1  0.93113000  0.70131000  0.33503000  1.0
  C  C118  1  0.91242000  0.71684000  0.56670000  1.0
  C  C119  1  0.82866000  0.44634000  0.84359000  1.0
  C  C120  1  0.76896000  0.39180000  0.87952000  1.0
  C  C121  1  0.83352000  0.65177000  0.81784000  1.0
  C  C122  1  0.91302000  0.71702000  0.49264000  1.0
  C  C123  1  0.96534000  0.61724000  0.69971000  1.0
  C  C124  1  0.91404000  0.56096000  0.73845000  1.0
  C  C125  1  0.89991000  0.35028000  0.05226000  1.0
  C  C126  1  0.83553000  0.40814000  0.09037000  1.0
  C  C127  1  0.61600000  0.70824000  0.22066000  1.0
  C  C128  1  0.55051000  0.69162000  0.28069000  1.0
  C  C129  1  0.87938000  0.47993000  0.09679000  1.0
  C  C130  1  0.57032000  0.70204000  0.73908000  1.0
  C  C131  1  0.81956000  0.53416000  0.13278000  1.0
  C  C132  1  0.71444000  0.51860000  0.16340000  1.0
  C  C133  1  0.65411000  0.57711000  0.20232000  1.0
  C  C134  1  0.56886000  0.70131000  0.66497000  1.0
  C  C135  1  0.58758000  0.71684000  0.43330000  1.0
  C  C136  1  0.67134000  0.44634000  0.15641000  1.0
  C  C137  1  0.73104000  0.39180000  0.12048000  1.0
  C  C138  1  0.66648000  0.65177000  0.18216000  1.0
  C  C139  1  0.58698000  0.71703000  0.50736000  1.0
  C  C140  1  0.53466000  0.61724000  0.30028000  1.0
  C  C141  1  0.58596000  0.56096000  0.26154000  1.0
  C  C142  1  0.39991000  0.14972000  0.94774000  1.0
  C  C143  1  0.33553000  0.09185000  0.90963000  1.0
  C  C144  1  0.11600000  0.79176000  0.77934000  1.0
  C  C145  1  0.05052000  0.80837000  0.71931000  1.0
  C  C146  1  0.37938000  0.02007000  0.90321000  1.0
  C  C147  1  0.07033000  0.79796000  0.26093000  1.0
  C  C148  1  0.31956000  0.96584000  0.86722000  1.0
  C  C149  1  0.21444000  0.98140000  0.83660000  1.0
  C  C150  1  0.15411000  0.92289000  0.79768000  1.0
  C  C151  1  0.06886000  0.79869000  0.33503000  1.0
  C  C152  1  0.08758000  0.78316000  0.56670000  1.0
  C  C153  1  0.17134000  0.05366000  0.84359000  1.0
  C  C154  1  0.23104000  0.10820000  0.87952000  1.0
  C  C155  1  0.16648000  0.84823000  0.81784000  1.0
  C  C156  1  0.08698000  0.78297000  0.49264000  1.0
  C  C157  1  0.03466000  0.88276000  0.69971000  1.0
  C  C158  1  0.08596000  0.93904000  0.73846000  1.0
  C  C159  1  0.10009000  0.14972000  0.05226000  1.0
  C  C160  1  0.16447000  0.09185000  0.09036000  1.0
  C  C161  1  0.38401000  0.79176000  0.22066000  1.0
  C  C162  1  0.44948000  0.80838000  0.28069000  1.0
  C  C163  1  0.12062000  0.02007000  0.09679000  1.0
  C  C164  1  0.42967000  0.79796000  0.73908000  1.0
  C  C165  1  0.18044000  0.96584000  0.13278000  1.0
  C  C166  1  0.28556000  0.98140000  0.16340000  1.0
  C  C167  1  0.34589000  0.92289000  0.20232000  1.0
  C  C168  1  0.43114000  0.79869000  0.66497000  1.0
  C  C169  1  0.41242000  0.78316000  0.43330000  1.0
  C  C170  1  0.32866000  0.05366000  0.15641000  1.0
  C  C171  1  0.26896000  0.10820000  0.12048000  1.0
  C  C172  1  0.33353000  0.84823000  0.18215000  1.0
  C  C173  1  0.41302000  0.78297000  0.50736000  1.0
  C  C174  1  0.46534000  0.88276000  0.30028000  1.0
  C  C175  1  0.41404000  0.93904000  0.26154000  1.0
  C  C176  1  0.39990000  0.64972000  0.05226000  1.0
  C  C177  1  0.33553000  0.59185000  0.09036000  1.0
  C  C178  1  0.11600000  0.29176000  0.22066000  1.0
  C  C179  1  0.05052000  0.30837000  0.28069000  1.0
  C  C180  1  0.37938000  0.52007000  0.09679000  1.0
  C  C181  1  0.07033000  0.29796000  0.73908000  1.0
  C  C182  1  0.31956000  0.46584000  0.13278000  1.0
  C  C183  1  0.21445000  0.48140000  0.16340000  1.0
  C  C184  1  0.15411000  0.42289000  0.20232000  1.0
  C  C185  1  0.06886000  0.29869000  0.66497000  1.0
  C  C186  1  0.08758000  0.28316000  0.43330000  1.0
  C  C187  1  0.17134000  0.55366000  0.15641000  1.0
  C  C188  1  0.23104000  0.60820000  0.12048000  1.0
  C  C189  1  0.16648000  0.34823000  0.18216000  1.0
  C  C190  1  0.08698000  0.28297000  0.50736000  1.0
  C  C191  1  0.03466000  0.38276000  0.30029000  1.0
  C  C192  1  0.08596000  0.43904000  0.26154000  1.0
  C  C193  1  0.10009000  0.64972000  0.94774000  1.0
  C  C194  1  0.16447000  0.59185000  0.90964000  1.0
  C  C195  1  0.38401000  0.29176000  0.77934000  1.0
  C  C196  1  0.44948000  0.30838000  0.71931000  1.0
  C  C197  1  0.12062000  0.52007000  0.90321000  1.0
  C  C198  1  0.42967000  0.29796000  0.26092000  1.0
  C  C199  1  0.18044000  0.46584000  0.86722000  1.0
  C  C200  1  0.28556000  0.48140000  0.83660000  1.0
  C  C201  1  0.34589000  0.42289000  0.79768000  1.0
  C  C202  1  0.43114000  0.29869000  0.33503000  1.0
  C  C203  1  0.41242000  0.28316000  0.56670000  1.0
  C  C204  1  0.32865000  0.55366000  0.84359000  1.0
  C  C205  1  0.26896000  0.60821000  0.87952000  1.0
  C  C206  1  0.33353000  0.34823000  0.81785000  1.0
  C  C207  1  0.41302000  0.28297000  0.49264000  1.0
  C  C208  1  0.46534000  0.38276000  0.69971000  1.0
  C  C209  1  0.41404000  0.43904000  0.73846000  1.0
  C  C210  1  0.60008000  0.85029000  0.05226000  1.0
  C  C211  1  0.66447000  0.90815000  0.09036000  1.0
  C  C212  1  0.88400000  0.20824000  0.22066000  1.0
  C  C213  1  0.94948000  0.19163000  0.28069000  1.0
  C  C214  1  0.62062000  0.97993000  0.09679000  1.0
  C  C215  1  0.92967000  0.20204000  0.73908000  1.0
  C  C216  1  0.68044000  0.03416000  0.13278000  1.0
  C  C217  1  0.78556000  0.01860000  0.16340000  1.0
  C  C218  1  0.84589000  0.07711000  0.20232000  1.0
  C  C219  1  0.93114000  0.20131000  0.66497000  1.0
  C  C220  1  0.91243000  0.21684000  0.43330000  1.0
  C  C221  1  0.82866000  0.94634000  0.15641000  1.0
  C  C222  1  0.76896000  0.89180000  0.12048000  1.0
  C  C223  1  0.83352000  0.15177000  0.18216000  1.0
  C  C224  1  0.91302000  0.21703000  0.50736000  1.0
  C  C225  1  0.96534000  0.11724000  0.30029000  1.0
  C  C226  1  0.91404000  0.06097000  0.26154000  1.0
  C  C227  1  0.89992000  0.85029000  0.94774000  1.0
  C  C228  1  0.83553000  0.90815000  0.90964000  1.0
  C  C229  1  0.61599000  0.20824000  0.77934000  1.0
  C  C230  1  0.55051000  0.19162000  0.71931000  1.0
  C  C231  1  0.87938000  0.97993000  0.90321000  1.0
  C  C232  1  0.57033000  0.20204000  0.26092000  1.0
  C  C233  1  0.81956000  0.03416000  0.86722000  1.0
  C  C234  1  0.71444000  0.01860000  0.83660000  1.0
  C  C235  1  0.65411000  0.07711000  0.79768000  1.0
  C  C236  1  0.56886000  0.20131000  0.33503000  1.0
  C  C237  1  0.58758000  0.21684000  0.56670000  1.0
  C  C238  1  0.67134000  0.94634000  0.84359000  1.0
  C  C239  1  0.73104000  0.89180000  0.87952000  1.0
  C  C240  1  0.66648000  0.15177000  0.81784000  1.0
  C  C241  1  0.58698000  0.21703000  0.49263000  1.0
  C  C242  1  0.53466000  0.11724000  0.69971000  1.0
  C  C243  1  0.58596000  0.06096000  0.73846000  1.0
  C  C244  1  0.00000000  0.75000000  0.60544000  1.0
  C  C245  1  0.00000000  0.75000000  0.37437000  1.0
  C  C246  1  0.00001000  0.75000000  0.14343000  1.0
  C  C247  1  0.00000000  0.75000000  0.45303000  1.0
  C  C248  1  0.00000000  0.75000000  0.22269000  1.0
  C  C249  1  0.50000000  0.75000000  0.39456000  1.0
  C  C250  1  0.50000000  0.75000000  0.62563000  1.0
  C  C251  1  0.49999000  0.75000000  0.85657000  1.0
  C  C252  1  0.50000000  0.75000000  0.54697000  1.0
  C  C253  1  0.50000000  0.75000000  0.77731000  1.0
  C  C254  1  0.00000000  0.25000000  0.39456000  1.0
  C  C255  1  0.00000000  0.25000000  0.62563000  1.0
  C  C256  1  0.00000000  0.25000000  0.85658000  1.0
  C  C257  1  0.00000000  0.25000000  0.54697000  1.0
  C  C258  1  0.00000000  0.25000000  0.77732000  1.0
  C  C259  1  0.50000000  0.25000000  0.60544000  1.0
  C  C260  1  0.50000000  0.25000000  0.37437000  1.0
  C  C261  1  0.50000000  0.25000000  0.14343000  1.0
  C  C262  1  0.50000000  0.25000000  0.45303000  1.0
  C  C263  1  0.50000000  0.25000000  0.22269000  1.0
  N  N264  1  0.00000000  0.75000000  0.68027000  1.0
  N  N265  1  0.50000000  0.75000000  0.31973000  1.0
  N  N266  1  0.00000000  0.25000000  0.31973000  1.0
  N  N267  1  0.50000000  0.25000000  0.68027000  1.0
  O  O268  1  0.50752000  0.36989000  0.97613000  1.0
  O  O269  1  0.91923000  0.71683000  0.11203000  1.0
  O  O270  1  0.64110000  0.28485000  0.94936000  1.0
  O  O271  1  0.99248000  0.36989000  0.02387000  1.0
  O  O272  1  0.58077000  0.71683000  0.88797000  1.0
  O  O273  1  0.85890000  0.28486000  0.05064000  1.0
  O  O274  1  0.49248000  0.13011000  0.97613000  1.0
  O  O275  1  0.08078000  0.78317000  0.11203000  1.0
  O  O276  1  0.35890000  0.21515000  0.94936000  1.0
  O  O277  1  0.00752000  0.13011000  0.02387000  1.0
  O  O278  1  0.41922000  0.78317000  0.88797000  1.0
  O  O279  1  0.14110000  0.21514000  0.05064000  1.0
  O  O280  1  0.49248000  0.63011000  0.02387000  1.0
  O  O281  1  0.08077000  0.28317000  0.88797000  1.0
  O  O282  1  0.35889000  0.71515000  0.05064000  1.0
  O  O283  1  0.00752000  0.63011000  0.97613000  1.0
  O  O284  1  0.41922000  0.28317000  0.11203000  1.0
  O  O285  1  0.14110000  0.71515000  0.94936000  1.0
  O  O286  1  0.50752000  0.86989000  0.02386000  1.0
  O  O287  1  0.91922000  0.21683000  0.88797000  1.0
  O  O288  1  0.64110000  0.78486000  0.05064000  1.0
  O  O289  1  0.99248000  0.86989000  0.97614000  1.0
  O  O290  1  0.58078000  0.21683000  0.11203000  1.0
  O  O291  1  0.85890000  0.78486000  0.94936000  1.0
  O  O292  1  0.25000000  0.35228000  0.00000000  1.0
  O  O293  1  0.75000000  0.14772000  0.00000000  1.0
  O  O294  1  0.75000000  0.64771000  0.00001000  1.0
  O  O295  1  0.25000000  0.85228000  0.00000000  1.0
