# generated using pymatgen
data_V2CuH2C2NO6
_symmetry_space_group_name_H-M   'P 1'
_cell_length_a   7.54747000
_cell_length_b   7.56457000
_cell_length_c   7.60097000
_cell_angle_alpha   62.34650000
_cell_angle_beta   88.29550000
_cell_angle_gamma   64.74950000
_symmetry_Int_Tables_number   1
_chemical_formula_structural   V2CuH2C2NO6
_chemical_formula_sum   'V4 Cu2 H4 C4 N2 O12'
_cell_volume   339.91263104
_cell_formula_units_Z   2
loop_
 _symmetry_equiv_pos_site_id
 _symmetry_equiv_pos_as_xyz
  1  'x, y, z'
loop_
 _atom_site_type_symbol
 _atom_site_label
 _atom_site_symmetry_multiplicity
 _atom_site_fract_x
 _atom_site_fract_y
 _atom_site_fract_z
 _atom_site_occupancy
  V  V0  1  0.24926000  0.86762000  0.26008000  1.0
  V  V1  1  0.75074000  0.13239000  0.73992000  1.0
  V  V2  1  0.76673000  0.04417000  0.22787000  1.0
  V  V3  1  0.23328000  0.95582000  0.77214000  1.0
  Cu  Cu4  1  0.62395000  0.72492000  0.61006000  1.0
  Cu  Cu5  1  0.37604000  0.27509000  0.38993000  1.0
  H  H6  1  0.06627000  0.49396000  0.68649000  1.0
  H  H7  1  0.93373000  0.50604000  0.31351000  1.0
  H  H8  1  0.65276000  0.65130000  0.03360000  1.0
  H  H9  1  0.34725000  0.34869000  0.96640000  1.0
  C  C10  1  0.03668000  0.49590000  0.82682000  1.0
  C  C11  1  0.96332000  0.50410000  0.17318000  1.0
  C  C12  1  0.80796000  0.58433000  0.01843000  1.0
  C  C13  1  0.19203000  0.41567000  0.98155000  1.0
  N  N14  1  0.84539000  0.58019000  0.84622000  1.0
  N  N15  1  0.15462000  0.41981000  0.15377000  1.0
  O  O16  1  0.71813000  0.39105000  0.61967000  1.0
  O  O17  1  0.28185000  0.60897000  0.38031000  1.0
  O  O18  1  0.42333000  0.73041000  0.77693000  1.0
  O  O19  1  0.57669000  0.26960000  0.22308000  1.0
  O  O20  1  0.79613000  0.79740000  0.42047000  1.0
  O  O21  1  0.20386000  0.20260000  0.57954000  1.0
  O  O22  1  0.40954000  0.90127000  0.37729000  1.0
  O  O23  1  0.59047000  0.09869000  0.62274000  1.0
  O  O24  1  0.99529000  0.05841000  0.24487000  1.0
  O  O25  1  0.00471000  0.94159000  0.75513000  1.0
  O  O26  1  0.71705000  0.05263000  0.99571000  1.0
  O  O27  1  0.28293000  0.94740000  0.00429000  1.0
