# generated using pymatgen
data_ZnH12C15N3O5
_symmetry_space_group_name_H-M   'P 1'
_cell_length_a   9.43562000
_cell_length_b   9.49953000
_cell_length_c   9.67645000
_cell_angle_alpha   100.45000000
_cell_angle_beta   90.87650000
_cell_angle_gamma   112.60300000
_symmetry_Int_Tables_number   1
_chemical_formula_structural   ZnH12C15N3O5
_chemical_formula_sum   'Zn2 H24 C30 N6 O10'
_cell_volume   783.97775647
_cell_formula_units_Z   2
loop_
 _symmetry_equiv_pos_site_id
 _symmetry_equiv_pos_as_xyz
  1  'x, y, z'
loop_
 _atom_site_type_symbol
 _atom_site_label
 _atom_site_symmetry_multiplicity
 _atom_site_fract_x
 _atom_site_fract_y
 _atom_site_fract_z
 _atom_site_occupancy
  Zn  Zn0  1  0.00034000  0.15393000  0.93821000  1.0
  Zn  Zn1  1  0.99966000  0.84607000  0.06179000  1.0
  H  H2  1  0.30614000  0.64427000  0.14356000  1.0
  H  H3  1  0.69386000  0.35573000  0.85644000  1.0
  H  H4  1  0.44616000  0.57925000  0.06806000  1.0
  H  H5  1  0.55384000  0.42076000  0.93193000  1.0
  H  H6  1  0.56233000  0.65995000  0.88055000  1.0
  H  H7  1  0.43767000  0.34005000  0.11945000  1.0
  H  H8  1  0.62416000  0.84670000  0.71776000  1.0
  H  H9  1  0.37583000  0.15330000  0.28223000  1.0
  H  H10  1  0.47600000  0.01920000  0.72547000  1.0
  H  H11  1  0.52399000  0.98081000  0.27453000  1.0
  H  H12  1  0.95196000  0.83664000  0.71910000  1.0
  H  H13  1  0.04804000  0.16336000  0.28091000  1.0
  H  H14  1  0.83643000  0.21220000  0.66897000  1.0
  H  H15  1  0.16357000  0.78780000  0.33103000  1.0
  H  H16  1  0.73439000  0.97971000  0.41983000  1.0
  H  H17  1  0.26562000  0.02029000  0.58017000  1.0
  H  H18  1  0.89000000  0.67883000  0.46036000  1.0
  H  H19  1  0.11000000  0.32117000  0.53964000  1.0
  H  H20  1  0.79664000  0.73818000  0.33606000  1.0
  H  H21  1  0.20336000  0.26182000  0.66394000  1.0
  H  H22  1  0.74051000  0.51018000  0.61848000  1.0
  H  H23  1  0.25950000  0.48981000  0.38153000  1.0
  H  H24  1  0.51648000  0.67352000  0.33146000  1.0
  H  H25  1  0.48352000  0.32648000  0.66854000  1.0
  C  C26  1  0.20942000  0.44292000  0.97561000  1.0
  C  C27  1  0.79058000  0.55708000  0.02439000  1.0
  C  C28  1  0.34132000  0.59745000  0.04431000  1.0
  C  C29  1  0.65868000  0.40256000  0.95569000  1.0
  C  C30  1  0.49563000  0.72985000  0.87153000  1.0
  C  C31  1  0.50436000  0.27014000  0.12846000  1.0
  C  C32  1  0.53050000  0.83505000  0.78412000  1.0
  C  C33  1  0.46950000  0.16495000  0.21588000  1.0
  C  C34  1  0.44618000  0.92861000  0.78773000  1.0
  C  C35  1  0.55382000  0.07139000  0.21227000  1.0
  C  C36  1  0.32579000  0.91372000  0.87221000  1.0
  C  C37  1  0.67421000  0.08629000  0.12779000  1.0
  C  C38  1  0.28363000  0.79609000  0.95677000  1.0
  C  C39  1  0.71637000  0.20391000  0.04323000  1.0
  C  C40  1  0.24882000  0.02613000  0.87426000  1.0
  C  C41  1  0.75118000  0.97387000  0.12574000  1.0
  C  C42  1  0.90907000  0.90991000  0.67268000  1.0
  C  C43  1  0.09093000  0.09009000  0.32732000  1.0
  C  C44  1  0.84406000  0.09972000  0.64188000  1.0
  C  C45  1  0.15594000  0.90028000  0.35812000  1.0
  C  C46  1  0.79290000  0.98754000  0.51993000  1.0
  C  C47  1  0.20710000  0.01246000  0.48007000  1.0
  C  C48  1  0.79739000  0.71856000  0.44408000  1.0
  C  C49  1  0.20261000  0.28144000  0.55593000  1.0
  C  C50  1  0.64393000  0.60228000  0.47063000  1.0
  C  C51  1  0.35607000  0.39772000  0.52938000  1.0
  C  C52  1  0.63492000  0.50481000  0.56554000  1.0
  C  C53  1  0.36508000  0.49518000  0.43446000  1.0
  C  C54  1  0.50810000  0.59697000  0.40531000  1.0
  C  C55  1  0.49190000  0.40303000  0.59469000  1.0
  N  N56  1  0.37887000  0.71278000  0.95517000  1.0
  N  N57  1  0.62113000  0.28722000  0.04483000  1.0
  N  N58  1  0.91686000  0.04997000  0.73576000  1.0
  N  N59  1  0.08314000  0.95003000  0.26424000  1.0
  N  N60  1  0.83609000  0.86896000  0.54128000  1.0
  N  N61  1  0.16391000  0.13103000  0.45873000  1.0
  O  O62  1  0.17053000  0.34068000  0.05531000  1.0
  O  O63  1  0.82947000  0.65931000  0.94469000  1.0
  O  O64  1  0.15112000  0.42329000  0.85392000  1.0
  O  O65  1  0.84888000  0.57671000  0.14608000  1.0
  O  O66  1  0.17478000  0.76175000  0.03484000  1.0
  O  O67  1  0.82522000  0.23826000  0.96517000  1.0
  O  O68  1  0.12441000  0.00268000  0.93946000  1.0
  O  O69  1  0.87558000  0.99731000  0.06054000  1.0
  O  O70  1  0.30572000  0.13724000  0.81249000  1.0
  O  O71  1  0.69428000  0.86277000  0.18752000  1.0
