# generated using pymatgen
data_Ag2PH14C6S(NO2)3
_symmetry_space_group_name_H-M   'P 1'
_cell_length_a   7.00316000
_cell_length_b   10.17330000
_cell_length_c   16.65970000
_cell_angle_alpha   90.00000000
_cell_angle_beta   90.00000000
_cell_angle_gamma   90.00000000
_symmetry_Int_Tables_number   1
_chemical_formula_structural   Ag2PH14C6S(NO2)3
_chemical_formula_sum   'Ag8 P4 H56 C24 S4 N12 O24'
_cell_volume   1186.92445191
_cell_formula_units_Z   4
loop_
 _symmetry_equiv_pos_site_id
 _symmetry_equiv_pos_as_xyz
  1  'x, y, z'
loop_
 _atom_site_type_symbol
 _atom_site_label
 _atom_site_symmetry_multiplicity
 _atom_site_fract_x
 _atom_site_fract_y
 _atom_site_fract_z
 _atom_site_occupancy
  Ag  Ag0  1  0.60113000  0.01475000  0.27982000  1.0
  Ag  Ag1  1  0.10114000  0.98525000  0.72018000  1.0
  Ag  Ag2  1  0.10113000  0.51475000  0.22018000  1.0
  Ag  Ag3  1  0.60114000  0.48525000  0.77982000  1.0
  Ag  Ag4  1  0.39430000  0.23827000  0.93483000  1.0
  Ag  Ag5  1  0.89430000  0.76173000  0.06517000  1.0
  Ag  Ag6  1  0.89430000  0.73827000  0.56517000  1.0
  Ag  Ag7  1  0.39430000  0.26173000  0.43483000  1.0
  P  P8  1  0.00324000  0.05859000  0.14855000  1.0
  P  P9  1  0.50324000  0.94141000  0.85145000  1.0
  P  P10  1  0.50324000  0.55859000  0.35145000  1.0
  P  P11  1  0.00324000  0.44141000  0.64855000  1.0
  H  H12  1  0.16932000  0.00409000  0.27209000  1.0
  H  H13  1  0.66932000  0.99591000  0.72791000  1.0
  H  H14  1  0.66932000  0.50409000  0.22791000  1.0
  H  H15  1  0.16932000  0.49591000  0.77209000  1.0
  H  H16  1  0.25962000  0.91459000  0.18744000  1.0
  H  H17  1  0.75962000  0.08541000  0.81256000  1.0
  H  H18  1  0.75962000  0.41459000  0.31256000  1.0
  H  H19  1  0.25962000  0.58541000  0.68744000  1.0
  H  H20  1  0.86137000  0.27669000  0.14306000  1.0
  H  H21  1  0.36137000  0.72331000  0.85694000  1.0
  H  H22  1  0.36137000  0.77669000  0.35694000  1.0
  H  H23  1  0.86137000  0.22331000  0.64306000  1.0
  H  H24  1  0.91695000  0.22845000  0.24391000  1.0
  H  H25  1  0.41695000  0.77155000  0.75609000  1.0
  H  H26  1  0.41695000  0.72845000  0.25609000  1.0
  H  H27  1  0.91695000  0.27155000  0.74391000  1.0
  H  H28  1  0.17293000  0.98666000  0.02997000  1.0
  H  H29  1  0.67293000  0.01334000  0.97003000  1.0
  H  H30  1  0.67293000  0.48666000  0.47003000  1.0
  H  H31  1  0.17293000  0.51334000  0.52997000  1.0
  H  H32  1  0.01836000  0.12130000  0.00714000  1.0
  H  H33  1  0.51836000  0.87870000  0.99286000  1.0
  H  H34  1  0.51837000  0.62130000  0.49287000  1.0
  H  H35  1  0.01836000  0.37870000  0.50714000  1.0
  H  H36  1  0.55253000  0.18661000  0.11291000  1.0
  H  H37  1  0.05253000  0.81339000  0.88709000  1.0
  H  H38  1  0.05253000  0.68661000  0.38709000  1.0
  H  H39  1  0.55253000  0.31339000  0.61291000  1.0
  H  H40  1  0.47161000  0.02236000  0.09457000  1.0
  H  H41  1  0.97161000  0.97764000  0.90543000  1.0
  H  H42  1  0.97161000  0.52236000  0.40543000  1.0
  H  H43  1  0.47161000  0.47764000  0.59457000  1.0
  H  H44  1  0.10203000  0.34085000  0.05364000  1.0
  H  H45  1  0.60203000  0.65914000  0.94636000  1.0
  H  H46  1  0.60203000  0.84086000  0.44636000  1.0
  H  H47  1  0.10203000  0.15914000  0.55365000  1.0
  H  H48  1  0.33929000  0.37283000  0.08887000  1.0
  H  H49  1  0.83930000  0.62717000  0.91113000  1.0
  H  H50  1  0.83930000  0.87283000  0.41113000  1.0
  H  H51  1  0.33930000  0.12717000  0.58887000  1.0
  H  H52  1  0.24540000  0.23365000  0.28843000  1.0
  H  H53  1  0.74540000  0.76635000  0.71156000  1.0
  H  H54  1  0.74540000  0.73366000  0.21157000  1.0
  H  H55  1  0.24540000  0.26635000  0.78844000  1.0
  H  H56  1  0.42480000  0.30662000  0.22655000  1.0
  H  H57  1  0.92481000  0.69338000  0.77345000  1.0
  H  H58  1  0.92481000  0.80662000  0.27345000  1.0
  H  H59  1  0.42481000  0.19338000  0.72655000  1.0
  H  H60  1  0.15813000  0.45735000  0.89809000  1.0
  H  H61  1  0.65813000  0.54265000  0.10191000  1.0
  H  H62  1  0.65813000  0.95735000  0.60191000  1.0
  H  H63  1  0.15812000  0.04265000  0.39809000  1.0
  H  H64  1  0.30634000  0.53384000  0.95188000  1.0
  H  H65  1  0.80634000  0.46616000  0.04812000  1.0
  H  H66  1  0.80634000  0.03384000  0.54812000  1.0
  H  H67  1  0.30634000  0.96616000  0.45188000  1.0
  C  C68  1  0.20852000  0.01053000  0.20852000  1.0
  C  C69  1  0.70852000  0.98947000  0.79148000  1.0
  C  C70  1  0.70852000  0.51054000  0.29148000  1.0
  C  C71  1  0.20852000  0.48947000  0.70852000  1.0
  C  C72  1  0.96714000  0.22762000  0.18147000  1.0
  C  C73  1  0.46714000  0.77238000  0.81853000  1.0
  C  C74  1  0.46714000  0.72762000  0.31853000  1.0
  C  C75  1  0.96714000  0.27238000  0.68147000  1.0
  C  C76  1  0.11861000  0.08175000  0.05168000  1.0
  C  C77  1  0.61861000  0.91825000  0.94832000  1.0
  C  C78  1  0.61861000  0.58175000  0.44832000  1.0
  C  C79  1  0.11861000  0.41825000  0.55168000  1.0
  C  C80  1  0.42893000  0.12042000  0.11476000  1.0
  C  C81  1  0.92893000  0.87958000  0.88524000  1.0
  C  C82  1  0.92893000  0.62042000  0.38524000  1.0
  C  C83  1  0.42893000  0.37958000  0.61476000  1.0
  C  C84  1  0.21853000  0.30454000  0.09151000  1.0
  C  C85  1  0.71853000  0.69546000  0.90849000  1.0
  C  C86  1  0.71853000  0.80454000  0.40849000  1.0
  C  C87  1  0.21853000  0.19546000  0.59151000  1.0
  C  C88  1  0.30080000  0.24094000  0.22702000  1.0
  C  C89  1  0.80081000  0.75906000  0.77298000  1.0
  C  C90  1  0.80081000  0.74094000  0.27298000  1.0
  C  C91  1  0.30081000  0.25906000  0.72702000  1.0
  S  S92  1  0.84615000  0.18884000  0.40413000  1.0
  S  S93  1  0.34615000  0.81116000  0.59587000  1.0
  S  S94  1  0.34615000  0.68884000  0.09587000  1.0
  S  S95  1  0.84616000  0.31116000  0.90413000  1.0
  N  N96  1  0.36334000  0.11032000  0.19892000  1.0
  N  N97  1  0.86335000  0.88968000  0.80108000  1.0
  N  N98  1  0.86335000  0.61032000  0.30108000  1.0
  N  N99  1  0.36335000  0.38968000  0.69892000  1.0
  N  N100  1  0.28159000  0.17499000  0.06043000  1.0
  N  N101  1  0.78159000  0.82501000  0.93957000  1.0
  N  N102  1  0.78160000  0.67499000  0.43957000  1.0
  N  N103  1  0.28159000  0.32501000  0.56043000  1.0
  N  N104  1  0.15138000  0.30030000  0.17563000  1.0
  N  N105  1  0.65139000  0.69970000  0.82437000  1.0
  N  N106  1  0.65139000  0.80030000  0.32437000  1.0
  N  N107  1  0.15139000  0.19970000  0.67563000  1.0
  O  O108  1  0.82876000  0.97115000  0.14975000  1.0
  O  O109  1  0.32876000  0.02885000  0.85025000  1.0
  O  O110  1  0.32876000  0.47115000  0.35025000  1.0
  O  O111  1  0.82876000  0.52885000  0.64975000  1.0
  O  O112  1  0.29792000  0.46643000  0.90876000  1.0
  O  O113  1  0.79792000  0.53357000  0.09124000  1.0
  O  O114  1  0.79792000  0.96642000  0.59124000  1.0
  O  O115  1  0.29791000  0.03358000  0.40876000  1.0
  O  O116  1  0.66311000  0.21488000  0.35764000  1.0
  O  O117  1  0.16311000  0.78512000  0.64236000  1.0
  O  O118  1  0.16311000  0.71488000  0.14236000  1.0
  O  O119  1  0.66311000  0.28512000  0.85764000  1.0
  O  O120  1  0.92866000  0.06325000  0.37209000  1.0
  O  O121  1  0.42866000  0.93675000  0.62791000  1.0
  O  O122  1  0.42866000  0.56325000  0.12791000  1.0
  O  O123  1  0.92866000  0.43675000  0.87209000  1.0
  O  O124  1  0.80024000  0.17654000  0.49115000  1.0
  O  O125  1  0.30024000  0.82346000  0.50885000  1.0
  O  O126  1  0.30024000  0.67654000  0.00885000  1.0
  O  O127  1  0.80024000  0.32346000  0.99115000  1.0
  O  O128  1  0.98110000  0.29851000  0.38970000  1.0
  O  O129  1  0.48110000  0.70149000  0.61030000  1.0
  O  O130  1  0.48110000  0.79851000  0.11030000  1.0
  O  O131  1  0.98110000  0.20149000  0.88970000  1.0
