# generated using pymatgen
data_HgH24C28I2N4O3
_symmetry_space_group_name_H-M   'P 1'
_cell_length_a   8.74700000
_cell_length_b   13.07650000
_cell_length_c   13.13000000
_cell_angle_alpha   95.78260000
_cell_angle_beta   96.40310000
_cell_angle_gamma   99.74500000
_symmetry_Int_Tables_number   1
_chemical_formula_structural   HgH24C28I2N4O3
_chemical_formula_sum   'Hg2 H48 C56 I4 N8 O6'
_cell_volume   1459.89449798
_cell_formula_units_Z   2
loop_
 _symmetry_equiv_pos_site_id
 _symmetry_equiv_pos_as_xyz
  1  'x, y, z'
loop_
 _atom_site_type_symbol
 _atom_site_label
 _atom_site_symmetry_multiplicity
 _atom_site_fract_x
 _atom_site_fract_y
 _atom_site_fract_z
 _atom_site_occupancy
  Hg  Hg0  1  0.55375000  0.64198000  0.63130000  1.0
  Hg  Hg1  1  0.44624000  0.35802000  0.36870000  1.0
  H  H2  1  0.18641000  0.54997000  0.56788000  1.0
  H  H3  1  0.81358000  0.45004000  0.43212000  1.0
  H  H4  1  0.97004000  0.39972000  0.57712000  1.0
  H  H5  1  0.02995000  0.60028000  0.42287000  1.0
  H  H6  1  0.31146000  0.25327000  0.74181000  1.0
  H  H7  1  0.68853000  0.74673000  0.25818000  1.0
  H  H8  1  0.51575000  0.40780000  0.72202000  1.0
  H  H9  1  0.48424000  0.59221000  0.27798000  1.0
  H  H10  1  0.88255000  0.23467000  0.63866000  1.0
  H  H11  1  0.11745000  0.76533000  0.36134000  1.0
  H  H12  1  0.02057000  0.15149000  0.62275000  1.0
  H  H13  1  0.97942000  0.84851000  0.37724000  1.0
  H  H14  1  0.84541000  0.35439000  0.74370000  1.0
  H  H15  1  0.15459000  0.64560000  0.25630000  1.0
  H  H16  1  0.76706000  0.46325000  0.88319000  1.0
  H  H17  1  0.23294000  0.53675000  0.11680000  1.0
  H  H18  1  0.97219000  0.29081000  0.10675000  1.0
  H  H19  1  0.02782000  0.70920000  0.89325000  1.0
  H  H20  1  0.79536000  0.52727000  0.06920000  1.0
  H  H21  1  0.20465000  0.47274000  0.93079000  1.0
  H  H22  1  0.90228000  0.46627000  0.16068000  1.0
  H  H23  1  0.09773000  0.53373000  0.83931000  1.0
  H  H24  1  0.70365000  0.41290000  0.11644000  1.0
  H  H25  1  0.29635000  0.58710000  0.88356000  1.0
  H  H26  1  0.11089000  0.14366000  0.26063000  1.0
  H  H27  1  0.88912000  0.85634000  0.73937000  1.0
  H  H28  1  0.37004000  0.96926000  0.45457000  1.0
  H  H29  1  0.62997000  0.03075000  0.54544000  1.0
  H  H30  1  0.45990000  0.88447000  0.30298000  1.0
  H  H31  1  0.54011000  0.11553000  0.69703000  1.0
  H  H32  1  0.17104000  0.19527000  0.45576000  1.0
  H  H33  1  0.82896000  0.80472000  0.54424000  1.0
  H  H34  1  0.24896000  0.10723000  0.53289000  1.0
  H  H35  1  0.75104000  0.89277000  0.46711000  1.0
  H  H36  1  0.05398000  0.07388000  0.46797000  1.0
  H  H37  1  0.94602000  0.92612000  0.53203000  1.0
  H  H38  1  0.41651000  0.77938000  0.15368000  1.0
  H  H39  1  0.58349000  0.22062000  0.84633000  1.0
  H  H40  1  0.58974000  0.87506000  0.15066000  1.0
  H  H41  1  0.41026000  0.12493000  0.84934000  1.0
  H  H42  1  0.34012000  0.89405000  0.92616000  1.0
  H  H43  1  0.65988000  0.10595000  0.07384000  1.0
  H  H44  1  0.37369000  0.81318000  0.74891000  1.0
  H  H45  1  0.62631000  0.18682000  0.25109000  1.0
  H  H46  1  0.65596000  0.62003000  0.87192000  1.0
  H  H47  1  0.34404000  0.37997000  0.12808000  1.0
  H  H48  1  0.62776000  0.68718000  0.05281000  1.0
  H  H49  1  0.37224000  0.31282000  0.94719000  1.0
  C  C50  1  0.20896000  0.48210000  0.60524000  1.0
  C  C51  1  0.79103000  0.51790000  0.39476000  1.0
  C  C52  1  0.08937000  0.39850000  0.61069000  1.0
  C  C53  1  0.91062000  0.60150000  0.38931000  1.0
  C  C54  1  0.12417000  0.31433000  0.66043000  1.0
  C  C55  1  0.87583000  0.68568000  0.33957000  1.0
  C  C56  1  0.27967000  0.31768000  0.70249000  1.0
  C  C57  1  0.72032000  0.68232000  0.29751000  1.0
  C  C58  1  0.39265000  0.40336000  0.69264000  1.0
  C  C59  1  0.60734000  0.59664000  0.30735000  1.0
  C  C60  1  0.99942000  0.22156000  0.66835000  1.0
  C  C61  1  0.00058000  0.77844000  0.33165000  1.0
  C  C62  1  0.95532000  0.25823000  0.84439000  1.0
  C  C63  1  0.04468000  0.74176000  0.15561000  1.0
  C  C64  1  0.87279000  0.33796000  0.82269000  1.0
  C  C65  1  0.12721000  0.66203000  0.17730000  1.0
  C  C66  1  0.82728000  0.39979000  0.90276000  1.0
  C  C67  1  0.17272000  0.60021000  0.09724000  1.0
  C  C68  1  0.86183000  0.38470000  0.00623000  1.0
  C  C69  1  0.13818000  0.61530000  0.99376000  1.0
  C  C70  1  0.94300000  0.30437000  0.02697000  1.0
  C  C71  1  0.05701000  0.69564000  0.97303000  1.0
  C  C72  1  0.99076000  0.24045000  0.94845000  1.0
  C  C73  1  0.00924000  0.75955000  0.05154000  1.0
  C  C74  1  0.81322000  0.45139000  0.09250000  1.0
  C  C75  1  0.18679000  0.54861000  0.90749000  1.0
  C  C76  1  0.07621000  0.15934000  0.97616000  1.0
  C  C77  1  0.92380000  0.84066000  0.02384000  1.0
  C  C78  1  0.18616000  0.06831000  0.08147000  1.0
  C  C79  1  0.81385000  0.93169000  0.91854000  1.0
  C  C80  1  0.23592000  0.03902000  0.18169000  1.0
  C  C81  1  0.76409000  0.96098000  0.81832000  1.0
  C  C82  1  0.18670000  0.08626000  0.27011000  1.0
  C  C83  1  0.81331000  0.91374000  0.72989000  1.0
  C  C84  1  0.23224000  0.06225000  0.36880000  1.0
  C  C85  1  0.76776000  0.93776000  0.63120000  1.0
  C  C86  1  0.33174000  0.98943000  0.37834000  1.0
  C  C87  1  0.66827000  0.01058000  0.62166000  1.0
  C  C88  1  0.38310000  0.94101000  0.29228000  1.0
  C  C89  1  0.61691000  0.05900000  0.70772000  1.0
  C  C90  1  0.33508000  0.96460000  0.19348000  1.0
  C  C91  1  0.66492000  0.03540000  0.80652000  1.0
  C  C92  1  0.17402000  0.11237000  0.46141000  1.0
  C  C93  1  0.82598000  0.88763000  0.53859000  1.0
  C  C94  1  0.47072000  0.84168000  0.11112000  1.0
  C  C95  1  0.52928000  0.15831000  0.88889000  1.0
  C  C96  1  0.48174000  0.79665000  0.00312000  1.0
  C  C97  1  0.51825000  0.20335000  0.99689000  1.0
  C  C98  1  0.40887000  0.83219000  0.91661000  1.0
  C  C99  1  0.59113000  0.16781000  0.08339000  1.0
  C  C100  1  0.42779000  0.78796000  0.81890000  1.0
  C  C101  1  0.57221000  0.21204000  0.18111000  1.0
  C  C102  1  0.58412000  0.67905000  0.88746000  1.0
  C  C103  1  0.41588000  0.32095000  0.11254000  1.0
  C  C104  1  0.56915000  0.71745000  0.98769000  1.0
  C  C105  1  0.43085000  0.28255000  0.01231000  1.0
  I  I106  1  0.38211000  0.73776000  0.49980000  1.0
  I  I107  1  0.61788000  0.26225000  0.50022000  1.0
  I  I108  1  0.83763000  0.59215000  0.68196000  1.0
  I  I109  1  0.16236000  0.40784000  0.31804000  1.0
  N  N110  1  0.13847000  0.09222000  0.91995000  1.0
  N  N111  1  0.86153000  0.90778000  0.08005000  1.0
  N  N112  1  0.20878000  0.03352000  0.98764000  1.0
  N  N113  1  0.79123000  0.96648000  0.01236000  1.0
  N  N114  1  0.51467000  0.71350000  0.80445000  1.0
  N  N115  1  0.48533000  0.28650000  0.19555000  1.0
  N  N116  1  0.35755000  0.48453000  0.64514000  1.0
  N  N117  1  0.64244000  0.51547000  0.35486000  1.0
  O  O118  1  0.10179000  0.14794000  0.07928000  1.0
  O  O119  1  0.89821000  0.85206000  0.92072000  1.0
  O  O120  1  0.37738000  0.92053000  0.10541000  1.0
  O  O121  1  0.62262000  0.07946000  0.89459000  1.0
  O  O122  1  0.00501000  0.19433000  0.77148000  1.0
  O  O123  1  0.99499000  0.80567000  0.22852000  1.0
