# generated using pymatgen
data_AgH8C9S2N3O2
_symmetry_space_group_name_H-M   'P 1'
_cell_length_a   5.40363000
_cell_length_b   13.15150000
_cell_length_c   15.83450000
_cell_angle_alpha   69.64200000
_cell_angle_beta   89.99990000
_cell_angle_gamma   89.99890000
_symmetry_Int_Tables_number   1
_chemical_formula_structural   AgH8C9S2N3O2
_chemical_formula_sum   'Ag4 H32 C36 S8 N12 O8'
_cell_volume   1055.00321171
_cell_formula_units_Z   4
loop_
 _symmetry_equiv_pos_site_id
 _symmetry_equiv_pos_as_xyz
  1  'x, y, z'
loop_
 _atom_site_type_symbol
 _atom_site_label
 _atom_site_symmetry_multiplicity
 _atom_site_fract_x
 _atom_site_fract_y
 _atom_site_fract_z
 _atom_site_occupancy
  Ag  Ag0  1  0.56400000  0.89157000  0.04836000  1.0
  Ag  Ag1  1  0.06400000  0.10842000  0.45165000  1.0
  Ag  Ag2  1  0.43601000  0.10842000  0.95164000  1.0
  Ag  Ag3  1  0.93600000  0.89158000  0.54836000  1.0
  H  H4  1  0.02411000  0.18599000  0.80072000  1.0
  H  H5  1  0.52409000  0.81401000  0.69928000  1.0
  H  H6  1  0.97590000  0.81401000  0.19928000  1.0
  H  H7  1  0.47590000  0.18599000  0.30072000  1.0
  H  H8  1  0.65067000  0.07449000  0.76229000  1.0
  H  H9  1  0.15066000  0.92552000  0.73771000  1.0
  H  H10  1  0.34932000  0.92551000  0.23772000  1.0
  H  H11  1  0.84933000  0.07449000  0.26229000  1.0
  H  H12  1  0.37169000  0.74838000  0.85855000  1.0
  H  H13  1  0.87169000  0.25162000  0.64146000  1.0
  H  H14  1  0.62831000  0.25162000  0.14146000  1.0
  H  H15  1  0.12829000  0.74838000  0.35854000  1.0
  H  H16  1  0.22910000  0.68157000  0.73749000  1.0
  H  H17  1  0.72909000  0.31844000  0.76251000  1.0
  H  H18  1  0.77089000  0.31843000  0.26251000  1.0
  H  H19  1  0.27090000  0.68155000  0.23749000  1.0
  H  H20  1  0.59136000  0.53562000  0.89771000  1.0
  H  H21  1  0.09134000  0.46440000  0.60228000  1.0
  H  H22  1  0.40865000  0.46439000  0.10229000  1.0
  H  H23  1  0.90867000  0.53561000  0.39772000  1.0
  H  H24  1  0.72516000  0.60786000  0.01553000  1.0
  H  H25  1  0.22515000  0.39214000  0.48447000  1.0
  H  H26  1  0.27486000  0.39213000  0.98448000  1.0
  H  H27  1  0.77484000  0.60787000  0.51552000  1.0
  H  H28  1  0.88408000  0.60828000  0.67947000  1.0
  H  H29  1  0.38407000  0.39174000  0.82052000  1.0
  H  H30  1  0.11592000  0.39172000  0.32053000  1.0
  H  H31  1  0.61593000  0.60825000  0.17948000  1.0
  H  H32  1  0.64809000  0.53803000  0.74650000  1.0
  H  H33  1  0.14807000  0.46200000  0.75349000  1.0
  H  H34  1  0.35190000  0.46197000  0.25351000  1.0
  H  H35  1  0.85193000  0.53800000  0.24651000  1.0
  C  C36  1  0.10354000  0.93087000  0.92057000  1.0
  C  C37  1  0.60354000  0.06913000  0.57944000  1.0
  C  C38  1  0.89645000  0.06913000  0.07943000  1.0
  C  C39  1  0.39645000  0.93087000  0.42056000  1.0
  C  C40  1  0.99547000  0.09892000  0.82792000  1.0
  C  C41  1  0.49547000  0.90108000  0.67208000  1.0
  C  C42  1  0.00453000  0.90108000  0.17208000  1.0
  C  C43  1  0.50454000  0.09892000  0.32792000  1.0
  C  C44  1  0.80436000  0.04365000  0.80819000  1.0
  C  C45  1  0.30434000  0.95636000  0.69181000  1.0
  C  C46  1  0.19563000  0.95634000  0.19181000  1.0
  C  C47  1  0.69564000  0.04366000  0.30819000  1.0
  C  C48  1  0.05812000  0.68086000  0.94485000  1.0
  C  C49  1  0.55809000  0.31915000  0.55515000  1.0
  C  C50  1  0.94190000  0.31914000  0.05515000  1.0
  C  C51  1  0.44188000  0.68086000  0.44485000  1.0
  C  C52  1  0.20073000  0.70201000  0.86654000  1.0
  C  C53  1  0.70072000  0.29799000  0.63347000  1.0
  C  C54  1  0.79928000  0.29799000  0.13347000  1.0
  C  C55  1  0.29927000  0.70200000  0.36653000  1.0
  C  C56  1  0.12167000  0.66497000  0.79911000  1.0
  C  C57  1  0.62166000  0.33504000  0.70089000  1.0
  C  C58  1  0.87833000  0.33502000  0.20089000  1.0
  C  C59  1  0.37835000  0.66496000  0.29910000  1.0
  C  C60  1  0.89979000  0.60448000  0.80905000  1.0
  C  C61  1  0.39980000  0.39553000  0.69095000  1.0
  C  C62  1  0.10020000  0.39551000  0.19095000  1.0
  C  C63  1  0.60019000  0.60447000  0.30906000  1.0
  C  C64  1  0.76135000  0.58253000  0.88912000  1.0
  C  C65  1  0.26135000  0.41748000  0.61087000  1.0
  C  C66  1  0.23865000  0.41746000  0.11088000  1.0
  C  C67  1  0.73866000  0.58253000  0.38912000  1.0
  C  C68  1  0.83799000  0.62115000  0.95574000  1.0
  C  C69  1  0.33799000  0.37885000  0.54426000  1.0
  C  C70  1  0.16201000  0.37883000  0.04427000  1.0
  C  C71  1  0.66201000  0.62117000  0.45574000  1.0
  S  S72  1  0.83227000  0.90664000  0.86904000  1.0
  S  S73  1  0.33227000  0.09337000  0.63097000  1.0
  S  S74  1  0.16772000  0.09336000  0.13096000  1.0
  S  S75  1  0.66773000  0.90665000  0.36903000  1.0
  S  S76  1  0.14977000  0.72957000  0.02995000  1.0
  S  S77  1  0.64978000  0.27042000  0.47006000  1.0
  S  S78  1  0.85019000  0.27043000  0.97005000  1.0
  S  S79  1  0.35022000  0.72957000  0.52994000  1.0
  N  N80  1  0.24481000  0.85422000  0.98043000  1.0
  N  N81  1  0.74482000  0.14577000  0.51958000  1.0
  N  N82  1  0.75519000  0.14578000  0.01957000  1.0
  N  N83  1  0.25519000  0.85423000  0.48042000  1.0
  N  N84  1  0.16058000  0.03669000  0.89156000  1.0
  N  N85  1  0.66057000  0.96331000  0.60844000  1.0
  N  N86  1  0.83940000  0.96331000  0.10844000  1.0
  N  N87  1  0.33942000  0.03670000  0.39156000  1.0
  N  N88  1  0.82626000  0.56535000  0.74319000  1.0
  N  N89  1  0.32625000  0.43467000  0.75680000  1.0
  N  N90  1  0.17373000  0.43464000  0.25680000  1.0
  N  N91  1  0.67375000  0.56533000  0.24320000  1.0
  O  O92  1  0.93401000  0.72458000  0.08658000  1.0
  O  O93  1  0.43403000  0.27542000  0.41343000  1.0
  O  O94  1  0.06602000  0.27541000  0.91342000  1.0
  O  O95  1  0.56599000  0.72458000  0.58657000  1.0
  O  O96  1  0.37023000  0.67305000  0.07583000  1.0
  O  O97  1  0.87024000  0.32694000  0.42418000  1.0
  O  O98  1  0.62980000  0.32695000  0.92417000  1.0
  O  O99  1  0.12977000  0.67306000  0.57582000  1.0
