# generated using pymatgen
data_Zn4H9C24S4N2O13F
_symmetry_space_group_name_H-M   'P 1'
_cell_length_a   19.67400000
_cell_length_b   19.68130000
_cell_length_c   33.37290000
_cell_angle_alpha   79.16260000
_cell_angle_beta   79.18960000
_cell_angle_gamma   63.87230000
_symmetry_Int_Tables_number   1
_chemical_formula_structural   Zn4H9C24S4N2O13F
_chemical_formula_sum   'Zn16 H36 C96 S16 N8 O52 F4'
_cell_volume   11314.22641554
_cell_formula_units_Z   4
loop_
 _symmetry_equiv_pos_site_id
 _symmetry_equiv_pos_as_xyz
  1  'x, y, z'
loop_
 _atom_site_type_symbol
 _atom_site_label
 _atom_site_symmetry_multiplicity
 _atom_site_fract_x
 _atom_site_fract_y
 _atom_site_fract_z
 _atom_site_occupancy
  Zn  Zn0  1  0.59937000  0.94443000  0.52182000  1.0
  Zn  Zn1  1  0.51611000  0.01578000  0.43976000  1.0
  Zn  Zn2  1  0.43928000  0.94112000  0.51748000  1.0
  Zn  Zn3  1  0.44416000  0.09906000  0.52051000  1.0
  Zn  Zn4  1  0.65049000  0.30576000  0.72865000  1.0
  Zn  Zn5  1  0.80999000  0.31135000  0.73353000  1.0
  Zn  Zn6  1  0.73365000  0.23143000  0.80948000  1.0
  Zn  Zn7  1  0.80589000  0.15170000  0.72787000  1.0
  Zn  Zn8  1  0.23277000  0.73275000  0.31034000  1.0
  Zn  Zn9  1  0.30407000  0.65184000  0.22776000  1.0
  Zn  Zn10  1  0.15116000  0.80739000  0.22833000  1.0
  Zn  Zn11  1  0.31103000  0.80882000  0.23289000  1.0
  Zn  Zn12  1  0.94039000  0.43930000  0.01695000  1.0
  Zn  Zn13  1  0.94413000  0.59890000  0.02146000  1.0
  Zn  Zn14  1  0.09892000  0.44476000  0.02172000  1.0
  Zn  Zn15  1  0.01739000  0.51617000  0.93957000  1.0
  H  H16  1  0.75169000  0.04513000  0.64826000  1.0
  H  H17  1  0.54558000  0.25286000  0.64977000  1.0
  H  H18  1  0.70082000  0.00012000  0.60007000  1.0
  H  H19  1  0.40274000  0.90282000  0.29979000  1.0
  H  H20  1  0.29860000  0.79836000  0.40224000  1.0
  H  H21  1  0.44970000  0.94934000  0.34924000  1.0
  H  H22  1  0.75910000  0.53710000  0.65922000  1.0
  H  H23  1  0.29902000  0.51995000  0.39794000  1.0
  H  H24  1  0.02000000  0.79604000  0.39842000  1.0
  H  H25  1  0.03063000  0.05196000  0.65254000  1.0
  H  H26  1  0.94990000  0.44988000  0.84697000  1.0
  H  H27  1  0.84714000  0.34803000  0.95147000  1.0
  H  H28  1  0.90075000  0.40016000  0.80026000  1.0
  H  H29  1  0.23003000  0.45161000  0.85185000  1.0
  H  H30  1  0.85749000  0.83701000  0.95895000  1.0
  H  H31  1  0.20423000  0.49895000  0.10138000  1.0
  H  H32  1  0.99614000  0.70473000  0.10033000  1.0
  H  H33  1  0.24929000  0.54958000  0.14968000  1.0
  H  H34  1  0.72024000  0.69796000  0.09829000  1.0
  H  H35  1  0.99051000  0.21355000  0.09186000  1.0
  H  H36  1  0.44270000  0.68670000  0.60395000  1.0
  H  H37  1  0.44709000  0.76677000  0.57269000  1.0
  H  H38  1  0.47863000  0.23210000  0.31443000  1.0
  H  H39  1  0.48192000  0.16368000  0.35638000  1.0
  H  H40  1  0.73156000  0.95415000  0.31429000  1.0
  H  H41  1  0.66373000  0.97945000  0.35692000  1.0
  H  H42  1  0.19759000  0.25758000  0.61473000  1.0
  H  H43  1  0.27466000  0.20583000  0.58095000  1.0
  H  H44  1  0.51826000  0.27354000  0.93554000  1.0
  H  H45  1  0.58711000  0.26733000  0.89326000  1.0
  H  H46  1  0.91513000  0.85469000  0.77253000  1.0
  H  H47  1  0.88450000  0.95286000  0.75986000  1.0
  H  H48  1  0.56360000  0.48318000  0.14555000  1.0
  H  H49  1  0.47655000  0.54370000  0.16954000  1.0
  H  H50  1  0.29924000  0.07376000  0.15601000  1.0
  H  H51  1  0.30312000  0.98452000  0.17769000  1.0
  C  C52  1  0.68374000  0.94126000  0.43734000  1.0
  C  C53  1  0.43021000  0.93038000  0.43092000  1.0
  C  C54  1  0.56083000  0.81458000  0.56069000  1.0
  C  C55  1  0.31435000  0.06437000  0.56109000  1.0
  C  C56  1  0.56810000  0.07000000  0.56912000  1.0
  C  C57  1  0.43692000  0.18369000  0.43663000  1.0
  C  C58  1  0.68750000  0.43518000  0.68924000  1.0
  C  C59  1  0.81957000  0.31799000  0.81962000  1.0
  C  C60  1  0.56611000  0.31183000  0.81254000  1.0
  C  C61  1  0.81366000  0.06345000  0.81032000  1.0
  C  C62  1  0.68121000  0.17984000  0.68082000  1.0
  C  C63  1  0.93466000  0.18916000  0.68886000  1.0
  C  C64  1  0.31292000  0.56575000  0.31112000  1.0
  C  C65  1  0.17924000  0.68179000  0.18091000  1.0
  C  C66  1  0.06579000  0.81076000  0.31160000  1.0
  C  C67  1  0.19182000  0.93455000  0.18778000  1.0
  C  C68  1  0.31920000  0.81935000  0.31900000  1.0
  C  C69  1  0.43440000  0.68665000  0.18753000  1.0
  C  C70  1  0.81636000  0.56075000  0.06188000  1.0
  C  C71  1  0.06932000  0.56952000  0.06908000  1.0
  C  C72  1  0.06128000  0.31626000  0.06205000  1.0
  C  C73  1  0.18459000  0.43723000  0.93863000  1.0
  C  C74  1  0.93091000  0.43068000  0.93054000  1.0
  C  C75  1  0.93758000  0.68391000  0.93842000  1.0
  C  C76  1  0.59550000  0.09993000  0.59788000  1.0
  C  C77  1  0.65194000  0.15159000  0.65213000  1.0
  C  C78  1  0.55302000  0.17126000  0.61255000  1.0
  C  C79  1  0.69579000  0.08016000  0.63807000  1.0
  C  C80  1  0.58016000  0.19724000  0.63920000  1.0
  C  C81  1  0.66759000  0.05529000  0.61140000  1.0
  C  C82  1  0.40096000  0.90073000  0.40299000  1.0
  C  C83  1  0.34771000  0.84791000  0.34787000  1.0
  C  C84  1  0.35805000  0.85775000  0.41704000  1.0
  C  C85  1  0.39045000  0.89054000  0.33283000  1.0
  C  C86  1  0.33157000  0.83150000  0.39021000  1.0
  C  C87  1  0.41640000  0.91619000  0.36020000  1.0
  C  C88  1  0.54427000  0.69605000  0.59781000  1.0
  C  C89  1  0.70214000  0.55443000  0.65131000  1.0
  C  C90  1  0.58583000  0.74067000  0.58490000  1.0
  C  C91  1  0.66201000  0.50990000  0.66421000  1.0
  C  C92  1  0.65963000  0.62234000  0.62730000  1.0
  C  C93  1  0.58775000  0.62815000  0.62232000  1.0
  C  C94  1  0.42319000  0.27235000  0.36924000  1.0
  C  C95  1  0.32799000  0.47516000  0.37797000  1.0
  C  C96  1  0.41200000  0.25751000  0.41226000  1.0
  C  C97  1  0.33834000  0.49060000  0.33564000  1.0
  C  C98  1  0.35913000  0.39591000  0.39047000  1.0
  C  C99  1  0.39250000  0.35246000  0.35725000  1.0
  C  C100  1  0.77247000  0.92714000  0.36997000  1.0
  C  C101  1  0.97519000  0.82560000  0.37847000  1.0
  C  C102  1  0.75766000  0.91703000  0.41304000  1.0
  C  C103  1  0.99060000  0.83573000  0.33611000  1.0
  C  C104  1  0.89598000  0.85849000  0.39102000  1.0
  C  C105  1  0.85251000  0.89308000  0.35783000  1.0
  C  C106  1  0.19938000  0.15887000  0.60168000  1.0
  C  C107  1  0.05102000  0.09632000  0.64795000  1.0
  C  C108  1  0.24057000  0.08902000  0.58533000  1.0
  C  C109  1  0.00962000  0.16485000  0.66414000  1.0
  C  C110  1  0.12032000  0.09346000  0.62546000  1.0
  C  C111  1  0.13026000  0.16022000  0.62486000  1.0
  C  C112  1  0.84702000  0.34646000  0.84904000  1.0
  C  C113  1  0.90184000  0.40195000  0.90205000  1.0
  C  C114  1  0.83263000  0.33287000  0.89202000  1.0
  C  C115  1  0.91692000  0.41684000  0.85932000  1.0
  C  C116  1  0.85935000  0.35982000  0.91838000  1.0
  C  C117  1  0.88971000  0.38930000  0.83351000  1.0
  C  C118  1  0.47805000  0.32626000  0.88015000  1.0
  C  C119  1  0.27494000  0.42257000  0.87176000  1.0
  C  C120  1  0.49255000  0.33737000  0.83704000  1.0
  C  C121  1  0.25969000  0.41208000  0.91411000  1.0
  C  C122  1  0.35416000  0.39131000  0.85917000  1.0
  C  C123  1  0.39786000  0.35762000  0.89230000  1.0
  C  C124  1  0.87828000  0.91811000  0.82094000  1.0
  C  C125  1  0.87432000  0.82950000  0.92657000  1.0
  C  C126  1  0.83894000  0.99011000  0.83509000  1.0
  C  C127  1  0.91307000  0.75826000  0.91310000  1.0
  C  C128  1  0.86112000  0.88791000  0.89324000  1.0
  C  C129  1  0.89035000  0.85988000  0.85492000  1.0
  C  C130  1  0.14921000  0.65462000  0.15215000  1.0
  C  C131  1  0.09754000  0.59854000  0.09785000  1.0
  C  C132  1  0.07776000  0.69720000  0.13759000  1.0
  C  C133  1  0.16911000  0.55462000  0.11177000  1.0
  C  C134  1  0.05178000  0.67015000  0.11090000  1.0
  C  C135  1  0.19398000  0.58272000  0.13848000  1.0
  C  C136  1  0.54941000  0.59266000  0.14661000  1.0
  C  C137  1  0.69988000  0.65358000  0.10283000  1.0
  C  C138  1  0.50768000  0.66267000  0.16273000  1.0
  C  C139  1  0.74156000  0.58496000  0.08677000  1.0
  C  C140  1  0.63013000  0.65665000  0.12481000  1.0
  C  C141  1  0.61997000  0.59016000  0.12495000  1.0
  C  C142  1  0.20817000  0.05295000  0.15033000  1.0
  C  C143  1  0.04755000  0.19642000  0.09960000  1.0
  C  C144  1  0.16732000  0.00768000  0.16284000  1.0
  C  C145  1  0.08706000  0.24156000  0.08698000  1.0
  C  C146  1  0.09106000  0.12790000  0.12280000  1.0
  C  C147  1  0.16315000  0.12217000  0.12734000  1.0
  S  S148  1  0.67580000  0.69972000  0.60209000  1.0
  S  S149  1  0.57253000  0.55010000  0.64716000  1.0
  S  S150  1  0.36467000  0.33968000  0.43710000  1.0
  S  S151  1  0.38562000  0.40908000  0.31073000  1.0
  S  S152  1  0.83987000  0.86732000  0.43778000  1.0
  S  S153  1  0.90909000  0.88542000  0.31126000  1.0
  S  S154  1  0.19529000  0.02741000  0.59782000  1.0
  S  S155  1  0.05442000  0.22634000  0.65202000  1.0
  S  S156  1  0.41004000  0.38557000  0.81242000  1.0
  S  S157  1  0.34141000  0.36447000  0.93891000  1.0
  S  S158  1  0.81828000  0.98607000  0.88857000  1.0
  S  S159  1  0.93406000  0.76176000  0.85993000  1.0
  S  S160  1  0.55370000  0.72365000  0.15120000  1.0
  S  S161  1  0.69625000  0.52392000  0.09808000  1.0
  S  S162  1  0.07671000  0.04880000  0.14649000  1.0
  S  S163  1  0.17738000  0.20101000  0.10303000  1.0
  N  N164  1  0.47426000  0.71365000  0.58743000  1.0
  N  N165  1  0.45602000  0.21816000  0.34284000  1.0
  N  N166  1  0.71837000  0.96621000  0.34370000  1.0
  N  N167  1  0.22101000  0.21730000  0.59526000  1.0
  N  N168  1  0.53232000  0.29290000  0.90635000  1.0
  N  N169  1  0.90331000  0.90592000  0.78088000  1.0
  N  N170  1  0.52491000  0.53674000  0.15001000  1.0
  N  N171  1  0.28077000  0.03262000  0.15785000  1.0
  O  O172  1  0.50060000  0.99986000  0.49962000  1.0
  O  O173  1  0.68247000  0.92508000  0.47642000  1.0
  O  O174  1  0.47189000  0.96498000  0.41351000  1.0
  O  O175  1  0.49363000  0.84258000  0.54897000  1.0
  O  O176  1  0.62458000  0.97723000  0.41757000  1.0
  O  O177  1  0.60681000  0.84695000  0.55281000  1.0
  O  O178  1  0.41136000  0.91926000  0.46929000  1.0
  O  O179  1  0.34386000  0.99672000  0.55066000  1.0
  O  O180  1  0.50239000  0.11198000  0.55788000  1.0
  O  O181  1  0.34515000  0.11222000  0.55191000  1.0
  O  O182  1  0.61337000  0.00438000  0.55832000  1.0
  O  O183  1  0.47142000  0.12425000  0.41709000  1.0
  O  O184  1  0.42311000  0.18289000  0.47576000  1.0
  O  O185  1  0.75046000  0.25028000  0.74933000  1.0
  O  O186  1  0.64057000  0.40412000  0.69731000  1.0
  O  O187  1  0.83502000  0.33727000  0.78144000  1.0
  O  O188  1  0.62563000  0.27577000  0.83194000  1.0
  O  O189  1  0.75401000  0.40797000  0.70056000  1.0
  O  O190  1  0.56678000  0.32653000  0.77335000  1.0
  O  O191  1  0.78360000  0.27714000  0.83472000  1.0
  O  O192  1  0.77570000  0.12256000  0.82929000  1.0
  O  O193  1  0.74687000  0.13554000  0.69185000  1.0
  O  O194  1  0.83087000  0.06393000  0.77092000  1.0
  O  O195  1  0.63809000  0.24573000  0.69171000  1.0
  O  O196  1  0.90701000  0.25534000  0.70076000  1.0
  O  O197  1  0.90384000  0.14221000  0.69611000  1.0
  O  O198  1  0.25004000  0.74967000  0.25017000  1.0
  O  O199  1  0.27660000  0.62366000  0.33086000  1.0
  O  O200  1  0.24459000  0.63583000  0.19204000  1.0
  O  O201  1  0.06607000  0.82807000  0.27264000  1.0
  O  O202  1  0.32934000  0.56614000  0.27210000  1.0
  O  O203  1  0.12391000  0.77437000  0.33128000  1.0
  O  O204  1  0.13802000  0.74767000  0.19189000  1.0
  O  O205  1  0.14458000  0.90369000  0.19678000  1.0
  O  O206  1  0.33540000  0.83605000  0.28068000  1.0
  O  O207  1  0.25922000  0.90600000  0.19927000  1.0
  O  O208  1  0.28114000  0.78070000  0.33527000  1.0
  O  O209  1  0.40211000  0.64003000  0.19514000  1.0
  O  O210  1  0.40705000  0.75230000  0.20024000  1.0
  O  O211  1  0.00011000  0.50001000  0.99989000  1.0
  O  O212  1  0.84421000  0.49415000  0.05046000  1.0
  O  O213  1  0.00358000  0.61297000  0.05794000  1.0
  O  O214  1  0.10807000  0.34749000  0.05400000  1.0
  O  O215  1  0.84668000  0.60812000  0.05380000  1.0
  O  O216  1  0.99492000  0.34322000  0.05058000  1.0
  O  O217  1  0.11340000  0.50383000  0.05818000  1.0
  O  O218  1  0.18437000  0.42105000  0.97767000  1.0
  O  O219  1  0.96940000  0.46875000  0.91399000  1.0
  O  O220  1  0.12641000  0.47302000  0.91899000  1.0
  O  O221  1  0.91476000  0.41457000  0.96897000  1.0
  O  O222  1  0.92085000  0.68441000  0.97730000  1.0
  O  O223  1  0.97376000  0.62523000  0.91909000  1.0
  F  F224  1  0.48302000  0.21842000  0.60123000  1.0
  F  F225  1  0.34080000  0.83957000  0.45769000  1.0
  F  F226  1  0.79148000  0.29277000  0.90981000  1.0
  F  F227  1  0.03065000  0.76692000  0.14908000  1.0
