# generated using pymatgen
data_Cu3H18(C3N)7
_symmetry_space_group_name_H-M   'P 1'
_cell_length_a   29.03980000
_cell_length_b   29.78690000
_cell_length_c   30.47870000
_cell_angle_alpha   87.82360000
_cell_angle_beta   87.35750000
_cell_angle_gamma   89.55590000
_symmetry_Int_Tables_number   1
_chemical_formula_structural   Cu3H18(C3N)7
_chemical_formula_sum   'Cu12 H72 C84 N28'
_cell_volume   26316.73900999
_cell_formula_units_Z   4
loop_
 _symmetry_equiv_pos_site_id
 _symmetry_equiv_pos_as_xyz
  1  'x, y, z'
loop_
 _atom_site_type_symbol
 _atom_site_label
 _atom_site_symmetry_multiplicity
 _atom_site_fract_x
 _atom_site_fract_y
 _atom_site_fract_z
 _atom_site_occupancy
  Cu  Cu0  1  0.12225000  0.91508000  0.14582000  1.0
  Cu  Cu1  1  0.15907000  0.87484000  0.05583000  1.0
  Cu  Cu2  1  0.06985000  0.83377000  0.10617000  1.0
  Cu  Cu3  1  0.87877000  0.57439000  0.66330000  1.0
  Cu  Cu4  1  0.83505000  0.62289000  0.58056000  1.0
  Cu  Cu5  1  0.92096000  0.66617000  0.62454000  1.0
  Cu  Cu6  1  0.62693000  0.08722000  0.34073000  1.0
  Cu  Cu7  1  0.67424000  0.13437000  0.41836000  1.0
  Cu  Cu8  1  0.58161000  0.17493000  0.38067000  1.0
  Cu  Cu9  1  0.37608000  0.41723000  0.84539000  1.0
  Cu  Cu10  1  0.33162000  0.37595000  0.93472000  1.0
  Cu  Cu11  1  0.42142000  0.33111000  0.89025000  1.0
  H  H12  1  0.19586000  0.99152000  0.15659000  1.0
  H  H13  1  0.24147000  0.94169000  0.03000000  1.0
  H  H14  1  0.98646000  0.82141000  0.17725000  1.0
  H  H15  1  0.05896000  0.93206000  0.23064000  1.0
  H  H16  1  0.17112000  0.80809000  0.97693000  1.0
  H  H17  1  0.04781000  0.75442000  0.04450000  1.0
  H  H18  1  0.81458000  0.48867000  0.67602000  1.0
  H  H19  1  0.75532000  0.55476000  0.56252000  1.0
  H  H20  1  0.00033000  0.68055000  0.69163000  1.0
  H  H21  1  0.94253000  0.55448000  0.74299000  1.0
  H  H22  1  0.81737000  0.69584000  0.50489000  1.0
  H  H23  1  0.93643000  0.75297000  0.56217000  1.0
  H  H24  1  0.69645000  0.00699000  0.32374000  1.0
  H  H25  1  0.76209000  0.07073000  0.42979000  1.0
  H  H26  1  0.49589000  0.18829000  0.32013000  1.0
  H  H27  1  0.55598000  0.06648000  0.26846000  1.0
  H  H28  1  0.69125000  0.20205000  0.49312000  1.0
  H  H29  1  0.56452000  0.25709000  0.44327000  1.0
  H  H30  1  0.30684000  0.49831000  0.82707000  1.0
  H  H31  1  0.24686000  0.44209000  0.94972000  1.0
  H  H32  1  0.50484000  0.31320000  0.82075000  1.0
  H  H33  1  0.44387000  0.43335000  0.76275000  1.0
  H  H34  1  0.31676000  0.31131000  0.01981000  1.0
  H  H35  1  0.43989000  0.25255000  0.95943000  1.0
  H  H36  1  0.33586000  0.07901000  0.08019000  1.0
  H  H37  1  0.27357000  0.03155000  0.15376000  1.0
  H  H38  1  0.33566000  0.08033000  0.18184000  1.0
  H  H39  1  0.28649000  0.01983000  0.05394000  1.0
  H  H40  1  0.66267000  0.41704000  0.55487000  1.0
  H  H41  1  0.71083000  0.48357000  0.55647000  1.0
  H  H42  1  0.65893000  0.42050000  0.65602000  1.0
  H  H43  1  0.73780000  0.44576000  0.64706000  1.0
  H  H44  1  0.83725000  0.91634000  0.30832000  1.0
  H  H45  1  0.76969000  0.96486000  0.31353000  1.0
  H  H46  1  0.83173000  0.91369000  0.40973000  1.0
  H  H47  1  0.80630000  0.99213000  0.40169000  1.0
  H  H48  1  0.14567000  0.57552000  0.94979000  1.0
  H  H49  1  0.19868000  0.51171000  0.95155000  1.0
  H  H50  1  0.14832000  0.56498000  0.84922000  1.0
  H  H51  1  0.22667000  0.54138000  0.85635000  1.0
  H  H52  1  0.91875000  0.94637000  0.32878000  1.0
  H  H53  1  0.98694000  0.94296000  0.27775000  1.0
  H  H54  1  0.93188000  0.84360000  0.33631000  1.0
  H  H55  1  0.94829000  0.85061000  0.25742000  1.0
  H  H56  1  0.58446000  0.44240000  0.66696000  1.0
  H  H57  1  0.51820000  0.44082000  0.71931000  1.0
  H  H58  1  0.56817000  0.34046000  0.66192000  1.0
  H  H59  1  0.54721000  0.34305000  0.73989000  1.0
  H  H60  1  0.07030000  0.54664000  0.84187000  1.0
  H  H61  1  0.00934000  0.54962000  0.78992000  1.0
  H  H62  1  0.06161000  0.65012000  0.84189000  1.0
  H  H63  1  0.04126000  0.64620000  0.76676000  1.0
  H  H64  1  0.41569000  0.05577000  0.18539000  1.0
  H  H65  1  0.48147000  0.05834000  0.23210000  1.0
  H  H66  1  0.42813000  0.15846000  0.17271000  1.0
  H  H67  1  0.45126000  0.15568000  0.24847000  1.0
  H  H68  1  0.03709000  0.65803000  0.91697000  1.0
  H  H69  1  0.03904000  0.71039000  0.97688000  1.0
  H  H70  1  0.14261000  0.65205000  0.92554000  1.0
  H  H71  1  0.13783000  0.73055000  0.94122000  1.0
  H  H72  1  0.69487000  0.33890000  0.57909000  1.0
  H  H73  1  0.69510000  0.27200000  0.53477000  1.0
  H  H74  1  0.59053000  0.32134000  0.59157000  1.0
  H  H75  1  0.59612000  0.30119000  0.51512000  1.0
  H  H76  1  0.44899000  0.16105000  0.09673000  1.0
  H  H77  1  0.44699000  0.21006000  0.03075000  1.0
  H  H78  1  0.34294000  0.15855000  0.09193000  1.0
  H  H79  1  0.34899000  0.23484000  0.06464000  1.0
  H  H80  1  0.80746000  0.84085000  0.42104000  1.0
  H  H81  1  0.80758000  0.77326000  0.46948000  1.0
  H  H82  1  0.91177000  0.82168000  0.40833000  1.0
  H  H83  1  0.90745000  0.79923000  0.48577000  1.0
  C  C84  1  0.20171000  0.97362000  0.12647000  1.0
  C  C85  1  0.23483000  0.98114000  0.09178000  1.0
  C  C86  1  0.22446000  0.94856000  0.06153000  1.0
  C  C87  1  0.00969000  0.84825000  0.18452000  1.0
  C  C88  1  0.00733000  0.87759000  0.21971000  1.0
  C  C89  1  0.04638000  0.90497000  0.21170000  1.0
  C  C90  1  0.14123000  0.80057000  0.99861000  1.0
  C  C91  1  0.10832000  0.76644000  0.99610000  1.0
  C  C92  1  0.07807000  0.77325000  0.03277000  1.0
  C  C93  1  0.80547000  0.51051000  0.64839000  1.0
  C  C94  1  0.77026000  0.50568000  0.61870000  1.0
  C  C95  1  0.77528000  0.54396000  0.59028000  1.0
  C  C96  1  0.98094000  0.64988000  0.69862000  1.0
  C  C97  1  0.98641000  0.61673000  0.73217000  1.0
  C  C98  1  0.95172000  0.58540000  0.72485000  1.0
  C  C99  1  0.84625000  0.70425000  0.52434000  1.0
  C  C100  1  0.87628000  0.74122000  0.51977000  1.0
  C  C101  1  0.90735000  0.73306000  0.55331000  1.0
  C  C102  1  0.70701000  0.02807000  0.34969000  1.0
  C  C103  1  0.74571000  0.02429000  0.37588000  1.0
  C  C104  1  0.74019000  0.06051000  0.40406000  1.0
  C  C105  1  0.51638000  0.15872000  0.31251000  1.0
  C  C106  1  0.50952000  0.12640000  0.28099000  1.0
  C  C107  1  0.54670000  0.09631000  0.28630000  1.0
  C  C108  1  0.66037000  0.21026000  0.47570000  1.0
  C  C109  1  0.62801000  0.24514000  0.48222000  1.0
  C  C110  1  0.59554000  0.23807000  0.45033000  1.0
  C  C111  1  0.29796000  0.47910000  0.85723000  1.0
  C  C112  1  0.26133000  0.48562000  0.88823000  1.0
  C  C113  1  0.26738000  0.45070000  0.91999000  1.0
  C  C114  1  0.48429000  0.34260000  0.81224000  1.0
  C  C115  1  0.49026000  0.37357000  0.77642000  1.0
  C  C116  1  0.45356000  0.40420000  0.78275000  1.0
  C  C117  1  0.34674000  0.30235000  0.99928000  1.0
  C  C118  1  0.37898000  0.26748000  0.00571000  1.0
  C  C119  1  0.40978000  0.27241000  0.96878000  1.0
  C  C120  1  0.34393000  0.09014000  0.14752000  1.0
  C  C121  1  0.32352000  0.07056000  0.11393000  1.0
  C  C122  1  0.28752000  0.03798000  0.12011000  1.0
  C  C123  1  0.27100000  0.01418000  0.08711000  1.0
  C  C124  1  0.65303000  0.40807000  0.62349000  1.0
  C  C125  1  0.67352000  0.42754000  0.58674000  1.0
  C  C126  1  0.70809000  0.46202000  0.58635000  1.0
  C  C127  1  0.73754000  0.46941000  0.61871000  1.0
  C  C128  1  0.84488000  0.90743000  0.37633000  1.0
  C  C129  1  0.82588000  0.92760000  0.34079000  1.0
  C  C130  1  0.79097000  0.96216000  0.34222000  1.0
  C  C131  1  0.78281000  0.99172000  0.37466000  1.0
  C  C132  1  0.14043000  0.57945000  0.88108000  1.0
  C  C133  1  0.15962000  0.56346000  0.91844000  1.0
  C  C134  1  0.19594000  0.53027000  0.92008000  1.0
  C  C135  1  0.22677000  0.52065000  0.88678000  1.0
  C  C136  1  0.91608000  0.87638000  0.34199000  1.0
  C  C137  1  0.93213000  0.91357000  0.31937000  1.0
  C  C138  1  0.96592000  0.91274000  0.28325000  1.0
  C  C139  1  0.97227000  0.87886000  0.25485000  1.0
  C  C140  1  0.58490000  0.37293000  0.65590000  1.0
  C  C141  1  0.57041000  0.40972000  0.67790000  1.0
  C  C142  1  0.53652000  0.40908000  0.71396000  1.0
  C  C143  1  0.52628000  0.37366000  0.74210000  1.0
  C  C144  1  0.07515000  0.61647000  0.84894000  1.0
  C  C145  1  0.05958000  0.57972000  0.82919000  1.0
  C  C146  1  0.02819000  0.58077000  0.79388000  1.0
  C  C147  1  0.02024000  0.61598000  0.76546000  1.0
  C  C148  1  0.41281000  0.12530000  0.17059000  1.0
  C  C149  1  0.42838000  0.08872000  0.19364000  1.0
  C  C150  1  0.46242000  0.08974000  0.22652000  1.0
  C  C151  1  0.47264000  0.12535000  0.25085000  1.0
  C  C152  1  0.10889000  0.64675000  0.91227000  1.0
  C  C153  1  0.07064000  0.66911000  0.92712000  1.0
  C  C154  1  0.07107000  0.70520000  0.95731000  1.0
  C  C155  1  0.10711000  0.73285000  0.96324000  1.0
  C  C156  1  0.62341000  0.33820000  0.59463000  1.0
  C  C157  1  0.66185000  0.32406000  0.57209000  1.0
  C  C158  1  0.66247000  0.29024000  0.53948000  1.0
  C  C159  1  0.62734000  0.28039000  0.51352000  1.0
  C  C160  1  0.37701000  0.15281000  0.10487000  1.0
  C  C161  1  0.41539000  0.17261000  0.08593000  1.0
  C  C162  1  0.41510000  0.20682000  0.05120000  1.0
  C  C163  1  0.37957000  0.23521000  0.04225000  1.0
  C  C164  1  0.87897000  0.83934000  0.40509000  1.0
  C  C165  1  0.84058000  0.82577000  0.42910000  1.0
  C  C166  1  0.84027000  0.79099000  0.46332000  1.0
  C  C167  1  0.87615000  0.77889000  0.48845000  1.0
  N  N168  1  0.62118000  0.37289000  0.62436000  1.0
  N  N169  1  0.37700000  0.12391000  0.14185000  1.0
  N  N170  1  0.10909000  0.61508000  0.87979000  1.0
  N  N171  1  0.88043000  0.87533000  0.37453000  1.0
  N  N172  1  0.18840000  0.92355000  0.07715000  1.0
  N  N173  1  0.17415000  0.93931000  0.11739000  1.0
  N  N174  1  0.06967000  0.89291000  0.17472000  1.0
  N  N175  1  0.04689000  0.85769000  0.15772000  1.0
  N  N176  1  0.09194000  0.80865000  0.05492000  1.0
  N  N177  1  0.13117000  0.82573000  0.03369000  1.0
  N  N178  1  0.81065000  0.56911000  0.60219000  1.0
  N  N179  1  0.82946000  0.54836000  0.63830000  1.0
  N  N180  1  0.92798000  0.59891000  0.68974000  1.0
  N  N181  1  0.94608000  0.63898000  0.67336000  1.0
  N  N182  1  0.89641000  0.69463000  0.57611000  1.0
  N  N183  1  0.85848000  0.67672000  0.55800000  1.0
  N  N184  1  0.70157000  0.08392000  0.39516000  1.0
  N  N185  1  0.68101000  0.06367000  0.36137000  1.0
  N  N186  1  0.57314000  0.10971000  0.31849000  1.0
  N  N187  1  0.55429000  0.14847000  0.33487000  1.0
  N  N188  1  0.60776000  0.20212000  0.42673000  1.0
  N  N189  1  0.64805000  0.18486000  0.44257000  1.0
  N  N190  1  0.30472000  0.42584000  0.90872000  1.0
  N  N191  1  0.32378000  0.44346000  0.86974000  1.0
  N  N192  1  0.42828000  0.39241000  0.81947000  1.0
  N  N193  1  0.44733000  0.35418000  0.83791000  1.0
  N  N194  1  0.39685000  0.30746000  0.94286000  1.0
  N  N195  1  0.35769000  0.32618000  0.96178000  1.0
