# generated using pymatgen
data_Al6H33C78(O6F)5
_symmetry_space_group_name_H-M   'P 1'
_cell_length_a   12.13570000
_cell_length_b   12.47965756
_cell_length_c   28.01550000
_cell_angle_alpha   88.78653368
_cell_angle_beta   89.97030000
_cell_angle_gamma   61.58004500
_symmetry_Int_Tables_number   1
_chemical_formula_structural   Al6H33C78(O6F)5
_chemical_formula_sum   'Al6 H33 C78 O30 F5'
_cell_volume   3730.52693701
_cell_formula_units_Z   1
loop_
 _symmetry_equiv_pos_site_id
 _symmetry_equiv_pos_as_xyz
  1  'x, y, z'
loop_
 _atom_site_type_symbol
 _atom_site_label
 _atom_site_symmetry_multiplicity
 _atom_site_fract_x
 _atom_site_fract_y
 _atom_site_fract_z
 _atom_site_occupancy
  Al  Al0  1  0.39840000  0.40710000  0.49519000  1.0
  Al  Al1  1  0.66412000  0.40488000  0.49812000  1.0
  Al  Al2  1  0.43098000  0.64797000  0.49667000  1.0
  Al  Al3  1  0.92217000  0.92888000  0.98279000  1.0
  Al  Al4  1  0.91379000  0.67471000  0.98199000  1.0
  Al  Al5  1  0.66986000  0.90885000  0.98122000  1.0
  H  H6  1  0.77688000  0.73979000  0.29106000  1.0
  H  H7  1  0.61346000  0.99458000  0.21348000  1.0
  H  H8  1  0.72370000  0.27101000  0.18464000  1.0
  H  H9  1  0.71975000  0.30879000  0.27169000  1.0
  H  H10  1  0.79623000  0.42458000  0.62525000  1.0
  H  H11  1  0.70291000  0.86817000  0.83754000  1.0
  H  H12  1  0.82355000  0.45191000  0.71148000  1.0
  H  H13  1  0.70946000  0.48701000  0.78676000  1.0
  H  H14  1  0.73510000  0.51521000  0.87225000  1.0
  H  H15  1  0.53606000  0.82698000  0.69824000  1.0
  H  H16  1  0.78523000  0.76274000  0.20317000  1.0
  H  H17  1  0.51043000  0.79881000  0.61255000  1.0
  H  H18  1  0.32901000  0.74943000  0.62663000  1.0
  H  H19  1  0.18782000  0.49715000  0.77569000  1.0
  H  H20  1  0.12302000  0.52338000  0.86087000  1.0
  H  H21  1  0.11201000  0.87195000  0.76730000  1.0
  H  H22  1  0.05341000  0.89451000  0.85322000  1.0
  H  H23  1  0.09502000  0.55609000  0.70148000  1.0
  H  H24  1  0.41632000  0.31158000  0.62468000  1.0
  H  H25  1  0.55948000  0.58190000  0.18518000  1.0
  H  H26  1  0.50970000  0.09992000  0.77119000  1.0
  H  H27  1  0.53441000  0.05111000  0.85845000  1.0
  H  H28  1  0.82350000  0.13598000  0.71213000  1.0
  H  H29  1  0.81467000  0.18259000  0.62486000  1.0
  H  H30  1  0.29749000  0.75538000  0.27095000  1.0
  H  H31  1  0.26653000  0.75147000  0.18309000  1.0
  H  H32  1  0.02957000  0.58603000  0.20824000  1.0
  H  H33  1  0.05984000  0.59080000  0.29605000  1.0
  H  H34  1  0.61089000  0.03145000  0.30049000  1.0
  H  H35  1  0.74218000  0.29970000  0.74994000  1.0
  H  H36  1  0.81968000  0.26511000  0.85511000  1.0
  H  H37  1  0.28414000  0.31723000  0.46404000  1.0
  H  H38  1  0.01827000  0.03688000  0.01353000  1.0
  C  C39  1  0.62073000  0.27285000  0.42986000  1.0
  C  C40  1  0.60758000  0.61688000  0.20775000  1.0
  C  C41  1  0.60527000  0.60461000  0.25689000  1.0
  C  C42  1  0.66508000  0.64771000  0.28840000  1.0
  C  C43  1  0.67325000  0.67423000  0.18774000  1.0
  C  C44  1  0.67922000  0.68621000  0.13749000  1.0
  C  C45  1  0.65869000  0.63262000  0.33836000  1.0
  C  C46  1  0.68677000  0.69619000  0.09439000  1.0
  C  C47  1  0.22629000  0.66212000  0.38124000  1.0
  C  C48  1  0.23860000  0.71914000  0.25688000  1.0
  C  C49  1  0.22201000  0.71629000  0.20810000  1.0
  C  C50  1  0.62578000  0.59398000  0.42941000  1.0
  C  C51  1  0.08771000  0.62325000  0.22225000  1.0
  C  C52  1  0.10415000  0.62625000  0.27106000  1.0
  C  C53  1  0.18022000  0.67386000  0.28906000  1.0
  C  C54  1  0.14642000  0.66823000  0.19007000  1.0
  C  C55  1  0.12663000  0.66920000  0.14036000  1.0
  C  C56  1  0.20251000  0.67089000  0.33865000  1.0
  C  C57  1  0.10665000  0.67565000  0.09752000  1.0
  C  C58  1  0.65250000  0.22105000  0.38326000  1.0
  C  C59  1  0.63595000  0.08321000  0.27497000  1.0
  C  C60  1  0.63721000  0.06282000  0.22646000  1.0
  C  C61  1  0.27887000  0.62696000  0.42844000  1.0
  C  C62  1  0.69901000  0.21901000  0.21018000  1.0
  C  C63  1  0.69754000  0.23961000  0.25867000  1.0
  C  C64  1  0.66609000  0.17200000  0.29185000  1.0
  C  C65  1  0.66922000  0.13001000  0.19328000  1.0
  C  C66  1  0.67487000  0.10551000  0.14401000  1.0
  C  C67  1  0.66091000  0.19638000  0.34110000  1.0
  C  C68  1  0.68379000  0.08109000  0.10182000  1.0
  C  C69  1  0.65285000  0.61026000  0.61337000  1.0
  C  C70  1  0.74054000  0.51252000  0.64162000  1.0
  C  C71  1  0.75413000  0.52805000  0.68993000  1.0
  C  C72  1  0.60459000  0.28175000  0.56768000  1.0
  C  C73  1  0.68198000  0.64152000  0.71121000  1.0
  C  C74  1  0.59458000  0.73899000  0.68243000  1.0
  C  C75  1  0.57971000  0.72348000  0.63436000  1.0
  C  C76  1  0.69628000  0.76340000  0.77924000  1.0
  C  C77  1  0.70448000  0.78396000  0.82715000  1.0
  C  C78  1  0.72395000  0.58552000  0.84600000  1.0
  C  C79  1  0.71094000  0.56959000  0.79764000  1.0
  C  C80  1  0.69642000  0.65806000  0.76254000  1.0
  C  C81  1  0.71788000  0.69445000  0.86110000  1.0
  C  C82  1  0.24271000  0.63555000  0.61518000  1.0
  C  C83  1  0.62906000  0.59049000  0.56327000  1.0
  C  C84  1  0.27699000  0.70752000  0.64294000  1.0
  C  C85  1  0.24867000  0.72181000  0.69093000  1.0
  C  C86  1  0.18367000  0.66829000  0.71425000  1.0
  C  C87  1  0.14835000  0.59772000  0.68602000  1.0
  C  C88  1  0.17789000  0.58146000  0.63800000  1.0
  C  C89  1  0.15595000  0.58516000  0.79232000  1.0
  C  C90  1  0.12160000  0.59876000  0.84004000  1.0
  C  C91  1  0.08280000  0.80836000  0.83547000  1.0
  C  C92  1  0.11590000  0.79496000  0.78768000  1.0
  C  C93  1  0.15257000  0.68322000  0.76535000  1.0
  C  C94  1  0.28644000  0.61168000  0.56506000  1.0
  C  C95  1  0.08493000  0.71061000  0.86183000  1.0
  C  C96  1  0.61550000  0.24940000  0.61954000  1.0
  C  C97  1  0.50525000  0.27491000  0.64404000  1.0
  C  C98  1  0.51121000  0.25552000  0.69298000  1.0
  C  C99  1  0.62367000  0.20720000  0.71944000  1.0
  C  C100  1  0.73333000  0.17969000  0.69334000  1.0
  C  C101  1  0.72968000  0.20234000  0.64437000  1.0
  C  C102  1  0.69982000  0.21919000  0.80067000  1.0
  C  C103  1  0.71632000  0.18989000  0.84988000  1.0
  C  C104  1  0.57980000  0.09916000  0.84169000  1.0
  C  C105  1  0.65101000  0.61816000  0.38116000  1.0
  C  C106  1  0.56561000  0.12698000  0.79323000  1.0
  C  C107  1  0.62864000  0.18485000  0.77150000  1.0
  C  C108  1  0.65884000  0.12534000  0.87037000  1.0
  C  C109  1  0.05779000  0.70558000  0.04958000  1.0
  C  C110  1  0.71413000  0.71613000  0.04597000  1.0
  C  C111  1  0.71200000  0.03545000  0.05412000  1.0
  C  C112  1  0.04125000  0.73071000  0.91192000  1.0
  C  C113  1  0.73032000  0.71936000  0.91214000  1.0
  C  C114  1  0.69363000  0.06720000  0.91865000  1.0
  C  C115  1  0.72976000  0.70547000  0.26761000  1.0
  C  C116  1  0.73425000  0.71838000  0.21840000  1.0
  O  O117  1  0.29926000  0.52307000  0.44370000  1.0
  O  O118  1  0.70425000  0.48928000  0.54427000  1.0
  O  O119  1  0.53004000  0.67332000  0.54244000  1.0
  O  O120  1  0.31539000  0.68960000  0.54548000  1.0
  O  O121  1  0.49924000  0.48780000  0.49631000  1.0
  O  O122  1  0.81456000  0.02028000  0.03686000  1.0
  O  O123  1  0.03340000  0.80942000  0.03319000  1.0
  O  O124  1  0.03770000  0.62539000  0.02832000  1.0
  O  O125  1  0.82285000  0.64183000  0.03120000  1.0
  O  O126  1  0.63168000  0.80946000  0.02279000  1.0
  O  O127  1  0.63214000  0.00999000  0.03393000  1.0
  O  O128  1  0.51065000  0.30523000  0.44378000  1.0
  O  O129  1  0.80069000  0.03912000  0.93518000  1.0
  O  O130  1  0.01718000  0.83116000  0.93002000  1.0
  O  O131  1  0.02649000  0.64522000  0.93301000  1.0
  O  O132  1  0.82142000  0.63722000  0.93676000  1.0
  O  O133  1  0.65324000  0.82449000  0.92711000  1.0
  O  O134  1  0.61403000  0.03969000  0.93923000  1.0
  O  O135  1  0.83458000  0.83529000  0.98314000  1.0
  O  O136  1  0.70569000  0.28640000  0.45273000  1.0
  O  O137  1  0.70163000  0.49132000  0.44867000  1.0
  O  O138  1  0.52508000  0.67531000  0.44780000  1.0
  O  O139  1  0.30560000  0.70166000  0.45044000  1.0
  O  O140  1  0.29887000  0.51600000  0.54616000  1.0
  O  O141  1  0.50425000  0.30272000  0.54675000  1.0
  O  O142  1  0.69595000  0.29202000  0.54838000  1.0
  O  O143  1  0.75878000  0.28378000  0.78426000  1.0
  O  O144  1  0.78593000  0.22529000  0.87653000  1.0
  O  O145  1  0.30927000  0.33064000  0.49510000  1.0
  O  O146  1  0.00666000  0.00994000  0.98276000  1.0
  F  F147  1  0.68998000  0.85025000  0.74718000  1.0
  F  F148  1  0.28977000  0.78837000  0.71650000  1.0
  F  F149  1  0.13921000  0.51322000  0.61328000  1.0
  F  F150  1  0.40179000  0.28653000  0.71637000  1.0
  F  F151  1  0.54260000  0.54824000  0.27570000  1.0
