# generated using pymatgen
data_ErH7C7(NO4)2
_symmetry_space_group_name_H-M   'P 1'
_cell_length_a   7.75236000
_cell_length_b   8.51818000
_cell_length_c   8.57973000
_cell_angle_alpha   116.05900000
_cell_angle_beta   97.74280000
_cell_angle_gamma   101.66500000
_symmetry_Int_Tables_number   1
_chemical_formula_structural   ErH7C7(NO4)2
_chemical_formula_sum   'Er2 H14 C14 N4 O16'
_cell_volume   482.10299479
_cell_formula_units_Z   2
loop_
 _symmetry_equiv_pos_site_id
 _symmetry_equiv_pos_as_xyz
  1  'x, y, z'
loop_
 _atom_site_type_symbol
 _atom_site_label
 _atom_site_symmetry_multiplicity
 _atom_site_fract_x
 _atom_site_fract_y
 _atom_site_fract_z
 _atom_site_occupancy
  Er  Er0  1  0.33638000  0.83374000  0.58928000  1.0
  Er  Er1  1  0.66361000  0.16626000  0.41072000  1.0
  H  H2  1  0.67640000  0.44795000  0.06383000  1.0
  H  H3  1  0.32360000  0.55205000  0.93617000  1.0
  H  H4  1  0.03881000  0.75780000  0.91907000  1.0
  H  H5  1  0.96120000  0.24220000  0.08093000  1.0
  H  H6  1  0.99918000  0.04719000  0.16070000  1.0
  H  H7  1  0.00082000  0.95282000  0.83930000  1.0
  H  H8  1  0.27275000  0.81957000  0.24667000  1.0
  H  H9  1  0.72724000  0.18043000  0.75334000  1.0
  H  H10  1  0.16996000  0.61788000  0.20047000  1.0
  H  H11  1  0.83004000  0.38212000  0.79954000  1.0
  H  H12  1  0.65206000  0.67376000  0.61051000  1.0
  H  H13  1  0.34795000  0.32625000  0.38949000  1.0
  H  H14  1  0.51993000  0.62448000  0.70810000  1.0
  H  H15  1  0.48007000  0.37552000  0.29190000  1.0
  C  C16  1  0.59903000  0.73389000  0.32851000  1.0
  C  C17  1  0.40096000  0.26610000  0.67148000  1.0
  C  C18  1  0.72400000  0.74066000  0.21238000  1.0
  C  C19  1  0.27599000  0.25934000  0.78761000  1.0
  C  C20  1  0.74681000  0.58136000  0.08162000  1.0
  C  C21  1  0.25319000  0.41865000  0.91838000  1.0
  C  C22  1  0.94450000  0.75259000  0.00146000  1.0
  C  C23  1  0.05550000  0.24741000  0.99854000  1.0
  C  C24  1  0.92297000  0.91214000  0.13379000  1.0
  C  C25  1  0.07704000  0.08787000  0.86621000  1.0
  C  C26  1  0.42564000  0.92389000  0.00058000  1.0
  C  C27  1  0.57435000  0.07611000  0.99942000  1.0
  C  C28  1  0.94014000  0.56455000  0.52294000  1.0
  C  C29  1  0.05986000  0.43545000  0.47706000  1.0
  N  N30  1  0.80765000  0.90598000  0.23495000  1.0
  N  N31  1  0.19235000  0.09402000  0.76504000  1.0
  N  N32  1  0.85352000  0.58749000  0.97316000  1.0
  N  N33  1  0.14648000  0.41252000  0.02685000  1.0
  O  O34  1  0.59202000  0.88864000  0.45023000  1.0
  O  O35  1  0.40798000  0.11135000  0.54976000  1.0
  O  O36  1  0.50456000  0.58218000  0.30018000  1.0
  O  O37  1  0.49544000  0.41781000  0.69982000  1.0
  O  O38  1  0.30381000  0.81800000  0.85614000  1.0
  O  O39  1  0.69619000  0.18199000  0.14386000  1.0
  O  O40  1  0.43888000  0.91704000  0.14648000  1.0
  O  O41  1  0.56111000  0.08296000  0.85352000  1.0
  O  O42  1  0.01207000  0.72686000  0.55760000  1.0
  O  O43  1  0.98793000  0.27314000  0.44240000  1.0
  O  O44  1  0.77841000  0.49589000  0.52279000  1.0
  O  O45  1  0.22159000  0.50411000  0.47721000  1.0
  O  O46  1  0.20177000  0.75105000  0.29603000  1.0
  O  O47  1  0.79823000  0.24895000  0.70397000  1.0
  O  O48  1  0.57245000  0.72722000  0.68679000  1.0
  O  O49  1  0.42755000  0.27279000  0.31321000  1.0
