# generated using pymatgen
data_AgH11C11BrN2
_symmetry_space_group_name_H-M   'P 1'
_cell_length_a   5.84754000
_cell_length_b   8.19901000
_cell_length_c   12.46930000
_cell_angle_alpha   103.55600000
_cell_angle_beta   99.22150000
_cell_angle_gamma   93.88370000
_symmetry_Int_Tables_number   1
_chemical_formula_structural   AgH11C11BrN2
_chemical_formula_sum   'Ag2 H22 C22 Br2 N4'
_cell_volume   570.19884080
_cell_formula_units_Z   2
loop_
 _symmetry_equiv_pos_site_id
 _symmetry_equiv_pos_as_xyz
  1  'x, y, z'
loop_
 _atom_site_type_symbol
 _atom_site_label
 _atom_site_symmetry_multiplicity
 _atom_site_fract_x
 _atom_site_fract_y
 _atom_site_fract_z
 _atom_site_occupancy
  Ag  Ag0  1  0.30380000  0.09408000  0.52533000  1.0
  Ag  Ag1  1  0.69623000  0.90590000  0.47466000  1.0
  H  H2  1  0.99505000  0.42863000  0.84362000  1.0
  H  H3  1  0.00495000  0.57138000  0.15639000  1.0
  H  H4  1  0.95704000  0.60651000  0.67720000  1.0
  H  H5  1  0.04294000  0.39350000  0.32280000  1.0
  H  H6  1  0.56182000  0.33714000  0.42410000  1.0
  H  H7  1  0.43814000  0.66287000  0.57591000  1.0
  H  H8  1  0.74761000  0.53097000  0.47648000  1.0
  H  H9  1  0.25236000  0.46903000  0.52353000  1.0
  H  H10  1  0.55054000  0.03396000  0.72486000  1.0
  H  H11  1  0.44948000  0.96604000  0.27514000  1.0
  H  H12  1  0.84933000  0.06744000  0.78803000  1.0
  H  H13  1  0.15069000  0.93257000  0.21197000  1.0
  H  H14  1  0.31147000  0.28936000  0.83055000  1.0
  H  H15  1  0.68856000  0.71063000  0.16944000  1.0
  H  H16  1  0.19410000  0.37764000  0.01814000  1.0
  H  H17  1  0.80590000  0.62235000  0.98186000  1.0
  H  H18  1  0.43242000  0.32045000  0.18559000  1.0
  H  H19  1  0.56758000  0.67955000  0.81441000  1.0
  H  H20  1  0.79323000  0.17793000  0.16743000  1.0
  H  H21  1  0.20677000  0.82207000  0.83256000  1.0
  H  H22  1  0.91446000  0.09822000  0.98105000  1.0
  H  H23  1  0.08556000  0.90177000  0.01895000  1.0
  C  C24  1  0.59768000  0.25721000  0.61916000  1.0
  C  C25  1  0.40233000  0.74280000  0.38085000  1.0
  C  C26  1  0.88261000  0.40152000  0.76232000  1.0
  C  C27  1  0.11739000  0.59849000  0.23769000  1.0
  C  C28  1  0.86489000  0.48907000  0.68133000  1.0
  C  C29  1  0.13509000  0.51094000  0.31867000  1.0
  C  C30  1  0.60616000  0.45113000  0.49343000  1.0
  C  C31  1  0.39379000  0.54887000  0.50657000  1.0
  C  C32  1  0.68754000  0.12787000  0.78120000  1.0
  C  C33  1  0.31247000  0.87213000  0.21880000  1.0
  C  C34  1  0.62030000  0.18825000  0.89432000  1.0
  C  C35  1  0.37969000  0.81175000  0.10568000  1.0
  C  C36  1  0.41686000  0.26665000  0.90504000  1.0
  C  C37  1  0.58316000  0.73334000  0.09495000  1.0
  C  C38  1  0.35120000  0.31495000  0.00960000  1.0
  C  C39  1  0.64880000  0.68503000  0.99041000  1.0
  C  C40  1  0.48611000  0.28350000  0.10427000  1.0
  C  C41  1  0.51389000  0.71650000  0.89573000  1.0
  C  C42  1  0.68884000  0.20503000  0.09417000  1.0
  C  C43  1  0.31116000  0.79498000  0.90583000  1.0
  C  C44  1  0.75573000  0.15884000  0.98955000  1.0
  C  C45  1  0.24428000  0.84115000  0.01045000  1.0
  Br  Br46  1  0.05945000  0.88863000  0.62466000  1.0
  Br  Br47  1  0.94055000  0.11137000  0.37535000  1.0
  N  N48  1  0.71827000  0.26124000  0.72290000  1.0
  N  N49  1  0.28174000  0.73876000  0.27710000  1.0
  N  N50  1  0.69031000  0.39881000  0.59509000  1.0
  N  N51  1  0.30968000  0.60120000  0.40491000  1.0
