# generated using pymatgen
data_CdH10C16(N3O2)2
_symmetry_space_group_name_H-M   'P 1'
_cell_length_a   11.36150000
_cell_length_b   13.78000000
_cell_length_c   13.79630000
_cell_angle_alpha   103.19400000
_cell_angle_beta   114.31600000
_cell_angle_gamma   90.00000000
_symmetry_Int_Tables_number   1
_chemical_formula_structural   CdH10C16(N3O2)2
_chemical_formula_sum   'Cd4 H40 C64 N24 O16'
_cell_volume   1905.61280295
_cell_formula_units_Z   4
loop_
 _symmetry_equiv_pos_site_id
 _symmetry_equiv_pos_as_xyz
  1  'x, y, z'
loop_
 _atom_site_type_symbol
 _atom_site_label
 _atom_site_symmetry_multiplicity
 _atom_site_fract_x
 _atom_site_fract_y
 _atom_site_fract_z
 _atom_site_occupancy
  Cd  Cd0  1  0.95850000  0.63501000  0.55660000  1.0
  Cd  Cd1  1  0.59813000  0.13503000  0.55664000  1.0
  Cd  Cd2  1  0.04150000  0.36499000  0.44340000  1.0
  Cd  Cd3  1  0.40187000  0.86497000  0.44336000  1.0
  H  H4  1  0.91532000  0.23364000  0.65244000  1.0
  H  H5  1  0.73715000  0.73371000  0.65261000  1.0
  H  H6  1  0.08468000  0.76636000  0.34756000  1.0
  H  H7  1  0.26285000  0.26629000  0.34739000  1.0
  H  H8  1  0.13718000  0.16905000  0.69321000  1.0
  H  H9  1  0.55624000  0.66907000  0.69355000  1.0
  H  H10  1  0.86281000  0.83096000  0.30679000  1.0
  H  H11  1  0.44376000  0.33093000  0.30645000  1.0
  H  H12  1  0.99399000  0.63801000  0.79795000  1.0
  H  H13  1  0.80418000  0.13811000  0.79802000  1.0
  H  H14  1  0.00601000  0.36199000  0.20205000  1.0
  H  H15  1  0.19582000  0.86189000  0.20198000  1.0
  H  H16  1  0.16187000  0.62383000  0.98338000  1.0
  H  H17  1  0.82189000  0.12421000  0.98355000  1.0
  H  H18  1  0.83813000  0.37617000  0.01663000  1.0
  H  H19  1  0.17811000  0.87579000  0.01645000  1.0
  H  H20  1  0.45088000  0.62317000  0.85626000  1.0
  H  H21  1  0.40567000  0.12318000  0.85640000  1.0
  H  H22  1  0.54911000  0.37683000  0.14374000  1.0
  H  H23  1  0.59433000  0.87682000  0.14359000  1.0
  H  H24  1  0.27181000  0.63653000  0.67642000  1.0
  H  H25  1  0.40483000  0.13649000  0.67658000  1.0
  H  H26  1  0.72819000  0.36347000  0.32358000  1.0
  H  H27  1  0.59517000  0.86351000  0.32342000  1.0
  H  H28  1  0.46975000  0.62431000  0.23451000  1.0
  H  H29  1  0.76484000  0.12442000  0.23459000  1.0
  H  H30  1  0.53025000  0.37569000  0.76549000  1.0
  H  H31  1  0.23516000  0.87558000  0.76541000  1.0
  H  H32  1  0.63849000  0.62266000  0.41883000  1.0
  H  H33  1  0.78045000  0.12281000  0.41892000  1.0
  H  H34  1  0.36151000  0.37734000  0.58117000  1.0
  H  H35  1  0.21955000  0.87719000  0.58108000  1.0
  H  H36  1  0.93354000  0.62113000  0.31510000  1.0
  H  H37  1  0.38172000  0.12139000  0.31524000  1.0
  H  H38  1  0.06646000  0.37887000  0.68490000  1.0
  H  H39  1  0.61828000  0.87861000  0.68476000  1.0
  H  H40  1  0.77466000  0.63060000  0.12522000  1.0
  H  H41  1  0.35070000  0.13079000  0.12532000  1.0
  H  H42  1  0.22534000  0.36940000  0.87478000  1.0
  H  H43  1  0.64930000  0.86921000  0.87468000  1.0
  C  C44  1  0.95826000  0.95741000  0.62446000  1.0
  C  C45  1  0.66622000  0.45746000  0.62447000  1.0
  C  C46  1  0.04174000  0.04259000  0.37554000  1.0
  C  C47  1  0.33378000  0.54254000  0.37553000  1.0
  C  C48  1  0.83435000  0.99197000  0.59052000  1.0
  C  C49  1  0.75623000  0.49205000  0.59060000  1.0
  C  C50  1  0.16565000  0.00803000  0.40948000  1.0
  C  C51  1  0.24377000  0.50795000  0.40940000  1.0
  C  C52  1  0.92931000  0.15436000  0.64320000  1.0
  C  C53  1  0.71394000  0.65442000  0.64334000  1.0
  C  C54  1  0.07069000  0.84564000  0.35680000  1.0
  C  C55  1  0.28605000  0.34558000  0.35665000  1.0
  C  C56  1  0.05045000  0.11813000  0.66812000  1.0
  C  C57  1  0.61780000  0.61817000  0.66832000  1.0
  C  C58  1  0.94955000  0.88187000  0.33188000  1.0
  C  C59  1  0.38220000  0.38183000  0.33167000  1.0
  C  C60  1  0.97057000  0.84789000  0.62361000  1.0
  C  C61  1  0.65287000  0.34789000  0.62341000  1.0
  C  C62  1  0.02943000  0.15211000  0.37639000  1.0
  C  C63  1  0.34713000  0.65211000  0.37659000  1.0
  C  C64  1  0.71232000  0.91952000  0.53217000  1.0
  C  C65  1  0.82011000  0.41959000  0.53244000  1.0
  C  C66  1  0.28768000  0.08048000  0.46783000  1.0
  C  C67  1  0.17989000  0.58041000  0.46756000  1.0
  C  C68  1  0.09607000  0.63386000  0.81442000  1.0
  C  C69  1  0.71857000  0.13395000  0.81451000  1.0
  C  C70  1  0.90393000  0.36614000  0.18558000  1.0
  C  C71  1  0.28143000  0.86605000  0.18549000  1.0
  C  C72  1  0.18798000  0.62653000  0.91630000  1.0
  C  C73  1  0.72862000  0.12673000  0.91645000  1.0
  C  C74  1  0.81202000  0.37347000  0.08370000  1.0
  C  C75  1  0.27138000  0.87327000  0.08355000  1.0
  C  C76  1  0.31787000  0.62331000  0.93261000  1.0
  C  C77  1  0.61506000  0.12348000  0.93280000  1.0
  C  C78  1  0.68213000  0.37669000  0.06739000  1.0
  C  C79  1  0.38494000  0.87652000  0.06720000  1.0
  C  C80  1  0.35077000  0.62647000  0.84589000  1.0
  C  C81  1  0.49540000  0.12649000  0.84603000  1.0
  C  C82  1  0.64923000  0.37353000  0.15411000  1.0
  C  C83  1  0.50459000  0.87351000  0.15397000  1.0
  C  C84  1  0.25212000  0.63264000  0.74657000  1.0
  C  C85  1  0.49470000  0.13259000  0.74669000  1.0
  C  C86  1  0.74788000  0.36736000  0.25343000  1.0
  C  C87  1  0.50530000  0.86741000  0.25331000  1.0
  C  C88  1  0.61031000  0.62690000  0.16600000  1.0
  C  C89  1  0.55583000  0.12699000  0.16608000  1.0
  C  C90  1  0.38969000  0.37310000  0.83400000  1.0
  C  C91  1  0.44417000  0.87301000  0.83391000  1.0
  C  C92  1  0.57137000  0.62385000  0.24929000  1.0
  C  C93  1  0.67803000  0.12396000  0.24940000  1.0
  C  C94  1  0.42863000  0.37615000  0.75071000  1.0
  C  C95  1  0.32197000  0.87605000  0.75060000  1.0
  C  C96  1  0.66607000  0.62198000  0.35204000  1.0
  C  C97  1  0.68607000  0.12210000  0.35214000  1.0
  C  C98  1  0.33393000  0.37802000  0.64796000  1.0
  C  C99  1  0.31393000  0.87790000  0.64786000  1.0
  C  C100  1  0.83005000  0.62323000  0.29360000  1.0
  C  C101  1  0.46367000  0.12343000  0.29370000  1.0
  C  C102  1  0.16995000  0.37677000  0.70641000  1.0
  C  C103  1  0.53633000  0.87657000  0.70629000  1.0
  C  C104  1  0.74260000  0.62772000  0.18898000  1.0
  C  C105  1  0.44651000  0.12786000  0.18906000  1.0
  C  C106  1  0.25740000  0.37228000  0.81102000  1.0
  C  C107  1  0.55349000  0.87214000  0.81094000  1.0
  N  N108  1  0.06603000  0.02074000  0.66172000  1.0
  N  N109  1  0.59573000  0.52076000  0.66181000  1.0
  N  N110  1  0.93397000  0.97926000  0.33827000  1.0
  N  N111  1  0.40427000  0.47924000  0.33819000  1.0
  N  N112  1  0.82175000  0.09042000  0.60425000  1.0
  N  N113  1  0.78254000  0.59051000  0.60434000  1.0
  N  N114  1  0.17825000  0.90958000  0.39575000  1.0
  N  N115  1  0.21746000  0.40949000  0.39567000  1.0
  N  N116  1  0.12709000  0.63594000  0.73087000  1.0
  N  N117  1  0.60401000  0.13603000  0.73097000  1.0
  N  N118  1  0.87291000  0.36406000  0.26913000  1.0
  N  N119  1  0.39599000  0.86397000  0.26902000  1.0
  N  N120  1  0.79287000  0.62076000  0.37397000  1.0
  N  N121  1  0.58120000  0.12097000  0.37410000  1.0
  N  N122  1  0.20713000  0.37924000  0.62603000  1.0
  N  N123  1  0.41880000  0.87903000  0.62589000  1.0
  N  N124  1  0.40600000  0.61556000  0.03799000  1.0
  N  N125  1  0.63230000  0.11586000  0.03822000  1.0
  N  N126  1  0.59400000  0.38444000  0.96201000  1.0
  N  N127  1  0.36770000  0.88414000  0.96178000  1.0
  N  N128  1  0.52434000  0.63250000  0.05870000  1.0
  N  N129  1  0.53449000  0.13248000  0.05876000  1.0
  N  N130  1  0.47566000  0.36750000  0.94131000  1.0
  N  N131  1  0.46551000  0.86752000  0.94124000  1.0
  O  O132  1  0.00933000  0.79641000  0.55499000  1.0
  O  O133  1  0.54550000  0.29647000  0.55471000  1.0
  O  O134  1  0.99067000  0.20359000  0.44501000  1.0
  O  O135  1  0.45451000  0.70353000  0.44529000  1.0
  O  O136  1  0.94151000  0.81662000  0.69071000  1.0
  O  O137  1  0.74891000  0.31652000  0.69055000  1.0
  O  O138  1  0.05849000  0.18338000  0.30928000  1.0
  O  O139  1  0.25109000  0.68348000  0.30945000  1.0
  O  O140  1  0.71873000  0.83436000  0.48056000  1.0
  O  O141  1  0.76231000  0.33435000  0.48099000  1.0
  O  O142  1  0.28127000  0.16564000  0.51944000  1.0
  O  O143  1  0.23770000  0.66565000  0.51901000  1.0
  O  O144  1  0.60965000  0.95456000  0.53816000  1.0
  O  O145  1  0.92874000  0.45469000  0.53842000  1.0
  O  O146  1  0.39035000  0.04544000  0.46184000  1.0
  O  O147  1  0.07126000  0.54531000  0.46158000  1.0
