# generated using pymatgen
data_Zn2H29C42(NO)8
_symmetry_space_group_name_H-M   'P 1'
_cell_length_a   16.56260000
_cell_length_b   17.94590000
_cell_length_c   31.13380000
_cell_angle_alpha   90.28300000
_cell_angle_beta   89.83600000
_cell_angle_gamma   89.95430000
_symmetry_Int_Tables_number   1
_chemical_formula_structural   Zn2H29C42(NO)8
_chemical_formula_sum   'Zn4 H58 C84 N16 O16'
_cell_volume   9253.76930110
_cell_formula_units_Z   2
loop_
 _symmetry_equiv_pos_site_id
 _symmetry_equiv_pos_as_xyz
  1  'x, y, z'
loop_
 _atom_site_type_symbol
 _atom_site_label
 _atom_site_symmetry_multiplicity
 _atom_site_fract_x
 _atom_site_fract_y
 _atom_site_fract_z
 _atom_site_occupancy
  Zn  Zn0  1  0.58040000  0.50121000  0.50399000  1.0
  Zn  Zn1  1  0.41080000  0.49405000  0.50190000  1.0
  Zn  Zn2  1  0.41956000  0.50342000  0.92498000  1.0
  Zn  Zn3  1  0.58925000  0.49633000  0.92701000  1.0
  H  H4  1  0.28610000  0.57336000  0.54492000  1.0
  H  H5  1  0.13515000  0.58321000  0.54919000  1.0
  H  H6  1  0.12313000  0.40325000  0.45635000  1.0
  H  H7  1  0.86601000  0.59258000  0.55136000  1.0
  H  H8  1  0.70658000  0.42858000  0.45734000  1.0
  H  H9  1  0.85757000  0.41858000  0.45472000  1.0
  H  H10  1  0.61636000  0.73450000  0.50240000  1.0
  H  H11  1  0.62234000  0.87335000  0.50302000  1.0
  H  H12  1  0.36214000  0.88034000  0.49908000  1.0
  H  H13  1  0.63330000  0.11443000  0.49932000  1.0
  H  H14  1  0.38278000  0.26554000  0.50489000  1.0
  H  H15  1  0.37326000  0.12651000  0.50325000  1.0
  H  H16  1  0.39656000  0.50505000  0.78625000  1.0
  H  H17  1  0.65363000  0.50186000  0.79636000  1.0
  H  H18  1  0.60323000  0.50460000  0.64274000  1.0
  H  H19  1  0.34615000  0.50135000  0.63261000  1.0
  H  H20  1  0.37709000  0.50170000  0.06204000  1.0
  H  H21  1  0.36998000  0.50935000  0.14216000  1.0
  H  H22  1  0.63013000  0.51314000  0.14635000  1.0
  H  H23  1  0.36969000  0.51138000  0.28274000  1.0
  H  H24  1  0.62292000  0.49944000  0.36682000  1.0
  H  H25  1  0.62988000  0.50832000  0.28679000  1.0
  H  H26  1  0.71381000  0.57501000  0.88414000  1.0
  H  H27  1  0.86473000  0.58476000  0.87984000  1.0
  H  H28  1  0.87710000  0.40575000  0.97227000  1.0
  H  H29  1  0.13394000  0.59413000  0.87751000  1.0
  H  H30  1  0.29336000  0.43127000  0.97142000  1.0
  H  H31  1  0.14236000  0.42128000  0.97386000  1.0
  H  H32  1  0.38358000  0.73692000  0.92572000  1.0
  H  H33  1  0.37761000  0.87574000  0.92429000  1.0
  H  H34  1  0.63784000  0.88244000  0.92769000  1.0
  H  H35  1  0.36701000  0.11675000  0.92802000  1.0
  H  H36  1  0.61734000  0.26778000  0.92334000  1.0
  H  H37  1  0.62704000  0.12872000  0.92407000  1.0
  H  H38  1  0.34377000  0.39791000  0.44565000  1.0
  H  H39  1  0.25292000  0.36146000  0.42804000  1.0
  H  H40  1  0.64593000  0.61786000  0.54672000  1.0
  H  H41  1  0.73575000  0.64579000  0.57134000  1.0
  H  H42  1  0.34161000  0.67982000  0.49048000  1.0
  H  H43  1  0.29143000  0.76575000  0.48972000  1.0
  H  H44  1  0.66016000  0.31496000  0.50314000  1.0
  H  H45  1  0.70793000  0.22764000  0.50520000  1.0
  H  H46  1  0.65499000  0.50654000  0.03134000  1.0
  H  H47  1  0.70106000  0.52317000  0.08074000  1.0
  H  H48  1  0.34513000  0.50274000  0.39769000  1.0
  H  H49  1  0.29880000  0.51997000  0.34852000  1.0
  H  H50  1  0.65646000  0.40084000  0.98310000  1.0
  H  H51  1  0.74732000  0.36453000  0.00065000  1.0
  H  H52  1  0.35400000  0.61942000  0.88237000  1.0
  H  H53  1  0.26420000  0.64704000  0.85770000  1.0
  H  H54  1  0.65841000  0.68229000  0.93767000  1.0
  H  H55  1  0.70854000  0.76816000  0.93781000  1.0
  H  H56  1  0.33995000  0.31732000  0.92562000  1.0
  H  H57  1  0.29222000  0.23004000  0.92302000  1.0
  H  H58  1  0.30961000  0.47649000  0.74564000  1.0
  H  H59  1  0.26868000  0.48456000  0.69636000  1.0
  H  H60  1  0.69018000  0.47620000  0.68323000  1.0
  H  H61  1  0.73111000  0.48449000  0.73255000  1.0
  C  C62  1  0.48937000  0.64569000  0.50011000  1.0
  C  C63  1  0.48335000  0.50435000  0.58619000  1.0
  C  C64  1  0.51052000  0.35160000  0.50425000  1.0
  C  C65  1  0.49558000  0.49400000  0.41775000  1.0
  C  C66  1  0.51066000  0.64800000  0.92842000  1.0
  C  C67  1  0.51649000  0.50524000  0.84278000  1.0
  C  C68  1  0.48949000  0.35385000  0.92453000  1.0
  C  C69  1  0.50457000  0.49716000  0.01114000  1.0
  C  C70  1  0.24708000  0.53744000  0.52570000  1.0
  C  C71  1  0.16408000  0.54256000  0.52821000  1.0
  C  C72  1  0.11757000  0.49337000  0.50254000  1.0
  C  C73  1  0.15744000  0.44194000  0.47625000  1.0
  C  C74  1  0.24274000  0.44032000  0.47537000  1.0
  C  C75  1  0.03214000  0.49673000  0.50332000  1.0
  C  C76  1  0.95866000  0.50088000  0.50398000  1.0
  C  C77  1  0.87324000  0.50477000  0.50380000  1.0
  C  C78  1  0.83245000  0.55525000  0.53027000  1.0
  C  C79  1  0.74714000  0.55862000  0.52924000  1.0
  C  C80  1  0.74474000  0.46356000  0.47758000  1.0
  C  C81  1  0.82779000  0.45786000  0.47623000  1.0
  C  C82  1  0.48735000  0.72828000  0.50045000  1.0
  C  C83  1  0.56099000  0.76730000  0.50203000  1.0
  C  C84  1  0.56471000  0.84424000  0.50228000  1.0
  C  C85  1  0.49197000  0.88585000  0.50124000  1.0
  C  C86  1  0.41802000  0.84813000  0.49975000  1.0
  C  C87  1  0.41383000  0.76971000  0.49896000  1.0
  C  C88  1  0.49469000  0.96472000  0.50138000  1.0
  C  C89  1  0.49933000  0.03266000  0.50135000  1.0
  C  C90  1  0.50336000  0.11151000  0.50149000  1.0
  C  C91  1  0.57819000  0.14774000  0.50055000  1.0
  C  C92  1  0.58426000  0.22613000  0.50073000  1.0
  C  C93  1  0.51160000  0.26891000  0.50263000  1.0
  C  C94  1  0.43707000  0.23130000  0.50340000  1.0
  C  C95  1  0.43156000  0.15447000  0.50265000  1.0
  C  C96  1  0.45459000  0.50329000  0.76977000  1.0
  C  C97  1  0.60068000  0.50236000  0.77562000  1.0
  C  C98  1  0.60944000  0.50063000  0.73131000  1.0
  C  C99  1  0.53903000  0.50198000  0.70441000  1.0
  C  C100  1  0.54519000  0.50295000  0.65920000  1.0
  C  C101  1  0.39912000  0.50200000  0.65334000  1.0
  C  C102  1  0.39035000  0.50057000  0.69765000  1.0
  C  C103  1  0.46075000  0.50205000  0.72456000  1.0
  C  C104  1  0.52351000  0.50394000  0.79489000  1.0
  C  C105  1  0.47628000  0.50345000  0.63408000  1.0
  C  C106  1  0.50597000  0.50129000  0.05878000  1.0
  C  C107  1  0.43204000  0.50366000  0.08118000  1.0
  C  C108  1  0.42784000  0.50836000  0.12549000  1.0
  C  C109  1  0.50036000  0.51176000  0.14947000  1.0
  C  C110  1  0.57444000  0.51065000  0.12775000  1.0
  C  C111  1  0.57929000  0.50488000  0.08273000  1.0
  C  C112  1  0.49933000  0.51440000  0.19492000  1.0
  C  C113  1  0.50043000  0.51400000  0.23415000  1.0
  C  C114  1  0.49947000  0.51049000  0.27956000  1.0
  C  C115  1  0.42542000  0.50872000  0.30129000  1.0
  C  C116  1  0.42068000  0.50219000  0.34625000  1.0
  C  C117  1  0.49406000  0.49855000  0.37014000  1.0
  C  C118  1  0.56793000  0.50149000  0.34773000  1.0
  C  C119  1  0.57204000  0.50690000  0.30347000  1.0
  C  C120  1  0.75288000  0.53928000  0.90326000  1.0
  C  C121  1  0.83586000  0.54434000  0.90073000  1.0
  C  C122  1  0.88246000  0.49540000  0.92628000  1.0
  C  C123  1  0.84272000  0.44426000  0.95248000  1.0
  C  C124  1  0.75742000  0.44273000  0.95341000  1.0
  C  C125  1  0.96787000  0.49879000  0.92545000  1.0
  C  C126  1  0.04132000  0.50303000  0.92473000  1.0
  C  C127  1  0.12674000  0.50692000  0.92493000  1.0
  C  C128  1  0.16752000  0.55704000  0.89856000  1.0
  C  C129  1  0.25283000  0.56043000  0.89968000  1.0
  C  C130  1  0.25521000  0.46600000  0.95120000  1.0
  C  C131  1  0.17218000  0.46030000  0.95246000  1.0
  C  C132  1  0.51263000  0.73056000  0.92750000  1.0
  C  C133  1  0.43897000  0.76963000  0.92578000  1.0
  C  C134  1  0.43525000  0.84656000  0.92508000  1.0
  C  C135  1  0.50800000  0.88810000  0.92577000  1.0
  C  C136  1  0.58195000  0.85032000  0.92731000  1.0
  C  C137  1  0.58614000  0.77193000  0.92860000  1.0
  C  C138  1  0.50535000  0.96697000  0.92542000  1.0
  C  C139  1  0.50096000  0.03492000  0.92555000  1.0
  C  C140  1  0.49694000  0.11377000  0.92577000  1.0
  C  C141  1  0.42208000  0.15005000  0.92699000  1.0
  C  C142  1  0.41591000  0.22843000  0.92734000  1.0
  C  C143  1  0.48851000  0.27116000  0.92567000  1.0
  C  C144  1  0.56310000  0.23353000  0.92460000  1.0
  C  C145  1  0.56870000  0.15669000  0.92485000  1.0
  N  N146  1  0.28621000  0.48838000  0.49996000  1.0
  N  N147  1  0.70459000  0.51148000  0.50354000  1.0
  N  N148  1  0.71386000  0.49054000  0.92893000  1.0
  N  N149  1  0.29535000  0.51364000  0.92537000  1.0
  N  N150  1  0.28345000  0.39042000  0.45067000  1.0
  N  N151  1  0.70526000  0.60755000  0.55388000  1.0
  N  N152  1  0.34008000  0.73512000  0.49813000  1.0
  N  N153  1  0.65883000  0.25879000  0.49831000  1.0
  N  N154  1  0.65443000  0.50152000  0.06387000  1.0
  N  N155  1  0.34560000  0.49819000  0.36511000  1.0
  N  N156  1  0.71677000  0.39317000  0.97804000  1.0
  N  N157  1  0.29468000  0.60907000  0.87517000  1.0
  N  N158  1  0.65992000  0.73727000  0.92956000  1.0
  N  N159  1  0.34133000  0.26114000  0.93008000  1.0
  N  N160  1  0.31384000  0.50056000  0.71630000  1.0
  N  N161  1  0.68595000  0.50045000  0.71266000  1.0
  O  O162  1  0.55694000  0.61407000  0.50851000  1.0
  O  O163  1  0.42482000  0.60938000  0.49134000  1.0
  O  O164  1  0.41765000  0.51386000  0.56538000  1.0
  O  O165  1  0.55286000  0.49543000  0.56934000  1.0
  O  O166  1  0.44221000  0.38361000  0.50877000  1.0
  O  O167  1  0.57796000  0.38686000  0.50100000  1.0
  O  O168  1  0.56184000  0.50409000  0.43739000  1.0
  O  O169  1  0.42790000  0.48033000  0.43696000  1.0
  O  O170  1  0.44307000  0.61614000  0.92028000  1.0
  O  O171  1  0.57525000  0.61197000  0.93738000  1.0
  O  O172  1  0.58221000  0.51497000  0.86358000  1.0
  O  O173  1  0.44702000  0.49645000  0.85963000  1.0
  O  O174  1  0.55775000  0.38582000  0.92017000  1.0
  O  O175  1  0.42200000  0.38914000  0.92798000  1.0
  O  O176  1  0.43831000  0.50727000  0.99152000  1.0
  O  O177  1  0.57236000  0.48375000  0.99188000  1.0
