# generated using pymatgen
data_Ag2H5C5S(NO2)3
_symmetry_space_group_name_H-M   'P 1'
_cell_length_a   8.21204000
_cell_length_b   11.12580000
_cell_length_c   12.11430000
_cell_angle_alpha   117.32300000
_cell_angle_beta   90.00000000
_cell_angle_gamma   90.00000000
_symmetry_Int_Tables_number   1
_chemical_formula_structural   Ag2H5C5S(NO2)3
_chemical_formula_sum   'Ag8 H20 C20 S4 N12 O24'
_cell_volume   983.34368692
_cell_formula_units_Z   4
loop_
 _symmetry_equiv_pos_site_id
 _symmetry_equiv_pos_as_xyz
  1  'x, y, z'
loop_
 _atom_site_type_symbol
 _atom_site_label
 _atom_site_symmetry_multiplicity
 _atom_site_fract_x
 _atom_site_fract_y
 _atom_site_fract_z
 _atom_site_occupancy
  Ag  Ag0  1  0.12833000  0.30700000  0.25216000  1.0
  Ag  Ag1  1  0.37168000  0.80700000  0.75216000  1.0
  Ag  Ag2  1  0.87167000  0.69300000  0.74783000  1.0
  Ag  Ag3  1  0.62833000  0.19300000  0.24784000  1.0
  Ag  Ag4  1  0.15612000  0.06003000  0.01366000  1.0
  Ag  Ag5  1  0.34388000  0.56003000  0.51366000  1.0
  Ag  Ag6  1  0.84388000  0.93997000  0.98634000  1.0
  Ag  Ag7  1  0.65613000  0.43997000  0.48634000  1.0
  H  H8  1  0.22901000  0.07093000  0.28312000  1.0
  H  H9  1  0.27099000  0.57094000  0.78312000  1.0
  H  H10  1  0.77099000  0.92906000  0.71688000  1.0
  H  H11  1  0.72901000  0.42907000  0.21688000  1.0
  H  H12  1  0.09704000  0.78737000  0.40438000  1.0
  H  H13  1  0.40296000  0.28737000  0.90438000  1.0
  H  H14  1  0.90295000  0.21263000  0.59562000  1.0
  H  H15  1  0.59705000  0.71263000  0.09562000  1.0
  H  H16  1  0.72382000  0.96079000  0.29083000  1.0
  H  H17  1  0.77618000  0.46079000  0.79083000  1.0
  H  H18  1  0.27618000  0.03921000  0.70917000  1.0
  H  H19  1  0.22383000  0.53921000  0.20917000  1.0
  H  H20  1  0.81979000  0.81192000  0.38237000  1.0
  H  H21  1  0.68021000  0.31192000  0.88237000  1.0
  H  H22  1  0.18021000  0.18808000  0.61763000  1.0
  H  H23  1  0.31979000  0.68808000  0.11763000  1.0
  H  H24  1  0.30519000  0.91360000  0.36915000  1.0
  H  H25  1  0.19481000  0.41360000  0.86915000  1.0
  H  H26  1  0.69481000  0.08640000  0.63085000  1.0
  H  H27  1  0.80519000  0.58640000  0.13085000  1.0
  C  C28  1  0.13484000  0.01277000  0.30004000  1.0
  C  C29  1  0.36516000  0.51277000  0.80004000  1.0
  C  C30  1  0.86516000  0.98723000  0.69995000  1.0
  C  C31  1  0.63484000  0.48723000  0.19996000  1.0
  C  C32  1  0.85312000  0.95308000  0.30626000  1.0
  C  C33  1  0.64688000  0.45308000  0.80627000  1.0
  C  C34  1  0.14688000  0.04691000  0.69373000  1.0
  C  C35  1  0.35312000  0.54692000  0.19374000  1.0
  C  C36  1  0.90397000  0.86933000  0.35535000  1.0
  C  C37  1  0.59603000  0.36933000  0.85535000  1.0
  C  C38  1  0.09603000  0.13067000  0.64465000  1.0
  C  C39  1  0.40397000  0.63067000  0.14465000  1.0
  C  C40  1  0.97030000  0.02410000  0.27444000  1.0
  C  C41  1  0.52970000  0.52410000  0.77444000  1.0
  C  C42  1  0.02970000  0.97590000  0.72556000  1.0
  C  C43  1  0.47030000  0.47590000  0.22556000  1.0
  C  C44  1  0.17933000  0.92739000  0.34886000  1.0
  C  C45  1  0.32066000  0.42740000  0.84886000  1.0
  C  C46  1  0.82066000  0.07260000  0.65114000  1.0
  C  C47  1  0.67934000  0.57260000  0.15114000  1.0
  S  S48  1  0.91501000  0.12420000  0.20270000  1.0
  S  S49  1  0.58499000  0.62420000  0.70271000  1.0
  S  S50  1  0.08499000  0.87580000  0.79729000  1.0
  S  S51  1  0.41501000  0.37580000  0.29729000  1.0
  N  N52  1  0.06386000  0.85696000  0.37391000  1.0
  N  N53  1  0.43614000  0.35697000  0.87391000  1.0
  N  N54  1  0.93614000  0.14303000  0.62609000  1.0
  N  N55  1  0.56386000  0.64303000  0.12609000  1.0
  N  N56  1  0.02795000  0.32911000  0.00567000  1.0
  N  N57  1  0.47205000  0.82911000  0.50567000  1.0
  N  N58  1  0.97205000  0.67089000  0.99433000  1.0
  N  N59  1  0.52795000  0.17089000  0.49433000  1.0
  N  N60  1  0.92542000  0.58189000  0.42066000  1.0
  N  N61  1  0.57458000  0.08189000  0.92066000  1.0
  N  N62  1  0.07458000  0.41811000  0.57935000  1.0
  N  N63  1  0.42542000  0.91811000  0.07934000  1.0
  O  O64  1  0.15988000  0.25880000  0.97825000  1.0
  O  O65  1  0.34012000  0.75880000  0.47825000  1.0
  O  O66  1  0.84012000  0.74120000  0.02175000  1.0
  O  O67  1  0.65988000  0.24120000  0.52175000  1.0
  O  O68  1  0.95838000  0.35137000  0.92495000  1.0
  O  O69  1  0.54163000  0.85137000  0.42495000  1.0
  O  O70  1  0.04163000  0.64863000  0.07505000  1.0
  O  O71  1  0.45837000  0.14863000  0.57505000  1.0
  O  O72  1  0.97206000  0.37630000  0.11541000  1.0
  O  O73  1  0.52793000  0.87630000  0.61541000  1.0
  O  O74  1  0.02794000  0.62370000  0.88459000  1.0
  O  O75  1  0.47206000  0.12370000  0.38459000  1.0
  O  O76  1  0.89712000  0.45579000  0.38918000  1.0
  O  O77  1  0.60288000  0.95579000  0.88918000  1.0
  O  O78  1  0.10288000  0.54421000  0.61082000  1.0
  O  O79  1  0.39712000  0.04421000  0.11082000  1.0
  O  O80  1  0.82241000  0.66993000  0.48362000  1.0
  O  O81  1  0.67759000  0.16993000  0.98362000  1.0
  O  O82  1  0.17760000  0.33008000  0.51638000  1.0
  O  O83  1  0.32241000  0.83007000  0.01638000  1.0
  O  O84  1  0.05791000  0.61143000  0.38648000  1.0
  O  O85  1  0.44209000  0.11143000  0.88648000  1.0
  O  O86  1  0.94209000  0.38857000  0.61352000  1.0
  O  O87  1  0.55791000  0.88857000  0.11352000  1.0
