# generated using pymatgen
data_Zn4H6C12N6O7
_symmetry_space_group_name_H-M   'P 1'
_cell_length_a   14.34100000
_cell_length_b   14.34095665
_cell_length_c   14.34095665
_cell_angle_alpha   59.99990000
_cell_angle_beta   90.00008660
_cell_angle_gamma   119.99990000
_symmetry_Int_Tables_number   1
_chemical_formula_structural   Zn4H6C12N6O7
_chemical_formula_sum   'Zn8 H12 C24 N12 O14'
_cell_volume   2085.55194848
_cell_formula_units_Z   2
loop_
 _symmetry_equiv_pos_site_id
 _symmetry_equiv_pos_as_xyz
  1  'x, y, z'
loop_
 _atom_site_type_symbol
 _atom_site_label
 _atom_site_symmetry_multiplicity
 _atom_site_fract_x
 _atom_site_fract_y
 _atom_site_fract_z
 _atom_site_occupancy
  Zn  Zn0  1  0.41707000  0.61138000  0.19431000  1.0
  Zn  Zn1  1  0.19431000  0.38862000  0.19431000  1.0
  Zn  Zn2  1  0.19431000  0.61138000  0.19431000  1.0
  Zn  Zn3  1  0.19431000  0.38862000  0.41707000  1.0
  Zn  Zn4  1  0.80590000  0.61180000  0.80590000  1.0
  Zn  Zn5  1  0.58230000  0.38820000  0.80590000  1.0
  Zn  Zn6  1  0.80590000  0.61180000  0.58230000  1.0
  Zn  Zn7  1  0.80590000  0.38820000  0.80590000  1.0
  H  H8  1  0.62016000  0.64958000  0.03187000  1.0
  H  H9  1  0.31854000  0.35042000  0.02943000  1.0
  H  H10  1  0.02942000  0.64958000  0.31855000  1.0
  H  H11  1  0.03187000  0.35042000  0.62016000  1.0
  H  H12  1  0.62015000  0.65202000  0.31855000  1.0
  H  H13  1  0.31855000  0.34798000  0.62015000  1.0
  H  H14  1  0.02943000  0.34798000  0.03187000  1.0
  H  H15  1  0.03187000  0.65202000  0.02943000  1.0
  H  H16  1  0.62016000  0.93871000  0.02942000  1.0
  H  H17  1  0.31855000  0.93870000  0.03187000  1.0
  H  H18  1  0.02942000  0.06130000  0.62015000  1.0
  H  H19  1  0.03187000  0.06130000  0.31855000  1.0
  C  C20  1  0.49928000  0.50000000  0.00072000  1.0
  C  C21  1  0.00072000  0.50000000  0.49928000  1.0
  C  C22  1  0.49928000  0.50000000  0.49928000  1.0
  C  C23  1  0.00072000  0.50000000  0.00072000  1.0
  C  C24  1  0.49928000  0.99856000  0.00072000  1.0
  C  C25  1  0.00072000  0.00144000  0.49928000  1.0
  C  C26  1  0.53405000  0.57663000  0.04378000  1.0
  C  C27  1  0.37959000  0.42337000  0.04258000  1.0
  C  C28  1  0.04258000  0.57663000  0.37959000  1.0
  C  C29  1  0.04378000  0.42337000  0.53405000  1.0
  C  C30  1  0.53406000  0.57783000  0.37959000  1.0
  C  C31  1  0.37959000  0.42217000  0.53405000  1.0
  C  C32  1  0.04258000  0.42217000  0.04378000  1.0
  C  C33  1  0.04378000  0.57783000  0.04258000  1.0
  C  C34  1  0.53405000  0.91364000  0.04258000  1.0
  C  C35  1  0.37959000  0.91364000  0.04378000  1.0
  C  C36  1  0.04258000  0.08636000  0.53405000  1.0
  C  C37  1  0.04377000  0.08636000  0.37959000  1.0
  C  C38  1  0.57152000  0.50000000  0.92848000  1.0
  C  C39  1  0.92848000  0.50000000  0.57152000  1.0
  C  C40  1  0.57152000  0.50000000  0.57152000  1.0
  C  C41  1  0.92848000  0.50000000  0.92848000  1.0
  C  C42  1  0.57152000  0.14304000  0.92848000  1.0
  C  C43  1  0.92848000  0.85696000  0.57152000  1.0
  N  N44  1  0.44212000  0.54774000  0.10637000  1.0
  N  N45  1  0.34589000  0.45226000  0.10562000  1.0
  N  N46  1  0.10562000  0.54774000  0.34589000  1.0
  N  N47  1  0.10637000  0.45226000  0.44212000  1.0
  N  N48  1  0.44212000  0.54849000  0.34589000  1.0
  N  N49  1  0.34589000  0.45151000  0.44212000  1.0
  N  N50  1  0.10562000  0.45151000  0.10637000  1.0
  N  N51  1  0.10637000  0.54849000  0.10562000  1.0
  N  N52  1  0.44212000  0.78801000  0.10562000  1.0
  N  N53  1  0.34589000  0.78801000  0.10637000  1.0
  N  N54  1  0.10562000  0.21199000  0.44212000  1.0
  N  N55  1  0.10637000  0.21199000  0.34589000  1.0
  O  O56  1  0.25000000  0.50000000  0.25000000  1.0
  O  O57  1  0.75000000  0.50000000  0.75000000  1.0
  O  O58  1  0.67961000  0.57964000  0.90025000  1.0
  O  O59  1  0.52011000  0.42036000  0.90003000  1.0
  O  O60  1  0.90003000  0.57964000  0.52011000  1.0
  O  O61  1  0.90025000  0.42036000  0.67961000  1.0
  O  O62  1  0.67961000  0.57986000  0.52011000  1.0
  O  O63  1  0.52011000  0.42014000  0.67961000  1.0
  O  O64  1  0.90003000  0.42014000  0.90025000  1.0
  O  O65  1  0.90025000  0.57986000  0.90003000  1.0
  O  O66  1  0.67961000  0.19972000  0.90003000  1.0
  O  O67  1  0.52011000  0.19972000  0.90025000  1.0
  O  O68  1  0.90003000  0.80028000  0.67961000  1.0
  O  O69  1  0.90025000  0.80028000  0.52011000  1.0
