# generated using pymatgen
data_Zr3H10C31S6O29
_symmetry_space_group_name_H-M   'P 1'
_cell_length_a   16.35060000
_cell_length_b   16.34945601
_cell_length_c   16.43777525
_cell_angle_alpha   118.25026486
_cell_angle_beta   119.17120938
_cell_angle_gamma   91.95364975
_symmetry_Int_Tables_number   1
_chemical_formula_structural   Zr3H10C31S6O29
_chemical_formula_sum   'Zr6 H20 C62 S12 O58'
_cell_volume   3173.25028870
_cell_formula_units_Z   2
loop_
 _symmetry_equiv_pos_site_id
 _symmetry_equiv_pos_as_xyz
  1  'x, y, z'
loop_
 _atom_site_type_symbol
 _atom_site_label
 _atom_site_symmetry_multiplicity
 _atom_site_fract_x
 _atom_site_fract_y
 _atom_site_fract_z
 _atom_site_occupancy
  Zr  Zr0  1  0.38548000  0.59415000  0.48862000  1.0
  Zr  Zr1  1  0.60501000  0.39232000  0.50637000  1.0
  Zr  Zr2  1  0.60152000  0.60432000  0.71025000  1.0
  Zr  Zr3  1  0.39371000  0.38674000  0.28480000  1.0
  Zr  Zr4  1  0.38612000  0.38411000  0.49754000  1.0
  Zr  Zr5  1  0.60494000  0.60284000  0.49770000  1.0
  H  H6  1  0.40284000  0.57453000  0.65581000  1.0
  H  H7  1  0.41830000  0.24249000  0.33922000  1.0
  H  H8  1  0.75156000  0.58283000  0.67042000  1.0
  H  H9  1  0.41203000  0.57659000  0.32457000  1.0
  H  H10  1  0.61731000  0.88042000  0.96508000  1.0
  H  H11  1  0.36996000  0.87498000  0.69305000  1.0
  H  H12  1  0.41533000  0.14773000  0.03025000  1.0
  H  H13  1  0.68186000  0.17229000  0.30224000  1.0
  H  H14  1  0.78167000  0.63042000  0.46985000  1.0
  H  H15  1  0.98468000  0.23875000  0.40107000  1.0
  H  H16  1  0.33623000  0.07741000  0.59260000  1.0
  H  H17  1  0.66131000  0.80838000  0.52733000  1.0
  H  H18  1  0.84511000  0.92177000  0.08085000  1.0
  H  H19  1  0.02299000  0.13835000  0.89124000  1.0
  H  H20  1  0.74795000  0.62656000  0.10277000  1.0
  H  H21  1  0.34121000  0.25996000  0.91496000  1.0
  H  H22  1  0.78453000  0.34527000  0.64701000  1.0
  H  H23  1  0.19497000  0.63030000  0.34772000  1.0
  H  H24  1  0.69167000  0.87084000  0.13101000  1.0
  H  H25  1  0.23985000  0.05581000  0.86416000  1.0
  C  C26  1  0.21367000  0.47347000  0.47663000  1.0
  C  C27  1  0.49672000  0.23291000  0.51903000  1.0
  C  C28  1  0.76946000  0.49669000  0.49469000  1.0
  C  C29  1  0.50210000  0.77058000  0.50097000  1.0
  C  C30  1  0.48950000  0.76937000  0.74560000  1.0
  C  C31  1  0.21373000  0.48583000  0.22192000  1.0
  C  C32  1  0.52361000  0.23931000  0.24963000  1.0
  C  C33  1  0.76373000  0.48748000  0.77298000  1.0
  C  C34  1  0.49550000  0.50385000  0.77459000  1.0
  C  C35  1  0.76844000  0.76901000  0.76304000  1.0
  C  C36  1  0.50638000  0.50108000  0.23269000  1.0
  C  C37  1  0.22912000  0.21627000  0.22073000  1.0
  C  C38  1  0.90034000  0.54573000  0.46422000  1.0
  C  C39  1  0.07517000  0.41256000  0.48874000  1.0
  C  C40  1  0.85248000  0.49113000  0.48327000  1.0
  C  C41  1  0.12275000  0.47083000  0.47330000  1.0
  C  C42  1  0.99076000  0.43754000  0.48144000  1.0
  C  C43  1  0.97890000  0.51340000  0.46285000  1.0
  C  C44  1  0.42390000  0.08223000  0.50702000  1.0
  C  C45  1  0.58235000  0.93276000  0.53325000  1.0
  C  C46  1  0.49774000  0.14562000  0.52305000  1.0
  C  C47  1  0.50827000  0.86532000  0.51306000  1.0
  C  C48  1  0.55124000  0.01257000  0.53436000  1.0
  C  C49  1  0.45643000  0.00536000  0.51477000  1.0
  C  C50  1  0.91660000  0.89323000  0.96479000  1.0
  C  C51  1  0.09663000  0.07688000  0.01263000  1.0
  C  C52  1  0.86141000  0.85364000  0.85010000  1.0
  C  C53  1  0.14490000  0.12269000  0.12854000  1.0
  C  C54  1  0.00926000  0.99623000  0.95267000  1.0
  C  C55  1  0.99880000  0.97841000  0.02405000  1.0
  C  C56  1  0.56488000  0.57930000  0.98284000  1.0
  C  C57  1  0.42917000  0.44745000  0.03108000  1.0
  C  C58  1  0.49454000  0.51173000  0.86697000  1.0
  C  C59  1  0.50436000  0.50683000  0.14572000  1.0
  C  C60  1  0.45498000  0.47031000  0.97171000  1.0
  C  C61  1  0.54426000  0.55199000  0.04293000  1.0
  C  C62  1  0.56269000  0.91436000  0.93853000  1.0
  C  C63  1  0.42124000  0.90976000  0.78345000  1.0
  C  C64  1  0.41942000  0.99565000  0.85885000  1.0
  C  C65  1  0.48539000  0.04125000  0.97769000  1.0
  C  C66  1  0.47580000  0.11962000  0.05679000  1.0
  C  C67  1  0.62624000  0.13318000  0.21187000  1.0
  C  C68  1  0.63670000  0.05594000  0.13645000  1.0
  C  C69  1  0.56340000  0.00305000  0.01759000  1.0
  C  C70  1  0.49128667  0.86678000  0.82462000  1.0
  C  C71  1  0.54210000  0.16205000  0.17070000  1.0
  C  C72  1  0.89622000  0.40905000  0.84464000  1.0
  C  C73  1  0.06224000  0.54497000  0.14989000  1.0
  C  C74  1  0.84491000  0.47691000  0.85745000  1.0
  C  C75  1  0.11848000  0.48212000  0.13725000  1.0
  C  C76  1  0.98017000  0.51593000  0.04211000  1.0
  C  C77  1  0.97414000  0.43383000  0.95233000  1.0
  C  C78  1  0.88571000  0.62777000  0.44671000  1.0
  C  C79  1  0.11383000  0.34594000  0.52570000  1.0
  C  C80  1  0.31993000  0.08298000  0.46894000  1.0
  C  C81  1  0.68250000  0.93635000  0.55236000  1.0
  C  C82  1  0.90676000  0.83720000  0.01282000  1.0
  C  C83  1  0.13465000  0.09710000  0.95472000  1.0
  C  C84  1  0.64305000  0.67517000  0.04055000  1.0
  C  C85  1  0.32509000  0.38987000  0.98320000  1.0
  C  C86  1  0.88640000  0.32035000  0.74622000  1.0
  C  C87  1  0.06998000  0.63156000  0.24824000  1.0
  S  S88  1  0.90272000  0.40311000  0.49861000  1.0
  S  S89  1  0.06748000  0.55380000  0.45084000  1.0
  S  S90  1  0.60376000  0.11355000  0.54695000  1.0
  S  S91  1  0.40454000  0.89981000  0.49679000  1.0
  S  S92  1  0.91314000  0.91291000  0.81283000  1.0
  S  S93  1  0.09058000  0.06460000  0.16390000  1.0
  S  S94  1  0.40102000  0.42228000  0.83181000  1.0
  S  S95  1  0.60091000  0.59568000  0.18281000  1.0
  S  S96  1  0.89042000  0.56533000  0.99744000  1.0
  S  S97  1  0.06883000  0.38946000  0.99715000  1.0
  S  S98  1  0.74939000  0.02900000  0.19251000  1.0
  S  S99  1  0.33633000  0.05208000  0.80255000  1.0
  O  O100  1  0.24989000  0.54463000  0.47713000  1.0
  O  O101  1  0.56728000  0.26853000  0.51836000  1.0
  O  O102  1  0.73756000  0.43271000  0.50508000  1.0
  O  O103  1  0.42743000  0.72806000  0.48998000  1.0
  O  O104  1  0.55867000  0.73754000  0.78563000  1.0
  O  O105  1  0.25143000  0.42066000  0.19088000  1.0
  O  O106  1  0.45177000  0.26846000  0.20955000  1.0
  O  O107  1  0.72932000  0.55593000  0.80412000  1.0
  O  O108  1  0.42872000  0.43140000  0.67456000  1.0
  O  O109  1  0.73284000  0.73553000  0.65999000  1.0
  O  O110  1  0.57572000  0.56865000  0.33578000  1.0
  O  O111  1  0.25661000  0.24976000  0.32079000  1.0
  O  O112  1  0.72957000  0.73440000  0.79666000  1.0
  O  O113  1  0.43800000  0.42860000  0.19887000  1.0
  O  O114  1  0.26721000  0.25681000  0.19060000  1.0
  O  O115  1  0.56604000  0.57213000  0.80459000  1.0
  O  O116  1  0.41607000  0.72435000  0.64224000  1.0
  O  O117  1  0.73250000  0.42555000  0.66878000  1.0
  O  O118  1  0.58180000  0.26919000  0.35298000  1.0
  O  O119  1  0.25584000  0.55884000  0.32608000  1.0
  O  O120  1  0.57143000  0.73535000  0.50029000  1.0
  O  O121  1  0.25086000  0.40676000  0.47983000  1.0
  O  O122  1  0.42663000  0.26668000  0.51547000  1.0
  O  O123  1  0.73490000  0.56669000  0.49537000  1.0
  O  O124  1  0.43676000  0.55322000  0.37352000  1.0
  O  O125  1  0.67923000  0.55872000  0.62157000  1.0
  O  O126  1  0.43939000  0.31414000  0.38342000  1.0
  O  O127  1  0.43027000  0.55141000  0.61160000  1.0
  O  O128  1  0.53901000  0.45329000  0.58966000  1.0
  O  O129  1  0.36322000  0.44487000  0.40537000  1.0
  O  O130  1  0.54511000  0.45294000  0.41341000  1.0
  O  O131  1  0.53909000  0.62722000  0.58168000  1.0
  O  O132  1  0.81641000  0.66535000  0.45290000  1.0
  O  O133  1  0.93875000  0.65805000  0.42681000  1.0
  O  O134  1  0.04967000  0.25331000  0.46587000  1.0
  O  O135  1  0.19680000  0.37396000  0.60886000  1.0
  O  O136  1  0.28616000  0.07719000  0.52741000  1.0
  O  O137  1  0.26521000  0.08313000  0.38590000  1.0
  O  O138  1  0.71370000  0.86065000  0.54564000  1.0
  O  O139  1  0.73334000  0.01000000  0.57404000  1.0
  O  O140  1  0.87191000  0.86747000  0.07666000  1.0
  O  O141  1  0.93637000  0.76730000  0.99601000  1.0
  O  O142  1  0.07910000  0.12497000  0.88689000  1.0
  O  O143  1  0.20951000  0.08112000  0.96018000  1.0
  O  O144  1  0.73882000  0.68714000  0.10749000  1.0
  O  O145  1  0.62151000  0.74475000  0.03563000  1.0
  O  O146  1  0.29133000  0.29118000  0.91948000  1.0
  O  O147  1  0.27217000  0.43653000  0.00008000  1.0
  O  O148  1  0.82110000  0.29688000  0.64232000  1.0
  O  O149  1  0.93982000  0.27157000  0.76441000  1.0
  O  O150  1  0.15001000  0.67003000  0.35232000  1.0
  O  O151  1  0.00187000  0.66530000  0.22983000  1.0
  O  O152  1  0.72164000  0.94084000  0.19986000  1.0
  O  O153  1  0.81990000  0.11250000  0.30609000  1.0
  O  O154  1  0.77599000  0.99849000  0.11256000  1.0
  O  O155  1  0.24084000  0.01697000  0.79524000  1.0
  O  O156  1  0.30625000  0.00881000  0.68894000  1.0
  O  O157  1  0.38565000  0.15864000  0.88232000  1.0
