# generated using pymatgen
data_AlH6C10N2O7
_symmetry_space_group_name_H-M   'P 1'
_cell_length_a   6.82435000
_cell_length_b   11.02577108
_cell_length_c   11.10945124
_cell_angle_alpha   78.99929682
_cell_angle_beta   73.20036165
_cell_angle_gamma   73.08817815
_symmetry_Int_Tables_number   1
_chemical_formula_structural   AlH6C10N2O7
_chemical_formula_sum   'Al2 H12 C20 N4 O14'
_cell_volume   760.41586068
_cell_formula_units_Z   2
loop_
 _symmetry_equiv_pos_site_id
 _symmetry_equiv_pos_as_xyz
  1  'x, y, z'
loop_
 _atom_site_type_symbol
 _atom_site_label
 _atom_site_symmetry_multiplicity
 _atom_site_fract_x
 _atom_site_fract_y
 _atom_site_fract_z
 _atom_site_occupancy
  Al  Al0  1  0.49918000  0.50680000  0.49130000  1.0
  Al  Al1  1  0.00133000  0.50190000  0.49199000  1.0
  H  H2  1  0.25546000  0.62366000  0.35854000  1.0
  H  H3  1  0.78311000  0.34972000  0.56630000  1.0
  H  H4  1  0.34905000  0.54712000  0.87540000  1.0
  H  H5  1  0.65022000  0.46684000  0.10656000  1.0
  H  H6  1  0.83263000  0.75560000  0.67334000  1.0
  H  H7  1  0.55406000  0.22267000  0.69039000  1.0
  H  H8  1  0.22922000  0.12555000  0.40043000  1.0
  H  H9  1  0.35645000  0.88911000  0.40065000  1.0
  H  H10  1  0.99602000  0.75280000  0.83782000  1.0
  H  H11  1  0.91809000  0.87841000  0.92129000  1.0
  H  H12  1  0.76155000  0.20068000  0.84056000  1.0
  H  H13  1  0.95546000  0.06637000  0.85368000  1.0
  C  C14  1  0.64630000  0.72869000  0.50221000  1.0
  C  C15  1  0.85230000  0.50197000  0.26614000  1.0
  C  C16  1  0.34612000  0.27546000  0.50739000  1.0
  C  C17  1  0.14844000  0.50984000  0.71633000  1.0
  C  C18  1  0.93123000  0.50081000  0.12508000  1.0
  C  C19  1  0.06843000  0.51259000  0.85705000  1.0
  C  C20  1  0.12849000  0.52141000  0.05795000  1.0
  C  C21  1  0.87068000  0.49251000  0.92422000  1.0
  C  C22  1  0.19702000  0.52863000  0.92710000  1.0
  C  C23  1  0.80272000  0.48492000  0.05505000  1.0
  C  C24  1  0.56611000  0.86695000  0.51882000  1.0
  C  C25  1  0.63832000  0.92715000  0.59552000  1.0
  C  C26  1  0.41381000  0.93795000  0.45466000  1.0
  C  C27  1  0.77452000  0.85819000  0.67399000  1.0
  C  C28  1  0.82814000  0.91591000  0.75554000  1.0
  C  C29  1  0.41450000  0.13365000  0.52351000  1.0
  C  C30  1  0.34075000  0.06998000  0.45569000  1.0
  C  C31  1  0.55635000  0.06355000  0.60054000  1.0
  C  C32  1  0.61567000  0.12066000  0.68423000  1.0
  C  C33  1  0.74980000  0.05101000  0.75962000  1.0
  N  N34  1  0.28115000  0.52576000  0.12608000  1.0
  N  N35  1  0.71452000  0.49087000  0.85742000  1.0
  N  N36  1  0.96041000  0.84918000  0.83377000  1.0
  N  N37  1  0.80469000  0.10398000  0.84492000  1.0
  O  O38  1  0.52203000  0.67576000  0.47575000  1.0
  O  O39  1  0.98092000  0.51955000  0.32020000  1.0
  O  O40  1  0.16419000  0.32814000  0.48511000  1.0
  O  O41  1  0.33091000  0.52711000  0.66521000  1.0
  O  O42  1  0.47529000  0.33612000  0.51482000  1.0
  O  O43  1  0.02415000  0.48614000  0.66316000  1.0
  O  O44  1  0.83446000  0.67147000  0.51061000  1.0
  O  O45  1  0.66679000  0.48895000  0.31646000  1.0
  O  O46  1  0.24967000  0.56189000  0.43367000  1.0
  O  O47  1  0.75211000  0.44212000  0.54755000  1.0
  O  O48  1  0.38177000  0.42040000  0.16559000  1.0
  O  O49  1  0.30706000  0.63080000  0.13200000  1.0
  O  O50  1  0.67384000  0.38826000  0.85902000  1.0
  O  O51  1  0.62136000  0.59659000  0.81390000  1.0
