# generated using pymatgen
data_CdH20C18N4O7
_symmetry_space_group_name_H-M   'P 1'
_cell_length_a   11.95680000
_cell_length_b   13.16345103
_cell_length_c   13.16360000
_cell_angle_alpha   60.00087695
_cell_angle_beta   89.99680000
_cell_angle_gamma   89.99639996
_symmetry_Int_Tables_number   1
_chemical_formula_structural   CdH20C18N4O7
_chemical_formula_sum   'Cd3 H60 C54 N12 O21'
_cell_volume   1794.29510538
_cell_formula_units_Z   3
loop_
 _symmetry_equiv_pos_site_id
 _symmetry_equiv_pos_as_xyz
  1  'x, y, z'
loop_
 _atom_site_type_symbol
 _atom_site_label
 _atom_site_symmetry_multiplicity
 _atom_site_fract_x
 _atom_site_fract_y
 _atom_site_fract_z
 _atom_site_occupancy
  Cd  Cd0  1  0.66666667  0.00001000  0.83023000  1.0
  Cd  Cd1  1  0.33333333  0.16978000  0.99999000  1.0
  Cd  Cd2  1  0.00001000  0.83022000  0.16978000  1.0
  H  H3  1  0.61209000  0.76167000  0.24434000  1.0
  H  H4  1  0.27875000  0.99398000  0.76166000  1.0
  H  H5  1  0.94542000  0.24433000  0.99401000  1.0
  H  H6  1  0.38792000  0.75565000  0.23833000  1.0
  H  H7  1  0.72125000  0.23834000  0.00602000  1.0
  H  H8  1  0.05458000  0.00598000  0.75568000  1.0
  H  H9  1  0.61681000  0.92645000  0.28213000  1.0
  H  H10  1  0.28349000  0.79143000  0.92643000  1.0
  H  H11  1  0.95015000  0.28213000  0.79144000  1.0
  H  H12  1  0.38319000  0.71786000  0.07356000  1.0
  H  H13  1  0.71652000  0.07357000  0.20857000  1.0
  H  H14  1  0.04986000  0.20855000  0.71788000  1.0
  H  H15  1  0.53289000  0.81201000  0.39187000  1.0
  H  H16  1  0.19959000  0.79612000  0.81200000  1.0
  H  H17  1  0.86623000  0.39187000  0.79614000  1.0
  H  H18  1  0.46712000  0.60813000  0.18799000  1.0
  H  H19  1  0.80042000  0.18800000  0.20388000  1.0
  H  H20  1  0.13378000  0.20385000  0.60814000  1.0
  H  H21  1  0.67211000  0.83633000  0.42559000  1.0
  H  H22  1  0.33881000  0.73808000  0.83633000  1.0
  H  H23  1  0.00544000  0.42559000  0.73809000  1.0
  H  H24  1  0.32789000  0.57441000  0.16367000  1.0
  H  H25  1  0.66119000  0.16368000  0.26191000  1.0
  H  H26  1  0.99456000  0.26190000  0.57442000  1.0
  H  H27  1  0.51314000  0.35793000  0.43068000  1.0
  H  H28  1  0.17981000  0.21139000  0.35793000  1.0
  H  H29  1  0.84646000  0.43071000  0.21139000  1.0
  H  H30  1  0.48685000  0.56932000  0.64207000  1.0
  H  H31  1  0.82018000  0.64207000  0.78861000  1.0
  H  H32  1  0.15355000  0.78861000  0.56929000  1.0
  H  H33  1  0.50726000  0.15957000  0.61045000  1.0
  H  H34  1  0.17392000  0.23000000  0.15956000  1.0
  H  H35  1  0.84059000  0.61047000  0.23000000  1.0
  H  H36  1  0.49274000  0.38956000  0.84043000  1.0
  H  H37  1  0.82607000  0.84044000  0.77000000  1.0
  H  H38  1  0.15942000  0.77001000  0.38952000  1.0
  H  H39  1  0.75041000  0.25128000  0.77443000  1.0
  H  H40  1  0.41707000  0.97430000  0.25125000  1.0
  H  H41  1  0.08374000  0.77444000  0.97428000  1.0
  H  H42  1  0.24959000  0.22556000  0.74873000  1.0
  H  H43  1  0.58293000  0.74875000  0.02570000  1.0
  H  H44  1  0.91626000  0.02572000  0.22556000  1.0
  H  H45  1  0.76375000  0.45485000  0.60392000  1.0
  H  H46  1  0.43042000  0.94121000  0.45484000  1.0
  H  H47  1  0.09707000  0.60392000  0.94123000  1.0
  H  H48  1  0.23625000  0.39607000  0.54516000  1.0
  H  H49  1  0.56957000  0.54517000  0.05878000  1.0
  H  H50  1  0.90293000  0.05877000  0.39608000  1.0
  H  H51  1  0.66096000  0.61546000  0.49701000  1.0
  H  H52  1  0.32763000  0.88751000  0.61546000  1.0
  H  H53  1  0.99429000  0.49701000  0.88754000  1.0
  H  H54  1  0.33904000  0.50298000  0.38454000  1.0
  H  H55  1  0.67237000  0.38454000  0.11249000  1.0
  H  H56  1  0.00571000  0.11246000  0.50300000  1.0
  H  H57  1  0.61572000  0.04698000  0.02308000  1.0
  H  H58  1  0.28241000  0.92993000  0.04701000  1.0
  H  H59  1  0.94906000  0.02307000  0.92994000  1.0
  H  H60  1  0.38429000  0.97693000  0.95301000  1.0
  H  H61  1  0.71760000  0.95297000  0.07008000  1.0
  H  H62  1  0.05094000  0.07006000  0.97694000  1.0
  C  C63  1  0.78420000  0.77784000  0.27713000  1.0
  C  C64  1  0.45086000  0.94506000  0.77782000  1.0
  C  C65  1  0.11752000  0.27710000  0.94505000  1.0
  C  C66  1  0.21581000  0.72288000  0.22216000  1.0
  C  C67  1  0.54914000  0.22217000  0.05494000  1.0
  C  C68  1  0.88248000  0.05494000  0.72291000  1.0
  C  C69  1  0.66155000  0.75236000  0.31907000  1.0
  C  C70  1  0.32823000  0.92857000  0.75235000  1.0
  C  C71  1  0.99489000  0.31906000  0.92859000  1.0
  C  C72  1  0.33845000  0.68093000  0.24764000  1.0
  C  C73  1  0.67177000  0.24765000  0.07143000  1.0
  C  C74  1  0.00512000  0.07140000  0.68095000  1.0
  C  C75  1  0.61823000  0.83718000  0.35739000  1.0
  C  C76  1  0.28493000  0.80544000  0.83717000  1.0
  C  C77  1  0.95157000  0.35738000  0.80545000  1.0
  C  C78  1  0.38177000  0.64261000  0.16282000  1.0
  C  C79  1  0.71508000  0.16283000  0.19456000  1.0
  C  C80  1  0.04843000  0.19454000  0.64263000  1.0
  C  C81  1  0.64162000  0.54083000  0.39469000  1.0
  C  C82  1  0.30831000  0.06448000  0.54081000  1.0
  C  C83  1  0.97496000  0.39470000  0.06449000  1.0
  C  C84  1  0.35837000  0.60530000  0.45917000  1.0
  C  C85  1  0.69168000  0.45918000  0.93553000  1.0
  C  C86  1  0.02503000  0.93551000  0.60530000  1.0
  C  C87  1  0.63805000  0.42253000  0.50338000  1.0
  C  C88  1  0.30472000  0.07408000  0.42253000  1.0
  C  C89  1  0.97136000  0.50338000  0.07409000  1.0
  C  C90  1  0.36195000  0.49662000  0.57747000  1.0
  C  C91  1  0.69528000  0.57747000  0.92592000  1.0
  C  C92  1  0.02864000  0.92591000  0.49661000  1.0
  C  C93  1  0.56590000  0.33779000  0.50598000  1.0
  C  C94  1  0.23257000  0.15623000  0.33779000  1.0
  C  C95  1  0.89921000  0.50600000  0.15623000  1.0
  C  C96  1  0.43409000  0.49403000  0.66220000  1.0
  C  C97  1  0.76742000  0.66221000  0.84376000  1.0
  C  C98  1  0.10080000  0.84377000  0.49400000  1.0
  C  C99  1  0.56281000  0.22735000  0.60551000  1.0
  C  C100  1  0.22948000  0.16716000  0.22735000  1.0
  C  C101  1  0.89615000  0.60553000  0.16714000  1.0
  C  C102  1  0.43719000  0.39449000  0.77265000  1.0
  C  C103  1  0.77052000  0.77265000  0.83284000  1.0
  C  C104  1  0.10385000  0.83286000  0.39447000  1.0
  C  C105  1  0.69800000  0.27931000  0.69724000  1.0
  C  C106  1  0.36466000  0.02346000  0.27929000  1.0
  C  C107  1  0.03134000  0.69724000  0.02345000  1.0
  C  C108  1  0.30200000  0.30276000  0.72069000  1.0
  C  C109  1  0.63533000  0.72071000  0.97654000  1.0
  C  C110  1  0.96867000  0.97655000  0.30276000  1.0
  C  C111  1  0.70487000  0.39267000  0.60170000  1.0
  C  C112  1  0.37153000  0.00561000  0.39267000  1.0
  C  C113  1  0.03819000  0.60170000  0.00562000  1.0
  C  C114  1  0.29513000  0.39830000  0.60732000  1.0
  C  C115  1  0.62846000  0.60733000  0.99439000  1.0
  C  C116  1  0.96181000  0.99438000  0.39830000  1.0
  N  N117  1  0.64834000  0.63247000  0.41370000  1.0
  N  N118  1  0.31501000  0.95383000  0.63246000  1.0
  N  N119  1  0.98166000  0.41370000  0.95384000  1.0
  N  N120  1  0.35166000  0.58630000  0.36752000  1.0
  N  N121  1  0.68499000  0.36754000  0.04617000  1.0
  N  N122  1  0.01834000  0.04615000  0.58631000  1.0
  N  N123  1  0.62884000  0.19796000  0.69906000  1.0
  N  N124  1  0.29551000  0.10299000  0.19795000  1.0
  N  N125  1  0.96219000  0.69907000  0.10298000  1.0
  N  N126  1  0.37116000  0.30094000  0.80204000  1.0
  N  N127  1  0.70448000  0.80205000  0.89701000  1.0
  N  N128  1  0.03782000  0.89703000  0.30093000  1.0
  O  O129  1  0.66663000  0.99994000  0.00241000  1.0
  O  O130  1  0.33333333  0.99760000  0.00005000  1.0
  O  O131  1  0.00000000  0.00238000  0.99763000  1.0
  O  O132  1  0.63522000  0.55144000  0.29544000  1.0
  O  O133  1  0.30188000  0.15312000  0.55143000  1.0
  O  O134  1  0.96853000  0.29545000  0.15312000  1.0
  O  O135  1  0.36478000  0.70456000  0.44855000  1.0
  O  O136  1  0.69812000  0.44857000  0.84688000  1.0
  O  O137  1  0.03147000  0.84687000  0.70455000  1.0
  O  O138  1  0.85963000  0.70609000  0.33656000  1.0
  O  O139  1  0.52629000  0.95739000  0.70607000  1.0
  O  O140  1  0.19296000  0.33652000  0.95737000  1.0
  O  O141  1  0.14038000  0.66346000  0.29390000  1.0
  O  O142  1  0.47371000  0.29392000  0.04262000  1.0
  O  O143  1  0.80705000  0.04263000  0.66349000  1.0
  O  O144  1  0.80283000  0.87345000  0.18048000  1.0
  O  O145  1  0.46949000  0.94608000  0.87345000  1.0
  O  O146  1  0.13617000  0.18047000  0.94606000  1.0
  O  O147  1  0.19718000  0.81952000  0.12653000  1.0
  O  O148  1  0.53051000  0.12655000  0.05392000  1.0
  O  O149  1  0.86384000  0.05394000  0.81954000  1.0
