# generated using pymatgen
data_Zn4H16C37I4(NO4)4
_symmetry_space_group_name_H-M   'P 1'
_cell_length_a   13.13640000
_cell_length_b   19.16090000
_cell_length_c   19.29990000
_cell_angle_alpha   85.41530000
_cell_angle_beta   84.56630000
_cell_angle_gamma   85.19670000
_symmetry_Int_Tables_number   1
_chemical_formula_structural   Zn4H16C37I4(NO4)4
_chemical_formula_sum   'Zn4 H16 C37 I4 N4 O16'
_cell_volume   4806.36177803
_cell_formula_units_Z   1
loop_
 _symmetry_equiv_pos_site_id
 _symmetry_equiv_pos_as_xyz
  1  'x, y, z'
loop_
 _atom_site_type_symbol
 _atom_site_label
 _atom_site_symmetry_multiplicity
 _atom_site_fract_x
 _atom_site_fract_y
 _atom_site_fract_z
 _atom_site_occupancy
  Zn  Zn0  1  0.41220000  0.56502000  0.44287000  1.0
  Zn  Zn1  1  0.41495000  0.44498000  0.56930000  1.0
  Zn  Zn2  1  0.59156000  0.54789000  0.54872000  1.0
  Zn  Zn3  1  0.58319000  0.43691000  0.43455000  1.0
  H  H4  1  0.90368000  0.53722000  0.54600000  1.0
  H  H5  1  0.59540000  0.22416000  0.42257000  1.0
  H  H6  1  0.09277000  0.49830000  0.44198000  1.0
  H  H7  1  0.92484000  0.46028000  0.40928000  1.0
  H  H8  1  0.36572000  0.46778000  0.78141000  1.0
  H  H9  1  0.35580000  0.78293000  0.47214000  1.0
  H  H10  1  0.36649000  0.60014000  0.10020000  1.0
  H  H11  1  0.36371000  0.09967000  0.60138000  1.0
  H  H12  1  0.37308000  0.59712000  0.23087000  1.0
  H  H13  1  0.36596000  0.23168000  0.59667000  1.0
  H  H14  1  0.13752000  0.55979000  0.64552000  1.0
  H  H15  1  0.71653000  0.46152000  0.69784000  1.0
  H  H16  1  0.59200000  0.42447000  0.09075000  1.0
  H  H17  1  0.70638000  0.69782000  0.45359000  1.0
  H  H18  1  0.59189000  0.09279000  0.42652000  1.0
  H  H19  1  0.59757000  0.42076000  0.22109000  1.0
  C  C20  1  0.52056000  0.48430000  0.68685000  1.0
  C  C21  1  0.54313000  0.12389000  0.46328000  1.0
  C  C22  1  0.54423000  0.46142000  0.12223000  1.0
  C  C23  1  0.47829000  0.51246000  0.08905000  1.0
  C  C24  1  0.47728000  0.08964000  0.51433000  1.0
  C  C25  1  0.41622000  0.56124000  0.12787000  1.0
  C  C26  1  0.41337000  0.12813000  0.56244000  1.0
  C  C27  1  0.50778000  0.68573000  0.48864000  1.0
  C  C28  1  0.42003000  0.55948000  0.19974000  1.0
  C  C29  1  0.41483000  0.20080000  0.55978000  1.0
  C  C30  1  0.43253000  0.47627000  0.87820000  1.0
  C  C31  1  0.42799000  0.87928000  0.47827000  1.0
  C  C32  1  0.43549000  0.47341000  0.80606000  1.0
  C  C33  1  0.42707000  0.80678000  0.47645000  1.0
  C  C34  1  0.52366000  0.48274000  0.90930000  1.0
  C  C35  1  0.52097000  0.90911000  0.48417000  1.0
  C  C36  1  0.52734000  0.47962000  0.76416000  1.0
  C  C37  1  0.51704000  0.76335000  0.48205000  1.0
  C  C38  1  0.62046000  0.48646000  0.79380000  1.0
  C  C39  1  0.61218000  0.79179000  0.48694000  1.0
  C  C40  1  0.49000000  0.50635000  0.31028000  1.0
  C  C41  1  0.48505000  0.31297000  0.50676000  1.0
  C  C42  1  0.61646000  0.48729000  0.86662000  1.0
  C  C43  1  0.54729000  0.45966000  0.19395000  1.0
  C  C44  1  0.61207000  0.86488000  0.48780000  1.0
  C  C45  1  0.77649000  0.48454000  0.46872000  1.0
  C  C46  1  0.22682000  0.52330000  0.52623000  1.0
  C  C47  1  0.11308000  0.53234000  0.54054000  1.0
  C  C48  1  0.05354000  0.51520000  0.49115000  1.0
  C  C49  1  0.54482000  0.19624000  0.46122000  1.0
  C  C50  1  0.88919000  0.48534000  0.45535000  1.0
  C  C51  1  0.94384000  0.51442000  0.50011000  1.0
  C  C52  1  0.48550000  0.50864000  0.23310000  1.0
  C  C53  1  0.48089000  0.23514000  0.50934000  1.0
  C  C54  1  0.07529000  0.55538000  0.61106000  1.0
  C  C55  1  0.71889000  0.48549000  0.74819000  1.0
  C  C56  1  0.70884000  0.74453000  0.48390000  1.0
  I  I57  1  0.74486000  0.49776000  0.92170000  1.0
  I  I58  1  0.74443000  0.91745000  0.49684000  1.0
  I  I59  1  0.28963000  0.46754000  0.93606000  1.0
  I  I60  1  0.28796000  0.93951000  0.46850000  1.0
  N  N61  1  0.47116000  0.52037000  0.01602000  1.0
  N  N62  1  0.47057000  0.01602000  0.52216000  1.0
  N  N63  1  0.53060000  0.47766000  0.98196000  1.0
  N  N64  1  0.53060000  0.98201000  0.47973000  1.0
  O  O65  1  0.49985000  0.49877000  0.49838000  1.0
  O  O66  1  0.41943000  0.34660000  0.54755000  1.0
  O  O67  1  0.57071000  0.64953000  0.52632000  1.0
  O  O68  1  0.57537000  0.52817000  0.65039000  1.0
  O  O69  1  0.55428000  0.33949000  0.46420000  1.0
  O  O70  1  0.54561000  0.45590000  0.33812000  1.0
  O  O71  1  0.73368000  0.51925000  0.51879000  1.0
  O  O72  1  0.27454000  0.49134000  0.57569000  1.0
  O  O73  1  0.26652000  0.54761000  0.46733000  1.0
  O  O74  1  0.73123000  0.44889000  0.42910000  1.0
  O  O75  1  0.98547000  0.57028000  0.63101000  1.0
  O  O76  1  0.79845000  0.50638000  0.76378000  1.0
  O  O77  1  0.45810000  0.44589000  0.66434000  1.0
  O  O78  1  0.78725000  0.75569000  0.50908000  1.0
  O  O79  1  0.43685000  0.66271000  0.45805000  1.0
  O  O80  1  0.43771000  0.55514000  0.34238000  1.0
