# generated using pymatgen
data_CoH20C22S2(N3O)2
_symmetry_space_group_name_H-M   'P 1'
_cell_length_a   7.19281000
_cell_length_b   8.88671000
_cell_length_c   10.00410000
_cell_angle_alpha   109.53900000
_cell_angle_beta   103.29800000
_cell_angle_gamma   97.59020000
_symmetry_Int_Tables_number   1
_chemical_formula_structural   CoH20C22S2(N3O)2
_chemical_formula_sum   'Co1 H20 C22 S2 N6 O2'
_cell_volume   571.05001310
_cell_formula_units_Z   1
loop_
 _symmetry_equiv_pos_site_id
 _symmetry_equiv_pos_as_xyz
  1  'x, y, z'
loop_
 _atom_site_type_symbol
 _atom_site_label
 _atom_site_symmetry_multiplicity
 _atom_site_fract_x
 _atom_site_fract_y
 _atom_site_fract_z
 _atom_site_occupancy
  Co  Co0  1  0.50000000  0.50000000  0.50000000  1.0
  H  H1  1  0.20901000  0.65001000  0.40429000  1.0
  H  H2  1  0.79100000  0.34999000  0.59571000  1.0
  H  H3  1  0.39657000  0.72916000  0.37594000  1.0
  H  H4  1  0.60343000  0.27084000  0.62406000  1.0
  H  H5  1  0.24818000  0.18362000  0.44268000  1.0
  H  H6  1  0.75183000  0.81638000  0.55732000  1.0
  H  H7  1  0.02445000  0.95453000  0.22569000  1.0
  H  H8  1  0.97554000  0.04548000  0.77431000  1.0
  H  H9  1  0.14987000  0.22999000  0.95833000  1.0
  H  H10  1  0.85014000  0.77002000  0.04167000  1.0
  H  H11  1  0.36649000  0.44603000  0.18754000  1.0
  H  H12  1  0.63353000  0.55398000  0.81246000  1.0
  H  H13  1  0.63996000  0.01783000  0.41840000  1.0
  H  H14  1  0.36004000  0.98217000  0.58160000  1.0
  H  H15  1  0.68116000  0.16079000  0.25358000  1.0
  H  H16  1  0.31883000  0.83921000  0.74641000  1.0
  H  H17  1  0.28826000  0.73270000  0.88954000  1.0
  H  H18  1  0.71172000  0.26730000  0.11046000  1.0
  H  H19  1  0.25858000  0.61065000  0.07076000  1.0
  H  H20  1  0.74141000  0.38935000  0.92924000  1.0
  C  C21  1  0.22104000  0.18875000  0.33305000  1.0
  C  C22  1  0.77897000  0.81126000  0.66694000  1.0
  C  C23  1  0.09467000  0.06062000  0.20927000  1.0
  C  C24  1  0.90533000  0.93939000  0.79073000  1.0
  C  C25  1  0.06365000  0.06784000  0.06762000  1.0
  C  C26  1  0.93635000  0.93216000  0.93238000  1.0
  C  C27  1  0.16319000  0.21173000  0.06223000  1.0
  C  C28  1  0.83680000  0.78828000  0.93777000  1.0
  C  C29  1  0.28608000  0.33549000  0.19068000  1.0
  C  C30  1  0.71394000  0.66451000  0.80933000  1.0
  C  C31  1  0.77478000  0.56610000  0.32565000  1.0
  C  C32  1  0.22523000  0.43391000  0.67434000  1.0
  C  C33  1  0.56608000  0.95635000  0.29971000  1.0
  C  C34  1  0.43391000  0.04364000  0.70029000  1.0
  C  C35  1  0.58975000  0.03697000  0.20500000  1.0
  C  C36  1  0.41024000  0.96302000  0.79500000  1.0
  C  C37  1  0.49075000  0.95979000  0.05277000  1.0
  C  C38  1  0.50925000  0.04021000  0.94723000  1.0
  C  C39  1  0.37104000  0.80231000  0.00516000  1.0
  C  C40  1  0.62895000  0.19768000  0.99483000  1.0
  C  C41  1  0.35448000  0.73190000  0.10780000  1.0
  C  C42  1  0.64551000  0.26809000  0.89220000  1.0
  S  S43  1  0.91813000  0.61834000  0.23678000  1.0
  S  S44  1  0.08187000  0.38167000  0.76322000  1.0
  N  N45  1  0.66876000  0.52737000  0.38912000  1.0
  N  N46  1  0.33123000  0.47263000  0.61089000  1.0
  N  N47  1  0.31772000  0.32567000  0.32564000  1.0
  N  N48  1  0.68229000  0.67433000  0.67435000  1.0
  N  N49  1  0.45046000  0.80633000  0.25326000  1.0
  N  N50  1  0.54953000  0.19367000  0.74674000  1.0
  O  O51  1  0.35197000  0.69016000  0.45047000  1.0
  O  O52  1  0.64804000  0.30984000  0.54953000  1.0
