# generated using pymatgen
data_ZnH15C16NClO5
_symmetry_space_group_name_H-M   'P 1'
_cell_length_a   5.66104000
_cell_length_b   10.32440000
_cell_length_c   14.17330000
_cell_angle_alpha   96.97450000
_cell_angle_beta   99.76180000
_cell_angle_gamma   101.78200000
_symmetry_Int_Tables_number   1
_chemical_formula_structural   ZnH15C16NClO5
_chemical_formula_sum   'Zn2 H30 C32 N2 Cl2 O10'
_cell_volume   788.66676571
_cell_formula_units_Z   2
loop_
 _symmetry_equiv_pos_site_id
 _symmetry_equiv_pos_as_xyz
  1  'x, y, z'
loop_
 _atom_site_type_symbol
 _atom_site_label
 _atom_site_symmetry_multiplicity
 _atom_site_fract_x
 _atom_site_fract_y
 _atom_site_fract_z
 _atom_site_occupancy
  Zn  Zn0  1  0.18496000  0.65925000  0.34969000  1.0
  Zn  Zn1  1  0.81503000  0.34076000  0.65031000  1.0
  H  H2  1  0.71968000  0.73413000  0.26259000  1.0
  H  H3  1  0.28029000  0.26588000  0.73741000  1.0
  H  H4  1  0.41726000  0.67345000  0.10840000  1.0
  H  H5  1  0.58272000  0.32656000  0.89160000  1.0
  H  H6  1  0.81367000  0.37736000  0.01884000  1.0
  H  H7  1  0.18634000  0.62266000  0.98117000  1.0
  H  H8  1  0.09434000  0.44723000  0.17845000  1.0
  H  H9  1  0.90565000  0.55279000  0.82155000  1.0
  H  H10  1  0.15309000  0.17375000  0.38600000  1.0
  H  H11  1  0.84690000  0.82623000  0.61399000  1.0
  H  H12  1  0.52445000  0.27132000  0.19624000  1.0
  H  H13  1  0.47557000  0.72869000  0.80377000  1.0
  H  H14  1  0.33107000  0.24710000  0.02323000  1.0
  H  H15  1  0.66899000  0.75292000  0.97678000  1.0
  H  H16  1  0.63561000  0.05291000  0.08277000  1.0
  H  H17  1  0.36443000  0.94709000  0.91721000  1.0
  H  H18  1  0.83624000  0.06818000  0.25490000  1.0
  H  H19  1  0.16377000  0.93181000  0.74508000  1.0
  H  H20  1  0.63111000  0.34954000  0.35029000  1.0
  H  H21  1  0.36889000  0.65047000  0.64973000  1.0
  H  H22  1  0.57593000  0.07068000  0.31822000  1.0
  H  H23  1  0.42407000  0.92932000  0.68178000  1.0
  H  H24  1  0.55713000  0.32682000  0.46325000  1.0
  H  H25  1  0.44283000  0.67317000  0.53677000  1.0
  H  H26  1  0.54929000  0.09981000  0.43972000  1.0
  H  H27  1  0.45073000  0.90019000  0.56027000  1.0
  H  H28  1  0.94248000  0.66143000  0.50209000  1.0
  H  H29  1  0.05746000  0.33854000  0.49790000  1.0
  H  H30  1  0.98120000  0.79701000  0.44427000  1.0
  H  H31  1  0.01874000  0.20296000  0.55573000  1.0
  C  C32  1  0.73174000  0.65427000  0.20693000  1.0
  C  C33  1  0.26824000  0.34574000  0.79308000  1.0
  C  C34  1  0.56310000  0.61930000  0.11939000  1.0
  C  C35  1  0.43689000  0.38071000  0.88061000  1.0
  C  C36  1  0.58616000  0.51894000  0.04759000  1.0
  C  C37  1  0.41383000  0.48107000  0.95241000  1.0
  C  C38  1  0.78224000  0.45632000  0.06994000  1.0
  C  C39  1  0.21775000  0.54368000  0.93006000  1.0
  C  C40  1  0.94173000  0.49500000  0.15934000  1.0
  C  C41  1  0.05825000  0.50501000  0.84066000  1.0
  C  C42  1  0.33692000  0.43698000  0.38530000  1.0
  C  C43  1  0.66305000  0.56301000  0.61470000  1.0
  C  C44  1  0.47574000  0.32661000  0.38716000  1.0
  C  C45  1  0.52425000  0.67339000  0.61284000  1.0
  C  C46  1  0.27375000  0.93804000  0.35566000  1.0
  C  C47  1  0.72625000  0.06195000  0.64435000  1.0
  C  C48  1  0.44143000  0.07625000  0.36485000  1.0
  C  C49  1  0.55858000  0.92374000  0.63516000  1.0
  C  C50  1  0.30483000  0.18765000  0.34623000  1.0
  C  C51  1  0.69517000  0.81234000  0.65376000  1.0
  C  C52  1  0.19108000  0.17533000  0.23967000  1.0
  C  C53  1  0.80895000  0.82466000  0.76032000  1.0
  C  C54  1  0.32916000  0.22351000  0.17270000  1.0
  C  C55  1  0.67087000  0.77650000  0.82730000  1.0
  C  C56  1  0.22179000  0.21144000  0.07493000  1.0
  C  C57  1  0.77827000  0.78857000  0.92508000  1.0
  C  C58  1  0.97132000  0.15260000  0.04342000  1.0
  C  C59  1  0.02874000  0.84741000  0.95657000  1.0
  C  C60  1  0.83011000  0.10113000  0.10768000  1.0
  C  C61  1  0.16994000  0.89888000  0.89231000  1.0
  C  C62  1  0.94246000  0.11200000  0.20472000  1.0
  C  C63  1  0.05756000  0.88800000  0.79527000  1.0
  N  N64  1  0.91871000  0.59313000  0.22665000  1.0
  N  N65  1  0.08128000  0.40688000  0.77335000  1.0
  Cl  Cl66  1  0.83501000  0.14396000  0.92213000  1.0
  Cl  Cl67  1  0.16507000  0.85606000  0.07786000  1.0
  O  O68  1  0.41156000  0.53622000  0.34181000  1.0
  O  O69  1  0.58841000  0.46377000  0.65820000  1.0
  O  O70  1  0.15248000  0.43187000  0.42511000  1.0
  O  O71  1  0.84748000  0.56811000  0.57489000  1.0
  O  O72  1  0.05868000  0.92715000  0.37069000  1.0
  O  O73  1  0.94130000  0.07284000  0.62930000  1.0
  O  O74  1  0.37505000  0.83829000  0.33620000  1.0
  O  O75  1  0.62498000  0.16171000  0.66382000  1.0
  O  O76  1  0.03951000  0.71722000  0.46116000  1.0
  O  O77  1  0.96044000  0.28275000  0.53883000  1.0
