# generated using pymatgen
data_UH9C14NO6
_symmetry_space_group_name_H-M   'P 1'
_cell_length_a   9.30716000
_cell_length_b   12.16250000
_cell_length_c   12.16240000
_cell_angle_alpha   96.42320000
_cell_angle_beta   91.50350000
_cell_angle_gamma   91.50340000
_symmetry_Int_Tables_number   1
_chemical_formula_structural   UH9C14NO6
_chemical_formula_sum   'U4 H36 C56 N4 O24'
_cell_volume   1367.06021683
_cell_formula_units_Z   4
loop_
 _symmetry_equiv_pos_site_id
 _symmetry_equiv_pos_as_xyz
  1  'x, y, z'
loop_
 _atom_site_type_symbol
 _atom_site_label
 _atom_site_symmetry_multiplicity
 _atom_site_fract_x
 _atom_site_fract_y
 _atom_site_fract_z
 _atom_site_occupancy
  U  U0  1  0.09245000  0.63862000  0.85807000  1.0
  U  U1  1  0.40755000  0.14194000  0.36138000  1.0
  U  U2  1  0.90754000  0.36139000  0.14193000  1.0
  U  U3  1  0.59245000  0.85807000  0.63862000  1.0
  H  H4  1  0.04582000  0.59029000  0.55242000  1.0
  H  H5  1  0.45418000  0.44758000  0.40970000  1.0
  H  H6  1  0.95418000  0.40971000  0.44758000  1.0
  H  H7  1  0.54582000  0.55242000  0.59029000  1.0
  H  H8  1  0.89307000  0.58665000  0.38068000  1.0
  H  H9  1  0.60693000  0.61932000  0.41334000  1.0
  H  H10  1  0.10693000  0.41334000  0.61932000  1.0
  H  H11  1  0.39307000  0.38068000  0.58665000  1.0
  H  H12  1  0.94276000  0.72223000  0.24721000  1.0
  H  H13  1  0.55724000  0.75280000  0.27777000  1.0
  H  H14  1  0.05724000  0.27777000  0.75279000  1.0
  H  H15  1  0.44276000  0.24721000  0.72223000  1.0
  H  H16  1  0.14576000  0.85965000  0.28664000  1.0
  H  H17  1  0.35424000  0.71336000  0.14035000  1.0
  H  H18  1  0.85424000  0.14035000  0.71336000  1.0
  H  H19  1  0.64576000  0.28663000  0.85965000  1.0
  H  H20  1  0.83421000  0.80966000  0.02961000  1.0
  H  H21  1  0.66579000  0.97039000  0.19035000  1.0
  H  H22  1  0.16579000  0.19034000  0.97039000  1.0
  H  H23  1  0.33421000  0.02961000  0.80965000  1.0
  H  H24  1  0.47491000  0.94864000  0.08322000  1.0
  H  H25  1  0.02509000  0.91678000  0.05136000  1.0
  H  H26  1  0.52509000  0.05135000  0.91678000  1.0
  H  H27  1  0.97491000  0.08322000  0.94864000  1.0
  H  H28  1  0.24875000  0.86915000  0.98839000  1.0
  H  H29  1  0.25125000  0.01161000  0.13085000  1.0
  H  H30  1  0.75125000  0.13085000  0.01161000  1.0
  H  H31  1  0.74875000  0.98839000  0.86914000  1.0
  H  H32  1  0.45034000  0.58789000  0.85501000  1.0
  H  H33  1  0.04966000  0.14499000  0.41212000  1.0
  H  H34  1  0.54967000  0.41211000  0.14499000  1.0
  H  H35  1  0.95033000  0.85501000  0.58789000  1.0
  H  H36  1  0.68815000  0.65761000  0.94037000  1.0
  H  H37  1  0.81185000  0.05964000  0.34239000  1.0
  H  H38  1  0.31185000  0.34239000  0.05963000  1.0
  H  H39  1  0.18815000  0.94036000  0.65761000  1.0
  C  C40  1  0.18459000  0.72387000  0.51469000  1.0
  C  C41  1  0.31542000  0.48531000  0.27613000  1.0
  C  C42  1  0.81542000  0.27613000  0.48531000  1.0
  C  C43  1  0.68459000  0.51469000  0.72387000  1.0
  C  C44  1  0.06844000  0.64809000  0.49259000  1.0
  C  C45  1  0.43156000  0.50742000  0.35191000  1.0
  C  C46  1  0.93156000  0.35191000  0.50741000  1.0
  C  C47  1  0.56844000  0.49259000  0.64809000  1.0
  C  C48  1  0.98171000  0.64700000  0.39735000  1.0
  C  C49  1  0.51829000  0.60265000  0.35300000  1.0
  C  C50  1  0.01829000  0.35299000  0.60265000  1.0
  C  C51  1  0.48171000  0.39735000  0.64700000  1.0
  C  C52  1  0.00939000  0.72308000  0.32233000  1.0
  C  C53  1  0.49061000  0.67767000  0.27692000  1.0
  C  C54  1  0.99061000  0.27692000  0.67767000  1.0
  C  C55  1  0.50939000  0.32233000  0.72308000  1.0
  C  C56  1  0.12318000  0.79956000  0.34404000  1.0
  C  C57  1  0.37682000  0.65596000  0.20044000  1.0
  C  C58  1  0.87682000  0.20044000  0.65596000  1.0
  C  C59  1  0.62318000  0.34404000  0.79956000  1.0
  C  C60  1  0.21208000  0.80215000  0.43931000  1.0
  C  C61  1  0.28792000  0.56069000  0.19785000  1.0
  C  C62  1  0.78792000  0.19785000  0.56069000  1.0
  C  C63  1  0.71208000  0.43931000  0.80215000  1.0
  C  C64  1  0.27188000  0.71298000  0.61827000  1.0
  C  C65  1  0.22812000  0.38173000  0.28702000  1.0
  C  C66  1  0.72812000  0.28702000  0.38173000  1.0
  C  C67  1  0.77188000  0.61827000  0.71298000  1.0
  C  C68  1  0.32274000  0.89459000  0.45856000  1.0
  C  C69  1  0.17726000  0.54144000  0.10541000  1.0
  C  C70  1  0.67726000  0.10541000  0.54144000  1.0
  C  C71  1  0.82274000  0.45856000  0.89459000  1.0
  C  C72  1  0.74083000  0.85039000  0.06646000  1.0
  C  C73  1  0.75917000  0.93354000  0.14961000  1.0
  C  C74  1  0.25917000  0.14961000  0.93354000  1.0
  C  C75  1  0.24083000  0.06646000  0.85039000  1.0
  C  C76  1  0.60193000  0.80872000  0.01956000  1.0
  C  C77  1  0.89807000  0.98044000  0.19129000  1.0
  C  C78  1  0.39807000  0.19128000  0.98044000  1.0
  C  C79  1  0.10193000  0.01956000  0.80872000  1.0
  C  C80  1  0.47486000  0.86837000  0.03347000  1.0
  C  C81  1  0.02514000  0.96653000  0.13164000  1.0
  C  C82  1  0.52514000  0.13163000  0.96652000  1.0
  C  C83  1  0.97486000  0.03347000  0.86836000  1.0
  C  C84  1  0.34865000  0.82473000  0.98134000  1.0
  C  C85  1  0.15135000  0.01866000  0.17527000  1.0
  C  C86  1  0.65135000  0.17527000  0.01866000  1.0
  C  C87  1  0.84865000  0.98134000  0.82473000  1.0
  C  C88  1  0.46079000  0.66743000  0.90600000  1.0
  C  C89  1  0.03921000  0.09400000  0.33257000  1.0
  C  C90  1  0.53921000  0.33257000  0.09400000  1.0
  C  C91  1  0.96079000  0.90600000  0.66743000  1.0
  C  C92  1  0.59229000  0.70631000  0.95357000  1.0
  C  C93  1  0.90770000  0.04644000  0.29370000  1.0
  C  C94  1  0.40771000  0.29369000  0.04644000  1.0
  C  C95  1  0.09229000  0.95356000  0.70631000  1.0
  N  N96  1  0.34005000  0.72542000  0.91936000  1.0
  N  N97  1  0.15994000  0.08065000  0.27458000  1.0
  N  N98  1  0.65995000  0.27458000  0.08064000  1.0
  N  N99  1  0.84005000  0.91935000  0.72542000  1.0
  O  O100  1  0.16856000  0.50498000  0.81931000  1.0
  O  O101  1  0.33144000  0.18069000  0.49502000  1.0
  O  O102  1  0.83144000  0.49502000  0.18069000  1.0
  O  O103  1  0.66856000  0.81931000  0.50497000  1.0
  O  O104  1  0.02515000  0.77398000  0.90567000  1.0
  O  O105  1  0.47485000  0.09433000  0.22603000  1.0
  O  O106  1  0.97485000  0.22602000  0.09433000  1.0
  O  O107  1  0.52514000  0.90567000  0.77398000  1.0
  O  O108  1  0.20132000  0.69551000  0.70335000  1.0
  O  O109  1  0.29868000  0.29665000  0.30449000  1.0
  O  O110  1  0.79868000  0.30449000  0.29665000  1.0
  O  O111  1  0.70132000  0.70335000  0.69551000  1.0
  O  O112  1  0.40827000  0.71539000  0.61732000  1.0
  O  O113  1  0.09173000  0.38269000  0.28461000  1.0
  O  O114  1  0.59173000  0.28461000  0.38268000  1.0
  O  O115  1  0.90827000  0.61732000  0.71539000  1.0
  O  O116  1  0.38368000  0.91669000  0.55457000  1.0
  O  O117  1  0.11632000  0.44543000  0.08331000  1.0
  O  O118  1  0.61632000  0.08331000  0.44543000  1.0
  O  O119  1  0.88368000  0.55457000  0.91669000  1.0
  O  O120  1  0.34772000  0.95172000  0.37946000  1.0
  O  O121  1  0.15228000  0.62054000  0.04828000  1.0
  O  O122  1  0.65228000  0.04828000  0.62054000  1.0
  O  O123  1  0.84772000  0.37946000  0.95172000  1.0
