# generated using pymatgen
data_CdH28C38N2O5
_symmetry_space_group_name_H-M   'P 1'
_cell_length_a   10.06810000
_cell_length_b   10.20910000
_cell_length_c   15.68800000
_cell_angle_alpha   75.78800000
_cell_angle_beta   74.40230000
_cell_angle_gamma   75.39910000
_symmetry_Int_Tables_number   1
_chemical_formula_structural   CdH28C38N2O5
_chemical_formula_sum   'Cd2 H56 C76 N4 O10'
_cell_volume   1475.39224696
_cell_formula_units_Z   2
loop_
 _symmetry_equiv_pos_site_id
 _symmetry_equiv_pos_as_xyz
  1  'x, y, z'
loop_
 _atom_site_type_symbol
 _atom_site_label
 _atom_site_symmetry_multiplicity
 _atom_site_fract_x
 _atom_site_fract_y
 _atom_site_fract_z
 _atom_site_occupancy
  Cd  Cd0  1  0.69507000  0.79939000  0.52770000  1.0
  Cd  Cd1  1  0.30493000  0.20061000  0.47230000  1.0
  H  H2  1  0.98584000  0.81153000  0.52590000  1.0
  H  H3  1  0.01416000  0.18847000  0.47410000  1.0
  H  H4  1  0.00723000  0.64867000  0.53294000  1.0
  H  H5  1  0.99277000  0.35134000  0.46706000  1.0
  H  H6  1  0.43534000  0.86900000  0.68903000  1.0
  H  H7  1  0.56466000  0.13100000  0.31097000  1.0
  H  H8  1  0.83834000  0.64861000  0.69462000  1.0
  H  H9  1  0.16166000  0.35138000  0.30539000  1.0
  H  H10  1  0.40316000  0.60170000  0.30685000  1.0
  H  H11  1  0.59684000  0.39830000  0.69315000  1.0
  H  H12  1  0.60438000  0.45584000  0.36833000  1.0
  H  H13  1  0.39563000  0.54416000  0.63167000  1.0
  H  H14  1  0.77620000  0.56461000  0.85924000  1.0
  H  H15  1  0.22380000  0.43539000  0.14077000  1.0
  H  H16  1  0.40438000  0.63269000  0.14619000  1.0
  H  H17  1  0.59562000  0.36731000  0.85381000  1.0
  H  H18  1  0.58843000  0.71899000  0.38418000  1.0
  H  H19  1  0.41158000  0.28101000  0.61582000  1.0
  H  H20  1  0.85752000  0.98547000  0.34644000  1.0
  H  H21  1  0.14248000  0.01453000  0.65356000  1.0
  H  H22  1  0.87225000  0.04700000  0.18240000  1.0
  H  H23  1  0.12775000  0.95300000  0.81760000  1.0
  H  H24  1  0.35532000  0.79889000  0.85550000  1.0
  H  H25  1  0.64467000  0.20111000  0.14450000  1.0
  H  H26  1  0.87390000  0.40976000  0.01303000  1.0
  H  H27  1  0.12610000  0.59024000  0.98697000  1.0
  H  H28  1  0.43759000  0.69326000  0.00528000  1.0
  H  H29  1  0.56241000  0.30675000  0.99472000  1.0
  H  H30  1  0.84703000  0.32089000  0.34300000  1.0
  H  H31  1  0.15297000  0.67911000  0.65700000  1.0
  H  H32  1  0.69934000  0.46748000  0.97792000  1.0
  H  H33  1  0.30066000  0.53252000  0.02208000  1.0
  H  H34  1  0.58638000  0.77323000  0.22105000  1.0
  H  H35  1  0.41362000  0.22677000  0.77895000  1.0
  H  H36  1  0.03497000  0.44305000  0.68454000  1.0
  H  H37  1  0.96503000  0.55696000  0.31546000  1.0
  H  H38  1  0.75928000  0.13424000  0.67468000  1.0
  H  H39  1  0.24072000  0.86576000  0.32532000  1.0
  H  H40  1  0.86288000  0.07950000  0.04044000  1.0
  H  H41  1  0.13712000  0.92050000  0.95956000  1.0
  H  H42  1  0.65117000  0.89155000  0.07729000  1.0
  H  H43  1  0.34883000  0.10845000  0.92271000  1.0
  H  H44  1  0.94064000  0.22400000  0.95806000  1.0
  H  H45  1  0.05935000  0.77600000  0.04194000  1.0
  H  H46  1  0.07348000  0.26459000  0.07508000  1.0
  H  H47  1  0.92653000  0.73541000  0.92492000  1.0
  H  H48  1  0.05218000  0.39986000  0.84594000  1.0
  H  H49  1  0.94782000  0.60014000  0.15407000  1.0
  H  H50  1  0.05887000  0.21324000  0.24098000  1.0
  H  H51  1  0.94113000  0.78676000  0.75902000  1.0
  H  H52  1  0.90116000  0.31135000  0.63882000  1.0
  H  H53  1  0.09884000  0.68865000  0.36118000  1.0
  H  H54  1  0.65909000  0.90743000  0.94487000  1.0
  H  H55  1  0.34091000  0.09257000  0.05513000  1.0
  H  H56  1  0.64243000  0.95645000  0.78636000  1.0
  H  H57  1  0.35757000  0.04355000  0.21364000  1.0
  C  C58  1  0.50750000  0.80390000  0.73023000  1.0
  C  C59  1  0.49250000  0.19610000  0.26978000  1.0
  C  C60  1  0.73457000  0.42238000  0.23732000  1.0
  C  C61  1  0.26543000  0.57762000  0.76268000  1.0
  C  C62  1  0.73221000  0.67974000  0.73324000  1.0
  C  C63  1  0.26778000  0.32026000  0.26676000  1.0
  C  C64  1  0.49782000  0.55839000  0.26165000  1.0
  C  C65  1  0.50218000  0.44161000  0.73835000  1.0
  C  C66  1  0.73870000  0.44461000  0.14243000  1.0
  C  C67  1  0.26130000  0.55540000  0.85757000  1.0
  C  C68  1  0.61097000  0.47873000  0.29594000  1.0
  C  C69  1  0.38903000  0.52127000  0.70406000  1.0
  C  C70  1  0.69573000  0.63419000  0.82618000  1.0
  C  C71  1  0.30427000  0.36581000  0.17382000  1.0
  C  C72  1  0.49998000  0.57731000  0.16928000  1.0
  C  C73  1  0.50002000  0.42269000  0.83073000  1.0
  C  C74  1  0.64895000  0.79193000  0.33702000  1.0
  C  C75  1  0.35105000  0.20807000  0.66298000  1.0
  C  C76  1  0.80024000  0.93926000  0.31560000  1.0
  C  C77  1  0.19976000  0.06075000  0.68440000  1.0
  C  C78  1  0.72902000  0.91491000  0.18588000  1.0
  C  C79  1  0.27098000  0.08509000  0.81412000  1.0
  C  C80  1  0.68083000  0.24960000  0.51110000  1.0
  C  C81  1  0.31917000  0.75040000  0.48890000  1.0
  C  C82  1  0.85048000  0.16433000  0.86538000  1.0
  C  C83  1  0.14952000  0.83566000  0.13462000  1.0
  C  C84  1  0.70814000  0.35784000  0.51452000  1.0
  C  C85  1  0.29185000  0.64216000  0.48548000  1.0
  C  C86  1  0.84023000  0.19120000  0.77256000  1.0
  C  C87  1  0.15977000  0.80880000  0.22744000  1.0
  C  C88  1  0.80712000  0.97378000  0.22347000  1.0
  C  C89  1  0.19288000  0.02622000  0.77653000  1.0
  C  C90  1  0.46411000  0.76407000  0.82277000  1.0
  C  C91  1  0.53589000  0.23593000  0.17723000  1.0
  C  C92  1  0.61474000  0.51723000  0.10984000  1.0
  C  C93  1  0.38526000  0.48277000  0.89016000  1.0
  C  C94  1  0.86502000  0.38795000  0.08560000  1.0
  C  C95  1  0.13498000  0.61205000  0.91440000  1.0
  C  C96  1  0.49848000  0.61039000  0.96875000  1.0
  C  C97  1  0.50152000  0.38961000  0.03125000  1.0
  C  C98  1  0.78342000  0.05913000  0.92919000  1.0
  C  C99  1  0.21659000  0.94086000  0.07081000  1.0
  C  C100  1  0.85242000  0.33854000  0.27085000  1.0
  C  C101  1  0.14758000  0.66146000  0.72915000  1.0
  C  C102  1  0.74817000  0.48879000  0.50647000  1.0
  C  C103  1  0.25183000  0.51121000  0.49353000  1.0
  C  C104  1  0.59734000  0.49910000  0.02172000  1.0
  C  C105  1  0.40266000  0.50090000  0.97828000  1.0
  C  C106  1  0.65728000  0.12114000  0.49847000  1.0
  C  C107  1  0.34272000  0.87886000  0.50153000  1.0
  C  C108  1  0.55723000  0.67250000  0.87304000  1.0
  C  C109  1  0.44276000  0.32750000  0.12697000  1.0
  C  C110  1  0.64855000  0.82249000  0.24596000  1.0
  C  C111  1  0.35145000  0.17751000  0.75404000  1.0
  C  C112  1  0.98149000  0.36786000  0.73504000  1.0
  C  C113  1  0.01851000  0.63214000  0.26497000  1.0
  C  C114  1  0.76518000  0.11430000  0.74530000  1.0
  C  C115  1  0.23483000  0.88570000  0.25470000  1.0
  C  C116  1  0.79311000  0.02842000  0.02342000  1.0
  C  C117  1  0.20689000  0.97158000  0.97658000  1.0
  C  C118  1  0.72285000  0.94384000  0.09147000  1.0
  C  C119  1  0.27715000  0.05616000  0.90853000  1.0
  C  C120  1  0.92792000  0.24321000  0.88912000  1.0
  C  C121  1  0.07207000  0.75680000  0.11089000  1.0
  C  C122  1  0.97792000  0.30727000  0.12024000  1.0
  C  C123  1  0.02208000  0.69273000  0.87976000  1.0
  C  C124  1  0.99151000  0.34229000  0.82592000  1.0
  C  C125  1  0.00849000  0.65771000  0.17408000  1.0
  C  C126  1  0.97045000  0.27962000  0.21410000  1.0
  C  C127  1  0.02955000  0.72037000  0.78590000  1.0
  C  C128  1  0.90727000  0.29349000  0.70925000  1.0
  C  C129  1  0.09273000  0.70651000  0.29075000  1.0
  C  C130  1  0.70987000  0.98800000  0.89811000  1.0
  C  C131  1  0.29014000  0.01200000  0.10189000  1.0
  C  C132  1  0.70054000  0.01499000  0.80747000  1.0
  C  C133  1  0.29946000  0.98501000  0.19252000  1.0
  N  N134  1  0.72266000  0.84989000  0.37218000  1.0
  N  N135  1  0.27735000  0.15011000  0.62782000  1.0
  N  N136  1  0.63956000  0.76053000  0.68535000  1.0
  N  N137  1  0.36044000  0.23947000  0.31465000  1.0
  O  O138  1  0.65075000  0.58497000  0.53499000  1.0
  O  O139  1  0.34924000  0.41503000  0.46501000  1.0
  O  O140  1  0.73956000  0.01248000  0.52914000  1.0
  O  O141  1  0.26044000  0.98752000  0.47086000  1.0
  O  O142  1  0.56392000  0.12770000  0.45691000  1.0
  O  O143  1  0.43607000  0.87230000  0.54309000  1.0
  O  O144  1  0.87543000  0.49527000  0.47030000  1.0
  O  O145  1  0.12457000  0.50473000  0.52970000  1.0
  O  O146  1  0.93545000  0.73636000  0.54162000  1.0
  O  O147  1  0.06455000  0.26364000  0.45839000  1.0
