# generated using pymatgen
data_ZnH20C26(NO2)2
_symmetry_space_group_name_H-M   'P 1'
_cell_length_a   9.91339000
_cell_length_b   10.35900000
_cell_length_c   11.84800000
_cell_angle_alpha   92.20500000
_cell_angle_beta   98.49480000
_cell_angle_gamma   95.26030000
_symmetry_Int_Tables_number   1
_chemical_formula_structural   ZnH20C26(NO2)2
_chemical_formula_sum   'Zn2 H40 C52 N4 O8'
_cell_volume   1196.61567490
_cell_formula_units_Z   2
loop_
 _symmetry_equiv_pos_site_id
 _symmetry_equiv_pos_as_xyz
  1  'x, y, z'
loop_
 _atom_site_type_symbol
 _atom_site_label
 _atom_site_symmetry_multiplicity
 _atom_site_fract_x
 _atom_site_fract_y
 _atom_site_fract_z
 _atom_site_occupancy
  Zn  Zn0  1  0.64676000  0.92876000  0.58855000  1.0
  Zn  Zn1  1  0.35323000  0.07124000  0.41145000  1.0
  H  H2  1  0.91255000  0.55390000  0.82942000  1.0
  H  H3  1  0.08745000  0.44610000  0.17058000  1.0
  H  H4  1  0.11639000  0.54045000  0.98130000  1.0
  H  H5  1  0.88361000  0.45955000  0.01869000  1.0
  H  H6  1  0.25593000  0.74247000  0.06357000  1.0
  H  H7  1  0.74407000  0.25753000  0.93642000  1.0
  H  H8  1  0.19327000  0.95781000  0.99587000  1.0
  H  H9  1  0.80672000  0.04219000  0.00413000  1.0
  H  H10  1  0.99023000  0.96808000  0.84568000  1.0
  H  H11  1  0.00977000  0.03192000  0.15432000  1.0
  H  H12  1  0.57815000  0.09071000  0.86494000  1.0
  H  H13  1  0.42185000  0.90929000  0.13506000  1.0
  H  H14  1  0.52745000  0.15367000  0.05829000  1.0
  H  H15  1  0.47255000  0.84633000  0.94171000  1.0
  H  H16  1  0.30350000  0.23566000  0.07911000  1.0
  H  H17  1  0.69650000  0.76434000  0.92089000  1.0
  H  H18  1  0.12987000  0.25235000  0.90689000  1.0
  H  H19  1  0.87013000  0.74765000  0.09311000  1.0
  H  H20  1  0.18548000  0.19422000  0.71313000  1.0
  H  H21  1  0.81452000  0.80578000  0.28687000  1.0
  H  H22  1  0.51053000  0.68362000  0.45478000  1.0
  H  H23  1  0.48947000  0.31639000  0.54522000  1.0
  H  H24  1  0.32567000  0.50902000  0.46554000  1.0
  H  H25  1  0.67433000  0.49098000  0.53446000  1.0
  H  H26  1  0.26054000  0.70108000  0.78206000  1.0
  H  H27  1  0.73947000  0.29892000  0.21794000  1.0
  H  H28  1  0.44690000  0.87047000  0.75403000  1.0
  H  H29  1  0.55310000  0.12953000  0.24598000  1.0
  H  H30  1  0.11663000  0.50665000  0.71625000  1.0
  H  H31  1  0.88337000  0.49335000  0.28375000  1.0
  H  H32  1  0.16419000  0.38178000  0.48570000  1.0
  H  H33  1  0.83581000  0.61822000  0.51430000  1.0
  H  H34  1  0.03433000  0.19278000  0.41461000  1.0
  H  H35  1  0.96567000  0.80722000  0.58539000  1.0
  H  H36  1  0.84493000  0.01944000  0.42365000  1.0
  H  H37  1  0.15507000  0.98057000  0.57635000  1.0
  H  H38  1  0.75787000  0.18215000  0.72504000  1.0
  H  H39  1  0.24213000  0.81785000  0.27497000  1.0
  H  H40  1  0.94071000  0.36391000  0.72907000  1.0
  H  H41  1  0.05929000  0.63609000  0.27093000  1.0
  C  C42  1  0.81942000  0.76611000  0.73504000  1.0
  C  C43  1  0.18058000  0.23389000  0.26495000  1.0
  C  C44  1  0.94017000  0.76115000  0.82873000  1.0
  C  C45  1  0.05982000  0.23885000  0.17127000  1.0
  C  C46  1  0.97587000  0.64092000  0.86732000  1.0
  C  C47  1  0.02412000  0.35908000  0.13268000  1.0
  C  C48  1  0.08873000  0.63426000  0.95180000  1.0
  C  C49  1  0.91127000  0.36574000  0.04819000  1.0
  C  C50  1  0.16714000  0.74818000  0.99832000  1.0
  C  C51  1  0.83286000  0.25182000  0.00167000  1.0
  C  C52  1  0.13241000  0.86859000  0.96020000  1.0
  C  C53  1  0.86758000  0.13141000  0.03980000  1.0
  C  C54  1  0.01912000  0.87501000  0.87597000  1.0
  C  C55  1  0.98088000  0.12499000  0.12403000  1.0
  C  C56  1  0.42174000  0.10879000  0.66198000  1.0
  C  C57  1  0.57827000  0.89121000  0.33802000  1.0
  C  C58  1  0.38614000  0.14176000  0.77759000  1.0
  C  C59  1  0.61386000  0.85825000  0.22241000  1.0
  C  C60  1  0.48146000  0.12861000  0.87533000  1.0
  C  C61  1  0.51854000  0.87139000  0.12467000  1.0
  C  C62  1  0.45201000  0.16317000  0.98314000  1.0
  C  C63  1  0.54799000  0.83683000  0.01686000  1.0
  C  C64  1  0.32626000  0.20909000  0.99463000  1.0
  C  C65  1  0.67374000  0.79091000  0.00537000  1.0
  C  C66  1  0.22919000  0.21907000  0.89766000  1.0
  C  C67  1  0.77081000  0.78093000  0.10234000  1.0
  C  C68  1  0.25924000  0.18597000  0.78953000  1.0
  C  C69  1  0.74077000  0.81403000  0.21047000  1.0
  C  C70  1  0.45145000  0.68407000  0.52527000  1.0
  C  C71  1  0.54855000  0.31593000  0.47473000  1.0
  C  C72  1  0.34871000  0.58623000  0.53274000  1.0
  C  C73  1  0.65129000  0.41377000  0.46726000  1.0
  C  C74  1  0.27538000  0.58958000  0.62596000  1.0
  C  C75  1  0.72462000  0.41042000  0.37404000  1.0
  C  C76  1  0.31350000  0.69337000  0.70800000  1.0
  C  C77  1  0.68650000  0.30664000  0.29200000  1.0
  C  C78  1  0.41695000  0.78783000  0.69302000  1.0
  C  C79  1  0.58305000  0.21218000  0.30698000  1.0
  C  C80  1  0.16342000  0.49312000  0.63926000  1.0
  C  C81  1  0.83658000  0.50688000  0.36074000  1.0
  C  C82  1  0.11638000  0.39353000  0.56247000  1.0
  C  C83  1  0.88362000  0.60647000  0.43753000  1.0
  C  C84  1  0.00498000  0.29475000  0.57080000  1.0
  C  C85  1  0.99502000  0.70525000  0.42920000  1.0
  C  C86  1  0.97483000  0.19485000  0.48468000  1.0
  C  C87  1  0.02517000  0.80515000  0.51532000  1.0
  C  C88  1  0.86987000  0.09800000  0.48921000  1.0
  C  C89  1  0.13013000  0.90200000  0.51079000  1.0
  C  C90  1  0.82206000  0.18887000  0.65799000  1.0
  C  C91  1  0.17794000  0.81113000  0.34201000  1.0
  C  C92  1  0.92462000  0.28963000  0.65952000  1.0
  C  C93  1  0.07538000  0.71037000  0.34048000  1.0
  N  N94  1  0.48471000  0.78488000  0.60275000  1.0
  N  N95  1  0.51529000  0.21512000  0.39726000  1.0
  N  N96  1  0.79367000  0.09413000  0.57410000  1.0
  N  N97  1  0.20633000  0.90587000  0.42590000  1.0
  O  O98  1  0.78124000  0.88137000  0.71999000  1.0
  O  O99  1  0.21876000  0.11863000  0.28001000  1.0
  O  O100  1  0.76845000  0.66395000  0.67874000  1.0
  O  O101  1  0.23155000  0.33605000  0.32125000  1.0
  O  O102  1  0.33496000  0.12937000  0.57495000  1.0
  O  O103  1  0.66504000  0.87063000  0.42505000  1.0
  O  O104  1  0.53631000  0.06472000  0.65819000  1.0
  O  O105  1  0.46370000  0.93529000  0.34181000  1.0
