# generated using pymatgen
data_TbH6C7NO6
_symmetry_space_group_name_H-M   'P 1'
_cell_length_a   7.93577000
_cell_length_b   9.26412000
_cell_length_c   12.70010000
_cell_angle_alpha   76.18670000
_cell_angle_beta   84.49970000
_cell_angle_gamma   81.57630000
_symmetry_Int_Tables_number   1
_chemical_formula_structural   TbH6C7NO6
_chemical_formula_sum   'Tb4 H24 C28 N4 O24'
_cell_volume   895.09759631
_cell_formula_units_Z   4
loop_
 _symmetry_equiv_pos_site_id
 _symmetry_equiv_pos_as_xyz
  1  'x, y, z'
loop_
 _atom_site_type_symbol
 _atom_site_label
 _atom_site_symmetry_multiplicity
 _atom_site_fract_x
 _atom_site_fract_y
 _atom_site_fract_z
 _atom_site_occupancy
  Tb  Tb0  1  0.15009000  0.30169000  0.02666000  1.0
  Tb  Tb1  1  0.84990000  0.69832000  0.97334000  1.0
  Tb  Tb2  1  0.64421000  0.38230000  0.90597000  1.0
  Tb  Tb3  1  0.35579000  0.61770000  0.09403000  1.0
  H  H4  1  0.22104000  0.09234000  0.23372000  1.0
  H  H5  1  0.77896000  0.90766000  0.76627000  1.0
  H  H6  1  0.32797000  0.99383000  0.15937000  1.0
  H  H7  1  0.67203000  0.00617000  0.84063000  1.0
  H  H8  1  0.46925000  0.29280000  0.09814000  1.0
  H  H9  1  0.53075000  0.70720000  0.90186000  1.0
  H  H10  1  0.81500000  0.40129000  0.07123000  1.0
  H  H11  1  0.18499000  0.59872000  0.92876000  1.0
  H  H12  1  0.93665000  0.11146000  0.87549000  1.0
  H  H13  1  0.06335000  0.88854000  0.12451000  1.0
  H  H14  1  0.99657000  0.26975000  0.81977000  1.0
  H  H15  1  0.00343000  0.73026000  0.18023000  1.0
  H  H16  1  0.47145000  0.54985000  0.58531000  1.0
  H  H17  1  0.52855000  0.45014000  0.41470000  1.0
  H  H18  1  0.09568000  0.72821000  0.36821000  1.0
  H  H19  1  0.90433000  0.27178000  0.63179000  1.0
  H  H20  1  0.86281000  0.69378000  0.51767000  1.0
  H  H21  1  0.13720000  0.30622000  0.48232000  1.0
  H  H22  1  0.88878000  0.14161000  0.31380000  1.0
  H  H23  1  0.11121000  0.85840000  0.68620000  1.0
  H  H24  1  0.76653000  0.01324000  0.49563000  1.0
  H  H25  1  0.23346000  0.98676000  0.50437000  1.0
  H  H26  1  0.50339000  0.75807000  0.35773000  1.0
  H  H27  1  0.49660000  0.24193000  0.64226000  1.0
  C  C28  1  0.27181000  0.48322000  0.77135000  1.0
  C  C29  1  0.72819000  0.51678000  0.22866000  1.0
  C  C30  1  0.21600000  0.55557000  0.66011000  1.0
  C  C31  1  0.78400000  0.44443000  0.33990000  1.0
  C  C32  1  0.33576000  0.58145000  0.57180000  1.0
  C  C33  1  0.66425000  0.41855000  0.42821000  1.0
  C  C34  1  0.12619000  0.67968000  0.45252000  1.0
  C  C35  1  0.87382000  0.32031000  0.54748000  1.0
  C  C36  1  0.99644000  0.65960000  0.53531000  1.0
  C  C37  1  0.00357000  0.34040000  0.46469000  1.0
  C  C38  1  0.04181000  0.59718000  0.64144000  1.0
  C  C39  1  0.95819000  0.40282000  0.35856000  1.0
  C  C40  1  0.91284000  0.59159000  0.73679000  1.0
  C  C41  1  0.08716000  0.40841000  0.26321000  1.0
  C  C42  1  0.81441000  0.10687000  0.11711000  1.0
  C  C43  1  0.18559000  0.89313000  0.88289000  1.0
  C  C44  1  0.75903000  0.02003000  0.22772000  1.0
  C  C45  1  0.24097000  0.97996000  0.77228000  1.0
  C  C46  1  0.80501000  0.05604000  0.32077000  1.0
  C  C47  1  0.19498000  0.94396000  0.67923000  1.0
  C  C48  1  0.73653000  0.98398000  0.42165000  1.0
  C  C49  1  0.26347000  0.01602000  0.57835000  1.0
  C  C50  1  0.58922000  0.84393000  0.34498000  1.0
  C  C51  1  0.41078000  0.15607000  0.65501000  1.0
  C  C52  1  0.64744000  0.91232000  0.23971000  1.0
  C  C53  1  0.35256000  0.08768000  0.76028000  1.0
  C  C54  1  0.60059000  0.86503000  0.14303000  1.0
  C  C55  1  0.39940000  0.13497000  0.85697000  1.0
  N  N56  1  0.29290000  0.64179000  0.46952000  1.0
  N  N57  1  0.70711000  0.35820000  0.53049000  1.0
  N  N58  1  0.63251000  0.87816000  0.43485000  1.0
  N  N59  1  0.36748000  0.12183000  0.56515000  1.0
  O  O60  1  0.16883000  0.40227000  0.83488000  1.0
  O  O61  1  0.83117000  0.59772000  0.16513000  1.0
  O  O62  1  0.41416000  0.50586000  0.79769000  1.0
  O  O63  1  0.58584000  0.49414000  0.20232000  1.0
  O  O64  1  0.93540000  0.67749000  0.79789000  1.0
  O  O65  1  0.06460000  0.32251000  0.20211000  1.0
  O  O66  1  0.79475000  0.51044000  0.75002000  1.0
  O  O67  1  0.20525000  0.48956000  0.24998000  1.0
  O  O68  1  0.69498000  0.18846000  0.06353000  1.0
  O  O69  1  0.30502000  0.81154000  0.93647000  1.0
  O  O70  1  0.97313000  0.09918000  0.08861000  1.0
  O  O71  1  0.02686000  0.90082000  0.91139000  1.0
  O  O72  1  0.70602000  0.87635000  0.06082000  1.0
  O  O73  1  0.29397000  0.12365000  0.93918000  1.0
  O  O74  1  0.45772000  0.81379000  0.14934000  1.0
  O  O75  1  0.54228000  0.18621000  0.85066000  1.0
  O  O76  1  0.29539000  0.09776000  0.16779000  1.0
  O  O77  1  0.70461000  0.90224000  0.83221000  1.0
  O  O78  1  0.41223000  0.37632000  0.04520000  1.0
  O  O79  1  0.58777000  0.62368000  0.95480000  1.0
  O  O80  1  0.86760000  0.42852000  0.99774000  1.0
  O  O81  1  0.13240000  0.57148000  0.00226000  1.0
  O  O82  1  0.89569000  0.21730000  0.84290000  1.0
  O  O83  1  0.10431000  0.78270000  0.15710000  1.0
