# generated using pymatgen
data_CuH8C7N2O3
_symmetry_space_group_name_H-M   'P 1'
_cell_length_a   7.26517000
_cell_length_b   9.43249000
_cell_length_c   13.15210000
_cell_angle_alpha   90.00360000
_cell_angle_beta   90.00040000
_cell_angle_gamma   72.47900000
_symmetry_Int_Tables_number   1
_chemical_formula_structural   CuH8C7N2O3
_chemical_formula_sum   'Cu4 H32 C28 N8 O12'
_cell_volume   859.48146795
_cell_formula_units_Z   4
loop_
 _symmetry_equiv_pos_site_id
 _symmetry_equiv_pos_as_xyz
  1  'x, y, z'
loop_
 _atom_site_type_symbol
 _atom_site_label
 _atom_site_symmetry_multiplicity
 _atom_site_fract_x
 _atom_site_fract_y
 _atom_site_fract_z
 _atom_site_occupancy
  Cu  Cu0  1  0.34649000  0.95794000  0.08001000  1.0
  Cu  Cu1  1  0.34654000  0.45790000  0.41999000  1.0
  Cu  Cu2  1  0.65347000  0.04208000  0.91999000  1.0
  Cu  Cu3  1  0.65350000  0.54207000  0.58001000  1.0
  H  H4  1  0.51308000  0.12918000  0.15677000  1.0
  H  H5  1  0.51320000  0.62909000  0.34321000  1.0
  H  H6  1  0.48683000  0.87086000  0.84321000  1.0
  H  H7  1  0.48687000  0.37087000  0.65679000  1.0
  H  H8  1  0.46062000  0.04610000  0.25707000  1.0
  H  H9  1  0.46071000  0.54600000  0.24292000  1.0
  H  H10  1  0.53931000  0.95394000  0.74294000  1.0
  H  H11  1  0.53936000  0.45396000  0.75708000  1.0
  H  H12  1  0.91733000  0.25122000  0.19182000  1.0
  H  H13  1  0.91741000  0.75117000  0.30817000  1.0
  H  H14  1  0.08263000  0.74880000  0.80817000  1.0
  H  H15  1  0.08266000  0.24878000  0.69181000  1.0
  H  H16  1  0.04051000  0.09519000  0.26772000  1.0
  H  H17  1  0.04062000  0.59509000  0.23228000  1.0
  H  H18  1  0.95941000  0.90486000  0.73228000  1.0
  H  H19  1  0.95948000  0.40485000  0.76771000  1.0
  H  H20  1  0.21693000  0.29929000  0.14616000  1.0
  H  H21  1  0.21705000  0.79920000  0.35384000  1.0
  H  H22  1  0.78299000  0.70076000  0.85385000  1.0
  H  H23  1  0.78300000  0.20074000  0.64616000  1.0
  H  H24  1  0.23353000  0.26748000  0.28043000  1.0
  H  H25  1  0.23364000  0.76737000  0.21958000  1.0
  H  H26  1  0.76639000  0.73256000  0.71958000  1.0
  H  H27  1  0.76643000  0.23258000  0.78043000  1.0
  H  H28  1  0.70524000  0.41694000  0.99366000  1.0
  H  H29  1  0.70528000  0.91688000  0.50635000  1.0
  H  H30  1  0.29474000  0.58310000  0.00636000  1.0
  H  H31  1  0.29476000  0.08307000  0.49366000  1.0
  H  H32  1  0.97930000  0.74927000  0.06875000  1.0
  H  H33  1  0.97932000  0.24921000  0.43127000  1.0
  H  H34  1  0.02067000  0.25079000  0.93127000  1.0
  H  H35  1  0.02071000  0.75075000  0.56875000  1.0
  C  C36  1  0.95466000  0.05018000  0.04448000  1.0
  C  C37  1  0.95469000  0.55015000  0.45551000  1.0
  C  C38  1  0.04532000  0.94984000  0.95551000  1.0
  C  C39  1  0.04536000  0.44982000  0.54448000  1.0
  C  C40  1  0.05156000  0.15860000  0.19881000  1.0
  C  C41  1  0.05167000  0.65852000  0.30119000  1.0
  C  C42  1  0.94837000  0.84145000  0.80120000  1.0
  C  C43  1  0.94841000  0.34142000  0.69880000  1.0
  C  C44  1  0.22698000  0.21642000  0.20594000  1.0
  C  C45  1  0.22711000  0.71632000  0.29407000  1.0
  C  C46  1  0.77292000  0.78364000  0.79408000  1.0
  C  C47  1  0.77297000  0.28363000  0.70593000  1.0
  C  C48  1  0.63286000  0.69489000  0.06932000  1.0
  C  C49  1  0.63291000  0.19484000  0.43068000  1.0
  C  C50  1  0.36708000  0.30515000  0.93068000  1.0
  C  C51  1  0.36713000  0.80512000  0.56932000  1.0
  C  C52  1  0.82368000  0.59358000  0.03549000  1.0
  C  C53  1  0.82372000  0.09352000  0.46451000  1.0
  C  C54  1  0.17628000  0.40648000  0.96451000  1.0
  C  C55  1  0.17632000  0.90644000  0.53549000  1.0
  C  C56  1  0.83458000  0.45242000  0.99741000  1.0
  C  C57  1  0.83461000  0.95236000  0.50259000  1.0
  C  C58  1  0.16537000  0.54764000  0.00259000  1.0
  C  C59  1  0.16541000  0.04759000  0.49741000  1.0
  C  C60  1  0.98971000  0.63991000  0.03813000  1.0
  C  C61  1  0.98976000  0.13985000  0.46187000  1.0
  C  C62  1  0.01025000  0.36015000  0.96187000  1.0
  C  C63  1  0.01029000  0.86010000  0.53813000  1.0
  N  N64  1  0.08306000  0.06106000  0.11103000  1.0
  N  N65  1  0.08319000  0.56097000  0.38898000  1.0
  N  N66  1  0.91682000  0.93902000  0.88898000  1.0
  N  N67  1  0.91689000  0.43898000  0.61102000  1.0
  N  N68  1  0.40692000  0.09194000  0.18829000  1.0
  N  N69  1  0.40703000  0.59185000  0.31171000  1.0
  N  N70  1  0.59300000  0.90810000  0.81172000  1.0
  N  N71  1  0.59304000  0.40812000  0.68829000  1.0
  O  O72  1  0.77150000  0.11272000  0.04574000  1.0
  O  O73  1  0.77151000  0.61267000  0.45426000  1.0
  O  O74  1  0.22850000  0.88732000  0.95427000  1.0
  O  O75  1  0.22853000  0.38728000  0.54573000  1.0
  O  O76  1  0.60659000  0.83562000  0.05157000  1.0
  O  O77  1  0.60666000  0.33556000  0.44844000  1.0
  O  O78  1  0.39333000  0.16442000  0.94843000  1.0
  O  O79  1  0.39339000  0.66440000  0.55156000  1.0
  O  O80  1  0.51021000  0.64381000  0.10953000  1.0
  O  O81  1  0.51025000  0.14375000  0.39047000  1.0
  O  O82  1  0.48974000  0.35622000  0.89047000  1.0
  O  O83  1  0.48978000  0.85622000  0.60953000  1.0
