# generated using pymatgen
data_CoH8C12(NO2)2
_symmetry_space_group_name_H-M   'P 1'
_cell_length_a   9.87909000
_cell_length_b   10.33610000
_cell_length_c   13.98373448
_cell_angle_alpha   84.88672446
_cell_angle_beta   69.30827428
_cell_angle_gamma   75.39670000
_symmetry_Int_Tables_number   1
_chemical_formula_structural   CoH8C12(NO2)2
_chemical_formula_sum   'Co4 H32 C48 N8 O16'
_cell_volume   1292.63721555
_cell_formula_units_Z   4
loop_
 _symmetry_equiv_pos_site_id
 _symmetry_equiv_pos_as_xyz
  1  'x, y, z'
loop_
 _atom_site_type_symbol
 _atom_site_label
 _atom_site_symmetry_multiplicity
 _atom_site_fract_x
 _atom_site_fract_y
 _atom_site_fract_z
 _atom_site_occupancy
  Co  Co0  1  0.37447000  0.87943000  0.24880000  1.0
  Co  Co1  1  0.62308000  0.37928000  0.75120000  1.0
  Co  Co2  1  0.12625000  0.38523000  0.74817000  1.0
  Co  Co3  1  0.87467000  0.88526000  0.25176000  1.0
  H  H4  1  0.70461000  0.77300000  0.14007000  1.0
  H  H5  1  0.84514000  0.27292000  0.85976000  1.0
  H  H6  1  0.87136000  0.64475000  0.98048000  1.0
  H  H7  1  0.85249000  0.14497000  0.01941000  1.0
  H  H8  1  0.47892000  0.60760000  0.92835000  1.0
  H  H9  1  0.40751000  0.10839000  0.07232000  1.0
  H  H10  1  0.32659000  0.74168000  0.08944000  1.0
  H  H11  1  0.41605000  0.24213000  0.91114000  1.0
  H  H12  1  0.35286000  0.47938000  0.56504000  1.0
  H  H13  1  0.91795000  0.97944000  0.43495000  1.0
  H  H14  1  0.35954000  0.61040000  0.40331000  1.0
  H  H15  1  0.76272000  0.11048000  0.59660000  1.0
  H  H16  1  0.88667000  0.65111000  0.49422000  1.0
  H  H17  1  0.38093000  0.15090000  0.50566000  1.0
  H  H18  1  0.89856000  0.51641000  0.65076000  1.0
  H  H19  1  0.54945000  0.01599000  0.34924000  1.0
  H  H20  1  0.21074000  0.16953000  0.29576000  1.0
  H  H21  1  0.50663000  0.66919000  0.70415000  1.0
  H  H22  1  0.04987000  0.31505000  0.44785000  1.0
  H  H23  1  0.49809000  0.81481000  0.55208000  1.0
  H  H24  1  0.11040000  0.96683000  0.63756000  1.0
  H  H25  1  0.74799000  0.46662000  0.36232000  1.0
  H  H26  1  0.26164000  0.83567000  0.47731000  1.0
  H  H27  1  0.73867000  0.33529000  0.52254000  1.0
  H  H28  1  0.97625000  0.42309000  0.98111000  1.0
  H  H29  1  0.95705000  0.92329000  0.01880000  1.0
  H  H30  1  0.96541000  0.29016000  0.14160000  1.0
  H  H31  1  0.10659000  0.79026000  0.85834000  1.0
  H  H32  1  0.28158000  0.96356000  0.95149000  1.0
  H  H33  1  0.23260000  0.46369000  0.04845000  1.0
  H  H34  1  0.26565000  0.10543000  0.79904000  1.0
  H  H35  1  0.06467000  0.60576000  0.20086000  1.0
  C  C36  1  0.65895000  0.73696000  0.09007000  1.0
  C  C37  1  0.74944000  0.23705000  0.90991000  1.0
  C  C38  1  0.75090000  0.66396000  0.00244000  1.0
  C  C39  1  0.75387000  0.16426000  0.99759000  1.0
  C  C40  1  0.68741000  0.61681000  0.94183000  1.0
  C  C41  1  0.62966000  0.11736000  0.05842000  1.0
  C  C42  1  0.53194000  0.64520000  0.97278000  1.0
  C  C43  1  0.50498000  0.14588000  0.02771000  1.0
  C  C44  1  0.44780000  0.71856000  0.06167000  1.0
  C  C45  1  0.50963000  0.21900000  0.93875000  1.0
  C  C46  1  0.78356000  0.53715000  0.84681000  1.0
  C  C47  1  0.63086000  0.03746000  0.15337000  1.0
  C  C48  1  0.25247000  0.51795000  0.54571000  1.0
  C  C49  1  0.79819000  0.01781000  0.45429000  1.0
  C  C50  1  0.25601000  0.58981000  0.45629000  1.0
  C  C51  1  0.71222000  0.08968000  0.54369000  1.0
  C  C52  1  0.12290000  0.64077000  0.43675000  1.0
  C  C53  1  0.55957000  0.14059000  0.56323000  1.0
  C  C54  1  0.99208000  0.61333000  0.50716000  1.0
  C  C55  1  0.49928000  0.11310000  0.49278000  1.0
  C  C56  1  0.99836000  0.53907000  0.59399000  1.0
  C  C57  1  0.59245000  0.03876000  0.40599000  1.0
  C  C58  1  0.11888000  0.72572000  0.34413000  1.0
  C  C59  1  0.46292000  0.22561000  0.65579000  1.0
  C  C60  1  0.18343000  0.12873000  0.37306000  1.0
  C  C61  1  0.55662000  0.62842000  0.62686000  1.0
  C  C62  1  0.09510000  0.20908000  0.45795000  1.0
  C  C63  1  0.55332000  0.70881000  0.54198000  1.0
  C  C64  1  0.06639000  0.15215000  0.55576000  1.0
  C  C65  1  0.62232000  0.65192000  0.44415000  1.0
  C  C66  1  0.12843000  0.01573000  0.56318000  1.0
  C  C67  1  0.69162000  0.51546000  0.43670000  1.0
  C  C68  1  0.21246000  0.94211000  0.47436000  1.0
  C  C69  1  0.68665000  0.44178000  0.52552000  1.0
  C  C70  1  0.96759000  0.23157000  0.65093000  1.0
  C  C71  1  0.61879000  0.73142000  0.34901000  1.0
  C  C72  1  0.04126000  0.32048000  0.97828000  1.0
  C  C73  1  0.01928000  0.82068000  0.02164000  1.0
  C  C74  1  0.03640000  0.24637000  0.06712000  1.0
  C  C75  1  0.10317000  0.74651000  0.93282000  1.0
  C  C76  1  0.12395000  0.11562000  0.05966000  1.0
  C  C77  1  0.18315000  0.61573000  0.94030000  1.0
  C  C78  1  0.20993000  0.06424000  0.96154000  1.0
  C  C79  1  0.17108000  0.56439000  0.03841000  1.0
  C  C80  1  0.20340000  0.14299000  0.87658000  1.0
  C  C81  1  0.07986000  0.64324000  0.12333000  1.0
  C  C82  1  0.12951000  0.03445000  0.15408000  1.0
  C  C83  1  0.28295000  0.53444000  0.84588000  1.0
  N  N84  1  0.50922000  0.76440000  0.11984000  1.0
  N  N85  1  0.62931000  0.26452000  0.88030000  1.0
  N  N86  1  0.12604000  0.49278000  0.61405000  1.0
  N  N87  1  0.74022000  0.99252000  0.38593000  1.0
  N  N88  1  0.24049000  0.99674000  0.38013000  1.0
  N  N89  1  0.62049000  0.49637000  0.61978000  1.0
  N  N90  1  0.12268000  0.27059000  0.88386000  1.0
  N  N91  1  0.00650000  0.77087000  0.11605000  1.0
  O  O92  1  0.92261000  0.50435000  0.83118000  1.0
  O  O93  1  0.75430000  0.00465000  0.16894000  1.0
  O  O94  1  0.71995000  0.51116000  0.78829000  1.0
  O  O95  1  0.50881000  0.01120000  0.21177000  1.0
  O  O96  1  0.24051000  0.74959000  0.28352000  1.0
  O  O97  1  0.52388000  0.24933000  0.71648000  1.0
  O  O98  1  0.99212000  0.76427000  0.33374000  1.0
  O  O99  1  0.32581000  0.26440000  0.66610000  1.0
  O  O100  1  0.02630000  0.24953000  0.71429000  1.0
  O  O101  1  0.74085000  0.74939000  0.28563000  1.0
  O  O102  1  0.83131000  0.26840000  0.65962000  1.0
  O  O103  1  0.49117000  0.76838000  0.34037000  1.0
  O  O104  1  0.00833000  0.02002000  0.22066000  1.0
  O  O105  1  0.22813000  0.52015000  0.77940000  1.0
  O  O106  1  0.25987000  0.99164000  0.15770000  1.0
  O  O107  1  0.41689000  0.49135000  0.84225000  1.0
