# generated using pymatgen
data_ZnH9C14NO7
_symmetry_space_group_name_H-M   'P 1'
_cell_length_a   6.71783000
_cell_length_b   9.68205000
_cell_length_c   12.29660000
_cell_angle_alpha   103.76900000
_cell_angle_beta   93.81640000
_cell_angle_gamma   103.79200000
_symmetry_Int_Tables_number   1
_chemical_formula_structural   ZnH9C14NO7
_chemical_formula_sum   'Zn2 H18 C28 N2 O14'
_cell_volume   747.94563764
_cell_formula_units_Z   2
loop_
 _symmetry_equiv_pos_site_id
 _symmetry_equiv_pos_as_xyz
  1  'x, y, z'
loop_
 _atom_site_type_symbol
 _atom_site_label
 _atom_site_symmetry_multiplicity
 _atom_site_fract_x
 _atom_site_fract_y
 _atom_site_fract_z
 _atom_site_occupancy
  Zn  Zn0  1  0.13093000  0.47504000  0.80650000  1.0
  Zn  Zn1  1  0.86906000  0.52496000  0.19350000  1.0
  H  H2  1  0.26731000  0.33349000  0.09308000  1.0
  H  H3  1  0.73269000  0.66651000  0.90691000  1.0
  H  H4  1  0.30434000  0.92539000  0.17146000  1.0
  H  H5  1  0.69566000  0.07462000  0.82855000  1.0
  H  H6  1  0.19909000  0.94265000  0.82641000  1.0
  H  H7  1  0.80092000  0.05734000  0.17360000  1.0
  H  H8  1  0.56560000  0.13903000  0.30274000  1.0
  H  H9  1  0.43440000  0.86098000  0.69726000  1.0
  H  H10  1  0.58271000  0.25342000  0.51251000  1.0
  H  H11  1  0.41728000  0.74658000  0.48749000  1.0
  H  H12  1  0.04516000  0.40066000  0.43471000  1.0
  H  H13  1  0.95483000  0.59934000  0.56529000  1.0
  H  H14  1  0.04515000  0.28121000  0.23094000  1.0
  H  H15  1  0.95484000  0.71879000  0.76905000  1.0
  H  H16  1  0.70311000  0.42428000  0.75612000  1.0
  H  H17  1  0.29688000  0.57572000  0.24388000  1.0
  H  H18  1  0.77342000  0.39445000  0.87412000  1.0
  H  H19  1  0.22658000  0.60555000  0.12588000  1.0
  C  C20  1  0.18751000  0.22336000  0.86293000  1.0
  C  C21  1  0.81249000  0.77663000  0.13706000  1.0
  C  C22  1  0.23136000  0.14518000  0.95089000  1.0
  C  C23  1  0.76864000  0.85481000  0.04911000  1.0
  C  C24  1  0.26469000  0.21721000  0.06593000  1.0
  C  C25  1  0.73531000  0.78279000  0.93407000  1.0
  C  C26  1  0.29092000  0.13661000  0.14347000  1.0
  C  C27  1  0.70909000  0.86339000  0.85653000  1.0
  C  C28  1  0.28989000  0.98866000  0.11036000  1.0
  C  C29  1  0.71012000  0.01134000  0.88965000  1.0
  C  C30  1  0.25807000  0.91787000  0.99500000  1.0
  C  C31  1  0.74195000  0.08213000  0.00500000  1.0
  C  C32  1  0.22772000  0.99638000  0.91650000  1.0
  C  C33  1  0.77229000  0.00362000  0.08350000  1.0
  C  C34  1  0.25064000  0.75717000  0.95921000  1.0
  C  C35  1  0.74938000  0.24283000  0.04079000  1.0
  C  C36  1  0.45475000  0.19684000  0.33807000  1.0
  C  C37  1  0.54525000  0.80317000  0.66193000  1.0
  C  C38  1  0.46154000  0.26011000  0.45206000  1.0
  C  C39  1  0.53845000  0.73989000  0.54794000  1.0
  C  C40  1  0.31266000  0.33367000  0.48962000  1.0
  C  C41  1  0.68733000  0.66633000  0.51038000  1.0
  C  C42  1  0.16255000  0.34340000  0.40965000  1.0
  C  C43  1  0.83744000  0.65660000  0.59035000  1.0
  C  C44  1  0.16165000  0.27962000  0.29658000  1.0
  C  C45  1  0.83835000  0.72038000  0.70341000  1.0
  C  C46  1  0.31509000  0.40186000  0.61381000  1.0
  C  C47  1  0.68489000  0.59814000  0.38618000  1.0
  N  N48  1  0.30518000  0.20675000  0.26244000  1.0
  N  N49  1  0.69482000  0.79325000  0.73756000  1.0
  O  O50  1  0.12815000  0.15135000  0.76282000  1.0
  O  O51  1  0.87185000  0.84864000  0.23718000  1.0
  O  O52  1  0.21214000  0.36379000  0.90378000  1.0
  O  O53  1  0.78786000  0.63620000  0.09622000  1.0
  O  O54  1  0.47592000  0.42488000  0.68005000  1.0
  O  O55  1  0.52407000  0.57512000  0.31995000  1.0
  O  O56  1  0.14536000  0.43215000  0.64035000  1.0
  O  O57  1  0.85464000  0.56785000  0.35965000  1.0
  O  O58  1  0.28372000  0.69264000  0.03215000  1.0
  O  O59  1  0.71630000  0.30737000  0.96786000  1.0
  O  O60  1  0.20934000  0.69523000  0.85123000  1.0
  O  O61  1  0.79066000  0.30477000  0.14878000  1.0
  O  O62  1  0.82141000  0.44519000  0.81499000  1.0
  O  O63  1  0.17859000  0.55481000  0.18501000  1.0
