# generated using pymatgen
data_CuH10C10SIN
_symmetry_space_group_name_H-M   'P 1'
_cell_length_a   9.56823000
_cell_length_b   10.24010000
_cell_length_c   12.04920000
_cell_angle_alpha   73.82400000
_cell_angle_beta   89.99990000
_cell_angle_gamma   89.99980000
_symmetry_Int_Tables_number   1
_chemical_formula_structural   CuH10C10SIN
_chemical_formula_sum   'Cu4 H40 C40 S4 I4 N4'
_cell_volume   1133.83772002
_cell_formula_units_Z   4
loop_
 _symmetry_equiv_pos_site_id
 _symmetry_equiv_pos_as_xyz
  1  'x, y, z'
loop_
 _atom_site_type_symbol
 _atom_site_label
 _atom_site_symmetry_multiplicity
 _atom_site_fract_x
 _atom_site_fract_y
 _atom_site_fract_z
 _atom_site_occupancy
  Cu  Cu0  1  0.39861000  0.45783000  0.45615000  1.0
  Cu  Cu1  1  0.10139000  0.95783000  0.95616000  1.0
  Cu  Cu2  1  0.60138000  0.54216000  0.54385000  1.0
  Cu  Cu3  1  0.89862000  0.04217000  0.04384000  1.0
  H  H4  1  0.24345000  0.93810000  0.56486000  1.0
  H  H5  1  0.25655000  0.43811000  0.06486000  1.0
  H  H6  1  0.75653000  0.06190000  0.43514000  1.0
  H  H7  1  0.74347000  0.56190000  0.93514000  1.0
  H  H8  1  0.22099000  0.17116000  0.63966000  1.0
  H  H9  1  0.27901000  0.67116000  0.13966000  1.0
  H  H10  1  0.77898000  0.82884000  0.36034000  1.0
  H  H11  1  0.72101000  0.32885000  0.86033000  1.0
  H  H12  1  0.12882000  0.30042000  0.53819000  1.0
  H  H13  1  0.37118000  0.80042000  0.03820000  1.0
  H  H14  1  0.87116000  0.69958000  0.46180000  1.0
  H  H15  1  0.62884000  0.19958000  0.96179000  1.0
  H  H16  1  0.35848000  0.30821000  0.26293000  1.0
  H  H17  1  0.14152000  0.80821000  0.76293000  1.0
  H  H18  1  0.64153000  0.69179000  0.73707000  1.0
  H  H19  1  0.85847000  0.19180000  0.23707000  1.0
  H  H20  1  0.20606000  0.20638000  0.30284000  1.0
  H  H21  1  0.29394000  0.70638000  0.80284000  1.0
  H  H22  1  0.79394000  0.79362000  0.69715000  1.0
  H  H23  1  0.70605000  0.29362000  0.19714000  1.0
  H  H24  1  0.91432000  0.23606000  0.47272000  1.0
  H  H25  1  0.58568000  0.73606000  0.97272000  1.0
  H  H26  1  0.08566000  0.76394000  0.52728000  1.0
  H  H27  1  0.41434000  0.26394000  0.02728000  1.0
  H  H28  1  0.19943000  0.70467000  0.37098000  1.0
  H  H29  1  0.30056000  0.20467000  0.87098000  1.0
  H  H30  1  0.80057000  0.29534000  0.62901000  1.0
  H  H31  1  0.69944000  0.79533000  0.12902000  1.0
  H  H32  1  0.02770000  0.35714000  0.19443000  1.0
  H  H33  1  0.47230000  0.85714000  0.69443000  1.0
  H  H34  1  0.97229000  0.64286000  0.80557000  1.0
  H  H35  1  0.52772000  0.14286000  0.30557000  1.0
  H  H36  1  0.98445000  0.75495000  0.24887000  1.0
  H  H37  1  0.51555000  0.25495000  0.74887000  1.0
  H  H38  1  0.01555000  0.24505000  0.75113000  1.0
  H  H39  1  0.48446000  0.74505000  0.25114000  1.0
  H  H40  1  0.89314000  0.57464000  0.16080000  1.0
  H  H41  1  0.60685000  0.07464000  0.66079000  1.0
  H  H42  1  0.10684000  0.42535000  0.83922000  1.0
  H  H43  1  0.39317000  0.92535000  0.33923000  1.0
  C  C44  1  0.13619000  0.96518000  0.53709000  1.0
  C  C45  1  0.36381000  0.46519000  0.03709000  1.0
  C  C46  1  0.86379000  0.03481000  0.46292000  1.0
  C  C47  1  0.63620000  0.53481000  0.96291000  1.0
  C  C48  1  0.08932000  0.09822000  0.52381000  1.0
  C  C49  1  0.41068000  0.59822000  0.02380000  1.0
  C  C50  1  0.91066000  0.90177000  0.47621000  1.0
  C  C51  1  0.58933000  0.40178000  0.97620000  1.0
  C  C52  1  0.18269000  0.20279000  0.55034000  1.0
  C  C53  1  0.31731000  0.70279000  0.05034000  1.0
  C  C54  1  0.81729000  0.79721000  0.44966000  1.0
  C  C55  1  0.68271000  0.29721000  0.94966000  1.0
  C  C56  1  0.26717000  0.28887000  0.32105000  1.0
  C  C57  1  0.23283000  0.78888000  0.82105000  1.0
  C  C58  1  0.73282000  0.71113000  0.67894000  1.0
  C  C59  1  0.76718000  0.21113000  0.17894000  1.0
  C  C60  1  0.95231000  0.13228000  0.48546000  1.0
  C  C61  1  0.54769000  0.63228000  0.98546000  1.0
  C  C62  1  0.04767000  0.86772000  0.51454000  1.0
  C  C63  1  0.45233000  0.36773000  0.01454000  1.0
  C  C64  1  0.18215000  0.41682000  0.30070000  1.0
  C  C65  1  0.31785000  0.91682000  0.80070000  1.0
  C  C66  1  0.81785000  0.58318000  0.69929000  1.0
  C  C67  1  0.68215000  0.08318000  0.19929000  1.0
  C  C68  1  0.15740000  0.63038000  0.33017000  1.0
  C  C69  1  0.34260000  0.13039000  0.83017000  1.0
  C  C70  1  0.84261000  0.36962000  0.66982000  1.0
  C  C71  1  0.65740000  0.86961000  0.16983000  1.0
  C  C72  1  0.06175000  0.43648000  0.23267000  1.0
  C  C73  1  0.43824000  0.93648000  0.73267000  1.0
  C  C74  1  0.93824000  0.56352000  0.76733000  1.0
  C  C75  1  0.56177000  0.06352000  0.26734000  1.0
  C  C76  1  0.03670000  0.65718000  0.26299000  1.0
  C  C77  1  0.46330000  0.15718000  0.76299000  1.0
  C  C78  1  0.96330000  0.34283000  0.73701000  1.0
  C  C79  1  0.53671000  0.84282000  0.23702000  1.0
  C  C80  1  0.98766000  0.55805000  0.21333000  1.0
  C  C81  1  0.51233000  0.05806000  0.71332000  1.0
  C  C82  1  0.01233000  0.44195000  0.78668000  1.0
  C  C83  1  0.48768000  0.94195000  0.28668000  1.0
  S  S84  1  0.34258000  0.23372000  0.46468000  1.0
  S  S85  1  0.15742000  0.73372000  0.96468000  1.0
  S  S86  1  0.65741000  0.76628000  0.53531000  1.0
  S  S87  1  0.84260000  0.26628000  0.03531000  1.0
  I  I88  1  0.35358000  0.53400000  0.64182000  1.0
  I  I89  1  0.14643000  0.03399000  0.14183000  1.0
  I  I90  1  0.64642000  0.46601000  0.35817000  1.0
  I  I91  1  0.85358000  0.96600000  0.85817000  1.0
  N  N92  1  0.22934000  0.51295000  0.34911000  1.0
  N  N93  1  0.27065000  0.01295000  0.84911000  1.0
  N  N94  1  0.77066000  0.48705000  0.65088000  1.0
  N  N95  1  0.72935000  0.98705000  0.15089000  1.0
