# generated using pymatgen
data_CoH12C16(N2O3)2
_symmetry_space_group_name_H-M   'P 1'
_cell_length_a   9.25398000
_cell_length_b   10.21040000
_cell_length_c   10.71570000
_cell_angle_alpha   97.15230000
_cell_angle_beta   106.44700000
_cell_angle_gamma   93.06760000
_symmetry_Int_Tables_number   1
_chemical_formula_structural   CoH12C16(N2O3)2
_chemical_formula_sum   'Co2 H24 C32 N8 O12'
_cell_volume   959.30649784
_cell_formula_units_Z   2
loop_
 _symmetry_equiv_pos_site_id
 _symmetry_equiv_pos_as_xyz
  1  'x, y, z'
loop_
 _atom_site_type_symbol
 _atom_site_label
 _atom_site_symmetry_multiplicity
 _atom_site_fract_x
 _atom_site_fract_y
 _atom_site_fract_z
 _atom_site_occupancy
  Co  Co0  1  0.41120000  0.51565000  0.78302000  1.0
  Co  Co1  1  0.58880000  0.48436000  0.21698000  1.0
  H  H2  1  0.29691000  0.37705000  0.98707000  1.0
  H  H3  1  0.70308000  0.62296000  0.01293000  1.0
  H  H4  1  0.02313000  0.31583000  0.97257000  1.0
  H  H5  1  0.97687000  0.68417000  0.02742000  1.0
  H  H6  1  0.75051000  0.26718000  0.99091000  1.0
  H  H7  1  0.24950000  0.73283000  0.00910000  1.0
  H  H8  1  0.06622000  0.56243000  0.68045000  1.0
  H  H9  1  0.93378000  0.43756000  0.31954000  1.0
  H  H10  1  0.75384000  0.32847000  0.73909000  1.0
  H  H11  1  0.24616000  0.67153000  0.26091000  1.0
  H  H12  1  0.76070000  0.48439000  0.82931000  1.0
  H  H13  1  0.23929000  0.51560000  0.17069000  1.0
  H  H14  1  0.77284000  0.85064000  0.01836000  1.0
  H  H15  1  0.22717000  0.14936000  0.98165000  1.0
  H  H16  1  0.39044000  0.98328000  0.74557000  1.0
  H  H17  1  0.60956000  0.01672000  0.25443000  1.0
  H  H18  1  0.66991000  0.31331000  0.46603000  1.0
  H  H19  1  0.33007000  0.68669000  0.53396000  1.0
  H  H20  1  0.78420000  0.71014000  0.68474000  1.0
  H  H21  1  0.21580000  0.28986000  0.31526000  1.0
  H  H22  1  0.67365000  0.70638000  0.42697000  1.0
  H  H23  1  0.32635000  0.29362000  0.57303000  1.0
  H  H24  1  0.07725000  0.01812000  0.23600000  1.0
  H  H25  1  0.92276000  0.98188000  0.76399000  1.0
  C  C26  1  0.47616000  0.24192000  0.79399000  1.0
  C  C27  1  0.52384000  0.75808000  0.20601000  1.0
  C  C28  1  0.05714000  0.37527000  0.90643000  1.0
  C  C29  1  0.94286000  0.62473000  0.09357000  1.0
  C  C30  1  0.97276000  0.43567000  0.80282000  1.0
  C  C31  1  0.02724000  0.56432000  0.19717000  1.0
  C  C32  1  0.56272000  0.13638000  0.85989000  1.0
  C  C33  1  0.43729000  0.86362000  0.14012000  1.0
  C  C34  1  0.70210000  0.16489000  0.95679000  1.0
  C  C35  1  0.29791000  0.83511000  0.04321000  1.0
  C  C36  1  0.08136000  0.50189000  0.75864000  1.0
  C  C37  1  0.91863000  0.49810000  0.24135000  1.0
  C  C38  1  0.80339000  0.43146000  0.75330000  1.0
  C  C39  1  0.19660000  0.56853000  0.24670000  1.0
  C  C40  1  0.77817000  0.06122000  0.01260000  1.0
  C  C41  1  0.22183000  0.93878000  0.98740000  1.0
  C  C42  1  0.92806000  0.09312000  0.11224000  1.0
  C  C43  1  0.07194000  0.90688000  0.88775000  1.0
  C  C44  1  0.71366000  0.92985000  0.97343000  1.0
  C  C45  1  0.28634000  0.07015000  0.02658000  1.0
  C  C46  1  0.57329000  0.90135000  0.87742000  1.0
  C  C47  1  0.42672000  0.09866000  0.12258000  1.0
  C  C48  1  0.49947000  0.00475000  0.82063000  1.0
  C  C49  1  0.50053000  0.99526000  0.17937000  1.0
  C  C50  1  0.49694000  0.76408000  0.83553000  1.0
  C  C51  1  0.50306000  0.23592000  0.16447000  1.0
  C  C52  1  0.74686000  0.48813000  0.62808000  1.0
  C  C53  1  0.25314000  0.51187000  0.37192000  1.0
  C  C54  1  0.68788000  0.41905000  0.50008000  1.0
  C  C55  1  0.31212000  0.58095000  0.49992000  1.0
  C  C56  1  0.74589000  0.62194000  0.61222000  1.0
  C  C57  1  0.25411000  0.37806000  0.38778000  1.0
  N  N58  1  0.22233000  0.48268000  0.82941000  1.0
  N  N59  1  0.77766000  0.51732000  0.17059000  1.0
  N  N60  1  0.20473000  0.40502000  0.91856000  1.0
  N  N61  1  0.79527000  0.59499000  0.08144000  1.0
  N  N62  1  0.65305000  0.50480000  0.41238000  1.0
  N  N63  1  0.34695000  0.49520000  0.58762000  1.0
  N  N64  1  0.68940000  0.62760000  0.48282000  1.0
  N  N65  1  0.31060000  0.37240000  0.51718000  1.0
  O  O66  1  0.37015000  0.20446000  0.68988000  1.0
  O  O67  1  0.62986000  0.79554000  0.31013000  1.0
  O  O68  1  0.51795000  0.36306000  0.84906000  1.0
  O  O69  1  0.48206000  0.63694000  0.15095000  1.0
  O  O70  1  0.00517000  0.19981000  0.13520000  1.0
  O  O71  1  0.99484000  0.80020000  0.86480000  1.0
  O  O72  1  0.97604000  0.98915000  0.17621000  1.0
  O  O73  1  0.02397000  0.01085000  0.82379000  1.0
  O  O74  1  0.57196000  0.66426000  0.87348000  1.0
  O  O75  1  0.42804000  0.33574000  0.12652000  1.0
  O  O76  1  0.36232000  0.74352000  0.76404000  1.0
  O  O77  1  0.63769000  0.25649000  0.23596000  1.0
