# generated using pymatgen
data_CuH12C18SN3O4
_symmetry_space_group_name_H-M   'P 1'
_cell_length_a   8.30996000
_cell_length_b   9.86097000
_cell_length_c   10.84040000
_cell_angle_alpha   91.73030000
_cell_angle_beta   103.00600000
_cell_angle_gamma   114.89300000
_symmetry_Int_Tables_number   1
_chemical_formula_structural   CuH12C18SN3O4
_chemical_formula_sum   'Cu2 H24 C36 S2 N6 O8'
_cell_volume   777.22729689
_cell_formula_units_Z   2
loop_
 _symmetry_equiv_pos_site_id
 _symmetry_equiv_pos_as_xyz
  1  'x, y, z'
loop_
 _atom_site_type_symbol
 _atom_site_label
 _atom_site_symmetry_multiplicity
 _atom_site_fract_x
 _atom_site_fract_y
 _atom_site_fract_z
 _atom_site_occupancy
  Cu  Cu0  1  0.84500000  0.79136000  0.34575000  1.0
  Cu  Cu1  1  0.15500000  0.20863000  0.65425000  1.0
  H  H2  1  0.59871000  0.95655000  0.29638000  1.0
  H  H3  1  0.40128000  0.04345000  0.70361000  1.0
  H  H4  1  0.26298000  0.88114000  0.20040000  1.0
  H  H5  1  0.73702000  0.11886000  0.79959000  1.0
  H  H6  1  0.06316000  0.61396000  0.09042000  1.0
  H  H7  1  0.93683000  0.38604000  0.90957000  1.0
  H  H8  1  0.20074000  0.43062000  0.09642000  1.0
  H  H9  1  0.79926000  0.56939000  0.90357000  1.0
  H  H10  1  0.36069000  0.30302000  0.08647000  1.0
  H  H11  1  0.63931000  0.69699000  0.91353000  1.0
  H  H12  1  0.89571000  0.31538000  0.24535000  1.0
  H  H13  1  0.10429000  0.68462000  0.75465000  1.0
  H  H14  1  0.15507000  0.44682000  0.38538000  1.0
  H  H15  1  0.84492000  0.55317000  0.61462000  1.0
  H  H16  1  0.46272000  0.63607000  0.52495000  1.0
  H  H17  1  0.53728000  0.36392000  0.47504000  1.0
  H  H18  1  0.50760000  0.89316000  0.59208000  1.0
  H  H19  1  0.49240000  0.10684000  0.40792000  1.0
  H  H20  1  0.24393000  0.96411000  0.51067000  1.0
  H  H21  1  0.75606000  0.03589000  0.48933000  1.0
  H  H22  1  0.26931000  0.09354000  0.01176000  1.0
  H  H23  1  0.73069000  0.90646000  0.98824000  1.0
  H  H24  1  0.82680000  0.14009000  0.12240000  1.0
  H  H25  1  0.17320000  0.85991000  0.87760000  1.0
  C  C26  1  0.50381000  0.84169000  0.25178000  1.0
  C  C27  1  0.49619000  0.15832000  0.74822000  1.0
  C  C28  1  0.31822000  0.79915000  0.19513000  1.0
  C  C29  1  0.68178000  0.20085000  0.80487000  1.0
  C  C30  1  0.20867000  0.65080000  0.13565000  1.0
  C  C31  1  0.79133000  0.34921000  0.86435000  1.0
  C  C32  1  0.28466000  0.54902000  0.13621000  1.0
  C  C33  1  0.71534000  0.45098000  0.86379000  1.0
  C  C34  1  0.47103000  0.59975000  0.19613000  1.0
  C  C35  1  0.52896000  0.40025000  0.80387000  1.0
  C  C36  1  0.57058000  0.50606000  0.20441000  1.0
  C  C37  1  0.42942000  0.49394000  0.79559000  1.0
  C  C38  1  0.50283000  0.35967000  0.14290000  1.0
  C  C39  1  0.49716000  0.64033000  0.85710000  1.0
  C  C40  1  0.61944000  0.28803000  0.15241000  1.0
  C  C41  1  0.38056000  0.71198000  0.84759000  1.0
  C  C42  1  0.80015000  0.36634000  0.23122000  1.0
  C  C43  1  0.19985000  0.63366000  0.76878000  1.0
  C  C44  1  0.85858000  0.51177000  0.29234000  1.0
  C  C45  1  0.14142000  0.48823000  0.70766000  1.0
  C  C46  1  0.04227000  0.60916000  0.37604000  1.0
  C  C47  1  0.95773000  0.39084000  0.62396000  1.0
  C  C48  1  0.17992000  0.56199000  0.41637000  1.0
  C  C49  1  0.82007000  0.43800000  0.58363000  1.0
  C  C50  1  0.34912000  0.66580000  0.49397000  1.0
  C  C51  1  0.65087000  0.33419000  0.50604000  1.0
  C  C52  1  0.37548000  0.81207000  0.53041000  1.0
  C  C53  1  0.62451000  0.18792000  0.46959000  1.0
  C  C54  1  0.23175000  0.85141000  0.48708000  1.0
  C  C55  1  0.76825000  0.14858000  0.51292000  1.0
  C  C56  1  0.55695000  0.13921000  0.07770000  1.0
  C  C57  1  0.44305000  0.86079000  0.92229000  1.0
  C  C58  1  0.37325000  0.05540000  0.00675000  1.0
  C  C59  1  0.62675000  0.94460000  0.99325000  1.0
  C  C60  1  0.68259000  0.08031000  0.06948000  1.0
  C  C61  1  0.31741000  0.91970000  0.93052000  1.0
  S  S62  1  0.87718000  0.87423000  0.66906000  1.0
  S  S63  1  0.12283000  0.12576000  0.33095000  1.0
  N  N64  1  0.57792000  0.74491000  0.25219000  1.0
  N  N65  1  0.42207000  0.25510000  0.74781000  1.0
  N  N66  1  0.74541000  0.57874000  0.27626000  1.0
  N  N67  1  0.25459000  0.42126000  0.72374000  1.0
  N  N68  1  0.06901000  0.75224000  0.41139000  1.0
  N  N69  1  0.93099000  0.24776000  0.58861000  1.0
  O  O70  1  0.77480000  0.81129000  0.53232000  1.0
  O  O71  1  0.22522000  0.18871000  0.46769000  1.0
  O  O72  1  0.90206000  0.75514000  0.73966000  1.0
  O  O73  1  0.09796000  0.24486000  0.26034000  1.0
  O  O74  1  0.92926000  0.00571000  0.32754000  1.0
  O  O75  1  0.07076000  0.99430000  0.67246000  1.0
  O  O76  1  0.78159000  0.94309000  0.72870000  1.0
  O  O77  1  0.21842000  0.05691000  0.27131000  1.0
