# generated using pymatgen
data_CdH18C18(N3Cl)2
_symmetry_space_group_name_H-M   'P 1'
_cell_length_a   7.50814000
_cell_length_b   8.28242000
_cell_length_c   16.88510000
_cell_angle_alpha   90.00000000
_cell_angle_beta   90.00000000
_cell_angle_gamma   111.81000000
_symmetry_Int_Tables_number   1
_chemical_formula_structural   CdH18C18(N3Cl)2
_chemical_formula_sum   'Cd2 H36 C36 N12 Cl4'
_cell_volume   974.85091254
_cell_formula_units_Z   2
loop_
 _symmetry_equiv_pos_site_id
 _symmetry_equiv_pos_as_xyz
  1  'x, y, z'
loop_
 _atom_site_type_symbol
 _atom_site_label
 _atom_site_symmetry_multiplicity
 _atom_site_fract_x
 _atom_site_fract_y
 _atom_site_fract_z
 _atom_site_occupancy
  Cd  Cd0  1  0.50000000  0.50000000  0.00000000  1.0
  Cd  Cd1  1  0.50000000  0.00000000  0.50000000  1.0
  H  H2  1  0.35707000  0.50273000  0.17224000  1.0
  H  H3  1  0.64293000  0.99727000  0.67224000  1.0
  H  H4  1  0.64293000  0.49727000  0.82776000  1.0
  H  H5  1  0.35707000  0.00273000  0.32776000  1.0
  H  H6  1  0.42977000  0.49129000  0.31626000  1.0
  H  H7  1  0.57023000  0.00871000  0.81626000  1.0
  H  H8  1  0.57023000  0.50871000  0.68374000  1.0
  H  H9  1  0.42977000  0.99129000  0.18374000  1.0
  H  H10  1  0.01035000  0.56519000  0.24897000  1.0
  H  H11  1  0.98965000  0.93481000  0.74896000  1.0
  H  H12  1  0.98965000  0.43481000  0.75104000  1.0
  H  H13  1  0.01035000  0.06519000  0.25104000  1.0
  H  H14  1  0.90896000  0.55894000  0.10809000  1.0
  H  H15  1  0.09104000  0.94106000  0.60809000  1.0
  H  H16  1  0.09104000  0.44106000  0.89191000  1.0
  H  H17  1  0.90896000  0.05894000  0.39191000  1.0
  H  H18  1  0.69725000  0.39098000  0.40456000  1.0
  H  H19  1  0.30275000  0.10902000  0.90456000  1.0
  H  H20  1  0.30275000  0.60902000  0.59544000  1.0
  H  H21  1  0.69725000  0.89098000  0.09544000  1.0
  H  H22  1  0.70709000  0.60523000  0.41530000  1.0
  H  H23  1  0.29291000  0.89477000  0.91530000  1.0
  H  H24  1  0.29291000  0.39477000  0.58470000  1.0
  H  H25  1  0.70709000  0.10523000  0.08470000  1.0
  H  H26  1  0.04184000  0.35960000  0.38010000  1.0
  H  H27  1  0.95816000  0.14040000  0.88010000  1.0
  H  H28  1  0.95816000  0.64040000  0.61990000  1.0
  H  H29  1  0.04184000  0.85960000  0.11990000  1.0
  H  H30  1  0.39316000  0.57727000  0.44145000  1.0
  H  H31  1  0.60685000  0.92273000  0.94145000  1.0
  H  H32  1  0.60684000  0.42273000  0.55855000  1.0
  H  H33  1  0.39316000  0.07727000  0.05855000  1.0
  H  H34  1  0.01123000  0.84295000  0.44502000  1.0
  H  H35  1  0.98877000  0.65705000  0.94502000  1.0
  H  H36  1  0.98877000  0.15705000  0.55498000  1.0
  H  H37  1  0.01122000  0.34295000  0.05498000  1.0
  C  C38  1  0.49886000  0.51218000  0.19227000  1.0
  C  C39  1  0.50114000  0.98782000  0.69226000  1.0
  C  C40  1  0.50114000  0.48782000  0.80773000  1.0
  C  C41  1  0.49886000  0.01218000  0.30773000  1.0
  C  C42  1  0.54105000  0.50843000  0.27211000  1.0
  C  C43  1  0.45894000  0.99157000  0.77210000  1.0
  C  C44  1  0.45894000  0.49157000  0.72789000  1.0
  C  C45  1  0.54106000  0.00843000  0.22789000  1.0
  C  C46  1  0.72738000  0.52837000  0.29493000  1.0
  C  C47  1  0.27262000  0.97163000  0.79492000  1.0
  C  C48  1  0.27262000  0.47163000  0.70507000  1.0
  C  C49  1  0.72739000  0.02837000  0.20508000  1.0
  C  C50  1  0.86266000  0.54831000  0.23505000  1.0
  C  C51  1  0.13735000  0.95169000  0.73504000  1.0
  C  C52  1  0.13735000  0.45168000  0.76495000  1.0
  C  C53  1  0.86266000  0.04831000  0.26496000  1.0
  C  C54  1  0.80679000  0.54613000  0.15608000  1.0
  C  C55  1  0.19321000  0.95387000  0.65608000  1.0
  C  C56  1  0.19321000  0.45386000  0.84392000  1.0
  C  C57  1  0.80679000  0.04613000  0.34392000  1.0
  C  C58  1  0.76888000  0.52426000  0.38206000  1.0
  C  C59  1  0.23111000  0.97574000  0.88206000  1.0
  C  C60  1  0.23111000  0.47574000  0.61794000  1.0
  C  C61  1  0.76889000  0.02426000  0.11794000  1.0
  C  C62  1  0.09053000  0.49302000  0.40032000  1.0
  C  C63  1  0.90947000  0.00698000  0.90032000  1.0
  C  C64  1  0.90947000  0.50698000  0.59968000  1.0
  C  C65  1  0.09053000  0.99302000  0.09968000  1.0
  C  C66  1  0.26357000  0.60205000  0.43028000  1.0
  C  C67  1  0.73643000  0.89795000  0.93028000  1.0
  C  C68  1  0.73642000  0.39795000  0.56972000  1.0
  C  C69  1  0.26358000  0.10205000  0.06972000  1.0
  C  C70  1  0.07260000  0.74553000  0.43347000  1.0
  C  C71  1  0.92740000  0.75447000  0.93347000  1.0
  C  C72  1  0.92740000  0.25447000  0.56653000  1.0
  C  C73  1  0.07260000  0.24553000  0.06653000  1.0
  N  N74  1  0.62866000  0.52989000  0.13473000  1.0
  N  N75  1  0.37134000  0.97011000  0.63473000  1.0
  N  N76  1  0.37134000  0.47011000  0.86527000  1.0
  N  N77  1  0.62866000  0.02989000  0.36527000  1.0
  N  N78  1  0.25020000  0.75839000  0.45068000  1.0
  N  N79  1  0.74980000  0.74161000  0.95068000  1.0
  N  N80  1  0.74980000  0.24161000  0.54932000  1.0
  N  N81  1  0.25019000  0.25839000  0.04932000  1.0
  N  N82  1  0.97088000  0.58596000  0.40278000  1.0
  N  N83  1  0.02912000  0.91404000  0.90277000  1.0
  N  N84  1  0.02912000  0.41404000  0.59723000  1.0
  N  N85  1  0.97088000  0.08596000  0.09723000  1.0
  Cl  Cl86  1  0.30031000  0.69177000  0.04090000  1.0
  Cl  Cl87  1  0.69969000  0.80823000  0.54090000  1.0
  Cl  Cl88  1  0.69969000  0.30823000  0.95910000  1.0
  Cl  Cl89  1  0.30031000  0.19177000  0.45910000  1.0
