# generated using pymatgen
data_CdB2H14(C2N3)6
_symmetry_space_group_name_H-M   'P 1'
_cell_length_a   8.73870000
_cell_length_b   8.73869000
_cell_length_c   15.61450000
_cell_angle_alpha   102.31100000
_cell_angle_beta   102.31100000
_cell_angle_gamma   100.96700000
_symmetry_Int_Tables_number   1
_chemical_formula_structural   CdB2H14(C2N3)6
_chemical_formula_sum   'Cd2 B4 H28 C24 N36'
_cell_volume   1102.94297129
_cell_formula_units_Z   2
loop_
 _symmetry_equiv_pos_site_id
 _symmetry_equiv_pos_as_xyz
  1  'x, y, z'
loop_
 _atom_site_type_symbol
 _atom_site_label
 _atom_site_symmetry_multiplicity
 _atom_site_fract_x
 _atom_site_fract_y
 _atom_site_fract_z
 _atom_site_occupancy
  Cd  Cd0  1  0.00000000  0.50000000  0.50000000  1.0
  Cd  Cd1  1  0.50000000  0.00000000  0.00000000  1.0
  B  B2  1  0.58492000  0.86126000  0.34851000  1.0
  B  B3  1  0.13874000  0.41508000  0.15149000  1.0
  B  B4  1  0.41508000  0.13874000  0.65149000  1.0
  B  B5  1  0.86126000  0.58492000  0.84851000  1.0
  H  H6  1  0.64429000  0.93343000  0.54622000  1.0
  H  H7  1  0.06657000  0.35571000  0.95378000  1.0
  H  H8  1  0.35571000  0.06657000  0.45378000  1.0
  H  H9  1  0.93343000  0.64430000  0.04622000  1.0
  H  H10  1  0.84824000  0.24531000  0.63314000  1.0
  H  H11  1  0.75469000  0.15176000  0.86686000  1.0
  H  H12  1  0.15176000  0.75469000  0.36686000  1.0
  H  H13  1  0.24531000  0.84824000  0.13314000  1.0
  H  H14  1  0.84683000  0.89648000  0.11383000  1.0
  H  H15  1  0.10352000  0.15317000  0.38617000  1.0
  H  H16  1  0.15317000  0.10352000  0.88617000  1.0
  H  H17  1  0.89648000  0.84683000  0.61383000  1.0
  H  H18  1  0.87060000  0.82294000  0.28356000  1.0
  H  H19  1  0.17706000  0.12940000  0.21644000  1.0
  H  H20  1  0.12940000  0.17706000  0.71644000  1.0
  H  H21  1  0.82294000  0.87060000  0.78356000  1.0
  H  H22  1  0.56827000  0.34786000  0.40634000  1.0
  H  H23  1  0.65214000  0.43173000  0.09366000  1.0
  H  H24  1  0.43173000  0.65214000  0.59366000  1.0
  H  H25  1  0.34786000  0.56827000  0.90634000  1.0
  H  H26  1  0.37997000  0.55581000  0.35061000  1.0
  H  H27  1  0.44419000  0.62003000  0.14939000  1.0
  H  H28  1  0.62003000  0.44419000  0.64939000  1.0
  H  H29  1  0.55581000  0.37997000  0.85061000  1.0
  H  H30  1  0.44233000  0.85449000  0.33369000  1.0
  H  H31  1  0.14551000  0.55767000  0.16631000  1.0
  H  H32  1  0.55767000  0.14551000  0.66631000  1.0
  H  H33  1  0.85449000  0.44233000  0.83369000  1.0
  C  C34  1  0.70336000  0.02643000  0.51977000  1.0
  C  C35  1  0.97357000  0.29664000  0.98023000  1.0
  C  C36  1  0.29664000  0.97357000  0.48022000  1.0
  C  C37  1  0.02643000  0.70336000  0.01977000  1.0
  C  C38  1  0.80370000  0.17842000  0.56215000  1.0
  C  C39  1  0.82158000  0.19630000  0.93785000  1.0
  C  C40  1  0.19630000  0.82158000  0.43785000  1.0
  C  C41  1  0.17842000  0.80370000  0.06215000  1.0
  C  C42  1  0.76466000  0.89402000  0.15685000  1.0
  C  C43  1  0.10598000  0.23534000  0.34315000  1.0
  C  C44  1  0.23534000  0.10598000  0.84315000  1.0
  C  C45  1  0.89402000  0.76466000  0.65685000  1.0
  C  C46  1  0.77800000  0.85909000  0.23985000  1.0
  C  C47  1  0.14091000  0.22200000  0.26015000  1.0
  C  C48  1  0.22200000  0.14091000  0.76015000  1.0
  C  C49  1  0.85909000  0.77800000  0.73985000  1.0
  C  C50  1  0.60251000  0.46919000  0.39900000  1.0
  C  C51  1  0.53081000  0.39749000  0.10100000  1.0
  C  C52  1  0.39749000  0.53081000  0.60100000  1.0
  C  C53  1  0.46919000  0.60251000  0.89900000  1.0
  C  C54  1  0.50934000  0.56943000  0.37092000  1.0
  C  C55  1  0.43057000  0.49066000  0.12908000  1.0
  C  C56  1  0.49066000  0.43057000  0.62908000  1.0
  C  C57  1  0.56944000  0.50934000  0.87093000  1.0
  N  N58  1  0.84227000  0.24425000  0.49566000  1.0
  N  N59  1  0.75575000  0.15773000  0.00434000  1.0
  N  N60  1  0.15773000  0.75575000  0.50434000  1.0
  N  N61  1  0.24425000  0.84227000  0.99566000  1.0
  N  N62  1  0.76030000  0.54999000  0.41757000  1.0
  N  N63  1  0.45001000  0.23970000  0.08243000  1.0
  N  N64  1  0.23970000  0.45001000  0.58243000  1.0
  N  N65  1  0.54999000  0.76030000  0.91757000  1.0
  N  N66  1  0.62013000  0.93207000  0.13351000  1.0
  N  N67  1  0.06793000  0.37986000  0.36649000  1.0
  N  N68  1  0.37986000  0.06793000  0.86649000  1.0
  N  N69  1  0.93207000  0.62013000  0.63351000  1.0
  N  N70  1  0.68691000  0.00792000  0.42931000  1.0
  N  N71  1  0.99208000  0.31309000  0.07069000  1.0
  N  N72  1  0.31309000  0.99208000  0.57069000  1.0
  N  N73  1  0.00792000  0.68691000  0.92931000  1.0
  N  N74  1  0.63958000  0.87787000  0.26258000  1.0
  N  N75  1  0.12213000  0.36042000  0.23742000  1.0
  N  N76  1  0.36042000  0.12213000  0.73743000  1.0
  N  N77  1  0.87787000  0.63958000  0.76258000  1.0
  N  N78  1  0.54417000  0.92252000  0.19731000  1.0
  N  N79  1  0.07748000  0.45583000  0.30269000  1.0
  N  N80  1  0.45584000  0.07748000  0.80269000  1.0
  N  N81  1  0.92252000  0.54416000  0.69731000  1.0
  N  N82  1  0.61649000  0.70667000  0.37390000  1.0
  N  N83  1  0.29333000  0.38351000  0.12610000  1.0
  N  N84  1  0.38351000  0.29333000  0.62610000  1.0
  N  N85  1  0.70667000  0.61649000  0.87390000  1.0
  N  N86  1  0.77138000  0.14128000  0.41517000  1.0
  N  N87  1  0.85872000  0.22862000  0.08483000  1.0
  N  N88  1  0.22862000  0.85872000  0.58483000  1.0
  N  N89  1  0.14128000  0.77138000  0.91517000  1.0
  N  N90  1  0.76918000  0.69370000  0.40255000  1.0
  N  N91  1  0.30630000  0.23082000  0.09745000  1.0
  N  N92  1  0.23082000  0.30629000  0.59745000  1.0
  N  N93  1  0.69370000  0.76918000  0.90255000  1.0
