# generated using pymatgen
data_AlH4C8O5F
_symmetry_space_group_name_H-M   'P 1'
_cell_length_a   6.71260000
_cell_length_b   12.88580000
_cell_length_c   16.90660000
_cell_angle_alpha   90.02960000
_cell_angle_beta   90.61430000
_cell_angle_gamma   90.54970000
_symmetry_Int_Tables_number   1
_chemical_formula_structural   AlH4C8O5F
_chemical_formula_sum   'Al4 H16 C32 O20 F4'
_cell_volume   1462.22228819
_cell_formula_units_Z   4
loop_
 _symmetry_equiv_pos_site_id
 _symmetry_equiv_pos_as_xyz
  1  'x, y, z'
loop_
 _atom_site_type_symbol
 _atom_site_label
 _atom_site_symmetry_multiplicity
 _atom_site_fract_x
 _atom_site_fract_y
 _atom_site_fract_z
 _atom_site_occupancy
  Al  Al0  1  0.99102000  0.00040000  0.49981000  1.0
  Al  Al1  1  0.49053000  0.00015000  0.49812000  1.0
  Al  Al2  1  0.00933000  0.50238000  0.99850000  1.0
  Al  Al3  1  0.50932000  0.49881000  0.99862000  1.0
  H  H4  1  0.23998000  0.86972000  0.52754000  1.0
  H  H5  1  0.74299000  0.13763000  0.50550000  1.0
  H  H6  1  0.26642000  0.63403000  0.02008000  1.0
  H  H7  1  0.76258000  0.36759000  0.02182000  1.0
  H  H8  1  0.06600000  0.71869000  0.81898000  1.0
  H  H9  1  0.43456000  0.66234000  0.79719000  1.0
  H  H10  1  0.05127000  0.83123000  0.69795000  1.0
  H  H11  1  0.57377000  0.29235000  0.18720000  1.0
  H  H12  1  0.93557000  0.32162000  0.19152000  1.0
  H  H13  1  0.55737000  0.17864000  0.30713000  1.0
  H  H14  1  0.93007000  0.31340000  0.80389000  1.0
  H  H15  1  0.56979000  0.29940000  0.81709000  1.0
  H  H16  1  0.93475000  0.20155000  0.68242000  1.0
  H  H17  1  0.07806000  0.70492000  0.19239000  1.0
  H  H18  1  0.43747000  0.68539000  0.18480000  1.0
  H  H19  1  0.05785000  0.81582000  0.31377000  1.0
  C  C20  1  0.74008000  0.87925000  0.39065000  1.0
  C  C21  1  0.73598000  0.87900000  0.60828000  1.0
  C  C22  1  0.24462000  0.12295000  0.60745000  1.0
  C  C23  1  0.24254000  0.11907000  0.38935000  1.0
  C  C24  1  0.76525000  0.62337000  0.10756000  1.0
  C  C25  1  0.75425000  0.61867000  0.88853000  1.0
  C  C26  1  0.24983000  0.38014000  0.88995000  1.0
  C  C27  1  0.26132000  0.37949000  0.10872000  1.0
  C  C28  1  0.73744000  0.81011000  0.67935000  1.0
  C  C29  1  0.75123000  0.68502000  0.81614000  1.0
  C  C30  1  0.56609000  0.76050000  0.70858000  1.0
  C  C31  1  0.92579000  0.73171000  0.78774000  1.0
  C  C32  1  0.57025000  0.69949000  0.77603000  1.0
  C  C33  1  0.91750000  0.79368000  0.72055000  1.0
  C  C34  1  0.24101000  0.18715000  0.31772000  1.0
  C  C35  1  0.25596000  0.31299000  0.18107000  1.0
  C  C36  1  0.06812000  0.22931000  0.28369000  1.0
  C  C37  1  0.43169000  0.27342000  0.21433000  1.0
  C  C38  1  0.07297000  0.29055000  0.21625000  1.0
  C  C39  1  0.42280000  0.21092000  0.28107000  1.0
  C  C40  1  0.25183000  0.18877000  0.68040000  1.0
  C  C41  1  0.24913000  0.31340000  0.81773000  1.0
  C  C42  1  0.42865000  0.21734000  0.72023000  1.0
  C  C43  1  0.06967000  0.28586000  0.77974000  1.0
  C  C44  1  0.42989000  0.27864000  0.78770000  1.0
  C  C45  1  0.07246000  0.22430000  0.71234000  1.0
  C  C46  1  0.74018000  0.81250000  0.31816000  1.0
  C  C47  1  0.75930000  0.68908000  0.18030000  1.0
  C  C48  1  0.56754000  0.77411000  0.28031000  1.0
  C  C49  1  0.93466000  0.72531000  0.21716000  1.0
  C  C50  1  0.57461000  0.71384000  0.21243000  1.0
  C  C51  1  0.92373000  0.78637000  0.28463000  1.0
  O  O52  1  0.91039000  0.91037000  0.41513000  1.0
  O  O53  1  0.56790000  0.91131000  0.58404000  1.0
  O  O54  1  0.40812000  0.10366000  0.57341000  1.0
  O  O55  1  0.07791000  0.09904000  0.42258000  1.0
  O  O56  1  0.07195000  0.09226000  0.58489000  1.0
  O  O57  1  0.41248000  0.08652000  0.41172000  1.0
  O  O58  1  0.57405000  0.89926000  0.42229000  1.0
  O  O59  1  0.90449000  0.90031000  0.57792000  1.0
  O  O60  1  0.23946000  0.93671000  0.50140000  1.0
  O  O61  1  0.74206000  0.06301000  0.49888000  1.0
  O  O62  1  0.93570000  0.59564000  0.08309000  1.0
  O  O63  1  0.58643000  0.58590000  0.91292000  1.0
  O  O64  1  0.41822000  0.39973000  0.92236000  1.0
  O  O65  1  0.09412000  0.40270000  0.07725000  1.0
  O  O66  1  0.08233000  0.41224000  0.91390000  1.0
  O  O67  1  0.43230000  0.40749000  0.08398000  1.0
  O  O68  1  0.59787000  0.60022000  0.07539000  1.0
  O  O69  1  0.92279000  0.60033000  0.92057000  1.0
  O  O70  1  0.26160000  0.56387000  0.99955000  1.0
  O  O71  1  0.75960000  0.43727000  0.00044000  1.0
  F  F72  1  0.38716000  0.76880000  0.67052000  1.0
  F  F73  1  0.88656000  0.21186000  0.31600000  1.0
  F  F74  1  0.60817000  0.18430000  0.69440000  1.0
  F  F75  1  0.38421000  0.79486000  0.30897000  1.0
