# generated using pymatgen
data_HgH22(C6S)2
_symmetry_space_group_name_H-M   'P 1'
_cell_length_a   6.55413000
_cell_length_b   10.39750000
_cell_length_c   10.59700000
_cell_angle_alpha   89.42660000
_cell_angle_beta   83.05290000
_cell_angle_gamma   81.15780000
_symmetry_Int_Tables_number   1
_chemical_formula_structural   HgH22(C6S)2
_chemical_formula_sum   'Hg2 H44 C24 S4'
_cell_volume   708.30077925
_cell_formula_units_Z   2
loop_
 _symmetry_equiv_pos_site_id
 _symmetry_equiv_pos_as_xyz
  1  'x, y, z'
loop_
 _atom_site_type_symbol
 _atom_site_label
 _atom_site_symmetry_multiplicity
 _atom_site_fract_x
 _atom_site_fract_y
 _atom_site_fract_z
 _atom_site_occupancy
  Hg  Hg0  1  0.22094000  0.54849000  0.56760000  1.0
  Hg  Hg1  1  0.77907000  0.45151000  0.43240000  1.0
  H  H2  1  0.62004000  0.66381000  0.68635000  1.0
  H  H3  1  0.37997000  0.33619000  0.31365000  1.0
  H  H4  1  0.25286000  0.70777000  0.77970000  1.0
  H  H5  1  0.74715000  0.29224000  0.22030000  1.0
  H  H6  1  0.30655000  0.60566000  0.90941000  1.0
  H  H7  1  0.69345000  0.39435000  0.09059000  1.0
  H  H8  1  0.48169000  0.85911000  0.84182000  1.0
  H  H9  1  0.51833000  0.14089000  0.15818000  1.0
  H  H10  1  0.29240000  0.83787000  0.97065000  1.0
  H  H11  1  0.70760000  0.16213000  0.02934000  1.0
  H  H12  1  0.54915000  0.68057000  0.07126000  1.0
  H  H13  1  0.45084000  0.31943000  0.92874000  1.0
  H  H14  1  0.64807000  0.82717000  0.04002000  1.0
  H  H15  1  0.35193000  0.17282000  0.95999000  1.0
  H  H16  1  0.86460000  0.73346000  0.84550000  1.0
  H  H17  1  0.13541000  0.26654000  0.15451000  1.0
  H  H18  1  0.91580000  0.63117000  0.97586000  1.0
  H  H19  1  0.08419000  0.36882000  0.02415000  1.0
  H  H20  1  0.69066000  0.47959000  0.90926000  1.0
  H  H21  1  0.30934000  0.52040000  0.09073000  1.0
  H  H22  1  0.87805000  0.50587000  0.78069000  1.0
  H  H23  1  0.12195000  0.49413000  0.21931000  1.0
  H  H24  1  0.11059000  0.68866000  0.30412000  1.0
  H  H25  1  0.88941000  0.31134000  0.69588000  1.0
  H  H26  1  0.10185000  0.92619000  0.47317000  1.0
  H  H27  1  0.89814000  0.07381000  0.52683000  1.0
  H  H28  1  0.31044000  0.79773000  0.43996000  1.0
  H  H29  1  0.68956000  0.20227000  0.56004000  1.0
  H  H30  1  0.36039000  0.85636000  0.21511000  1.0
  H  H31  1  0.63961000  0.14364000  0.78489000  1.0
  H  H32  1  0.36015000  0.99622000  0.30856000  1.0
  H  H33  1  0.63985000  0.00378000  0.69144000  1.0
  H  H34  1  0.99790000  0.08023000  0.27462000  1.0
  H  H35  1  0.00210000  0.91977000  0.72538000  1.0
  H  H36  1  0.14708000  0.04375000  0.12539000  1.0
  H  H37  1  0.85292000  0.95625000  0.87461000  1.0
  H  H38  1  0.80513000  0.96189000  0.13752000  1.0
  H  H39  1  0.19487000  0.03811000  0.86248000  1.0
  H  H40  1  0.01522000  0.83295000  0.11392000  1.0
  H  H41  1  0.98478000  0.16705000  0.88607000  1.0
  H  H42  1  0.74431000  0.77301000  0.27905000  1.0
  H  H43  1  0.25569000  0.22699000  0.72095000  1.0
  H  H44  1  0.75363000  0.91401000  0.36927000  1.0
  H  H45  1  0.24636000  0.08599000  0.63073000  1.0
  C  C46  1  0.56408000  0.59916000  0.76128000  1.0
  C  C47  1  0.43593000  0.40084000  0.23872000  1.0
  C  C48  1  0.37354000  0.67318000  0.84127000  1.0
  C  C49  1  0.62646000  0.32683000  0.15873000  1.0
  C  C50  1  0.43100000  0.78766000  0.91189000  1.0
  C  C51  1  0.56900000  0.21234000  0.08811000  1.0
  C  C52  1  0.60494000  0.74289000  0.99370000  1.0
  C  C53  1  0.39506000  0.25711000  0.00631000  1.0
  C  C54  1  0.79562000  0.66757000  0.91456000  1.0
  C  C55  1  0.20438000  0.33242000  0.08544000  1.0
  C  C56  1  0.73999000  0.55362000  0.84195000  1.0
  C  C57  1  0.26001000  0.44638000  0.15806000  1.0
  C  C58  1  0.02646000  0.76734000  0.36794000  1.0
  C  C59  1  0.97354000  0.23266000  0.63206000  1.0
  C  C60  1  0.17970000  0.85592000  0.39908000  1.0
  C  C61  1  0.82030000  0.14408000  0.60092000  1.0
  C  C62  1  0.26077000  0.92761000  0.28100000  1.0
  C  C63  1  0.73923000  0.07239000  0.71900000  1.0
  C  C64  1  0.08362000  0.99946000  0.21340000  1.0
  C  C65  1  0.91638000  0.00054000  0.78660000  1.0
  C  C66  1  0.93395000  0.90803000  0.18308000  1.0
  C  C67  1  0.06605000  0.09197000  0.81691000  1.0
  C  C68  1  0.84776000  0.84080000  0.30275000  1.0
  C  C69  1  0.15224000  0.15920000  0.69725000  1.0
  S  S70  1  0.50419000  0.45537000  0.68224000  1.0
  S  S71  1  0.49582000  0.54464000  0.31776000  1.0
  S  S72  1  0.91673000  0.69104000  0.51206000  1.0
  S  S73  1  0.08326000  0.30896000  0.48794000  1.0
