# generated using pymatgen
data_GdH21(C7O3)4
_symmetry_space_group_name_H-M   'P 1'
_cell_length_a   9.58794000
_cell_length_b   11.42860000
_cell_length_c   12.50390000
_cell_angle_alpha   75.17280000
_cell_angle_beta   73.69070000
_cell_angle_gamma   73.40590000
_symmetry_Int_Tables_number   1
_chemical_formula_structural   GdH21(C7O3)4
_chemical_formula_sum   'Gd2 H42 C56 O24'
_cell_volume   1237.02699585
_cell_formula_units_Z   2
loop_
 _symmetry_equiv_pos_site_id
 _symmetry_equiv_pos_as_xyz
  1  'x, y, z'
loop_
 _atom_site_type_symbol
 _atom_site_label
 _atom_site_symmetry_multiplicity
 _atom_site_fract_x
 _atom_site_fract_y
 _atom_site_fract_z
 _atom_site_occupancy
  Gd  Gd0  1  0.28842000  0.95515000  0.05153000  1.0
  Gd  Gd1  1  0.71158000  0.04485000  0.94847000  1.0
  H  H2  1  0.20801000  0.69103000  0.26244000  1.0
  H  H3  1  0.79199000  0.30897000  0.73756000  1.0
  H  H4  1  0.48890000  0.92641000  0.20114000  1.0
  H  H5  1  0.51110000  0.07359000  0.79886000  1.0
  H  H6  1  0.39628000  0.82060000  0.26090000  1.0
  H  H7  1  0.60372000  0.17940000  0.73910000  1.0
  H  H8  1  0.14817000  0.89025000  0.89189000  1.0
  H  H9  1  0.85183000  0.10975000  0.10811000  1.0
  H  H10  1  0.04978000  0.85215000  0.01211000  1.0
  H  H11  1  0.95022000  0.14785000  0.98789000  1.0
  H  H12  1  0.09518000  0.76858000  0.43552000  1.0
  H  H13  1  0.90482000  0.23142000  0.56448000  1.0
  H  H14  1  0.93671000  0.76453000  0.63305000  1.0
  H  H15  1  0.06329000  0.23547000  0.36695000  1.0
  H  H16  1  0.70335000  0.92899000  0.66814000  1.0
  H  H17  1  0.29665000  0.07101000  0.33186000  1.0
  H  H18  1  0.62360000  0.08994000  0.50841000  1.0
  H  H19  1  0.37640000  0.91006000  0.49159000  1.0
  H  H20  1  0.79937000  0.27384000  0.39264000  1.0
  H  H21  1  0.20063000  0.72616000  0.60736000  1.0
  H  H22  1  0.63348000  0.48806000  0.38993000  1.0
  H  H23  1  0.36652000  0.51194000  0.61006000  1.0
  H  H24  1  0.35986000  0.39741000  0.21739000  1.0
  H  H25  1  0.64014000  0.60259000  0.78261000  1.0
  H  H26  1  0.53034000  0.18527000  0.21508000  1.0
  H  H27  1  0.46967000  0.81473000  0.78492000  1.0
  H  H28  1  0.44220000  0.46056000  0.94919000  1.0
  H  H29  1  0.55780000  0.53944000  0.05080000  1.0
  H  H30  1  0.25157000  0.64700000  0.01048000  1.0
  H  H31  1  0.74843000  0.35300000  0.98952000  1.0
  H  H32  1  0.94356000  0.41359000  0.18907000  1.0
  H  H33  1  0.05644000  0.58641000  0.81093000  1.0
  H  H34  1  0.13418000  0.22848000  0.13109000  1.0
  H  H35  1  0.86582000  0.77152000  0.86891000  1.0
  H  H36  1  0.01248000  0.48556000  0.33108000  1.0
  H  H37  1  0.98752000  0.51444000  0.66892000  1.0
  H  H38  1  0.84535000  0.51791000  0.51747000  1.0
  H  H39  1  0.15465000  0.48209000  0.48253000  1.0
  H  H40  1  0.64042000  0.70963000  0.53156000  1.0
  H  H41  1  0.35958000  0.29037000  0.46844000  1.0
  H  H42  1  0.60967000  0.86957000  0.35703000  1.0
  H  H43  1  0.39033000  0.13044000  0.64296000  1.0
  C  C44  1  0.05434000  0.93417000  0.24854000  1.0
  C  C45  1  0.94566000  0.06583000  0.75146000  1.0
  C  C46  1  0.95061000  0.93104000  0.36197000  1.0
  C  C47  1  0.04939000  0.06896000  0.63803000  1.0
  C  C48  1  0.99094000  0.83801000  0.45292000  1.0
  C  C49  1  0.00906000  0.16199000  0.54708000  1.0
  C  C50  1  0.90340000  0.83620000  0.56261000  1.0
  C  C51  1  0.09660000  0.16380000  0.43739000  1.0
  C  C52  1  0.77173000  0.92757000  0.58246000  1.0
  C  C53  1  0.22827000  0.07243000  0.41754000  1.0
  C  C54  1  0.72726000  0.01952000  0.49315000  1.0
  C  C55  1  0.27274000  0.98048000  0.50686000  1.0
  C  C56  1  0.81631000  0.02165000  0.38338000  1.0
  C  C57  1  0.18369000  0.97835000  0.61662000  1.0
  C  C58  1  0.67329000  0.21910000  0.30313000  1.0
  C  C59  1  0.32670000  0.78090000  0.69688000  1.0
  C  C60  1  0.70354000  0.30240000  0.35378000  1.0
  C  C61  1  0.29645000  0.69760000  0.64622000  1.0
  C  C62  1  0.61077000  0.42092000  0.35280000  1.0
  C  C63  1  0.38923000  0.57908000  0.64720000  1.0
  C  C64  1  0.48659000  0.45607000  0.30357000  1.0
  C  C65  1  0.51341000  0.54393000  0.69643000  1.0
  C  C66  1  0.45654000  0.37057000  0.25499000  1.0
  C  C67  1  0.54346000  0.62943000  0.74501000  1.0
  C  C68  1  0.55016000  0.25248000  0.25376000  1.0
  C  C69  1  0.44984000  0.74752000  0.74624000  1.0
  C  C70  1  0.39118000  0.58382000  0.30232000  1.0
  C  C71  1  0.60883000  0.41618000  0.69768000  1.0
  C  C72  1  0.42558000  0.22535000  0.01078000  1.0
  C  C73  1  0.57442000  0.77465000  0.98922000  1.0
  C  C74  1  0.30233000  0.33281000  0.03841000  1.0
  C  C75  1  0.69767000  0.66719000  0.96159000  1.0
  C  C76  1  0.33287000  0.45160000  0.00184000  1.0
  C  C77  1  0.66713000  0.54839000  0.99816000  1.0
  C  C78  1  0.22817000  0.55479000  0.03547000  1.0
  C  C79  1  0.77183000  0.44521000  0.96453000  1.0
  C  C80  1  0.09081000  0.53886000  0.10663000  1.0
  C  C81  1  0.90919000  0.46114000  0.89337000  1.0
  C  C82  1  0.05432000  0.42273000  0.13892000  1.0
  C  C83  1  0.94568000  0.57727000  0.86108000  1.0
  C  C84  1  0.16114000  0.31944000  0.10507000  1.0
  C  C85  1  0.83886000  0.68056000  0.89493000  1.0
  C  C86  1  0.90176000  0.65705000  0.23864000  1.0
  C  C87  1  0.09824000  0.34295000  0.76136000  1.0
  C  C88  1  0.92145000  0.56800000  0.33684000  1.0
  C  C89  1  0.07855000  0.43200000  0.66317000  1.0
  C  C90  1  0.82754000  0.58729000  0.44140000  1.0
  C  C91  1  0.17246000  0.41271000  0.55860000  1.0
  C  C92  1  0.71287000  0.69464000  0.44972000  1.0
  C  C93  1  0.28713000  0.30536000  0.55027000  1.0
  C  C94  1  0.69520000  0.78347000  0.35261000  1.0
  C  C95  1  0.30480000  0.21653000  0.64739000  1.0
  C  C96  1  0.78865000  0.76779000  0.24613000  1.0
  C  C97  1  0.21135000  0.23221000  0.75387000  1.0
  C  C98  1  0.76833000  0.86992000  0.14769000  1.0
  C  C99  1  0.23167000  0.13008000  0.85231000  1.0
  O  O100  1  0.13821000  0.83309000  0.21743000  1.0
  O  O101  1  0.86179000  0.16691000  0.78257000  1.0
  O  O102  1  0.06503000  0.03800000  0.18198000  1.0
  O  O103  1  0.93497000  0.96200000  0.81802000  1.0
  O  O104  1  0.76972000  0.10460000  0.29126000  1.0
  O  O105  1  0.23028000  0.89540000  0.70875000  1.0
  O  O106  1  0.42889000  0.66744000  0.32629000  1.0
  O  O107  1  0.57111000  0.33255000  0.67371000  1.0
  O  O108  1  0.26209000  0.59955000  0.27387000  1.0
  O  O109  1  0.73791000  0.40045000  0.72613000  1.0
  O  O110  1  0.40427000  0.11421000  0.03618000  1.0
  O  O111  1  0.59573000  0.88579000  0.96382000  1.0
  O  O112  1  0.55613000  0.24375000  0.96485000  1.0
  O  O113  1  0.44387000  0.75625000  0.03515000  1.0
  O  O114  1  0.99289000  0.64687000  0.13404000  1.0
  O  O115  1  0.00711000  0.35313000  0.86596000  1.0
  O  O116  1  0.86349000  0.87153000  0.05293000  1.0
  O  O117  1  0.13651000  0.12847000  0.94707000  1.0
  O  O118  1  0.65150000  0.96081000  0.15612000  1.0
  O  O119  1  0.34850000  0.03919000  0.84388000  1.0
  O  O120  1  0.38878000  0.90708000  0.21635000  1.0
  O  O121  1  0.61122000  0.09292000  0.78365000  1.0
  O  O122  1  0.15251000  0.86311000  0.97196000  1.0
  O  O123  1  0.84749000  0.13689000  0.02804000  1.0
