# generated using pymatgen
data_CuH6C6(NCl)4
_symmetry_space_group_name_H-M   'P 1'
_cell_length_a   3.78649000
_cell_length_b   10.47790000
_cell_length_c   13.54890000
_cell_angle_alpha   87.82580000
_cell_angle_beta   87.74030000
_cell_angle_gamma   80.37470000
_symmetry_Int_Tables_number   1
_chemical_formula_structural   CuH6C6(NCl)4
_chemical_formula_sum   'Cu2 H12 C12 N8 Cl8'
_cell_volume   529.29769304
_cell_formula_units_Z   2
loop_
 _symmetry_equiv_pos_site_id
 _symmetry_equiv_pos_as_xyz
  1  'x, y, z'
loop_
 _atom_site_type_symbol
 _atom_site_label
 _atom_site_symmetry_multiplicity
 _atom_site_fract_x
 _atom_site_fract_y
 _atom_site_fract_z
 _atom_site_occupancy
  Cu  Cu0  1  0.49814000  0.99975000  0.25084000  1.0
  Cu  Cu1  1  0.50187000  0.00025000  0.74916000  1.0
  H  H2  1  0.71176000  0.09679000  0.44477000  1.0
  H  H3  1  0.28823000  0.90320000  0.55524000  1.0
  H  H4  1  0.82442000  0.90832000  0.05580000  1.0
  H  H5  1  0.17557000  0.09168000  0.94421000  1.0
  H  H6  1  0.53834000  0.32226000  0.51561000  1.0
  H  H7  1  0.46164000  0.67773000  0.48440000  1.0
  H  H8  1  0.09619000  0.29053000  0.22702000  1.0
  H  H9  1  0.90383000  0.70947000  0.77298000  1.0
  H  H10  1  0.90192000  0.68069000  0.98315000  1.0
  H  H11  1  0.09808000  0.31932000  0.01685000  1.0
  H  H12  1  0.37198000  0.70372000  0.27456000  1.0
  H  H13  1  0.62803000  0.29628000  0.72544000  1.0
  C  C14  1  0.45193000  0.29459000  0.44546000  1.0
  C  C15  1  0.54806000  0.70540000  0.55454000  1.0
  C  C16  1  0.24791000  0.36399000  0.37174000  1.0
  C  C17  1  0.75209000  0.63600000  0.62825000  1.0
  C  C18  1  0.23261000  0.27689000  0.29627000  1.0
  C  C19  1  0.76741000  0.72311000  0.70373000  1.0
  C  C20  1  0.77577000  0.70648000  0.05432000  1.0
  C  C21  1  0.22423000  0.29352000  0.94568000  1.0
  C  C22  1  0.62789000  0.63420000  0.12867000  1.0
  C  C23  1  0.37212000  0.36580000  0.87133000  1.0
  C  C24  1  0.50754000  0.71995000  0.20465000  1.0
  C  C25  1  0.49248000  0.28005000  0.79535000  1.0
  N  N26  1  0.41846000  0.16131000  0.32280000  1.0
  N  N27  1  0.58154000  0.83869000  0.67720000  1.0
  N  N28  1  0.54603000  0.17319000  0.41273000  1.0
  N  N29  1  0.45395000  0.82681000  0.58727000  1.0
  N  N30  1  0.57903000  0.83794000  0.17800000  1.0
  N  N31  1  0.42098000  0.16206000  0.82200000  1.0
  N  N32  1  0.73991000  0.82760000  0.08742000  1.0
  N  N33  1  0.26010000  0.17241000  0.91258000  1.0
  Cl  Cl34  1  0.82827000  0.09938000  0.12844000  1.0
  Cl  Cl35  1  0.17173000  0.90063000  0.87156000  1.0
  Cl  Cl36  1  0.11411000  0.91512000  0.36906000  1.0
  Cl  Cl37  1  0.88590000  0.08488000  0.63094000  1.0
  Cl  Cl38  1  0.05357000  0.52320000  0.37176000  1.0
  Cl  Cl39  1  0.94642000  0.47680000  0.62824000  1.0
  Cl  Cl40  1  0.59504000  0.47366000  0.12835000  1.0
  Cl  Cl41  1  0.40497000  0.52634000  0.87165000  1.0
