# generated using pymatgen
data_Cu3H12C20(NO2)6
_symmetry_space_group_name_H-M   'P 1'
_cell_length_a   9.49107000
_cell_length_b   12.31540000
_cell_length_c   12.32370000
_cell_angle_alpha   63.38120000
_cell_angle_beta   86.43430000
_cell_angle_gamma   86.50140000
_symmetry_Int_Tables_number   1
_chemical_formula_structural   Cu3H12C20(NO2)6
_chemical_formula_sum   'Cu6 H24 C40 N12 O24'
_cell_volume   1284.41164332
_cell_formula_units_Z   2
loop_
 _symmetry_equiv_pos_site_id
 _symmetry_equiv_pos_as_xyz
  1  'x, y, z'
loop_
 _atom_site_type_symbol
 _atom_site_label
 _atom_site_symmetry_multiplicity
 _atom_site_fract_x
 _atom_site_fract_y
 _atom_site_fract_z
 _atom_site_occupancy
  Cu  Cu0  1  0.25004000  0.40244000  0.59769000  1.0
  Cu  Cu1  1  0.75004000  0.59755000  0.40229000  1.0
  Cu  Cu2  1  0.00000000  0.50000000  0.99999000  1.0
  Cu  Cu3  1  0.50000000  0.99999000  0.50000000  1.0
  Cu  Cu4  1  0.00000000  0.99999000  0.00001000  1.0
  Cu  Cu5  1  0.49999000  0.00002000  0.99999000  1.0
  H  H6  1  0.76912000  0.32505000  0.12305000  1.0
  H  H7  1  0.73084000  0.87691000  0.67473000  1.0
  H  H8  1  0.23088000  0.67494000  0.87695000  1.0
  H  H9  1  0.26916000  0.12309000  0.32527000  1.0
  H  H10  1  0.64260000  0.22890000  0.32946000  1.0
  H  H11  1  0.85747000  0.67060000  0.77099000  1.0
  H  H12  1  0.35740000  0.77110000  0.67054000  1.0
  H  H13  1  0.14253000  0.32940000  0.22900000  1.0
  H  H14  1  0.93272000  0.93875000  0.45449000  1.0
  H  H15  1  0.56737000  0.54548000  0.06144000  1.0
  H  H16  1  0.06727000  0.06125000  0.54552000  1.0
  H  H17  1  0.43262000  0.45453000  0.93855000  1.0
  H  H18  1  0.07479000  0.02405000  0.25723000  1.0
  H  H19  1  0.42526000  0.74260000  0.97608000  1.0
  H  H20  1  0.92521000  0.97593000  0.74278000  1.0
  H  H21  1  0.57474000  0.25740000  0.02392000  1.0
  H  H22  1  0.04013000  0.47530000  0.41387000  1.0
  H  H23  1  0.45983000  0.58566000  0.52490000  1.0
  H  H24  1  0.95994000  0.52464000  0.58631000  1.0
  H  H25  1  0.54023000  0.41450000  0.47503000  1.0
  H  H26  1  0.20021000  0.45815000  0.38111000  1.0
  H  H27  1  0.29974000  0.61872000  0.54175000  1.0
  H  H28  1  0.79982000  0.54189000  0.61892000  1.0
  H  H29  1  0.70029000  0.38130000  0.45827000  1.0
  C  C30  1  0.08879000  0.48341000  0.76794000  1.0
  C  C31  1  0.41138000  0.23199000  0.51686000  1.0
  C  C32  1  0.91125000  0.51656000  0.23207000  1.0
  C  C33  1  0.58866000  0.76801000  0.48311000  1.0
  C  C34  1  0.06601000  0.35991000  0.86576000  1.0
  C  C35  1  0.43421000  0.13419000  0.64029000  1.0
  C  C36  1  0.93398000  0.64006000  0.13424000  1.0
  C  C37  1  0.56576000  0.86581000  0.35969000  1.0
  C  C38  1  0.06619000  0.24472000  0.87038000  1.0
  C  C39  1  0.43423000  0.12961000  0.75538000  1.0
  C  C40  1  0.93378000  0.75525000  0.12962000  1.0
  C  C41  1  0.56571000  0.87039000  0.24459000  1.0
  C  C42  1  0.08550000  0.19270000  0.78322000  1.0
  C  C43  1  0.41510000  0.21684000  0.80741000  1.0
  C  C44  1  0.91442000  0.80726000  0.21678000  1.0
  C  C45  1  0.58481000  0.78317000  0.19255000  1.0
  C  C46  1  0.99678000  0.22971000  0.04971000  1.0
  C  C47  1  0.50327000  0.95018000  0.77031000  1.0
  C  C48  1  0.00322000  0.77028000  0.95029000  1.0
  C  C49  1  0.49673000  0.04982000  0.22969000  1.0
  C  C50  1  0.93191000  0.18133000  0.17234000  1.0
  C  C51  1  0.56813000  0.82755000  0.81864000  1.0
  C  C52  1  0.06809000  0.81866000  0.82766000  1.0
  C  C53  1  0.43188000  0.17246000  0.18136000  1.0
  C  C54  1  0.81016000  0.24012000  0.19431000  1.0
  C  C55  1  0.68985000  0.80564000  0.75975000  1.0
  C  C56  1  0.18984000  0.75987000  0.80570000  1.0
  C  C57  1  0.31015000  0.19436000  0.24025000  1.0
  C  C58  1  0.73929000  0.19044000  0.30594000  1.0
  C  C59  1  0.76078000  0.69406000  0.80950000  1.0
  C  C60  1  0.26072000  0.80956000  0.69405000  1.0
  C  C61  1  0.23922000  0.30594000  0.19050000  1.0
  C  C62  1  0.90593000  0.02499000  0.37823000  1.0
  C  C63  1  0.59416000  0.62172000  0.97514000  1.0
  C  C64  1  0.09406000  0.97501000  0.62178000  1.0
  C  C65  1  0.40585000  0.37828000  0.02486000  1.0
  C  C66  1  0.98063000  0.07336000  0.26820000  1.0
  C  C67  1  0.51943000  0.73168000  0.92673000  1.0
  C  C68  1  0.01937000  0.92663000  0.73181000  1.0
  C  C69  1  0.48058000  0.26832000  0.07327000  1.0
  N  N70  1  0.02447000  0.16405000  0.98652000  1.0
  N  N71  1  0.47578000  0.01345000  0.83594000  1.0
  N  N72  1  0.97550000  0.83594000  0.01349000  1.0
  N  N73  1  0.52418000  0.98656000  0.16405000  1.0
  N  N74  1  0.02196000  0.34842000  0.97898000  1.0
  N  N75  1  0.47806000  0.02090000  0.65170000  1.0
  N  N76  1  0.97805000  0.65156000  0.02101000  1.0
  N  N77  1  0.52195000  0.97909000  0.34829000  1.0
  N  N78  1  0.78658000  0.08311000  0.39584000  1.0
  N  N79  1  0.71356000  0.60420000  0.91698000  1.0
  N  N80  1  0.21342000  0.91689000  0.60417000  1.0
  N  N81  1  0.28645000  0.39580000  0.08302000  1.0
  O  O82  1  0.13401000  0.50137000  0.66011000  1.0
  O  O83  1  0.36628000  0.33989000  0.49886000  1.0
  O  O84  1  0.86607000  0.49862000  0.33991000  1.0
  O  O85  1  0.63380000  0.66012000  0.50112000  1.0
  O  O86  1  0.05513000  0.57132000  0.79146000  1.0
  O  O87  1  0.44488000  0.20839000  0.42900000  1.0
  O  O88  1  0.94490000  0.42865000  0.20855000  1.0
  O  O89  1  0.55515000  0.79162000  0.57098000  1.0
  O  O90  1  0.12195000  0.25066000  0.67295000  1.0
  O  O91  1  0.37931000  0.32719000  0.74950000  1.0
  O  O92  1  0.87786000  0.74931000  0.32703000  1.0
  O  O93  1  0.62054000  0.67282000  0.25045000  1.0
  O  O94  1  0.05955000  0.07792000  0.82986000  1.0
  O  O95  1  0.44058000  0.16999000  0.92224000  1.0
  O  O96  1  0.94043000  0.92202000  0.17018000  1.0
  O  O97  1  0.55939000  0.83007000  0.07770000  1.0
  O  O98  1  0.71580000  0.03374000  0.50169000  1.0
  O  O99  1  0.78438000  0.49837000  0.96642000  1.0
  O  O100  1  0.28420000  0.96626000  0.49831000  1.0
  O  O101  1  0.21562000  0.50163000  0.03358000  1.0
  O  O102  1  0.13686000  0.49451000  0.42224000  1.0
  O  O103  1  0.36306000  0.57710000  0.50588000  1.0
  O  O104  1  0.86322000  0.50540000  0.57794000  1.0
  O  O105  1  0.63701000  0.42307000  0.49402000  1.0
