# generated using pymatgen
data_Zn2NiH14C8(N2O)4
_symmetry_space_group_name_H-M   'P 1'
_cell_length_a   5.74251000
_cell_length_b   7.86310000
_cell_length_c   9.77260000
_cell_angle_alpha   82.44780000
_cell_angle_beta   76.02660000
_cell_angle_gamma   86.29330000
_symmetry_Int_Tables_number   1
_chemical_formula_structural   Zn2NiH14C8(N2O)4
_chemical_formula_sum   'Zn2 Ni1 H14 C8 N8 O4'
_cell_volume   424.25013350
_cell_formula_units_Z   1
loop_
 _symmetry_equiv_pos_site_id
 _symmetry_equiv_pos_as_xyz
  1  'x, y, z'
loop_
 _atom_site_type_symbol
 _atom_site_label
 _atom_site_symmetry_multiplicity
 _atom_site_fract_x
 _atom_site_fract_y
 _atom_site_fract_z
 _atom_site_occupancy
  Zn  Zn0  1  0.46943000  0.79957000  0.75434000  1.0
  Zn  Zn1  1  0.53058000  0.20043000  0.24566000  1.0
  Ni  Ni2  1  0.00000000  0.50002000  0.50000000  1.0
  H  H3  1  0.24074000  0.02990000  0.90568000  1.0
  H  H4  1  0.75926000  0.97009000  0.09433000  1.0
  H  H5  1  0.07498000  0.85640000  0.93737000  1.0
  H  H6  1  0.92502000  0.14358000  0.06263000  1.0
  H  H7  1  0.31162000  0.86265000  0.00857000  1.0
  H  H8  1  0.68837000  0.13732000  0.99144000  1.0
  H  H9  1  0.74848000  0.95450000  0.53135000  1.0
  H  H10  1  0.25152000  0.04552000  0.46865000  1.0
  H  H11  1  0.57661000  0.09730000  0.62300000  1.0
  H  H12  1  0.42338000  0.90271000  0.37700000  1.0
  H  H13  1  0.82159000  0.01519000  0.67065000  1.0
  H  H14  1  0.17840000  0.98481000  0.32936000  1.0
  H  H15  1  0.98436000  0.39019000  0.88273000  1.0
  H  H16  1  0.01565000  0.60978000  0.11725000  1.0
  C  C17  1  0.09563000  0.30142000  0.59789000  1.0
  C  C18  1  0.90436000  0.69863000  0.40210000  1.0
  C  C19  1  0.17673000  0.62397000  0.58211000  1.0
  C  C20  1  0.82327000  0.37606000  0.41789000  1.0
  C  C21  1  0.78418000  0.63733000  0.90266000  1.0
  C  C22  1  0.21584000  0.36265000  0.09733000  1.0
  C  C23  1  0.94875000  0.49793000  0.94552000  1.0
  C  C24  1  0.05125000  0.50205000  0.05447000  1.0
  N  N25  1  0.15567000  0.17181000  0.65703000  1.0
  N  N26  1  0.84433000  0.82821000  0.34297000  1.0
  N  N27  1  0.28607000  0.70311000  0.63705000  1.0
  N  N28  1  0.71393000  0.29691000  0.36295000  1.0
  N  N29  1  0.24861000  0.89840000  0.91947000  1.0
  N  N30  1  0.75138000  0.10158000  0.08054000  1.0
  N  N31  1  0.67930000  0.98667000  0.63222000  1.0
  N  N32  1  0.32069000  0.01333000  0.36778000  1.0
  O  O33  1  0.66040000  0.59841000  0.81763000  1.0
  O  O34  1  0.33960000  0.40158000  0.18237000  1.0
  O  O35  1  0.77294000  0.78300000  0.94607000  1.0
  O  O36  1  0.22709000  0.21698000  0.05393000  1.0
