# generated using pymatgen
data_ZnH8C8Br2NO2
_symmetry_space_group_name_H-M   'P 1'
_cell_length_a   6.68402000
_cell_length_b   12.62440000
_cell_length_c   13.41420000
_cell_angle_alpha   78.50740000
_cell_angle_beta   87.15740000
_cell_angle_gamma   86.48640000
_symmetry_Int_Tables_number   1
_chemical_formula_structural   ZnH8C8Br2NO2
_chemical_formula_sum   'Zn4 H32 C32 Br8 N4 O8'
_cell_volume   1106.32531732
_cell_formula_units_Z   4
loop_
 _symmetry_equiv_pos_site_id
 _symmetry_equiv_pos_as_xyz
  1  'x, y, z'
loop_
 _atom_site_type_symbol
 _atom_site_label
 _atom_site_symmetry_multiplicity
 _atom_site_fract_x
 _atom_site_fract_y
 _atom_site_fract_z
 _atom_site_occupancy
  Zn  Zn0  1  0.23328000  0.37944000  0.28207000  1.0
  Zn  Zn1  1  0.76672000  0.62056000  0.71793000  1.0
  Zn  Zn2  1  0.32883000  0.10399000  0.27418000  1.0
  Zn  Zn3  1  0.67117000  0.89601000  0.72582000  1.0
  H  H4  1  0.01459000  0.39403000  0.51948000  1.0
  H  H5  1  0.98541000  0.60598000  0.48053000  1.0
  H  H6  1  0.80456000  0.11807000  0.70898000  1.0
  H  H7  1  0.19543000  0.88194000  0.29101000  1.0
  H  H8  1  0.84712000  0.35289000  0.02673000  1.0
  H  H9  1  0.15290000  0.64710000  0.97328000  1.0
  H  H10  1  0.93177000  0.21876000  0.01548000  1.0
  H  H11  1  0.06823000  0.78122000  0.98452000  1.0
  H  H12  1  0.60510000  0.43860000  0.93209000  1.0
  H  H13  1  0.39492000  0.56140000  0.06792000  1.0
  H  H14  1  0.42135000  0.09474000  0.84967000  1.0
  H  H15  1  0.57864000  0.90526000  0.15033000  1.0
  H  H16  1  0.68389000  0.10289000  0.97200000  1.0
  H  H17  1  0.31611000  0.89710000  0.02799000  1.0
  H  H18  1  0.27622000  0.41165000  0.64119000  1.0
  H  H19  1  0.72377000  0.58836000  0.35882000  1.0
  H  H20  1  0.33802000  0.44426000  0.80884000  1.0
  H  H21  1  0.66200000  0.55574000  0.19116000  1.0
  H  H22  1  0.66931000  0.14264000  0.14824000  1.0
  H  H23  1  0.33068000  0.85735000  0.85177000  1.0
  H  H24  1  0.84240000  0.21963000  0.19265000  1.0
  H  H25  1  0.15760000  0.78036000  0.80735000  1.0
  H  H26  1  0.73307000  0.32245000  0.48413000  1.0
  H  H27  1  0.26694000  0.67755000  0.51587000  1.0
  H  H28  1  0.61502000  0.22189000  0.57722000  1.0
  H  H29  1  0.38497000  0.77812000  0.42278000  1.0
  H  H30  1  0.06170000  0.11995000  0.83577000  1.0
  H  H31  1  0.93829000  0.88006000  0.16423000  1.0
  H  H32  1  0.86677000  0.07828000  0.53061000  1.0
  H  H33  1  0.13322000  0.92172000  0.46939000  1.0
  H  H34  1  0.70530000  0.13669000  0.43449000  1.0
  H  H35  1  0.29470000  0.86332000  0.56551000  1.0
  C  C36  1  0.02878000  0.33835000  0.59199000  1.0
  C  C37  1  0.97121000  0.66165000  0.40801000  1.0
  C  C38  1  0.55351000  0.29941000  0.17446000  1.0
  C  C39  1  0.44650000  0.70059000  0.82554000  1.0
  C  C40  1  0.91306000  0.18075000  0.69841000  1.0
  C  C41  1  0.08693000  0.81926000  0.30159000  1.0
  C  C42  1  0.80147000  0.26983000  0.03341000  1.0
  C  C43  1  0.19854000  0.73015000  0.96659000  1.0
  C  C44  1  0.55727000  0.36536000  0.91165000  1.0
  C  C45  1  0.44274000  0.63463000  0.08835000  1.0
  C  C46  1  0.45247000  0.17236000  0.86769000  1.0
  C  C47  1  0.54752000  0.82764000  0.13231000  1.0
  C  C48  1  0.35264000  0.26909000  0.82040000  1.0
  C  C49  1  0.64736000  0.73091000  0.17960000  1.0
  C  C50  1  0.60041000  0.17557000  0.93495000  1.0
  C  C51  1  0.39959000  0.82443000  0.06505000  1.0
  C  C52  1  0.17339000  0.34611000  0.66031000  1.0
  C  C53  1  0.82660000  0.65389000  0.33970000  1.0
  C  C54  1  0.41047000  0.36663000  0.84206000  1.0
  C  C55  1  0.58953000  0.63337000  0.15794000  1.0
  C  C56  1  0.71858000  0.22547000  0.14032000  1.0
  C  C57  1  0.28143000  0.77452000  0.85968000  1.0
  C  C58  1  0.19222000  0.26700000  0.74927000  1.0
  C  C59  1  0.80777000  0.73300000  0.25073000  1.0
  C  C60  1  0.75630000  0.24387000  0.53519000  1.0
  C  C61  1  0.24370000  0.75614000  0.46480000  1.0
  C  C62  1  0.05700000  0.18366000  0.76784000  1.0
  C  C63  1  0.94299000  0.81634000  0.23217000  1.0
  C  C64  1  0.82952000  0.15501000  0.47833000  1.0
  C  C65  1  0.17048000  0.84499000  0.52167000  1.0
  C  C66  1  0.00535000  0.18385000  0.40399000  1.0
  C  C67  1  0.99465000  0.81615000  0.59602000  1.0
  Br  Br68  1  0.21044000  0.07611000  0.11458000  1.0
  Br  Br69  1  0.78954000  0.92389000  0.88543000  1.0
  Br  Br70  1  0.57902000  0.97173000  0.34269000  1.0
  Br  Br71  1  0.42095000  0.02825000  0.65731000  1.0
  Br  Br72  1  0.37801000  0.47687000  0.39199000  1.0
  Br  Br73  1  0.62197000  0.52314000  0.60800000  1.0
  Br  Br74  1  0.03014000  0.47218000  0.15068000  1.0
  Br  Br75  1  0.96991000  0.52781000  0.84929000  1.0
  N  N76  1  0.64931000  0.27074000  0.95668000  1.0
  N  N77  1  0.35070000  0.72925000  0.04332000  1.0
  N  N78  1  0.90269000  0.25629000  0.61131000  1.0
  N  N79  1  0.09731000  0.74371000  0.38869000  1.0
  O  O80  1  0.42793000  0.25588000  0.24894000  1.0
  O  O81  1  0.57207000  0.74412000  0.75106000  1.0
  O  O82  1  0.53933000  0.39686000  0.13684000  1.0
  O  O83  1  0.46069000  0.60314000  0.86316000  1.0
  O  O84  1  0.09629000  0.10491000  0.37094000  1.0
  O  O85  1  0.90372000  0.89509000  0.62907000  1.0
  O  O86  1  0.04552000  0.28267000  0.37941000  1.0
  O  O87  1  0.95447000  0.71733000  0.62058000  1.0
