# generated using pymatgen
data_SrCuH6C14(NO4)2
_symmetry_space_group_name_H-M   'P 1'
_cell_length_a   8.55695000
_cell_length_b   9.80806000
_cell_length_c   9.81030772
_cell_angle_alpha   119.84153231
_cell_angle_beta   91.98462342
_cell_angle_gamma   91.99570000
_symmetry_Int_Tables_number   1
_chemical_formula_structural   SrCuH6C14(NO4)2
_chemical_formula_sum   'Sr2 Cu2 H12 C28 N4 O16'
_cell_volume   712.46181671
_cell_formula_units_Z   2
loop_
 _symmetry_equiv_pos_site_id
 _symmetry_equiv_pos_as_xyz
  1  'x, y, z'
loop_
 _atom_site_type_symbol
 _atom_site_label
 _atom_site_symmetry_multiplicity
 _atom_site_fract_x
 _atom_site_fract_y
 _atom_site_fract_z
 _atom_site_occupancy
  Sr  Sr0  1  0.75000000  0.01162000  0.98854000  1.0
  Sr  Sr1  1  0.25000000  0.98838000  0.01146000  1.0
  Cu  Cu2  1  0.50000000  0.50000000  0.50000000  1.0
  Cu  Cu3  1  0.00000000  0.50000000  0.50000000  1.0
  H  H4  1  0.39275000  0.92444000  0.34903000  1.0
  H  H5  1  0.10724000  0.65142000  0.07591000  1.0
  H  H6  1  0.60725000  0.07556000  0.65097000  1.0
  H  H7  1  0.89276000  0.34858000  0.92409000  1.0
  H  H8  1  0.67581000  0.54431000  0.05355000  1.0
  H  H9  1  0.82401000  0.94670000  0.45594000  1.0
  H  H10  1  0.32419000  0.45568000  0.94644000  1.0
  H  H11  1  0.17600000  0.05330000  0.54406000  1.0
  H  H12  1  0.36945000  0.80292000  0.52514000  1.0
  H  H13  1  0.13061000  0.47523000  0.19732000  1.0
  H  H14  1  0.63056000  0.19708000  0.47486000  1.0
  H  H15  1  0.86939000  0.52477000  0.80268000  1.0
  C  C16  1  0.53694000  0.74311000  0.18916000  1.0
  C  C17  1  0.96298000  0.81120000  0.25720000  1.0
  C  C18  1  0.46306000  0.25689000  0.81084000  1.0
  C  C19  1  0.03702000  0.18879000  0.74280000  1.0
  C  C20  1  0.58524000  0.54250000  0.25438000  1.0
  C  C21  1  0.91474000  0.74588000  0.45773000  1.0
  C  C22  1  0.41476000  0.45750000  0.74562000  1.0
  C  C23  1  0.08526000  0.25412000  0.54227000  1.0
  C  C24  1  0.44866000  0.81619000  0.32194000  1.0
  C  C25  1  0.05134000  0.67847000  0.18414000  1.0
  C  C26  1  0.55134000  0.18380000  0.67805000  1.0
  C  C27  1  0.94867000  0.32153000  0.81586000  1.0
  C  C28  1  0.60562000  0.60337000  0.15519000  1.0
  C  C29  1  0.89428000  0.84511000  0.39689000  1.0
  C  C30  1  0.39438000  0.39662000  0.84480000  1.0
  C  C31  1  0.10572000  0.15489000  0.60311000  1.0
  C  C32  1  0.65527000  0.39400000  0.22924000  1.0
  C  C33  1  0.84468000  0.77083000  0.60613000  1.0
  C  C34  1  0.34473000  0.60600000  0.77076000  1.0
  C  C35  1  0.15532000  0.22917000  0.39387000  1.0
  C  C36  1  0.43432000  0.74973000  0.41843000  1.0
  C  C37  1  0.06573000  0.58194000  0.25055000  1.0
  C  C38  1  0.56568000  0.25028000  0.58157000  1.0
  C  C39  1  0.93427000  0.41807000  0.74946000  1.0
  C  C40  1  0.56547000  0.81384000  0.08527000  1.0
  C  C41  1  0.93441000  0.91505000  0.18640000  1.0
  C  C42  1  0.43453000  0.18615000  0.91473000  1.0
  C  C43  1  0.06559000  0.08495000  0.81360000  1.0
  N  N44  1  0.50207000  0.61547000  0.38398000  1.0
  N  N45  1  0.99798000  0.61630000  0.38476000  1.0
  N  N46  1  0.49793000  0.38454000  0.61602000  1.0
  N  N47  1  0.00202000  0.38370000  0.61524000  1.0
  O  O48  1  0.63412000  0.35807000  0.33783000  1.0
  O  O49  1  0.86574000  0.66205000  0.64184000  1.0
  O  O50  1  0.36588000  0.64192000  0.66217000  1.0
  O  O51  1  0.13426000  0.33796000  0.35816000  1.0
  O  O52  1  0.65381000  0.74328000  0.97269000  1.0
  O  O53  1  0.84610000  0.02768000  0.25692000  1.0
  O  O54  1  0.34620000  0.25672000  0.02731000  1.0
  O  O55  1  0.15390000  0.97232000  0.74308000  1.0
  O  O56  1  0.72923000  0.31416000  0.10962000  1.0
  O  O57  1  0.77077000  0.89046000  0.68608000  1.0
  O  O58  1  0.27077000  0.68584000  0.89038000  1.0
  O  O59  1  0.22923000  0.10954000  0.31392000  1.0
  O  O60  1  0.50405000  0.94313000  0.12082000  1.0
  O  O61  1  0.99581000  0.87938000  0.05708000  1.0
  O  O62  1  0.49595000  0.05687000  0.87918000  1.0
  O  O63  1  0.00420000  0.12062000  0.94292000  1.0
