# generated using pymatgen
data_CuH7C6N7
_symmetry_space_group_name_H-M   'P 1'
_cell_length_a   6.59963000
_cell_length_b   13.35600000
_cell_length_c   13.35580000
_cell_angle_alpha   61.21610000
_cell_angle_beta   81.00480000
_cell_angle_gamma   81.00460000
_symmetry_Int_Tables_number   1
_chemical_formula_structural   CuH7C6N7
_chemical_formula_sum   'Cu4 H28 C24 N28'
_cell_volume   1014.61637996
_cell_formula_units_Z   4
loop_
 _symmetry_equiv_pos_site_id
 _symmetry_equiv_pos_as_xyz
  1  'x, y, z'
loop_
 _atom_site_type_symbol
 _atom_site_label
 _atom_site_symmetry_multiplicity
 _atom_site_fract_x
 _atom_site_fract_y
 _atom_site_fract_z
 _atom_site_occupancy
  Cu  Cu0  1  0.34711000  0.99562000  0.86752000  1.0
  Cu  Cu1  1  0.15289000  0.13247000  0.00437000  1.0
  Cu  Cu2  1  0.65315000  0.00468000  0.13238000  1.0
  Cu  Cu3  1  0.84688000  0.86760000  0.99535000  1.0
  H  H4  1  0.12875000  0.12946000  0.66259000  1.0
  H  H5  1  0.37124000  0.33741000  0.87053000  1.0
  H  H6  1  0.87177000  0.87060000  0.33778000  1.0
  H  H7  1  0.62822000  0.66221000  0.12941000  1.0
  H  H8  1  0.57606000  0.18060000  0.37357000  1.0
  H  H9  1  0.92392000  0.62643000  0.81941000  1.0
  H  H10  1  0.42394000  0.81930000  0.62662000  1.0
  H  H11  1  0.07606000  0.37337000  0.18069000  1.0
  H  H12  1  0.83233000  0.05558000  0.51288000  1.0
  H  H13  1  0.66766000  0.48712000  0.94442000  1.0
  H  H14  1  0.16783000  0.94412000  0.48726000  1.0
  H  H15  1  0.33218000  0.51273000  0.05590000  1.0
  H  H16  1  0.72330000  0.97602000  0.72381000  1.0
  H  H17  1  0.77669000  0.27619000  0.02397000  1.0
  H  H18  1  0.27700000  0.02384000  0.27636000  1.0
  H  H19  1  0.22302000  0.72363000  0.97620000  1.0
  H  H20  1  0.24107000  0.31603000  0.35284000  1.0
  H  H21  1  0.25893000  0.64717000  0.68399000  1.0
  H  H22  1  0.75895000  0.68387000  0.64746000  1.0
  H  H23  1  0.74102000  0.35253000  0.31614000  1.0
  H  H24  1  0.04849000  0.27921000  0.47123000  1.0
  H  H25  1  0.45152000  0.52877000  0.72082000  1.0
  H  H26  1  0.95183000  0.72076000  0.52921000  1.0
  H  H27  1  0.54814000  0.47079000  0.27922000  1.0
  H  H28  1  0.09961000  0.19812000  0.39453000  1.0
  H  H29  1  0.40036000  0.60547000  0.80191000  1.0
  H  H30  1  0.90034000  0.80176000  0.60600000  1.0
  H  H31  1  0.59968000  0.39398000  0.19823000  1.0
  C  C32  1  0.28329000  0.11590000  0.62521000  1.0
  C  C33  1  0.21670000  0.37479000  0.88410000  1.0
  C  C34  1  0.71710000  0.88415000  0.37504000  1.0
  C  C35  1  0.78290000  0.62494000  0.11587000  1.0
  C  C36  1  0.33029000  0.16731000  0.50642000  1.0
  C  C37  1  0.16970000  0.49358000  0.83270000  1.0
  C  C38  1  0.66995000  0.83267000  0.49386000  1.0
  C  C39  1  0.83006000  0.50613000  0.16733000  1.0
  C  C40  1  0.53144000  0.14427000  0.46556000  1.0
  C  C41  1  0.96854000  0.53444000  0.85574000  1.0
  C  C42  1  0.46873000  0.85564000  0.53467000  1.0
  C  C43  1  0.03127000  0.46532000  0.14436000  1.0
  C  C44  1  0.67527000  0.07465000  0.54289000  1.0
  C  C45  1  0.82471000  0.45710000  0.92536000  1.0
  C  C46  1  0.32495000  0.92518000  0.45731000  1.0
  C  C47  1  0.17504000  0.54269000  0.07484000  1.0
  C  C48  1  0.61658000  0.02935000  0.65982000  1.0
  C  C49  1  0.88341000  0.34017000  0.97065000  1.0
  C  C50  1  0.38372000  0.97054000  0.34038000  1.0
  C  C51  1  0.11630000  0.65961000  0.02948000  1.0
  C  C52  1  0.17059000  0.24432000  0.42752000  1.0
  C  C53  1  0.32940000  0.57248000  0.75570000  1.0
  C  C54  1  0.82952000  0.75563000  0.57287000  1.0
  C  C55  1  0.67046000  0.42712000  0.24437000  1.0
  N  N56  1  0.25002000  0.97180000  0.02819000  1.0
  N  N57  1  0.75001000  0.02858000  0.97140000  1.0
  N  N58  1  0.25000000  0.88226000  0.11773000  1.0
  N  N59  1  0.75003000  0.11807000  0.88190000  1.0
  N  N60  1  0.24998000  0.79702000  0.20297000  1.0
  N  N61  1  0.75004000  0.20328000  0.79666000  1.0
  N  N62  1  0.25003000  0.15686000  0.84314000  1.0
  N  N63  1  0.75000000  0.84348000  0.15652000  1.0
  N  N64  1  0.25001000  0.24650000  0.75350000  1.0
  N  N65  1  0.75001000  0.75387000  0.24614000  1.0
  N  N66  1  0.25000000  0.33169000  0.66830000  1.0
  N  N67  1  0.75001000  0.66871000  0.33131000  1.0
  N  N68  1  0.54801000  0.85693000  0.92132000  1.0
  N  N69  1  0.95201000  0.07867000  0.14308000  1.0
  N  N70  1  0.45280000  0.14362000  0.07839000  1.0
  N  N71  1  0.04721000  0.92160000  0.85640000  1.0
  N  N72  1  0.55860000  0.78711000  0.88710000  1.0
  N  N73  1  0.94141000  0.11291000  0.21289000  1.0
  N  N74  1  0.44093000  0.21343000  0.11268000  1.0
  N  N75  1  0.05906000  0.88731000  0.78658000  1.0
  N  N76  1  0.57416000  0.71667000  0.85763000  1.0
  N  N77  1  0.92584000  0.14237000  0.28332000  1.0
  N  N78  1  0.42393000  0.28403000  0.14204000  1.0
  N  N79  1  0.07607000  0.85797000  0.71597000  1.0
  N  N80  1  0.42286000  0.04933000  0.70010000  1.0
  N  N81  1  0.07713000  0.29990000  0.95066000  1.0
  N  N82  1  0.57755000  0.95069000  0.30010000  1.0
  N  N83  1  0.92246000  0.69989000  0.04933000  1.0
