# generated using pymatgen
data_Zr6H35C62Br5O34
_symmetry_space_group_name_H-M   'P 1'
_cell_length_a   14.81695222
_cell_length_b   14.83340000
_cell_length_c   14.84050915
_cell_angle_alpha   60.12642970
_cell_angle_beta   60.08459475
_cell_angle_gamma   60.04560030
_symmetry_Int_Tables_number   1
_chemical_formula_structural   Zr6H35C62Br5O34
_chemical_formula_sum   'Zr6 H35 C62 Br5 O34'
_cell_volume   2310.86183037
_cell_formula_units_Z   1
loop_
 _symmetry_equiv_pos_site_id
 _symmetry_equiv_pos_as_xyz
  1  'x, y, z'
loop_
 _atom_site_type_symbol
 _atom_site_label
 _atom_site_symmetry_multiplicity
 _atom_site_fract_x
 _atom_site_fract_y
 _atom_site_fract_z
 _atom_site_occupancy
  Zr  Zr0  1  0.62888000  0.88191000  0.10847000  1.0
  Zr  Zr1  1  0.38500000  0.11727000  0.87532000  1.0
  Zr  Zr2  1  0.62349000  0.12226000  0.87036000  1.0
  Zr  Zr3  1  0.39034000  0.87961000  0.11149000  1.0
  Zr  Zr4  1  0.38989000  0.11943000  0.11063000  1.0
  Zr  Zr5  1  0.62800000  0.88299000  0.87004000  1.0
  H  H6  1  0.59986000  0.09617000  0.08473000  1.0
  H  H7  1  0.22642000  0.09020000  0.09064000  1.0
  H  H8  1  0.59671000  0.09637000  0.70903000  1.0
  H  H9  1  0.60386000  0.71956000  0.08373000  1.0
  H  H10  1  0.62753000  0.83174000  0.42692000  1.0
  H  H11  1  0.24240000  0.16327000  0.46076000  1.0
  H  H12  1  0.33528000  0.24004000  0.37504000  1.0
  H  H13  1  0.34173000  0.23506000  0.54405000  1.0
  H  H14  1  0.24581000  0.16136000  0.62825000  1.0
  H  H15  1  0.91360000  0.58794000  0.13734000  1.0
  H  H16  1  0.94733000  0.58995000  0.75675000  1.0
  H  H17  1  0.86137000  0.50802000  0.85769000  1.0
  H  H18  1  0.02945000  0.33783000  0.86678000  1.0
  H  H19  1  0.11616000  0.41993000  0.76927000  1.0
  H  H20  1  0.10033000  0.14387000  0.39990000  1.0
  H  H21  1  0.15340000  0.72671000  0.48942000  1.0
  H  H22  1  0.07246000  0.79722000  0.40130000  1.0
  H  H23  1  0.89850000  0.81082000  0.56624000  1.0
  H  H24  1  0.97942000  0.74142000  0.65389000  1.0
  H  H25  1  0.66997000  0.57233000  0.86585000  1.0
  H  H26  1  0.24892000  0.63930000  0.13317000  1.0
  H  H27  1  0.31840000  0.55438000  0.23225000  1.0
  H  H28  1  0.32389000  0.38486000  0.22591000  1.0
  H  H29  1  0.25645000  0.46890000  0.12581000  1.0
  H  H30  1  0.73948000  0.98296000  0.20419000  1.0
  H  H31  1  0.74052000  0.97494000  0.37277000  1.0
  H  H32  1  0.07310000  0.98039000  0.20991000  1.0
  H  H33  1  0.90754000  0.97591000  0.37511000  1.0
  H  H34  1  0.36110000  0.59730000  0.40063000  1.0
  H  H35  1  0.65360000  0.63552000  0.47966000  1.0
  H  H36  1  0.74562000  0.54639000  0.39909000  1.0
  H  H37  1  0.72814000  0.38126000  0.57126000  1.0
  H  H38  1  0.63681000  0.46941000  0.65221000  1.0
  H  H39  1  0.21162000  0.07364000  0.82005000  1.0
  H  H40  1  0.90337000  0.08535000  0.81281000  1.0
  C  C41  1  0.50086000  0.99299000  0.30033000  1.0
  C  C42  1  0.19900000  0.29738000  0.00148000  1.0
  C  C43  1  0.49852000  0.98811000  0.69873000  1.0
  C  C44  1  0.81197000  0.69984000  0.98672000  1.0
  C  C45  1  0.80989000  0.00168000  0.99446000  1.0
  C  C46  1  0.50763000  0.70159000  0.29687000  1.0
  C  C47  1  0.19865000  0.99589000  0.00200000  1.0
  C  C48  1  0.48902000  0.31111000  0.69702000  1.0
  C  C49  1  0.51207000  0.30367000  0.98733000  1.0
  C  C50  1  0.81403000  0.00382000  0.69102000  1.0
  C  C51  1  0.50716000  0.70087000  0.98854000  1.0
  C  C52  1  0.21530000  0.99100000  0.30167000  1.0
  C  C53  1  0.49214000  0.98468000  0.40817000  1.0
  C  C54  1  0.49346000  0.97747000  0.60655000  1.0
  C  C55  1  0.41432000  0.06376000  0.45885000  1.0
  C  C56  1  0.56701000  0.89222000  0.55883000  1.0
  C  C57  1  0.41604000  0.06009000  0.55396000  1.0
  C  C58  1  0.56694000  0.89675000  0.46259000  1.0
  C  C59  1  0.31782000  0.17040000  0.44995000  1.0
  C  C60  1  0.32053000  0.16782000  0.55618000  1.0
  C  C61  1  0.90343000  0.59205000  0.99569000  1.0
  C  C62  1  0.09220000  0.39064000  0.01109000  1.0
  C  C63  1  0.94723000  0.53076000  0.92748000  1.0
  C  C64  1  0.03842000  0.44691000  0.08841000  1.0
  C  C65  1  0.03899000  0.43458000  0.93509000  1.0
  C  C66  1  0.94950000  0.54537000  0.07882000  1.0
  C  C67  1  0.93704000  0.52221000  0.83549000  1.0
  C  C68  1  0.04217000  0.41480000  0.84257000  1.0
  C  C69  1  0.11822000  0.98897000  0.40459000  1.0
  C  C70  1  0.91875000  0.00219000  0.59544000  1.0
  C  C71  1  0.07124000  0.90591000  0.46391000  1.0
  C  C72  1  0.96986000  0.08448000  0.53616000  1.0
  C  C73  1  0.97491000  0.91372000  0.55528000  1.0
  C  C74  1  0.06558000  0.07771000  0.44420000  1.0
  C  C75  1  0.08003000  0.79610000  0.47180000  1.0
  C  C76  1  0.97079000  0.80499000  0.57501000  1.0
  C  C77  1  0.51062000  0.59765000  0.99163000  1.0
  C  C78  1  0.51963000  0.39915000  0.98920000  1.0
  C  C79  1  0.42725000  0.55152000  0.06348000  1.0
  C  C80  1  0.60782000  0.44302000  0.92121000  1.0
  C  C81  1  0.43201000  0.45655000  0.06070000  1.0
  C  C82  1  0.60203000  0.53990000  0.92118000  1.0
  C  C83  1  0.31656000  0.56368000  0.15487000  1.0
  C  C84  1  0.32097000  0.45711000  0.15074000  1.0
  C  C85  1  0.90036000  0.01206000  0.00153000  1.0
  C  C86  1  0.90458000  0.99238000  0.10499000  1.0
  C  C87  1  0.98251000  0.04334000  0.90301000  1.0
  C  C88  1  0.81264000  0.98397000  0.20362000  1.0
  C  C89  1  0.81345000  0.97843000  0.29898000  1.0
  C  C90  1  0.09179000  0.00776000  0.00551000  1.0
  C  C91  1  0.07965000  0.04014000  0.90512000  1.0
  C  C92  1  0.00118000  0.99082000  0.10696000  1.0
  C  C93  1  0.00022000  0.98228000  0.20698000  1.0
  C  C94  1  0.90770000  0.97817000  0.30047000  1.0
  C  C95  1  0.50048000  0.60692000  0.40170000  1.0
  C  C96  1  0.48415000  0.41498000  0.59997000  1.0
  C  C97  1  0.57087000  0.55814000  0.46178000  1.0
  C  C98  1  0.41037000  0.46842000  0.53981000  1.0
  C  C99  1  0.56176000  0.46607000  0.55720000  1.0
  C  C100  1  0.41867000  0.56030000  0.44459000  1.0
  C  C101  1  0.66833000  0.56123000  0.46784000  1.0
  C  C102  1  0.65770000  0.45758000  0.57585000  1.0
  Br  Br103  1  0.67284000  0.76188000  0.61964000  1.0
  Br  Br104  1  0.07513000  0.39216000  0.21703000  1.0
  Br  Br105  1  0.91583000  0.21406000  0.57088000  1.0
  Br  Br106  1  0.74567000  0.37216000  0.82853000  1.0
  Br  Br107  1  0.29203000  0.42226000  0.57984000  1.0
  O  O108  1  0.58029000  0.91959000  0.25791000  1.0
  O  O109  1  0.23509000  0.25991000  0.92415000  1.0
  O  O110  1  0.42163000  0.06703000  0.73497000  1.0
  O  O111  1  0.77623000  0.74330000  0.05919000  1.0
  O  O112  1  0.77786000  0.06998000  0.90998000  1.0
  O  O113  1  0.43382000  0.73869000  0.25442000  1.0
  O  O114  1  0.23885000  0.92084000  0.07763000  1.0
  O  O115  1  0.56875000  0.27276000  0.73184000  1.0
  O  O116  1  0.43336000  0.26765000  0.06416000  1.0
  O  O117  1  0.77648000  0.92672000  0.72705000  1.0
  O  O118  1  0.58365000  0.74019000  0.91244000  1.0
  O  O119  1  0.25195000  0.07027000  0.25883000  1.0
  O  O120  1  0.76802000  0.08222000  0.72988000  1.0
  O  O121  1  0.42815000  0.74125000  0.06381000  1.0
  O  O122  1  0.25228000  0.91493000  0.26240000  1.0
  O  O123  1  0.58343000  0.26499000  0.90898000  1.0
  O  O124  1  0.77033000  0.92521000  0.06961000  1.0
  O  O125  1  0.41642000  0.26630000  0.73700000  1.0
  O  O126  1  0.24736000  0.06430000  0.91724000  1.0
  O  O127  1  0.58702000  0.73748000  0.25637000  1.0
  O  O128  1  0.77528000  0.74020000  0.90787000  1.0
  O  O129  1  0.42938000  0.07531000  0.25684000  1.0
  O  O130  1  0.24823000  0.26248000  0.06872000  1.0
  O  O131  1  0.58075000  0.92098000  0.73249000  1.0
  O  O132  1  0.57729000  0.79949000  0.05665000  1.0
  O  O133  1  0.57111000  0.06966000  0.78893000  1.0
  O  O134  1  0.30644000  0.06421000  0.06161000  1.0
  O  O135  1  0.57535000  0.06862000  0.05670000  1.0
  O  O136  1  0.45576000  0.14841000  0.94236000  1.0
  O  O137  1  0.46025000  0.95045000  0.13932000  1.0
  O  O138  1  0.45862000  0.95011000  0.94280000  1.0
  O  O139  1  0.65512000  0.95344000  0.94002000  1.0
  O  O140  1  0.15631000  0.06722000  0.80591000  1.0
  O  O141  1  0.97955000  0.07454000  0.80215000  1.0
