# generated using pymatgen
data_CuH8C5N8
_symmetry_space_group_name_H-M   'P 1'
_cell_length_a   8.35600000
_cell_length_b   10.08490000
_cell_length_c   11.82100000
_cell_angle_alpha   89.99960000
_cell_angle_beta   106.60400000
_cell_angle_gamma   89.99950000
_symmetry_Int_Tables_number   1
_chemical_formula_structural   CuH8C5N8
_chemical_formula_sum   'Cu4 H32 C20 N32'
_cell_volume   954.61207525
_cell_formula_units_Z   4
loop_
 _symmetry_equiv_pos_site_id
 _symmetry_equiv_pos_as_xyz
  1  'x, y, z'
loop_
 _atom_site_type_symbol
 _atom_site_label
 _atom_site_symmetry_multiplicity
 _atom_site_fract_x
 _atom_site_fract_y
 _atom_site_fract_z
 _atom_site_occupancy
  Cu  Cu0  1  0.12888000  0.92929000  0.94361000  1.0
  Cu  Cu1  1  0.37112000  0.42930000  0.05639000  1.0
  Cu  Cu2  1  0.87113000  0.07070000  0.05639000  1.0
  Cu  Cu3  1  0.62887000  0.57070000  0.94361000  1.0
  H  H4  1  0.05584000  0.73285000  0.74888000  1.0
  H  H5  1  0.44416000  0.23285000  0.25112000  1.0
  H  H6  1  0.94415000  0.26715000  0.25112000  1.0
  H  H7  1  0.55584000  0.76716000  0.74888000  1.0
  H  H8  1  0.23281000  0.99503000  0.53273000  1.0
  H  H9  1  0.26721000  0.49504000  0.46728000  1.0
  H  H10  1  0.76720000  0.00496000  0.46728000  1.0
  H  H11  1  0.73280000  0.50497000  0.53271000  1.0
  H  H12  1  0.24345000  0.15790000  0.84965000  1.0
  H  H13  1  0.25657000  0.65791000  0.15036000  1.0
  H  H14  1  0.75657000  0.84209000  0.15036000  1.0
  H  H15  1  0.74343000  0.34209000  0.84964000  1.0
  H  H16  1  0.22038000  0.22085000  0.70598000  1.0
  H  H17  1  0.27963000  0.72086000  0.29403000  1.0
  H  H18  1  0.77963000  0.77914000  0.29403000  1.0
  H  H19  1  0.72036000  0.27914000  0.70597000  1.0
  H  H20  1  0.40980000  0.14258000  0.78449000  1.0
  H  H21  1  0.09021000  0.64260000  0.21551000  1.0
  H  H22  1  0.59021000  0.85741000  0.21551000  1.0
  H  H23  1  0.90979000  0.35741000  0.78449000  1.0
  H  H24  1  0.03163000  0.63327000  0.54360000  1.0
  H  H25  1  0.46837000  0.13327000  0.45640000  1.0
  H  H26  1  0.96836000  0.36673000  0.45640000  1.0
  H  H27  1  0.53163000  0.86673000  0.54360000  1.0
  H  H28  1  0.19458000  0.69249000  0.48783000  1.0
  H  H29  1  0.30542000  0.19249000  0.51217000  1.0
  H  H30  1  0.80540000  0.30751000  0.51217000  1.0
  H  H31  1  0.69458000  0.80751000  0.48783000  1.0
  H  H32  1  0.99186000  0.75860000  0.43262000  1.0
  H  H33  1  0.50814000  0.25860000  0.56739000  1.0
  H  H34  1  0.00812000  0.24140000  0.56739000  1.0
  H  H35  1  0.49185000  0.74141000  0.43261000  1.0
  C  C36  1  0.20673000  0.00843000  0.71624000  1.0
  C  C37  1  0.29328000  0.50844000  0.28377000  1.0
  C  C38  1  0.79327000  0.99156000  0.28377000  1.0
  C  C39  1  0.70672000  0.49156000  0.71622000  1.0
  C  C40  1  0.19598000  0.95152000  0.60528000  1.0
  C  C41  1  0.30403000  0.45154000  0.39472000  1.0
  C  C42  1  0.80402000  0.04847000  0.39472000  1.0
  C  C43  1  0.69597000  0.54847000  0.60527000  1.0
  C  C44  1  0.12568000  0.82623000  0.60528000  1.0
  C  C45  1  0.37432000  0.32624000  0.39472000  1.0
  C  C46  1  0.87431000  0.17377000  0.39472000  1.0
  C  C47  1  0.62568000  0.67378000  0.60528000  1.0
  C  C48  1  0.27334000  0.13920000  0.76646000  1.0
  C  C49  1  0.22666000  0.63921000  0.23354000  1.0
  C  C50  1  0.72667000  0.86080000  0.23354000  1.0
  C  C51  1  0.77334000  0.36079000  0.76646000  1.0
  C  C52  1  0.08285000  0.72171000  0.51288000  1.0
  C  C53  1  0.41715000  0.22172000  0.48712000  1.0
  C  C54  1  0.91714000  0.27828000  0.48712000  1.0
  C  C55  1  0.58285000  0.77829000  0.51288000  1.0
  N  N56  1  0.09213000  0.96871000  0.10180000  1.0
  N  N57  1  0.40787000  0.46872000  0.89820000  1.0
  N  N58  1  0.90787000  0.03128000  0.89820000  1.0
  N  N59  1  0.59213000  0.53129000  0.10180000  1.0
  N  N60  1  0.20278000  0.97722000  0.19389000  1.0
  N  N61  1  0.29723000  0.47722000  0.80611000  1.0
  N  N62  1  0.79724000  0.02278000  0.80611000  1.0
  N  N63  1  0.70276000  0.52278000  0.19389000  1.0
  N  N64  1  0.30912000  0.98315000  0.28197000  1.0
  N  N65  1  0.19088000  0.48314000  0.71803000  1.0
  N  N66  1  0.69088000  0.01686000  0.71802000  1.0
  N  N67  1  0.80912000  0.51686000  0.28197000  1.0
  N  N68  1  0.36474000  0.88448000  0.02150000  1.0
  N  N69  1  0.13527000  0.38448000  0.97850000  1.0
  N  N70  1  0.63527000  0.11552000  0.97851000  1.0
  N  N71  1  0.86474000  0.61552000  0.02149000  1.0
  N  N72  1  0.53299000  0.78598000  0.91390000  1.0
  N  N73  1  0.96702000  0.28597000  0.08610000  1.0
  N  N74  1  0.46701000  0.21403000  0.08610000  1.0
  N  N75  1  0.03299000  0.71402000  0.91390000  1.0
  N  N76  1  0.44684000  0.83476000  0.96544000  1.0
  N  N77  1  0.05316000  0.33475000  0.03456000  1.0
  N  N78  1  0.55316000  0.16525000  0.03456000  1.0
  N  N79  1  0.94684000  0.66524000  0.96544000  1.0
  N  N80  1  0.14575000  0.92155000  0.77997000  1.0
  N  N81  1  0.35425000  0.42155000  0.22003000  1.0
  N  N82  1  0.85425000  0.07844000  0.22003000  1.0
  N  N83  1  0.64575000  0.57844000  0.77997000  1.0
  N  N84  1  0.09774000  0.81255000  0.71186000  1.0
  N  N85  1  0.40226000  0.31255000  0.28814000  1.0
  N  N86  1  0.90225000  0.18745000  0.28814000  1.0
  N  N87  1  0.59774000  0.68745000  0.71186000  1.0
