# generated using pymatgen
data_ErAgH12C20(N2O3)3
_symmetry_space_group_name_H-M   'P 1'
_cell_length_a   7.69122000
_cell_length_b   9.97325000
_cell_length_c   14.54070000
_cell_angle_alpha   92.58990000
_cell_angle_beta   92.21050000
_cell_angle_gamma   110.73800000
_symmetry_Int_Tables_number   1
_chemical_formula_structural   ErAgH12C20(N2O3)3
_chemical_formula_sum   'Er2 Ag2 H24 C40 N12 O18'
_cell_volume   1040.25573611
_cell_formula_units_Z   2
loop_
 _symmetry_equiv_pos_site_id
 _symmetry_equiv_pos_as_xyz
  1  'x, y, z'
loop_
 _atom_site_type_symbol
 _atom_site_label
 _atom_site_symmetry_multiplicity
 _atom_site_fract_x
 _atom_site_fract_y
 _atom_site_fract_z
 _atom_site_occupancy
  Er  Er0  1  0.45347000  0.51022000  0.28261000  1.0
  Er  Er1  1  0.54654000  0.48978000  0.71739000  1.0
  Ag  Ag2  1  0.93441000  0.98582000  0.87191000  1.0
  Ag  Ag3  1  0.06559000  0.01418000  0.12809000  1.0
  H  H4  1  0.82943000  0.62384000  0.37031000  1.0
  H  H5  1  0.17057000  0.37617000  0.62969000  1.0
  H  H6  1  0.71384000  0.59094000  0.46491000  1.0
  H  H7  1  0.28616000  0.40907000  0.53509000  1.0
  H  H8  1  0.24301000  0.18021000  0.52391000  1.0
  H  H9  1  0.75700000  0.81979000  0.47608000  1.0
  H  H10  1  0.40853000  0.00633000  0.28061000  1.0
  H  H11  1  0.59148000  0.99366000  0.71939000  1.0
  H  H12  1  0.23584000  0.74356000  0.50934000  1.0
  H  H13  1  0.76416000  0.25644000  0.49066000  1.0
  H  H14  1  0.05438000  0.10493000  0.65040000  1.0
  H  H15  1  0.94562000  0.89507000  0.34960000  1.0
  H  H16  1  0.29094000  0.77882000  0.65970000  1.0
  H  H17  1  0.70906000  0.22118000  0.34030000  1.0
  H  H18  1  0.16434000  0.70037000  0.87253000  1.0
  H  H19  1  0.83566000  0.29965000  0.12747000  1.0
  H  H20  1  0.70169000  0.56824000  0.04558000  1.0
  H  H21  1  0.29831000  0.43175000  0.95442000  1.0
  H  H22  1  0.25478000  0.77055000  0.17050000  1.0
  H  H23  1  0.74521000  0.22945000  0.82950000  1.0
  H  H24  1  0.45309000  0.82263000  0.86217000  1.0
  H  H25  1  0.54690000  0.17738000  0.13783000  1.0
  H  H26  1  0.54498000  0.83033000  0.15291000  1.0
  H  H27  1  0.45502000  0.16968000  0.84709000  1.0
  C  C28  1  0.22939000  0.95953000  0.52696000  1.0
  C  C29  1  0.77061000  0.04047000  0.47304000  1.0
  C  C30  1  0.25966000  0.08909000  0.48631000  1.0
  C  C31  1  0.74035000  0.91090000  0.51369000  1.0
  C  C32  1  0.32242000  0.10477000  0.39696000  1.0
  C  C33  1  0.67759000  0.89523000  0.60304000  1.0
  C  C34  1  0.35754000  0.99251000  0.34958000  1.0
  C  C35  1  0.64246000  0.00748000  0.65042000  1.0
  C  C36  1  0.32851000  0.86403000  0.39180000  1.0
  C  C37  1  0.67150000  0.13597000  0.60821000  1.0
  C  C38  1  0.26002000  0.84632000  0.47950000  1.0
  C  C39  1  0.73998000  0.15368000  0.52050000  1.0
  C  C40  1  0.10336000  0.02160000  0.67302000  1.0
  C  C41  1  0.89663000  0.97840000  0.32698000  1.0
  C  C42  1  0.22397000  0.85401000  0.67897000  1.0
  C  C43  1  0.77603000  0.14600000  0.32103000  1.0
  C  C44  1  0.36246000  0.24670000  0.35627000  1.0
  C  C45  1  0.63756000  0.75330000  0.64372000  1.0
  C  C46  1  0.37613000  0.74277000  0.35003000  1.0
  C  C47  1  0.62387000  0.25723000  0.64997000  1.0
  C  C48  1  0.23331000  0.74348000  0.02045000  1.0
  C  C49  1  0.76668000  0.25652000  0.97956000  1.0
  C  C50  1  0.11422000  0.69285000  0.94168000  1.0
  C  C51  1  0.88577000  0.30716000  0.05832000  1.0
  C  C52  1  0.92238000  0.63181000  0.95099000  1.0
  C  C53  1  0.07762000  0.36819000  0.04902000  1.0
  C  C54  1  0.85097000  0.61860000  0.03847000  1.0
  C  C55  1  0.14903000  0.38139000  0.96153000  1.0
  C  C56  1  0.97101000  0.66883000  0.11747000  1.0
  C  C57  1  0.02899000  0.33117000  0.88254000  1.0
  C  C58  1  0.16308000  0.73392000  0.10835000  1.0
  C  C59  1  0.83691000  0.26608000  0.89165000  1.0
  C  C60  1  0.51959000  0.84187000  0.93106000  1.0
  C  C61  1  0.48041000  0.15814000  0.06894000  1.0
  C  C62  1  0.56872000  0.84696000  0.08040000  1.0
  C  C63  1  0.43128000  0.15305000  0.91960000  1.0
  C  C64  1  0.89076000  0.64697000  0.21137000  1.0
  C  C65  1  0.10923000  0.35302000  0.78863000  1.0
  C  C66  1  0.79309000  0.57498000  0.86719000  1.0
  C  C67  1  0.20691000  0.42502000  0.13281000  1.0
  N  N68  1  0.70054000  0.90277000  0.95159000  1.0
  N  N69  1  0.29945000  0.09724000  0.04841000  1.0
  N  N70  1  0.73222000  0.90611000  0.04577000  1.0
  N  N71  1  0.26778000  0.09390000  0.95422000  1.0
  N  N72  1  0.42997000  0.80603000  0.01092000  1.0
  N  N73  1  0.57003000  0.19398000  0.98908000  1.0
  N  N74  1  0.09864000  0.98008000  0.75795000  1.0
  N  N75  1  0.90136000  0.01992000  0.24205000  1.0
  N  N76  1  0.17768000  0.87558000  0.76242000  1.0
  N  N77  1  0.82232000  0.12443000  0.23758000  1.0
  N  N78  1  0.18135000  0.94384000  0.61998000  1.0
  N  N79  1  0.81865000  0.05616000  0.38002000  1.0
  O  O80  1  0.31986000  0.34446000  0.39874000  1.0
  O  O81  1  0.68014000  0.65553000  0.60125000  1.0
  O  O82  1  0.44424000  0.26988000  0.28009000  1.0
  O  O83  1  0.55579000  0.73012000  0.71990000  1.0
  O  O84  1  0.46340000  0.75629000  0.27549000  1.0
  O  O85  1  0.53660000  0.24370000  0.72451000  1.0
  O  O86  1  0.33588000  0.62796000  0.39255000  1.0
  O  O87  1  0.66411000  0.37203000  0.60745000  1.0
  O  O88  1  0.71706000  0.57138000  0.21018000  1.0
  O  O89  1  0.28294000  0.42860000  0.78982000  1.0
  O  O90  1  0.99150000  0.70122000  0.28401000  1.0
  O  O91  1  0.00850000  0.29878000  0.71599000  1.0
  O  O92  1  0.61867000  0.51517000  0.87784000  1.0
  O  O93  1  0.38132000  0.48484000  0.12216000  1.0
  O  O94  1  0.85439000  0.58582000  0.78617000  1.0
  O  O95  1  0.14561000  0.41417000  0.21383000  1.0
  O  O96  1  0.70511000  0.58136000  0.39729000  1.0
  O  O97  1  0.29489000  0.41865000  0.60271000  1.0
