# generated using pymatgen
data_Cd3H50C64N4O19
_symmetry_space_group_name_H-M   'P 1'
_cell_length_a   16.59590000
_cell_length_b   18.07310000
_cell_length_c   18.07310000
_cell_angle_alpha   67.62340000
_cell_angle_beta   72.14500000
_cell_angle_gamma   72.14490000
_symmetry_Int_Tables_number   1
_chemical_formula_structural   Cd3H50C64N4O19
_chemical_formula_sum   'Cd6 H100 C128 N8 O38'
_cell_volume   4658.86322271
_cell_formula_units_Z   2
loop_
 _symmetry_equiv_pos_site_id
 _symmetry_equiv_pos_as_xyz
  1  'x, y, z'
loop_
 _atom_site_type_symbol
 _atom_site_label
 _atom_site_symmetry_multiplicity
 _atom_site_fract_x
 _atom_site_fract_y
 _atom_site_fract_z
 _atom_site_occupancy
  Cd  Cd0  1  0.50000000  0.50000000  0.00000000  1.0
  Cd  Cd1  1  0.00001000  0.00000000  0.50000000  1.0
  Cd  Cd2  1  0.55972000  0.64004000  0.81064000  1.0
  Cd  Cd3  1  0.94027000  0.18936000  0.35996000  1.0
  Cd  Cd4  1  0.44028000  0.35997000  0.18936000  1.0
  Cd  Cd5  1  0.05972000  0.81064000  0.64004000  1.0
  H  H6  1  0.84256000  0.89799000  0.10968000  1.0
  H  H7  1  0.65744000  0.89033000  0.10201000  1.0
  H  H8  1  0.15744000  0.10201000  0.89032000  1.0
  H  H9  1  0.34256000  0.10968000  0.89799000  1.0
  H  H10  1  0.81619000  0.85125000  0.05091000  1.0
  H  H11  1  0.68381000  0.94909000  0.14875000  1.0
  H  H12  1  0.18381000  0.14876000  0.94909000  1.0
  H  H13  1  0.31619000  0.05091000  0.85125000  1.0
  H  H14  1  0.92381000  0.63530000  0.15590000  1.0
  H  H15  1  0.57619000  0.84410000  0.36470000  1.0
  H  H16  1  0.07619000  0.36470000  0.84410000  1.0
  H  H17  1  0.42381000  0.15590000  0.63530000  1.0
  H  H18  1  0.81151000  0.68697000  0.16840000  1.0
  H  H19  1  0.68849000  0.83160000  0.31303000  1.0
  H  H20  1  0.18849000  0.31303000  0.83160000  1.0
  H  H21  1  0.31151000  0.16840000  0.68697000  1.0
  H  H22  1  0.97516000  0.79595000  0.00991000  1.0
  H  H23  1  0.52484000  0.99009000  0.20405000  1.0
  H  H24  1  0.02484000  0.20405000  0.99009000  1.0
  H  H25  1  0.47516000  0.00991000  0.79595000  1.0
  H  H26  1  0.99864000  0.83913000  0.07371000  1.0
  H  H27  1  0.50136000  0.92629000  0.16088000  1.0
  H  H28  1  0.00136000  0.16088000  0.92629000  1.0
  H  H29  1  0.49864000  0.07371000  0.83912000  1.0
  H  H30  1  0.84804000  0.73932000  0.26529000  1.0
  H  H31  1  0.65195000  0.73471000  0.26068000  1.0
  H  H32  1  0.15195000  0.26068000  0.73471000  1.0
  H  H33  1  0.34805000  0.26529000  0.73932000  1.0
  H  H34  1  0.96115000  0.69481000  0.23698000  1.0
  H  H35  1  0.53885000  0.76302000  0.30519000  1.0
  H  H36  1  0.03885000  0.30519000  0.76302000  1.0
  H  H37  1  0.46115000  0.23698000  0.69481000  1.0
  H  H38  1  0.78458000  0.58938000  0.15009000  1.0
  H  H39  1  0.71542000  0.84991000  0.41062000  1.0
  H  H40  1  0.21542000  0.41062000  0.84991000  1.0
  H  H41  1  0.28458000  0.15009000  0.58938000  1.0
  H  H42  1  0.68863000  0.54326000  0.10272000  1.0
  H  H43  1  0.81138000  0.89728000  0.45674000  1.0
  H  H44  1  0.31137000  0.45674000  0.89728000  1.0
  H  H45  1  0.18863000  0.10272000  0.54326000  1.0
  H  H46  1  0.77321000  0.69046000  0.85540000  1.0
  H  H47  1  0.72679000  0.14460000  0.30955000  1.0
  H  H48  1  0.22679000  0.30954000  0.14460000  1.0
  H  H49  1  0.27321000  0.85540000  0.69046000  1.0
  H  H50  1  0.86573000  0.74227000  0.90185000  1.0
  H  H51  1  0.63427000  0.09815000  0.25773000  1.0
  H  H52  1  0.13427000  0.25772000  0.09815000  1.0
  H  H53  1  0.36573000  0.90185000  0.74227000  1.0
  H  H54  1  0.09956000  0.82667000  0.94457000  1.0
  H  H55  1  0.40043000  0.05543000  0.17333000  1.0
  H  H56  1  0.90044000  0.17333000  0.05543000  1.0
  H  H57  1  0.59957000  0.94457000  0.82667000  1.0
  H  H58  1  0.24849000  0.81084000  0.85911000  1.0
  H  H59  1  0.25151000  0.14089000  0.18916000  1.0
  H  H60  1  0.75151000  0.18916000  0.14089000  1.0
  H  H61  1  0.74849000  0.85911000  0.81084000  1.0
  H  H62  1  0.33047000  0.58886000  0.04653000  1.0
  H  H63  1  0.16953000  0.95347000  0.41114000  1.0
  H  H64  1  0.66952000  0.41114000  0.95347000  1.0
  H  H65  1  0.83047000  0.04653000  0.58886000  1.0
  H  H66  1  0.18083000  0.60112000  0.13009000  1.0
  H  H67  1  0.31917000  0.86991000  0.39888000  1.0
  H  H68  1  0.81917000  0.39888000  0.86991000  1.0
  H  H69  1  0.68083000  0.13009000  0.60112000  1.0
  H  H70  1  0.99723000  0.92661000  0.22792000  1.0
  H  H71  1  0.50277000  0.77208000  0.07339000  1.0
  H  H72  1  0.00277000  0.07339000  0.77208000  1.0
  H  H73  1  0.49723000  0.22792000  0.92661000  1.0
  H  H74  1  0.04396000  0.92446000  0.34795000  1.0
  H  H75  1  0.45604000  0.65205000  0.07554000  1.0
  H  H76  1  0.95604000  0.07554000  0.65205000  1.0
  H  H77  1  0.54396000  0.34795000  0.92446000  1.0
  H  H78  1  0.96183000  0.69821000  0.49001000  1.0
  H  H79  1  0.53817000  0.50999000  0.30179000  1.0
  H  H80  1  0.03817000  0.30178000  0.50999000  1.0
  H  H81  1  0.46183000  0.49001000  0.69821000  1.0
  H  H82  1  0.91626000  0.69850000  0.37106000  1.0
  H  H83  1  0.58374000  0.62894000  0.30150000  1.0
  H  H84  1  0.08374000  0.30150000  0.62894000  1.0
  H  H85  1  0.41626000  0.37106000  0.69850000  1.0
  H  H86  1  0.48260000  0.79815000  0.67181000  1.0
  H  H87  1  0.01741000  0.32819000  0.20185000  1.0
  H  H88  1  0.51741000  0.20185000  0.32819000  1.0
  H  H89  1  0.98259000  0.67181000  0.79815000  1.0
  H  H90  1  0.70598000  0.89881000  0.59475000  1.0
  H  H91  1  0.79402000  0.40525000  0.10119000  1.0
  H  H92  1  0.29403000  0.10118000  0.40525000  1.0
  H  H93  1  0.20598000  0.59475000  0.89881000  1.0
  H  H94  1  0.73026000  0.75009000  0.71912000  1.0
  H  H95  1  0.76974000  0.28088000  0.24991000  1.0
  H  H96  1  0.26975000  0.24991000  0.28088000  1.0
  H  H97  1  0.23026000  0.71912000  0.75009000  1.0
  H  H98  1  0.47984000  0.85956000  0.53244000  1.0
  H  H99  1  0.02016000  0.46756000  0.14044000  1.0
  H  H100  1  0.52017000  0.14044000  0.46756000  1.0
  H  H101  1  0.97984000  0.53244000  0.85956000  1.0
  H  H102  1  0.59576000  0.02384000  0.56772000  1.0
  H  H103  1  0.90424000  0.43228000  0.97616000  1.0
  H  H104  1  0.40424000  0.97616000  0.43228000  1.0
  H  H105  1  0.09576000  0.56772000  0.02384000  1.0
  C  C106  1  0.89936000  0.76729000  0.13410000  1.0
  C  C107  1  0.60064000  0.86590000  0.23271000  1.0
  C  C108  1  0.10064000  0.23272000  0.86590000  1.0
  C  C109  1  0.39936000  0.13410000  0.76728000  1.0
  C  C110  1  0.82599000  0.84237000  0.11178000  1.0
  C  C111  1  0.67401000  0.88822000  0.15763000  1.0
  C  C112  1  0.17401000  0.15763000  0.88822000  1.0
  C  C113  1  0.32599000  0.11178000  0.84237000  1.0
  C  C114  1  0.87723000  0.69172000  0.13159000  1.0
  C  C115  1  0.62277000  0.86841000  0.30828000  1.0
  C  C116  1  0.12277000  0.30828000  0.86841000  1.0
  C  C117  1  0.37723000  0.13159000  0.69172000  1.0
  C  C118  1  0.98298000  0.78501000  0.07174000  1.0
  C  C119  1  0.51702000  0.92826000  0.21499000  1.0
  C  C120  1  0.01702000  0.21499000  0.92826000  1.0
  C  C121  1  0.48298000  0.07174000  0.78501000  1.0
  C  C122  1  0.90943000  0.74961000  0.22111000  1.0
  C  C123  1  0.59057000  0.77889000  0.25039000  1.0
  C  C124  1  0.09057000  0.25039000  0.77889000  1.0
  C  C125  1  0.40943000  0.22111000  0.74961000  1.0
  C  C126  1  0.83031000  0.66992000  0.02872000  1.0
  C  C127  1  0.66970000  0.97128000  0.33008000  1.0
  C  C128  1  0.16970000  0.33008000  0.97128000  1.0
  C  C129  1  0.33030000  0.02872000  0.66992000  1.0
  C  C130  1  0.78201000  0.61260000  0.08554000  1.0
  C  C131  1  0.71799000  0.91446000  0.38740000  1.0
  C  C132  1  0.21799000  0.38740000  0.91446000  1.0
  C  C133  1  0.28201000  0.08554000  0.61260000  1.0
  C  C134  1  0.72912000  0.58544000  0.05885000  1.0
  C  C135  1  0.77088000  0.94115000  0.41456000  1.0
  C  C136  1  0.27088000  0.41456000  0.94115000  1.0
  C  C137  1  0.22912000  0.05885000  0.58544000  1.0
  C  C138  1  0.72541000  0.61299000  0.97617000  1.0
  C  C139  1  0.77459000  0.02383000  0.38701000  1.0
  C  C140  1  0.27459000  0.38701000  0.02383000  1.0
  C  C141  1  0.22541000  0.97617000  0.61299000  1.0
  C  C142  1  0.77622000  0.66877000  0.91977000  1.0
  C  C143  1  0.72378000  0.08023000  0.33123000  1.0
  C  C144  1  0.22378000  0.33123000  0.08024000  1.0
  C  C145  1  0.27622000  0.91977000  0.66877000  1.0
  C  C146  1  0.82800000  0.69744000  0.94535000  1.0
  C  C147  1  0.67200000  0.05465000  0.30256000  1.0
  C  C148  1  0.17200000  0.30256000  0.05466000  1.0
  C  C149  1  0.32800000  0.94534000  0.69744000  1.0
  C  C150  1  0.66513000  0.58798000  0.94757000  1.0
  C  C151  1  0.83487000  0.05243000  0.41202000  1.0
  C  C152  1  0.33486000  0.41202000  0.05243000  1.0
  C  C153  1  0.16513000  0.94757000  0.58798000  1.0
  C  C154  1  0.13080000  0.71375000  0.04260000  1.0
  C  C155  1  0.36920000  0.95740000  0.28625000  1.0
  C  C156  1  0.86920000  0.28625000  0.95740000  1.0
  C  C157  1  0.63080000  0.04260000  0.71375000  1.0
  C  C158  1  0.14951000  0.77398000  0.96679000  1.0
  C  C159  1  0.35049000  0.03321000  0.22602000  1.0
  C  C160  1  0.85049000  0.22602000  0.03321000  1.0
  C  C161  1  0.64951000  0.96679000  0.77398000  1.0
  C  C162  1  0.23338000  0.76536000  0.91886000  1.0
  C  C163  1  0.26662000  0.08114000  0.23464000  1.0
  C  C164  1  0.76662000  0.23464000  0.08114000  1.0
  C  C165  1  0.73338000  0.91886000  0.76536000  1.0
  C  C166  1  0.29946000  0.69886000  0.94615000  1.0
  C  C167  1  0.20054000  0.05385000  0.30114000  1.0
  C  C168  1  0.70054000  0.30114000  0.05385000  1.0
  C  C169  1  0.79946000  0.94615000  0.69886000  1.0
  C  C170  1  0.28002000  0.64015000  0.02321000  1.0
  C  C171  1  0.21998000  0.97679000  0.35985000  1.0
  C  C172  1  0.71998000  0.35985000  0.97679000  1.0
  C  C173  1  0.78002000  0.02321000  0.64015000  1.0
  C  C174  1  0.19638000  0.64671000  0.07052000  1.0
  C  C175  1  0.30362000  0.92948000  0.35329000  1.0
  C  C176  1  0.80362000  0.35329000  0.92948000  1.0
  C  C177  1  0.69638000  0.07052000  0.64671000  1.0
  C  C178  1  0.38820000  0.69048000  0.89345000  1.0
  C  C179  1  0.11180000  0.10655000  0.30952000  1.0
  C  C180  1  0.61180000  0.30952000  0.10655000  1.0
  C  C181  1  0.88820000  0.89345000  0.69048000  1.0
  C  C182  1  0.95469000  0.81295000  0.29178000  1.0
  C  C183  1  0.54531000  0.70822000  0.18705000  1.0
  C  C184  1  0.04531000  0.18705000  0.70822000  1.0
  C  C185  1  0.45469000  0.29178000  0.81295000  1.0
  C  C186  1  0.99018000  0.87680000  0.28569000  1.0
  C  C187  1  0.50982000  0.71431000  0.12320000  1.0
  C  C188  1  0.00982000  0.12320000  0.71431000  1.0
  C  C189  1  0.49018000  0.28569000  0.87680000  1.0
  C  C190  1  0.01602000  0.87532000  0.35231000  1.0
  C  C191  1  0.48398000  0.64769000  0.12468000  1.0
  C  C192  1  0.98398000  0.12468000  0.64769000  1.0
  C  C193  1  0.51602000  0.35230000  0.87532000  1.0
  C  C194  1  0.00621000  0.81061000  0.42639000  1.0
  C  C195  1  0.49379000  0.57361000  0.18939000  1.0
  C  C196  1  0.99379000  0.18939000  0.57361000  1.0
  C  C197  1  0.50621000  0.42639000  0.81061000  1.0
  C  C198  1  0.96982000  0.74773000  0.43211000  1.0
  C  C199  1  0.53018000  0.56789000  0.25227000  1.0
  C  C200  1  0.03018000  0.25227000  0.56789000  1.0
  C  C201  1  0.46982000  0.43210000  0.74773000  1.0
  C  C202  1  0.94417000  0.74814000  0.36536000  1.0
  C  C203  1  0.55583000  0.63464000  0.25186000  1.0
  C  C204  1  0.05583000  0.25186000  0.63464000  1.0
  C  C205  1  0.44417000  0.36536000  0.74814000  1.0
  C  C206  1  0.03259000  0.80980000  0.49792000  1.0
  C  C207  1  0.46741000  0.50208000  0.19020000  1.0
  C  C208  1  0.96741000  0.19020000  0.50208000  1.0
  C  C209  1  0.53259000  0.49792000  0.80980000  1.0
  C  C210  1  0.54788000  0.80286000  0.66627000  1.0
  C  C211  1  0.95212000  0.33373000  0.19714000  1.0
  C  C212  1  0.45212000  0.19714000  0.33373000  1.0
  C  C213  1  0.04788000  0.66627000  0.80286000  1.0
  C  C214  1  0.66445000  0.85541000  0.62887000  1.0
  C  C215  1  0.83555000  0.37113000  0.14459000  1.0
  C  C216  1  0.33556000  0.14459000  0.37113000  1.0
  C  C217  1  0.16445000  0.62887000  0.85541000  1.0
  C  C218  1  0.67558000  0.78167000  0.68996000  1.0
  C  C219  1  0.82442000  0.31004000  0.21833000  1.0
  C  C220  1  0.32443000  0.21833000  0.31004000  1.0
  C  C221  1  0.17558000  0.68996000  0.78167000  1.0
  C  C222  1  0.54208000  0.93496000  0.55580000  1.0
  C  C223  1  0.95792000  0.44420000  0.06504000  1.0
  C  C224  1  0.45792000  0.06504000  0.44420000  1.0
  C  C225  1  0.04208000  0.55580000  0.93497000  1.0
  C  C226  1  0.48773000  0.92140000  0.51865000  1.0
  C  C227  1  0.01227000  0.48135000  0.07860000  1.0
  C  C228  1  0.51227000  0.07859000  0.48135000  1.0
  C  C229  1  0.98773000  0.51865000  0.92141000  1.0
  C  C230  1  0.55473000  0.01344000  0.53733000  1.0
  C  C231  1  0.94527000  0.46267000  0.98656000  1.0
  C  C232  1  0.44527000  0.98656000  0.46267000  1.0
  C  C233  1  0.05473000  0.53733000  0.01344000  1.0
  N  N234  1  0.60245000  0.74994000  0.71247000  1.0
  N  N235  1  0.89755000  0.28753000  0.25005000  1.0
  N  N236  1  0.39755000  0.25006000  0.28754000  1.0
  N  N237  1  0.10245000  0.71247000  0.74995000  1.0
  N  N238  1  0.58322000  0.86785000  0.61403000  1.0
  N  N239  1  0.91678000  0.38597000  0.13215000  1.0
  N  N240  1  0.41679000  0.13215000  0.38597000  1.0
  N  N241  1  0.08322000  0.61403000  0.86785000  1.0
  O  O242  1  0.75000000  0.82699000  0.17301000  1.0
  O  O243  1  0.25000000  0.17301000  0.82699000  1.0
  O  O244  1  0.88141000  0.70374000  0.04775000  1.0
  O  O245  1  0.61859000  0.95225000  0.29626000  1.0
  O  O246  1  0.11859000  0.29626000  0.95225000  1.0
  O  O247  1  0.38141000  0.04775000  0.70374000  1.0
  O  O248  1  0.05065000  0.71466000  0.09351000  1.0
  O  O249  1  0.44935000  0.90649000  0.28534000  1.0
  O  O250  1  0.94935000  0.28534000  0.90649000  1.0
  O  O251  1  0.55065000  0.09351000  0.71466000  1.0
  O  O252  1  0.93213000  0.81913000  0.22266000  1.0
  O  O253  1  0.56787000  0.77734000  0.18087000  1.0
  O  O254  1  0.06787000  0.18087000  0.77734000  1.0
  O  O255  1  0.43213000  0.22266000  0.81913000  1.0
  O  O256  1  0.66723000  0.61792000  0.87071000  1.0
  O  O257  1  0.83277000  0.12929000  0.38208000  1.0
  O  O258  1  0.33277000  0.38208000  0.12929000  1.0
  O  O259  1  0.16723000  0.87071000  0.61792000  1.0
  O  O260  1  0.61692000  0.54065000  0.00117000  1.0
  O  O261  1  0.88308000  0.99883000  0.45935000  1.0
  O  O262  1  0.38307000  0.45935000  0.99883000  1.0
  O  O263  1  0.11692000  0.00117000  0.54065000  1.0
  O  O264  1  0.40260000  0.73381000  0.81923000  1.0
  O  O265  1  0.09740000  0.18077000  0.26619000  1.0
  O  O266  1  0.59741000  0.26619000  0.18077000  1.0
  O  O267  1  0.90260000  0.81923000  0.73380000  1.0
  O  O268  1  0.45080000  0.63686000  0.92670000  1.0
  O  O269  1  0.04920000  0.07330000  0.36314000  1.0
  O  O270  1  0.54920000  0.36314000  0.07330000  1.0
  O  O271  1  0.95080000  0.92670000  0.63686000  1.0
  O  O272  1  0.06494000  0.86922000  0.49117000  1.0
  O  O273  1  0.43506000  0.50882000  0.13078000  1.0
  O  O274  1  0.93506000  0.13078000  0.50883000  1.0
  O  O275  1  0.56494000  0.49117000  0.86921000  1.0
  O  O276  1  0.02366000  0.75093000  0.56495000  1.0
  O  O277  1  0.47634000  0.43505000  0.24907000  1.0
  O  O278  1  0.97634000  0.24907000  0.43505000  1.0
  O  O279  1  0.52366000  0.56495000  0.75093000  1.0
