# generated using pymatgen
data_NpH8C4Cl2O3
_symmetry_space_group_name_H-M   'P 1'
_cell_length_a   7.31389000
_cell_length_b   7.31850000
_cell_length_c   8.66974000
_cell_angle_alpha   75.18470000
_cell_angle_beta   75.16260000
_cell_angle_gamma   86.48990000
_symmetry_Int_Tables_number   1
_chemical_formula_structural   NpH8C4Cl2O3
_chemical_formula_sum   'Np2 H16 C8 Cl4 O6'
_cell_volume   433.67132927
_cell_formula_units_Z   2
loop_
 _symmetry_equiv_pos_site_id
 _symmetry_equiv_pos_as_xyz
  1  'x, y, z'
loop_
 _atom_site_type_symbol
 _atom_site_label
 _atom_site_symmetry_multiplicity
 _atom_site_fract_x
 _atom_site_fract_y
 _atom_site_fract_z
 _atom_site_occupancy
  Np  Np0  1  0.44116000  0.55883000  0.24985000  1.0
  Np  Np1  1  0.55926000  0.44085000  0.74995000  1.0
  H  H2  1  0.96630000  0.64096000  0.39863000  1.0
  H  H3  1  0.35903000  0.03348000  0.10140000  1.0
  H  H4  1  0.03356000  0.35918000  0.60132000  1.0
  H  H5  1  0.64076000  0.96676000  0.89874000  1.0
  H  H6  1  0.97519000  0.71423000  0.18322000  1.0
  H  H7  1  0.28558000  0.02442000  0.31690000  1.0
  H  H8  1  0.02488000  0.28551000  0.81678000  1.0
  H  H9  1  0.71458000  0.97542000  0.68320000  1.0
  H  H10  1  0.88705000  0.95350000  0.43641000  1.0
  H  H11  1  0.04607000  0.11245000  0.06385000  1.0
  H  H12  1  0.11126000  0.04639000  0.56340000  1.0
  H  H13  1  0.95395000  0.88914000  0.93646000  1.0
  H  H14  1  0.77173000  0.95991000  0.27806000  1.0
  H  H15  1  0.03968000  0.22773000  0.22225000  1.0
  H  H16  1  0.22825000  0.04020000  0.72065000  1.0
  H  H17  1  0.96009000  0.77228000  0.77912000  1.0
  C  C18  1  0.00119000  0.75776000  0.28806000  1.0
  C  C19  1  0.24209000  0.99854000  0.21200000  1.0
  C  C20  1  0.99873000  0.24235000  0.71185000  1.0
  C  C21  1  0.75776000  0.00154000  0.78817000  1.0
  C  C22  1  0.90908000  0.94418000  0.30859000  1.0
  C  C23  1  0.05546000  0.09049000  0.19165000  1.0
  C  C24  1  0.09044000  0.05592000  0.69105000  1.0
  C  C25  1  0.94443000  0.90997000  0.80883000  1.0
  Cl  Cl26  1  0.65138000  0.33974000  0.05790000  1.0
  Cl  Cl27  1  0.66026000  0.34864000  0.44202000  1.0
  Cl  Cl28  1  0.33988000  0.65056000  0.94608000  1.0
  Cl  Cl29  1  0.34960000  0.66012000  0.55384000  1.0
  O  O30  1  0.25942000  0.38398000  0.33139000  1.0
  O  O31  1  0.61632000  0.74033000  0.16835000  1.0
  O  O32  1  0.74135000  0.61543000  0.67573000  1.0
  O  O33  1  0.38437000  0.25908000  0.82435000  1.0
  O  O34  1  0.20622000  0.79367000  0.24994000  1.0
  O  O35  1  0.79364000  0.20646000  0.75001000  1.0
