# generated using pymatgen
data_HoH21(C7O3)4
_symmetry_space_group_name_H-M   'P 1'
_cell_length_a   9.62970000
_cell_length_b   11.46730000
_cell_length_c   12.44900000
_cell_angle_alpha   75.11850000
_cell_angle_beta   73.84100000
_cell_angle_gamma   73.06580000
_symmetry_Int_Tables_number   1
_chemical_formula_structural   HoH21(C7O3)4
_chemical_formula_sum   'Ho2 H42 C56 O24'
_cell_volume   1239.81535775
_cell_formula_units_Z   2
loop_
 _symmetry_equiv_pos_site_id
 _symmetry_equiv_pos_as_xyz
  1  'x, y, z'
loop_
 _atom_site_type_symbol
 _atom_site_label
 _atom_site_symmetry_multiplicity
 _atom_site_fract_x
 _atom_site_fract_y
 _atom_site_fract_z
 _atom_site_occupancy
  Ho  Ho0  1  0.27826000  0.45453000  0.05577000  1.0
  Ho  Ho1  1  0.72174000  0.54547000  0.94423000  1.0
  H  H2  1  0.21028000  0.19005000  0.26337000  1.0
  H  H3  1  0.78971000  0.80995000  0.73663000  1.0
  H  H4  1  0.48622000  0.42623000  0.19593000  1.0
  H  H5  1  0.51378000  0.57377000  0.80407000  1.0
  H  H6  1  0.39914000  0.31828000  0.25831000  1.0
  H  H7  1  0.60086000  0.68172000  0.74169000  1.0
  H  H8  1  0.15345000  0.38767000  0.89345000  1.0
  H  H9  1  0.84655000  0.61233000  0.10655000  1.0
  H  H10  1  0.05318000  0.35058000  0.01300000  1.0
  H  H11  1  0.94682000  0.64943000  0.98700000  1.0
  H  H12  1  0.09475000  0.26554000  0.43774000  1.0
  H  H13  1  0.90525000  0.73446000  0.56226000  1.0
  H  H14  1  0.93902000  0.26185000  0.63643000  1.0
  H  H15  1  0.06098000  0.73815000  0.36357000  1.0
  H  H16  1  0.70703000  0.42700000  0.67254000  1.0
  H  H17  1  0.29296000  0.57300000  0.32746000  1.0
  H  H18  1  0.62465000  0.58756000  0.51237000  1.0
  H  H19  1  0.37534000  0.41244000  0.48763000  1.0
  H  H20  1  0.80021000  0.76918000  0.39367000  1.0
  H  H21  1  0.19978000  0.23082000  0.60633000  1.0
  H  H22  1  0.63713000  0.98462000  0.38945000  1.0
  H  H23  1  0.36287000  0.01538000  0.61056000  1.0
  H  H24  1  0.35994000  0.89669000  0.21848000  1.0
  H  H25  1  0.64006000  0.10331000  0.78152000  1.0
  H  H26  1  0.52823000  0.68391000  0.21657000  1.0
  H  H27  1  0.47177000  0.31609000  0.78343000  1.0
  H  H28  1  0.44375000  0.94922000  0.95534000  1.0
  H  H29  1  0.55625000  0.05078000  0.04467000  1.0
  H  H30  1  0.26067000  0.14155000  0.01191000  1.0
  H  H31  1  0.73933000  0.85845000  0.98810000  1.0
  H  H32  1  0.93685000  0.92506000  0.18705000  1.0
  H  H33  1  0.06315000  0.07494000  0.81295000  1.0
  H  H34  1  0.11977000  0.73434000  0.13255000  1.0
  H  H35  1  0.88023000  0.26567000  0.86745000  1.0
  H  H36  1  0.01350000  0.99068000  0.33162000  1.0
  H  H37  1  0.98650000  0.00932000  0.66838000  1.0
  H  H38  1  0.84184000  0.02225000  0.51689000  1.0
  H  H39  1  0.15816000  0.97775000  0.48311000  1.0
  H  H40  1  0.63520000  0.21300000  0.52832000  1.0
  H  H41  1  0.36480000  0.78701000  0.47168000  1.0
  H  H42  1  0.60693000  0.37260000  0.35222000  1.0
  H  H43  1  0.39307000  0.62740000  0.64779000  1.0
  C  C44  1  0.05129000  0.43156000  0.25043000  1.0
  C  C45  1  0.94872000  0.56844000  0.74957000  1.0
  C  C46  1  0.94910000  0.42786000  0.36442000  1.0
  C  C47  1  0.05089000  0.57214000  0.63558000  1.0
  C  C48  1  0.99078000  0.33498000  0.45556000  1.0
  C  C49  1  0.00921000  0.66502000  0.54443000  1.0
  C  C50  1  0.90482000  0.33345000  0.56584000  1.0
  C  C51  1  0.09517000  0.66655000  0.43415000  1.0
  C  C52  1  0.77381000  0.42523000  0.58629000  1.0
  C  C53  1  0.22619000  0.57477000  0.41371000  1.0
  C  C54  1  0.72799000  0.51695000  0.49678000  1.0
  C  C55  1  0.27201000  0.48305000  0.50322000  1.0
  C  C56  1  0.81500000  0.51850000  0.38624000  1.0
  C  C57  1  0.18500000  0.48150000  0.61376000  1.0
  C  C58  1  0.67208000  0.71588000  0.30495000  1.0
  C  C59  1  0.32792000  0.28412000  0.69505000  1.0
  C  C60  1  0.70422000  0.79866000  0.35480000  1.0
  C  C61  1  0.29578000  0.20134000  0.64520000  1.0
  C  C62  1  0.61303000  0.91784000  0.35296000  1.0
  C  C63  1  0.38697000  0.08215000  0.64705000  1.0
  C  C64  1  0.48860000  0.95397000  0.30378000  1.0
  C  C65  1  0.51140000  0.04603000  0.69622000  1.0
  C  C66  1  0.45676000  0.86901000  0.25600000  1.0
  C  C67  1  0.54324000  0.13099000  0.74400000  1.0
  C  C68  1  0.54895000  0.75039000  0.25534000  1.0
  C  C69  1  0.45105000  0.24961000  0.74466000  1.0
  C  C70  1  0.39462000  0.08224000  0.30166000  1.0
  C  C71  1  0.60538000  0.91776000  0.69834000  1.0
  C  C72  1  0.41138000  0.71636000  0.01977000  1.0
  C  C73  1  0.58862000  0.28364000  0.98023000  1.0
  C  C74  1  0.29508000  0.82973000  0.04310000  1.0
  C  C75  1  0.70492000  0.17027000  0.95690000  1.0
  C  C76  1  0.33261000  0.94526000  0.00617000  1.0
  C  C77  1  0.66739000  0.05474000  0.99383000  1.0
  C  C78  1  0.23222000  0.05165000  0.03741000  1.0
  C  C79  1  0.76778000  0.94835000  0.96259000  1.0
  C  C80  1  0.09244000  0.04190000  0.10664000  1.0
  C  C81  1  0.90757000  0.95810000  0.89336000  1.0
  C  C82  1  0.04914000  0.92921000  0.13857000  1.0
  C  C83  1  0.95086000  0.07079000  0.86143000  1.0
  C  C84  1  0.15139000  0.82300000  0.10698000  1.0
  C  C85  1  0.84861000  0.17700000  0.89302000  1.0
  C  C86  1  0.90411000  0.16181000  0.23711000  1.0
  C  C87  1  0.09589000  0.83820000  0.76289000  1.0
  C  C88  1  0.92188000  0.07278000  0.33620000  1.0
  C  C89  1  0.07811000  0.92722000  0.66380000  1.0
  C  C90  1  0.82537000  0.09156000  0.44013000  1.0
  C  C91  1  0.17463000  0.90844000  0.55987000  1.0
  C  C92  1  0.70966000  0.19835000  0.44699000  1.0
  C  C93  1  0.29034000  0.80165000  0.55301000  1.0
  C  C94  1  0.69338000  0.28691000  0.34906000  1.0
  C  C95  1  0.30662000  0.71310000  0.65094000  1.0
  C  C96  1  0.78957000  0.27180000  0.24320000  1.0
  C  C97  1  0.21043000  0.72821000  0.75680000  1.0
  C  C98  1  0.77000000  0.37389000  0.14417000  1.0
  C  C99  1  0.23000000  0.62611000  0.85583000  1.0
  O  O100  1  0.05839000  0.53521000  0.18287000  1.0
  O  O101  1  0.94161000  0.46479000  0.81713000  1.0
  O  O102  1  0.13838000  0.33129000  0.21944000  1.0
  O  O103  1  0.86162000  0.66871000  0.78056000  1.0
  O  O104  1  0.76665000  0.60054000  0.29389000  1.0
  O  O105  1  0.23336000  0.39946000  0.70611000  1.0
  O  O106  1  0.43385000  0.16556000  0.32400000  1.0
  O  O107  1  0.56615000  0.83444000  0.67600000  1.0
  O  O108  1  0.26496000  0.09872000  0.27415000  1.0
  O  O109  1  0.73504000  0.90127000  0.72585000  1.0
  O  O110  1  0.37716000  0.61115000  0.04751000  1.0
  O  O111  1  0.62284000  0.38885000  0.95249000  1.0
  O  O112  1  0.54516000  0.72588000  0.97602000  1.0
  O  O113  1  0.45484000  0.27413000  0.02398000  1.0
  O  O114  1  0.99891000  0.15186000  0.13337000  1.0
  O  O115  1  0.00109000  0.84814000  0.86663000  1.0
  O  O116  1  0.86936000  0.37798000  0.05162000  1.0
  O  O117  1  0.13064000  0.62202000  0.94838000  1.0
  O  O118  1  0.65063000  0.46219000  0.14940000  1.0
  O  O119  1  0.34937000  0.53782000  0.85060000  1.0
  O  O120  1  0.38747000  0.40510000  0.21444000  1.0
  O  O121  1  0.61253000  0.59490000  0.78556000  1.0
  O  O122  1  0.15696000  0.35852000  0.97394000  1.0
  O  O123  1  0.84304000  0.64148000  0.02606000  1.0
