# generated using pymatgen
data_AlH9C27N7(ClO2)3
_symmetry_space_group_name_H-M   'P 1'
_cell_length_a   3.94410000
_cell_length_b   17.47882092
_cell_length_c   18.16390000
_cell_angle_alpha   118.32351224
_cell_angle_beta   95.98680000
_cell_angle_gamma   90.87650174
_symmetry_Int_Tables_number   1
_chemical_formula_structural   AlH9C27N7(ClO2)3
_chemical_formula_sum   'Al1 H9 C27 N7 Cl3 O6'
_cell_volume   1093.26125114
_cell_formula_units_Z   1
loop_
 _symmetry_equiv_pos_site_id
 _symmetry_equiv_pos_as_xyz
  1  'x, y, z'
loop_
 _atom_site_type_symbol
 _atom_site_label
 _atom_site_symmetry_multiplicity
 _atom_site_fract_x
 _atom_site_fract_y
 _atom_site_fract_z
 _atom_site_occupancy
  Al  Al0  1  0.99849000  0.00027000  0.50574000  1.0
  H  H1  1  0.84761000  0.31119000  0.89500000  1.0
  H  H2  1  0.39669000  0.08579000  0.19215000  1.0
  H  H3  1  0.04839000  0.60557000  0.41246000  1.0
  H  H4  1  0.77221000  0.32068000  0.41864000  1.0
  H  H5  1  0.30479000  0.01213000  0.27909000  1.0
  H  H6  1  0.21115000  0.76625000  0.48959000  1.0
  H  H7  1  0.27442000  0.59721000  0.18227000  1.0
  H  H8  1  0.54400000  0.07667000  0.90035000  1.0
  H  H9  1  0.75850000  0.23017000  0.73687000  1.0
  C  C10  1  0.56482000  0.06150000  0.63571000  1.0
  C  C11  1  0.48145000  0.07298000  0.44329000  1.0
  C  C12  1  0.44170000  0.86679000  0.43364000  1.0
  C  C13  1  0.76438000  0.24212000  0.86082000  1.0
  C  C14  1  0.70150000  0.19866000  0.90677000  1.0
  C  C15  1  0.45856000  0.12024000  0.26048000  1.0
  C  C16  1  0.59321000  0.20733000  0.30038000  1.0
  C  C17  1  0.15547000  0.59182000  0.29299000  1.0
  C  C18  1  0.13942000  0.63922000  0.38014000  1.0
  C  C19  1  0.67401000  0.25276000  0.38830000  1.0
  C  C20  1  0.63198000  0.21114000  0.43600000  1.0
  C  C21  1  0.50059000  0.12340000  0.39658000  1.0
  C  C22  1  0.40866000  0.07971000  0.30875000  1.0
  C  C23  1  0.23187000  0.72779000  0.42257000  1.0
  C  C24  1  0.35456000  0.77111000  0.38110000  1.0
  C  C25  1  0.37407000  0.72275000  0.29393000  1.0
  C  C26  1  0.27003000  0.63404000  0.25010000  1.0
  C  C27  1  0.59444000  0.10962000  0.86421000  1.0
  C  C28  1  0.55415000  0.06448000  0.77654000  1.0
  C  C29  1  0.61262000  0.10770000  0.73016000  1.0
  C  C30  1  0.71570000  0.19693000  0.77329000  1.0
  C  C31  1  0.91344000  0.37371000  0.12048000  1.0
  C  C32  1  0.67890000  0.24472000  0.12269000  1.0
  C  C33  1  0.74371000  0.24619000  0.99949000  1.0
  C  C34  1  0.04237000  0.49823000  0.24691000  1.0
  C  C35  1  0.84667000  0.37848000  0.25450000  1.0
  C  C36  1  0.65664000  0.25245000  0.25157000  1.0
  N  N37  1  0.81289000  0.33231000  0.16587000  1.0
  N  N38  1  0.63819000  0.20296000  0.03879000  1.0
  N  N39  1  0.88390000  0.32877000  0.03673000  1.0
  N  N40  1  0.03687000  0.45701000  0.16254000  1.0
  N  N41  1  0.95358000  0.46265000  0.29424000  1.0
  N  N42  1  0.59611000  0.20570000  0.16695000  1.0
  N  N43  1  0.77234000  0.33694000  0.29675000  1.0
  Cl  Cl44  1  0.41930000  0.95504000  0.72533000  1.0
  Cl  Cl45  1  0.50536000  0.77089000  0.23680000  1.0
  Cl  Cl46  1  0.73392000  0.27192000  0.54398000  1.0
  O  O47  1  0.69007000  0.90368000  0.42038000  1.0
  O  O48  1  0.78061000  0.00747000  0.59836000  1.0
  O  O49  1  0.73571000  0.08535000  0.49807000  1.0
  O  O50  1  0.25479000  0.90617000  0.49240000  1.0
  O  O51  1  0.22441000  0.01932000  0.42446000  1.0
  O  O52  1  0.31390000  0.08182000  0.60006000  1.0
