# generated using pymatgen
data_LiH15C16SN2
_symmetry_space_group_name_H-M   'P 1'
_cell_length_a   8.55417000
_cell_length_b   9.61260000
_cell_length_c   18.00440000
_cell_angle_alpha   90.00000000
_cell_angle_beta   90.00000000
_cell_angle_gamma   100.07600000
_symmetry_Int_Tables_number   1
_chemical_formula_structural   LiH15C16SN2
_chemical_formula_sum   'Li4 H60 C64 S4 N8'
_cell_volume   1457.62862689
_cell_formula_units_Z   4
loop_
 _symmetry_equiv_pos_site_id
 _symmetry_equiv_pos_as_xyz
  1  'x, y, z'
loop_
 _atom_site_type_symbol
 _atom_site_label
 _atom_site_symmetry_multiplicity
 _atom_site_fract_x
 _atom_site_fract_y
 _atom_site_fract_z
 _atom_site_occupancy
  Li  Li0  1  0.85797000  0.49998000  0.77730000  1.0
  Li  Li1  1  0.64204000  0.50001000  0.27731000  1.0
  Li  Li2  1  0.14204000  0.50001000  0.22270000  1.0
  Li  Li3  1  0.35796000  0.49999000  0.72269000  1.0
  H  H4  1  0.67586000  0.20866000  0.80584000  1.0
  H  H5  1  0.82414000  0.79133000  0.30583000  1.0
  H  H6  1  0.32414000  0.79134000  0.19416000  1.0
  H  H7  1  0.17586000  0.20866000  0.69416000  1.0
  H  H8  1  0.60557000  0.98157000  0.73677000  1.0
  H  H9  1  0.89444000  0.01842000  0.23677000  1.0
  H  H10  1  0.39443000  0.01842000  0.26323000  1.0
  H  H11  1  0.10557000  0.98157000  0.76323000  1.0
  H  H12  1  0.71178000  0.96642000  0.60727000  1.0
  H  H13  1  0.78823000  0.03358000  0.10727000  1.0
  H  H14  1  0.28822000  0.03358000  0.39273000  1.0
  H  H15  1  0.21178000  0.96642000  0.89273000  1.0
  H  H16  1  0.88689000  0.18033000  0.55330000  1.0
  H  H17  1  0.61312000  0.81967000  0.05329000  1.0
  H  H18  1  0.11311000  0.81967000  0.44670000  1.0
  H  H19  1  0.38688000  0.18033000  0.94670000  1.0
  H  H20  1  0.95176000  0.39773000  0.63279000  1.0
  H  H21  1  0.54824000  0.60227000  0.13279000  1.0
  H  H22  1  0.04824000  0.60227000  0.36721000  1.0
  H  H23  1  0.45176000  0.39773000  0.86721000  1.0
  H  H24  1  0.02879000  0.31600000  0.86462000  1.0
  H  H25  1  0.47122000  0.68400000  0.36462000  1.0
  H  H26  1  0.97122000  0.68400000  0.13538000  1.0
  H  H27  1  0.52878000  0.31600000  0.63538000  1.0
  H  H28  1  0.04092000  0.22624000  0.99470000  1.0
  H  H29  1  0.45908000  0.77375000  0.49469000  1.0
  H  H30  1  0.95908000  0.77376000  0.00531000  1.0
  H  H31  1  0.54091000  0.22624000  0.50530000  1.0
  H  H32  1  0.85260000  0.29643000  0.09035000  1.0
  H  H33  1  0.64738000  0.70357000  0.59036000  1.0
  H  H34  1  0.14738000  0.70358000  0.90965000  1.0
  H  H35  1  0.35259000  0.29642000  0.40965000  1.0
  H  H36  1  0.65968000  0.44882000  0.04979000  1.0
  H  H37  1  0.84032000  0.55119000  0.54980000  1.0
  H  H38  1  0.34031000  0.55119000  0.95020000  1.0
  H  H39  1  0.15967000  0.44881000  0.45021000  1.0
  H  H40  1  0.67106000  0.53736000  0.91815000  1.0
  H  H41  1  0.82895000  0.46264000  0.41816000  1.0
  H  H42  1  0.32894000  0.46264000  0.08185000  1.0
  H  H43  1  0.17106000  0.53736000  0.58185000  1.0
  H  H44  1  0.41257000  0.78928000  0.69403000  1.0
  H  H45  1  0.08743000  0.21073000  0.19404000  1.0
  H  H46  1  0.58744000  0.21071000  0.30597000  1.0
  H  H47  1  0.91257000  0.78927000  0.80597000  1.0
  H  H48  1  0.44257000  0.98087000  0.59999000  1.0
  H  H49  1  0.05742000  0.01914000  0.09999000  1.0
  H  H50  1  0.55744000  0.01913000  0.40001000  1.0
  H  H51  1  0.94258000  0.98086000  0.90001000  1.0
  H  H52  1  0.20618000  0.04229000  0.53611000  1.0
  H  H53  1  0.29381000  0.95771000  0.03611000  1.0
  H  H54  1  0.79383000  0.95772000  0.46389000  1.0
  H  H55  1  0.70619000  0.04229000  0.96388000  1.0
  H  H56  1  0.93754000  0.90521000  0.56588000  1.0
  H  H57  1  0.56245000  0.09479000  0.06588000  1.0
  H  H58  1  0.06247000  0.09480000  0.43412000  1.0
  H  H59  1  0.43754000  0.90521000  0.93412000  1.0
  H  H60  1  0.90460000  0.72115000  0.66365000  1.0
  H  H61  1  0.59540000  0.27885000  0.16364000  1.0
  H  H62  1  0.09541000  0.27885000  0.33635000  1.0
  H  H63  1  0.40460000  0.72115000  0.83635000  1.0
  C  C64  1  0.72069000  0.19808000  0.74977000  1.0
  C  C65  1  0.77931000  0.80192000  0.24977000  1.0
  C  C66  1  0.27930000  0.80192000  0.25023000  1.0
  C  C67  1  0.22069000  0.19808000  0.75023000  1.0
  C  C68  1  0.68086000  0.07147000  0.71087000  1.0
  C  C69  1  0.81915000  0.92853000  0.21088000  1.0
  C  C70  1  0.31914000  0.92853000  0.28912000  1.0
  C  C71  1  0.18085000  0.07147000  0.78913000  1.0
  C  C72  1  0.74062000  0.06388000  0.63920000  1.0
  C  C73  1  0.75939000  0.93612000  0.13921000  1.0
  C  C74  1  0.25938000  0.93611000  0.36079000  1.0
  C  C75  1  0.24061000  0.06389000  0.86080000  1.0
  C  C76  1  0.83823000  0.18211000  0.60917000  1.0
  C  C77  1  0.66177000  0.81789000  0.10917000  1.0
  C  C78  1  0.16177000  0.81789000  0.39083000  1.0
  C  C79  1  0.33823000  0.18211000  0.89083000  1.0
  C  C80  1  0.87302000  0.30333000  0.65268000  1.0
  C  C81  1  0.62698000  0.69667000  0.15268000  1.0
  C  C82  1  0.12698000  0.69667000  0.34732000  1.0
  C  C83  1  0.37302000  0.30333000  0.84732000  1.0
  C  C84  1  0.94876000  0.34317000  0.90741000  1.0
  C  C85  1  0.55125000  0.65683000  0.40741000  1.0
  C  C86  1  0.05124000  0.65683000  0.09259000  1.0
  C  C87  1  0.44875000  0.34317000  0.59259000  1.0
  C  C88  1  0.95419000  0.29215000  0.97975000  1.0
  C  C89  1  0.54581000  0.70785000  0.47975000  1.0
  C  C90  1  0.04582000  0.70785000  0.02025000  1.0
  C  C91  1  0.45418000  0.29214000  0.52025000  1.0
  C  C92  1  0.84940000  0.32986000  0.03238000  1.0
  C  C93  1  0.65060000  0.67015000  0.53238000  1.0
  C  C94  1  0.15059000  0.67015000  0.96762000  1.0
  C  C95  1  0.34939000  0.32985000  0.46762000  1.0
  C  C96  1  0.74308000  0.41681000  0.01026000  1.0
  C  C97  1  0.75692000  0.58319000  0.51027000  1.0
  C  C98  1  0.25692000  0.58320000  0.98974000  1.0
  C  C99  1  0.24307000  0.41680000  0.48974000  1.0
  C  C100  1  0.74786000  0.46490000  0.93718000  1.0
  C  C101  1  0.75214000  0.53510000  0.43719000  1.0
  C  C102  1  0.25214000  0.53510000  0.06282000  1.0
  C  C103  1  0.24785000  0.46490000  0.56282000  1.0
  C  C104  1  0.15614000  0.74153000  0.68651000  1.0
  C  C105  1  0.34387000  0.25848000  0.18651000  1.0
  C  C106  1  0.84388000  0.25847000  0.31349000  1.0
  C  C107  1  0.65613000  0.74153000  0.81349000  1.0
  C  C108  1  0.30787000  0.81591000  0.66648000  1.0
  C  C109  1  0.19213000  0.18411000  0.16648000  1.0
  C  C110  1  0.69213000  0.18409000  0.33352000  1.0
  C  C111  1  0.80787000  0.81590000  0.83352000  1.0
  C  C112  1  0.32472000  0.92230000  0.61298000  1.0
  C  C113  1  0.17527000  0.07771000  0.11298000  1.0
  C  C114  1  0.67528000  0.07771000  0.38703000  1.0
  C  C115  1  0.82473000  0.92229000  0.88702000  1.0
  C  C116  1  0.19217000  0.95691000  0.57673000  1.0
  C  C117  1  0.30783000  0.04310000  0.07673000  1.0
  C  C118  1  0.80784000  0.04310000  0.42327000  1.0
  C  C119  1  0.69217000  0.95690000  0.92327000  1.0
  C  C120  1  0.04200000  0.88144000  0.59447000  1.0
  C  C121  1  0.45799000  0.11857000  0.09447000  1.0
  C  C122  1  0.95800000  0.11856000  0.40553000  1.0
  C  C123  1  0.54200000  0.88143000  0.90552000  1.0
  C  C124  1  0.02333000  0.77624000  0.64870000  1.0
  C  C125  1  0.47667000  0.22376000  0.14870000  1.0
  C  C126  1  0.97667000  0.22376000  0.35130000  1.0
  C  C127  1  0.52333000  0.77624000  0.85130000  1.0
  S  S128  1  0.13467000  0.61212000  0.75611000  1.0
  S  S129  1  0.36533000  0.38788000  0.25612000  1.0
  S  S130  1  0.86533000  0.38788000  0.24388000  1.0
  S  S131  1  0.63467000  0.61211000  0.74388000  1.0
  N  N132  1  0.81529000  0.31238000  0.72162000  1.0
  N  N133  1  0.68471000  0.68761000  0.22162000  1.0
  N  N134  1  0.18471000  0.68761000  0.27838000  1.0
  N  N135  1  0.31529000  0.31239000  0.77838000  1.0
  N  N136  1  0.84861000  0.42900000  0.88608000  1.0
  N  N137  1  0.65140000  0.57100000  0.38608000  1.0
  N  N138  1  0.15139000  0.57100000  0.11392000  1.0
  N  N139  1  0.34860000  0.42900000  0.61392000  1.0
