# generated using pymatgen
data_FeH24C15S2(N2Cl)2
_symmetry_space_group_name_H-M   'P 1'
_cell_length_a   9.69815000
_cell_length_b   13.95320000
_cell_length_c   18.04370000
_cell_angle_alpha   89.99990000
_cell_angle_beta   90.00060000
_cell_angle_gamma   89.99990000
_symmetry_Int_Tables_number   1
_chemical_formula_structural   FeH24C15S2(N2Cl)2
_chemical_formula_sum   'Fe4 H96 C60 S8 N16 Cl8'
_cell_volume   2441.67757220
_cell_formula_units_Z   4
loop_
 _symmetry_equiv_pos_site_id
 _symmetry_equiv_pos_as_xyz
  1  'x, y, z'
loop_
 _atom_site_type_symbol
 _atom_site_label
 _atom_site_symmetry_multiplicity
 _atom_site_fract_x
 _atom_site_fract_y
 _atom_site_fract_z
 _atom_site_occupancy
  Fe  Fe0  1  0.66208000  0.80069000  0.68876000  1.0
  Fe  Fe1  1  0.33792000  0.19931000  0.18876000  1.0
  Fe  Fe2  1  0.33792000  0.30069000  0.68877000  1.0
  Fe  Fe3  1  0.66210000  0.69932000  0.18877000  1.0
  H  H4  1  0.20736000  0.52414000  0.74555000  1.0
  H  H5  1  0.79264000  0.47586000  0.24555000  1.0
  H  H6  1  0.79266000  0.02414000  0.74555000  1.0
  H  H7  1  0.20735000  0.97586000  0.24556000  1.0
  H  H8  1  0.04370000  0.68565000  0.76513000  1.0
  H  H9  1  0.95631000  0.31436000  0.26513000  1.0
  H  H10  1  0.95631000  0.18564000  0.76513000  1.0
  H  H11  1  0.04369000  0.81436000  0.26513000  1.0
  H  H12  1  0.54924000  0.59739000  0.68190000  1.0
  H  H13  1  0.45077000  0.40261000  0.18189000  1.0
  H  H14  1  0.45077000  0.09739000  0.68190000  1.0
  H  H15  1  0.54923000  0.90261000  0.18190000  1.0
  H  H16  1  0.43883000  0.49825000  0.70526000  1.0
  H  H17  1  0.56117000  0.50175000  0.20525000  1.0
  H  H18  1  0.56118000  0.99824000  0.70525000  1.0
  H  H19  1  0.43882000  0.00176000  0.20526000  1.0
  H  H20  1  0.62292000  0.61990000  0.55602000  1.0
  H  H21  1  0.37707000  0.38011000  0.05602000  1.0
  H  H22  1  0.37707000  0.11989000  0.55602000  1.0
  H  H23  1  0.62291000  0.88010000  0.05602000  1.0
  H  H24  1  0.56960000  0.52641000  0.42382000  1.0
  H  H25  1  0.43039000  0.47359000  0.92382000  1.0
  H  H26  1  0.43039000  0.02640000  0.42383000  1.0
  H  H27  1  0.56959000  0.97358000  0.92382000  1.0
  H  H28  1  0.28265000  0.88692000  0.81083000  1.0
  H  H29  1  0.71736000  0.11308000  0.31083000  1.0
  H  H30  1  0.71735000  0.38692000  0.81083000  1.0
  H  H31  1  0.28265000  0.61308000  0.31084000  1.0
  H  H32  1  0.23956000  0.99015000  0.75671000  1.0
  H  H33  1  0.76045000  0.00985000  0.25671000  1.0
  H  H34  1  0.76044000  0.49015000  0.75671000  1.0
  H  H35  1  0.23955000  0.50985000  0.25672000  1.0
  H  H36  1  0.37368000  0.91143000  0.72777000  1.0
  H  H37  1  0.62633000  0.08857000  0.22776000  1.0
  H  H38  1  0.62632000  0.41143000  0.72777000  1.0
  H  H39  1  0.37368000  0.58857000  0.22777000  1.0
  H  H40  1  0.24009000  0.89411000  0.60038000  1.0
  H  H41  1  0.75993000  0.10589000  0.10038000  1.0
  H  H42  1  0.75991000  0.39411000  0.60038000  1.0
  H  H43  1  0.24008000  0.60589000  0.10038000  1.0
  H  H44  1  0.10739000  0.96959000  0.63503000  1.0
  H  H45  1  0.89263000  0.03041000  0.13503000  1.0
  H  H46  1  0.89261000  0.46959000  0.63503000  1.0
  H  H47  1  0.10739000  0.53041000  0.13503000  1.0
  H  H48  1  0.06571000  0.85258000  0.60295000  1.0
  H  H49  1  0.93430000  0.14742000  0.10295000  1.0
  H  H50  1  0.93429000  0.35258000  0.60294000  1.0
  H  H51  1  0.06570000  0.64742000  0.10295000  1.0
  H  H52  1  0.94655000  0.82006000  0.72589000  1.0
  H  H53  1  0.05346000  0.17994000  0.22590000  1.0
  H  H54  1  0.05345000  0.32006000  0.72589000  1.0
  H  H55  1  0.94655000  0.67994000  0.22590000  1.0
  H  H56  1  0.99514000  0.93679000  0.75440000  1.0
  H  H57  1  0.00487000  0.06321000  0.25441000  1.0
  H  H58  1  0.00485000  0.43679000  0.75440000  1.0
  H  H59  1  0.99515000  0.56321000  0.25441000  1.0
  H  H60  1  0.03813000  0.83738000  0.81079000  1.0
  H  H61  1  0.96187000  0.16262000  0.31080000  1.0
  H  H62  1  0.96186000  0.33738000  0.81079000  1.0
  H  H63  1  0.03814000  0.66263000  0.31079000  1.0
  H  H64  1  0.29449000  0.27639000  0.50953000  1.0
  H  H65  1  0.70551000  0.72361000  0.00953000  1.0
  H  H66  1  0.70551000  0.77638000  0.50953000  1.0
  H  H67  1  0.29449000  0.22362000  0.00953000  1.0
  H  H68  1  0.46463000  0.26733000  0.47296000  1.0
  H  H69  1  0.53537000  0.73267000  0.97296000  1.0
  H  H70  1  0.53537000  0.76733000  0.47296000  1.0
  H  H71  1  0.46463000  0.23266000  0.97296000  1.0
  H  H72  1  0.32105000  0.23959000  0.41574000  1.0
  H  H73  1  0.67895000  0.76041000  0.91574000  1.0
  H  H74  1  0.67894000  0.73958000  0.41573000  1.0
  H  H75  1  0.32106000  0.26041000  0.91574000  1.0
  H  H76  1  0.13646000  0.41140000  0.46649000  1.0
  H  H77  1  0.86354000  0.58860000  0.96649000  1.0
  H  H78  1  0.86353000  0.91140000  0.46649000  1.0
  H  H79  1  0.13646000  0.08860000  0.96648000  1.0
  H  H80  1  0.15945000  0.37598000  0.37222000  1.0
  H  H81  1  0.84055000  0.62402000  0.87222000  1.0
  H  H82  1  0.84055000  0.87598000  0.37222000  1.0
  H  H83  1  0.15945000  0.12402000  0.87222000  1.0
  H  H84  1  0.19551000  0.49596000  0.39932000  1.0
  H  H85  1  0.80448000  0.50404000  0.89932000  1.0
  H  H86  1  0.80448000  0.99595000  0.39932000  1.0
  H  H87  1  0.19551000  0.00405000  0.89931000  1.0
  H  H88  1  0.39090000  0.35074000  0.32006000  1.0
  H  H89  1  0.60910000  0.64925000  0.82006000  1.0
  H  H90  1  0.60909000  0.85074000  0.32006000  1.0
  H  H91  1  0.39091000  0.14926000  0.82006000  1.0
  H  H92  1  0.54347000  0.37594000  0.37076000  1.0
  H  H93  1  0.45653000  0.62406000  0.87076000  1.0
  H  H94  1  0.45653000  0.87594000  0.37076000  1.0
  H  H95  1  0.54347000  0.12406000  0.87076000  1.0
  H  H96  1  0.43678000  0.47159000  0.33848000  1.0
  H  H97  1  0.56322000  0.52841000  0.83848000  1.0
  H  H98  1  0.56321000  0.97158000  0.33848000  1.0
  H  H99  1  0.43679000  0.02842000  0.83848000  1.0
  C  C100  1  0.33413000  0.72325000  0.67729000  1.0
  C  C101  1  0.66588000  0.27675000  0.17729000  1.0
  C  C102  1  0.66587000  0.22324000  0.67729000  1.0
  C  C103  1  0.33413000  0.77676000  0.17729000  1.0
  C  C104  1  0.22197000  0.59821000  0.72947000  1.0
  C  C105  1  0.77803000  0.40179000  0.22947000  1.0
  C  C106  1  0.77804000  0.09821000  0.72947000  1.0
  C  C107  1  0.22196000  0.90180000  0.22947000  1.0
  C  C108  1  0.14416000  0.67809000  0.73991000  1.0
  C  C109  1  0.85584000  0.32191000  0.23991000  1.0
  C  C110  1  0.85584000  0.17809000  0.73991000  1.0
  C  C111  1  0.14416000  0.82191000  0.23992000  1.0
  C  C112  1  0.45023000  0.56233000  0.67058000  1.0
  C  C113  1  0.54977000  0.43767000  0.17058000  1.0
  C  C114  1  0.54978000  0.06233000  0.67058000  1.0
  C  C115  1  0.45022000  0.93767000  0.17059000  1.0
  C  C116  1  0.36748000  0.46604000  0.56173000  1.0
  C  C117  1  0.63252000  0.53396000  0.06173000  1.0
  C  C118  1  0.63252000  0.96603000  0.56173000  1.0
  C  C119  1  0.36748000  0.03397000  0.06173000  1.0
  C  C120  1  0.54633000  0.56665000  0.54160000  1.0
  C  C121  1  0.45367000  0.43335000  0.04160000  1.0
  C  C122  1  0.45367000  0.06664000  0.54160000  1.0
  C  C123  1  0.54631000  0.93335000  0.04160000  1.0
  C  C124  1  0.52024000  0.51916000  0.47729000  1.0
  C  C125  1  0.47976000  0.48084000  0.97730000  1.0
  C  C126  1  0.47977000  0.01916000  0.47730000  1.0
  C  C127  1  0.52022000  0.98083000  0.97730000  1.0
  C  C128  1  0.16478000  0.85738000  0.71116000  1.0
  C  C129  1  0.83523000  0.14262000  0.21116000  1.0
  C  C130  1  0.83522000  0.35738000  0.71116000  1.0
  C  C131  1  0.16478000  0.64263000  0.21116000  1.0
  C  C132  1  0.27233000  0.91501000  0.75421000  1.0
  C  C133  1  0.72768000  0.08499000  0.25421000  1.0
  C  C134  1  0.72767000  0.41501000  0.75421000  1.0
  C  C135  1  0.27233000  0.58499000  0.25421000  1.0
  C  C136  1  0.14381000  0.89522000  0.63215000  1.0
  C  C137  1  0.85621000  0.10478000  0.13215000  1.0
  C  C138  1  0.85619000  0.39522000  0.63215000  1.0
  C  C139  1  0.14381000  0.60478000  0.13215000  1.0
  C  C140  1  0.02803000  0.86168000  0.75313000  1.0
  C  C141  1  0.97198000  0.13832000  0.25314000  1.0
  C  C142  1  0.97197000  0.36168000  0.75313000  1.0
  C  C143  1  0.02803000  0.63833000  0.25314000  1.0
  C  C144  1  0.35041000  0.39063000  0.43221000  1.0
  C  C145  1  0.64958000  0.60937000  0.93221000  1.0
  C  C146  1  0.64958000  0.89063000  0.43221000  1.0
  C  C147  1  0.35042000  0.10937000  0.93221000  1.0
  C  C148  1  0.35784000  0.28709000  0.45995000  1.0
  C  C149  1  0.64216000  0.71291000  0.95995000  1.0
  C  C150  1  0.64216000  0.78708000  0.45995000  1.0
  C  C151  1  0.35784000  0.21291000  0.95995000  1.0
  C  C152  1  0.20086000  0.42081000  0.41704000  1.0
  C  C153  1  0.79914000  0.57919000  0.91705000  1.0
  C  C154  1  0.79913000  0.92080000  0.41704000  1.0
  C  C155  1  0.20086000  0.07919000  0.91704000  1.0
  C  C156  1  0.43646000  0.39882000  0.36143000  1.0
  C  C157  1  0.56354000  0.60118000  0.86143000  1.0
  C  C158  1  0.56353000  0.89882000  0.36143000  1.0
  C  C159  1  0.43647000  0.10118000  0.86143000  1.0
  S  S160  1  0.45526000  0.78619000  0.62802000  1.0
  S  S161  1  0.54475000  0.21381000  0.12802000  1.0
  S  S162  1  0.54475000  0.28619000  0.62801000  1.0
  S  S163  1  0.45524000  0.71381000  0.12801000  1.0
  S  S164  1  0.23700000  0.40898000  0.60783000  1.0
  S  S165  1  0.76300000  0.59102000  0.10783000  1.0
  S  S166  1  0.76300000  0.90897000  0.60782000  1.0
  S  S167  1  0.23700000  0.09103000  0.10782000  1.0
  N  N168  1  0.33805000  0.62643000  0.69061000  1.0
  N  N169  1  0.66195000  0.37357000  0.19061000  1.0
  N  N170  1  0.66196000  0.12642000  0.69061000  1.0
  N  N171  1  0.33805000  0.87358000  0.19061000  1.0
  N  N172  1  0.21315000  0.75490000  0.70782000  1.0
  N  N173  1  0.78685000  0.24510000  0.20782000  1.0
  N  N174  1  0.78685000  0.25490000  0.70782000  1.0
  N  N175  1  0.21315000  0.74511000  0.20783000  1.0
  N  N176  1  0.45155000  0.53415000  0.59304000  1.0
  N  N177  1  0.54844000  0.46585000  0.09304000  1.0
  N  N178  1  0.54845000  0.03415000  0.59304000  1.0
  N  N179  1  0.45155000  0.96585000  0.09304000  1.0
  N  N180  1  0.41020000  0.45712000  0.48981000  1.0
  N  N181  1  0.58979000  0.54288000  0.98981000  1.0
  N  N182  1  0.58979000  0.95712000  0.48980000  1.0
  N  N183  1  0.41020000  0.04288000  0.98981000  1.0
  Cl  Cl184  1  0.78778000  0.66497000  0.68456000  1.0
  Cl  Cl185  1  0.21222000  0.33504000  0.18456000  1.0
  Cl  Cl186  1  0.21223000  0.16497000  0.68456000  1.0
  Cl  Cl187  1  0.78776000  0.83502000  0.18456000  1.0
  Cl  Cl188  1  0.64633000  0.87338000  0.80013000  1.0
  Cl  Cl189  1  0.35367000  0.12662000  0.30014000  1.0
  Cl  Cl190  1  0.35367000  0.37338000  0.80013000  1.0
  Cl  Cl191  1  0.64633000  0.62662000  0.30012000  1.0
