# generated using pymatgen
data_ZnH12C15N3O4
_symmetry_space_group_name_H-M   'P 1'
_cell_length_a   11.14710000
_cell_length_b   14.06900000
_cell_length_c   15.26380000
_cell_angle_alpha   93.19410000
_cell_angle_beta   90.74160000
_cell_angle_gamma   92.77580000
_symmetry_Int_Tables_number   1
_chemical_formula_structural   ZnH12C15N3O4
_chemical_formula_sum   'Zn2 H24 C30 N6 O8'
_cell_volume   2386.98290017
_cell_formula_units_Z   2
loop_
 _symmetry_equiv_pos_site_id
 _symmetry_equiv_pos_as_xyz
  1  'x, y, z'
loop_
 _atom_site_type_symbol
 _atom_site_label
 _atom_site_symmetry_multiplicity
 _atom_site_fract_x
 _atom_site_fract_y
 _atom_site_fract_z
 _atom_site_occupancy
  Zn  Zn0  1  0.49201000  0.39451000  0.49904000  1.0
  Zn  Zn1  1  0.49764000  0.59686000  0.51227000  1.0
  H  H2  1  0.31213000  0.23451000  0.46695000  1.0
  H  H3  1  0.67648000  0.25221000  0.52106000  1.0
  H  H4  1  0.08035000  0.41490000  0.52627000  1.0
  H  H5  1  0.90171000  0.45357000  0.46182000  1.0
  H  H6  1  0.57029000  0.36258000  0.93886000  1.0
  H  H7  1  0.45266000  0.35547000  0.05679000  1.0
  H  H8  1  0.55639000  0.35969000  0.77568000  1.0
  H  H9  1  0.45621000  0.35335000  0.21980000  1.0
  H  H10  1  0.43459000  0.64441000  0.78989000  1.0
  H  H11  1  0.56684000  0.64997000  0.23976000  1.0
  H  H12  1  0.44236000  0.64721000  0.95340000  1.0
  H  H13  1  0.56715000  0.65302000  0.07658000  1.0
  H  H14  1  0.63221000  0.94627000  0.60026000  1.0
  H  H15  1  0.35669000  0.91510000  0.39714000  1.0
  H  H16  1  0.30372000  0.05581000  0.46611000  1.0
  H  H17  1  0.68513000  0.07434000  0.52294000  1.0
  H  H18  1  0.21511000  0.65701000  0.53952000  1.0
  H  H19  1  0.07765000  0.71088000  0.55413000  1.0
  H  H20  1  0.96062000  0.64366000  0.67445000  1.0
  H  H21  1  0.81488000  0.62102000  0.63782000  1.0
  H  H22  1  0.66666667  0.69130000  0.59625000  1.0
  H  H23  1  0.71525000  0.80262000  0.63909000  1.0
  H  H24  1  0.32841000  0.65758000  0.41036000  1.0
  H  H25  1  0.28143000  0.75802000  0.36042000  1.0
  C  C26  1  0.48781000  0.50021000  0.67496000  1.0
  C  C27  1  0.50882000  0.49828000  0.33744000  1.0
  C  C28  1  0.50640000  0.50482000  0.95809000  1.0
  C  C29  1  0.50949000  0.50449000  0.05476000  1.0
  C  C30  1  0.57205000  0.90305000  0.55570000  1.0
  C  C31  1  0.41639000  0.88577000  0.44459000  1.0
  C  C32  1  0.57101000  0.80319000  0.55707000  1.0
  C  C33  1  0.41744000  0.78612000  0.45012000  1.0
  C  C34  1  0.49406000  0.94458000  0.49839000  1.0
  C  C35  1  0.38885000  0.09611000  0.47785000  1.0
  C  C36  1  0.59997000  0.10657000  0.51104000  1.0
  C  C37  1  0.39215000  0.19496000  0.47822000  1.0
  C  C38  1  0.59651000  0.20502000  0.50985000  1.0
  C  C39  1  0.49428000  0.04941000  0.49538000  1.0
  C  C40  1  0.73230000  0.49664000  0.51660000  1.0
  C  C41  1  0.25729000  0.48086000  0.50560000  1.0
  C  C42  1  0.07093000  0.56482000  0.54468000  1.0
  C  C43  1  0.93968000  0.56243000  0.56022000  1.0
  C  C44  1  0.12942000  0.48324000  0.52341000  1.0
  C  C45  1  0.86338000  0.50207000  0.51058000  1.0
  C  C46  1  0.53833000  0.42407000  0.90661000  1.0
  C  C47  1  0.47966000  0.42002000  0.09651000  1.0
  C  C48  1  0.53179000  0.42226000  0.81551000  1.0
  C  C49  1  0.48053000  0.41843000  0.18741000  1.0
  C  C50  1  0.49415000  0.50170000  0.77303000  1.0
  C  C51  1  0.51123000  0.50138000  0.23962000  1.0
  C  C52  1  0.46377000  0.58306000  0.82363000  1.0
  C  C53  1  0.54190000  0.58588000  0.19885000  1.0
  C  C54  1  0.46949000  0.58445000  0.91482000  1.0
  C  C55  1  0.54103000  0.58731000  0.10767000  1.0
  N  N56  1  0.49355000  0.74536000  0.50613000  1.0
  N  N57  1  0.49417000  0.24853000  0.49427000  1.0
  N  N58  1  0.12753000  0.65299000  0.55810000  1.0
  N  N59  1  0.90322000  0.62973000  0.62258000  1.0
  N  N60  1  0.64716000  0.76072000  0.61139000  1.0
  N  N61  1  0.34229000  0.72800000  0.39838000  1.0
  O  O62  1  0.50875000  0.42221000  0.63286000  1.0
  O  O63  1  0.47776000  0.41891000  0.36840000  1.0
  O  O64  1  0.46262000  0.57791000  0.64099000  1.0
  O  O65  1  0.53691000  0.57553000  0.38284000  1.0
  O  O66  1  0.67720000  0.41974000  0.48729000  1.0
  O  O67  1  0.30694000  0.40129000  0.50830000  1.0
  O  O68  1  0.67845000  0.56969000  0.54952000  1.0
  O  O69  1  0.31564000  0.55993000  0.48850000  1.0
