# generated using pymatgen
data_Zn2H39C42N7O30
_symmetry_space_group_name_H-M   'P 1'
_cell_length_a   10.14030000
_cell_length_b   10.65550000
_cell_length_c   11.61100000
_cell_angle_alpha   94.88590000
_cell_angle_beta   94.82240000
_cell_angle_gamma   97.64960000
_symmetry_Int_Tables_number   1
_chemical_formula_structural   Zn2H39C42N7O30
_chemical_formula_sum   'Zn2 H39 C42 N7 O30'
_cell_volume   1233.08973854
_cell_formula_units_Z   1
loop_
 _symmetry_equiv_pos_site_id
 _symmetry_equiv_pos_as_xyz
  1  'x, y, z'
loop_
 _atom_site_type_symbol
 _atom_site_label
 _atom_site_symmetry_multiplicity
 _atom_site_fract_x
 _atom_site_fract_y
 _atom_site_fract_z
 _atom_site_occupancy
  Zn  Zn0  1  0.40757000  0.49022000  0.52933000  1.0
  Zn  Zn1  1  0.71085000  0.52999000  0.44821000  1.0
  H  H2  1  0.30895000  0.42947000  0.15900000  1.0
  H  H3  1  0.52972000  0.64803000  0.93237000  1.0
  H  H4  1  0.27206000  0.86476000  0.61226000  1.0
  H  H5  1  0.27068000  0.11226000  0.49681000  1.0
  H  H6  1  0.30395000  0.10219000  0.64753000  1.0
  H  H7  1  0.21561000  0.62095000  0.63453000  1.0
  H  H8  1  0.14685000  0.33683000  0.23851000  1.0
  H  H9  1  0.92728000  0.38268000  0.20934000  1.0
  H  H10  1  0.76378000  0.47287000  0.72190000  1.0
  H  H11  1  0.54128000  0.93201000  0.11246000  1.0
  H  H12  1  0.89882000  0.10295000  0.49979000  1.0
  H  H13  1  0.99745000  0.28610000  0.61538000  1.0
  H  H14  1  0.91315000  0.18045000  0.70478000  1.0
  H  H15  1  0.83718000  0.31102000  0.65931000  1.0
  H  H16  1  0.90422000  0.94962000  0.55557000  1.0
  H  H17  1  0.88457000  0.89707000  0.33985000  1.0
  H  H18  1  0.74437000  0.78435000  0.35885000  1.0
  H  H19  1  0.90791000  0.76404000  0.41698000  1.0
  H  H20  1  0.25142000  0.85696000  0.26666000  1.0
  H  H21  1  0.81584000  0.66617000  0.74612000  1.0
  H  H22  1  0.40431000  0.10208000  0.15568000  1.0
  H  H23  1  0.18420000  0.03552000  0.29581000  1.0
  H  H24  1  0.82214000  0.21923000  0.38559000  1.0
  H  H25  1  0.91210000  0.07329000  0.23970000  1.0
  H  H26  1  0.82729000  0.15140000  0.12940000  1.0
  H  H27  1  0.73466000  0.06040000  0.22752000  1.0
  H  H28  1  0.25544000  0.27136000  0.83065000  1.0
  H  H29  1  0.17800000  0.07257000  0.90158000  1.0
  H  H30  1  0.06787000  0.18885000  0.92119000  1.0
  H  H31  1  0.17473000  0.15534000  0.04018000  1.0
  H  H32  1  0.00777000  0.47876000  0.93879000  1.0
  H  H33  1  0.31464000  0.61147000  0.21518000  1.0
  H  H34  1  0.26090000  0.81650000  0.11706000  1.0
  H  H35  1  0.13340000  0.70504000  0.16833000  1.0
  H  H36  1  0.15993000  0.69994000  0.01917000  1.0
  H  H37  1  0.39175000  0.83256000  0.77512000  1.0
  H  H38  1  0.79355000  0.75369000  0.08777000  1.0
  H  H39  1  0.73684000  0.27692000  0.26020000  1.0
  H  H40  1  0.54980000  0.11968000  0.88567000  1.0
  C  C41  1  0.58050000  0.28772000  0.52030000  1.0
  C  C42  1  0.39910000  0.47086000  0.90042000  1.0
  C  C43  1  0.42613000  0.61607000  0.94741000  1.0
  C  C44  1  0.54650000  0.42905000  0.91209000  1.0
  C  C45  1  0.47408000  0.06997000  0.55030000  1.0
  C  C46  1  0.59085000  0.15226000  0.53996000  1.0
  C  C47  1  0.70757000  0.09205000  0.53314000  1.0
  C  C48  1  0.70178000  0.95549000  0.52516000  1.0
  C  C49  1  0.57863000  0.87542000  0.52985000  1.0
  C  C50  1  0.46810000  0.93897000  0.54311000  1.0
  C  C51  1  0.31553000  0.91628000  0.54343000  1.0
  C  C52  1  0.54566000  0.53008000  0.25332000  1.0
  C  C53  1  0.32728000  0.06709000  0.56103000  1.0
  C  C54  1  0.97502000  0.43802000  0.39970000  1.0
  C  C55  1  0.01277000  0.58230000  0.55549000  1.0
  C  C56  1  0.14801000  0.56630000  0.56478000  1.0
  C  C57  1  0.10812000  0.41771000  0.41277000  1.0
  C  C58  1  0.09268000  0.31398000  0.31348000  1.0
  C  C59  1  0.94106000  0.34213000  0.29292000  1.0
  C  C60  1  0.56208000  0.73461000  0.52899000  1.0
  C  C61  1  0.34781000  0.45481000  0.76692000  1.0
  C  C62  1  0.37981000  0.39437000  0.10306000  1.0
  C  C63  1  0.30574000  0.38613000  0.97718000  1.0
  C  C64  1  0.42939000  0.62910000  0.08176000  1.0
  C  C65  1  0.61363000  0.47268000  0.04400000  1.0
  C  C66  1  0.49926000  0.50715000  0.12061000  1.0
  C  C67  1  0.63958000  0.49982000  0.83006000  1.0
  C  C68  1  0.50118000  0.75944000  0.14008000  1.0
  C  C69  1  0.89894000  0.23978000  0.63260000  1.0
  C  C70  1  0.83963000  0.83390000  0.40152000  1.0
  C  C71  1  0.24611000  0.85345000  0.42979000  1.0
  C  C72  1  0.96662000  0.67303000  0.64490000  1.0
  C  C73  1  0.39868000  0.27388000  0.16350000  1.0
  C  C74  1  0.10834000  0.18247000  0.34554000  1.0
  C  C75  1  0.82732000  0.12304000  0.21807000  1.0
  C  C76  1  0.16852000  0.16531000  0.94712000  1.0
  C  C77  1  0.16442000  0.42275000  0.99762000  1.0
  C  C78  1  0.21042000  0.71612000  0.10735000  1.0
  C  C79  1  0.35360000  0.70218000  0.87190000  1.0
  C  C80  1  0.73511000  0.58020000  0.04648000  1.0
  C  C81  1  0.68714000  0.36254000  0.09594000  1.0
  C  C82  1  0.52808000  0.28630000  0.86237000  1.0
  N  N83  1  0.92189000  0.51928000  0.46990000  1.0
  N  N84  1  0.19929000  0.48259000  0.49286000  1.0
  N  N85  1  0.83411000  0.16261000  0.52647000  1.0
  N  N86  1  0.81932000  0.90353000  0.51014000  1.0
  N  N87  1  0.82853000  0.23990000  0.29815000  1.0
  N  N88  1  0.27726000  0.25730000  0.91619000  1.0
  N  N89  1  0.29861000  0.62155000  0.12827000  1.0
  O  O90  1  0.46518000  0.32159000  0.51949000  1.0
  O  O91  1  0.68671000  0.35949000  0.50045000  1.0
  O  O92  1  0.45708000  0.52504000  0.32229000  1.0
  O  O93  1  0.67281000  0.55278000  0.28424000  1.0
  O  O94  1  0.44216000  0.67904000  0.52267000  1.0
  O  O95  1  0.66498000  0.67703000  0.53924000  1.0
  O  O96  1  0.24056000  0.38843000  0.72808000  1.0
  O  O97  1  0.42706000  0.52046000  0.70602000  1.0
  O  O98  1  0.67112000  0.61614000  0.83596000  1.0
  O  O99  1  0.69798000  0.42039000  0.76278000  1.0
  O  O100  1  0.52954000  0.78600000  0.24442000  1.0
  O  O101  1  0.50636000  0.85174000  0.06546000  1.0
  O  O102  1  0.16778000  0.75504000  0.41386000  1.0
  O  O103  1  0.28122000  0.91784000  0.33564000  1.0
  O  O104  1  0.01729000  0.78296000  0.66908000  1.0
  O  O105  1  0.86347000  0.61260000  0.69364000  1.0
  O  O106  1  0.38715000  0.27073000  0.26734000  1.0
  O  O107  1  0.40776000  0.16384000  0.09758000  1.0
  O  O108  1  0.07906000  0.14335000  0.43786000  1.0
  O  O109  1  0.15346000  0.11061000  0.26152000  1.0
  O  O110  1  0.10686000  0.38413000  0.07981000  1.0
  O  O111  1  0.09792000  0.47413000  0.91322000  1.0
  O  O112  1  0.23396000  0.69657000  0.84419000  1.0
  O  O113  1  0.44404000  0.78747000  0.82858000  1.0
  O  O114  1  0.84453000  0.56895000  0.01369000  1.0
  O  O115  1  0.71164000  0.69521000  0.09312000  1.0
  O  O116  1  0.78806000  0.33394000  0.05305000  1.0
  O  O117  1  0.63627000  0.31753000  0.18388000  1.0
  O  O118  1  0.47766000  0.25519000  0.76319000  1.0
  O  O119  1  0.57611000  0.20338000  0.92925000  1.0
