# generated using pymatgen
data_NiH24Ru4C20(NO4)4
_symmetry_space_group_name_H-M   'P 1'
_cell_length_a   8.97834000
_cell_length_b   9.92577000
_cell_length_c   11.21100000
_cell_angle_alpha   104.85200000
_cell_angle_beta   112.00600000
_cell_angle_gamma   101.02800000
_symmetry_Int_Tables_number   1
_chemical_formula_structural   NiH24Ru4C20(NO4)4
_chemical_formula_sum   'Ni1 H24 Ru4 C20 N4 O16'
_cell_volume   848.08530555
_cell_formula_units_Z   1
loop_
 _symmetry_equiv_pos_site_id
 _symmetry_equiv_pos_as_xyz
  1  'x, y, z'
loop_
 _atom_site_type_symbol
 _atom_site_label
 _atom_site_symmetry_multiplicity
 _atom_site_fract_x
 _atom_site_fract_y
 _atom_site_fract_z
 _atom_site_occupancy
  Ni  Ni0  1  0.00001000  0.00001000  0.50000000  1.0
  H  H1  1  0.42585000  0.49693000  0.86260000  1.0
  H  H2  1  0.57415000  0.50304000  0.13740000  1.0
  H  H3  1  0.27596000  0.51632000  0.92868000  1.0
  H  H4  1  0.72404000  0.48367000  0.07133000  1.0
  H  H5  1  0.22098000  0.49738000  0.75333000  1.0
  H  H6  1  0.77902000  0.50261000  0.24668000  1.0
  H  H7  1  0.56215000  0.94930000  0.59838000  1.0
  H  H8  1  0.43784000  0.05069000  0.40162000  1.0
  H  H9  1  0.65089000  0.14106000  0.69126000  1.0
  H  H10  1  0.34910000  0.85894000  0.30874000  1.0
  H  H11  1  0.77915000  0.02342000  0.72596000  1.0
  H  H12  1  0.22084000  0.97658000  0.27404000  1.0
  H  H13  1  0.02377000  0.18545000  0.10249000  1.0
  H  H14  1  0.97623000  0.81457000  0.89751000  1.0
  H  H15  1  0.08314000  0.33987000  0.05446000  1.0
  H  H16  1  0.91687000  0.66015000  0.94554000  1.0
  H  H17  1  0.17479000  0.19788000  0.03514000  1.0
  H  H18  1  0.82521000  0.80214000  0.96486000  1.0
  H  H19  1  0.05126000  0.64767000  0.53835000  1.0
  H  H20  1  0.94875000  0.35234000  0.46163000  1.0
  H  H21  1  0.20773000  0.81950000  0.58869000  1.0
  H  H22  1  0.79226000  0.18051000  0.41130000  1.0
  H  H23  1  0.07914000  0.71508000  0.41141000  1.0
  H  H24  1  0.92086000  0.28492000  0.58858000  1.0
  Ru  Ru25  1  0.63254000  0.99970000  0.06793000  1.0
  Ru  Ru26  1  0.36746000  0.00029000  0.93206000  1.0
  Ru  Ru27  1  0.55559000  0.58492000  0.46184000  1.0
  Ru  Ru28  1  0.44439000  0.41506000  0.53816000  1.0
  C  C29  1  0.93868000  0.99299000  0.32292000  1.0
  C  C30  1  0.06133000  0.00703000  0.67709000  1.0
  C  C31  1  0.80205000  0.85304000  0.43921000  1.0
  C  C32  1  0.19794000  0.14698000  0.56080000  1.0
  C  C33  1  0.38960000  0.70802000  0.90308000  1.0
  C  C34  1  0.61039000  0.29195000  0.09691000  1.0
  C  C35  1  0.32427000  0.54419000  0.85823000  1.0
  C  C36  1  0.67573000  0.45579000  0.14178000  1.0
  C  C37  1  0.59650000  0.01471000  0.80558000  1.0
  C  C38  1  0.40350000  0.98529000  0.19442000  1.0
  C  C39  1  0.65244000  0.03311000  0.69931000  1.0
  C  C40  1  0.34756000  0.96690000  0.30069000  1.0
  C  C41  1  0.26842000  0.34290000  0.24255000  1.0
  C  C42  1  0.73158000  0.65710000  0.75745000  1.0
  C  C43  1  0.12768000  0.26123000  0.10026000  1.0
  C  C44  1  0.87232000  0.73877000  0.89974000  1.0
  C  C45  1  0.27462000  0.63421000  0.51266000  1.0
  C  C46  1  0.72539000  0.36580000  0.48734000  1.0
  C  C47  1  0.14371000  0.70674000  0.51269000  1.0
  C  C48  1  0.85629000  0.29326000  0.48730000  1.0
  N  N49  1  0.88418000  0.99371000  0.21005000  1.0
  N  N50  1  0.11582000  0.00630000  0.78994000  1.0
  N  N51  1  0.67900000  0.75554000  0.40339000  1.0
  N  N52  1  0.32099000  0.24447000  0.59661000  1.0
  O  O53  1  0.54623000  0.77566000  0.98931000  1.0
  O  O54  1  0.45378000  0.22433000  0.01070000  1.0
  O  O55  1  0.28586000  0.77602000  0.85632000  1.0
  O  O56  1  0.71414000  0.22396000  0.14368000  1.0
  O  O57  1  0.70351000  0.00911000  0.91765000  1.0
  O  O58  1  0.29649000  0.99089000  0.08235000  1.0
  O  O59  1  0.44316000  0.00663000  0.78257000  1.0
  O  O60  1  0.55683000  0.99336000  0.21743000  1.0
  O  O61  1  0.38084000  0.46065000  0.26441000  1.0
  O  O62  1  0.61914000  0.53935000  0.73556000  1.0
  O  O63  1  0.27248000  0.29391000  0.33872000  1.0
  O  O64  1  0.72753000  0.70611000  0.66129000  1.0
  O  O65  1  0.38451000  0.68806000  0.47541000  1.0
  O  O66  1  0.61549000  0.31196000  0.52458000  1.0
  O  O67  1  0.27451000  0.52207000  0.54966000  1.0
  O  O68  1  0.72551000  0.47794000  0.45034000  1.0
