# generated using pymatgen
data_ZnH20C42(NO10)2
_symmetry_space_group_name_H-M   'P 1'
_cell_length_a   16.86800000
_cell_length_b   17.43450000
_cell_length_c   27.86900000
_cell_angle_alpha   92.04890000
_cell_angle_beta   90.86550000
_cell_angle_gamma   90.39760000
_symmetry_Int_Tables_number   1
_chemical_formula_structural   ZnH20C42(NO10)2
_chemical_formula_sum   'Zn2 H40 C84 N4 O40'
_cell_volume   8189.45524118
_cell_formula_units_Z   2
loop_
 _symmetry_equiv_pos_site_id
 _symmetry_equiv_pos_as_xyz
  1  'x, y, z'
loop_
 _atom_site_type_symbol
 _atom_site_label
 _atom_site_symmetry_multiplicity
 _atom_site_fract_x
 _atom_site_fract_y
 _atom_site_fract_z
 _atom_site_occupancy
  Zn  Zn0  1  0.41107000  0.50051000  0.50227000  1.0
  Zn  Zn1  1  0.58330000  0.49617000  0.50246000  1.0
  H  H2  1  0.37255000  0.50663000  0.35158000  1.0
  H  H3  1  0.37976000  0.51410000  0.65687000  1.0
  H  H4  1  0.47437000  0.31340000  0.12088000  1.0
  H  H5  1  0.55579000  0.68775000  0.88189000  1.0
  H  H6  1  0.63222000  0.48446000  0.64830000  1.0
  H  H7  1  0.62670000  0.48895000  0.35039000  1.0
  H  H8  1  0.64035000  0.47783000  0.73773000  1.0
  H  H9  1  0.62303000  0.49854000  0.26096000  1.0
  H  H10  1  0.54594000  0.30688000  0.87640000  1.0
  H  H11  1  0.48505000  0.69422000  0.12713000  1.0
  H  H12  1  0.48178000  0.31070000  0.03232000  1.0
  H  H13  1  0.55307000  0.69061000  0.97058000  1.0
  H  H14  1  0.37450000  0.73428000  0.47143000  1.0
  H  H15  1  0.59384000  0.24767000  0.53873000  1.0
  H  H16  1  0.41262000  0.27404000  0.43094000  1.0
  H  H17  1  0.62860000  0.73668000  0.48311000  1.0
  H  H18  1  0.03267000  0.30529000  0.46019000  1.0
  H  H19  1  0.96101000  0.59257000  0.61979000  1.0
  H  H20  1  0.04311000  0.70655000  0.53933000  1.0
  H  H21  1  0.95966000  0.41224000  0.38357000  1.0
  H  H22  1  0.32607000  0.34974000  0.39085000  1.0
  H  H23  1  0.64978000  0.67317000  0.58659000  1.0
  H  H24  1  0.30031000  0.73037000  0.55344000  1.0
  H  H25  1  0.64313000  0.31661000  0.42442000  1.0
  H  H26  1  0.28458000  0.52651000  0.20347000  1.0
  H  H27  1  0.31318000  0.51389000  0.80915000  1.0
  H  H28  1  0.61958000  0.22350000  0.90637000  1.0
  H  H29  1  0.68830000  0.28631000  0.93687000  1.0
  H  H30  1  0.66167000  0.19758000  0.96192000  1.0
  H  H31  1  0.59374000  0.29824000  0.00683000  1.0
  H  H32  1  0.52264000  0.24389000  0.97349000  1.0
  H  H33  1  0.34684000  0.71712000  0.06628000  1.0
  H  H34  1  0.41599000  0.77992000  0.09639000  1.0
  H  H35  1  0.37444000  0.80500000  0.04053000  1.0
  H  H36  1  0.51315000  0.75717000  0.02965000  1.0
  H  H37  1  0.44159000  0.70325000  0.99647000  1.0
  H  H38  1  0.29385000  0.95204000  0.41786000  1.0
  H  H39  1  0.64835000  0.00469000  0.54932000  1.0
  H  H40  1  0.41529000  0.06930000  0.33584000  1.0
  H  H41  1  0.72091000  0.94754000  0.43118000  1.0
  C  C42  1  0.49257000  0.35289000  0.50094000  1.0
  C  C43  1  0.50003000  0.64360000  0.48996000  1.0
  C  C44  1  0.49936000  0.49258000  0.41006000  1.0
  C  C45  1  0.50098000  0.50371000  0.59359000  1.0
  C  C46  1  0.49163000  0.43419000  0.18104000  1.0
  C  C47  1  0.53247000  0.56668000  0.82202000  1.0
  C  C48  1  0.50197000  0.57763000  0.18318000  1.0
  C  C49  1  0.52378000  0.42321000  0.82050000  1.0
  C  C50  1  0.56847000  0.50031000  0.28143000  1.0
  C  C51  1  0.58356000  0.48578000  0.71948000  1.0
  C  C52  1  0.57057000  0.49528000  0.33115000  1.0
  C  C53  1  0.57901000  0.48906000  0.66978000  1.0
  C  C54  1  0.42768000  0.50475000  0.33179000  1.0
  C  C55  1  0.43704000  0.50588000  0.67444000  1.0
  C  C56  1  0.42449000  0.50853000  0.28170000  1.0
  C  C57  1  0.44086000  0.50385000  0.72471000  1.0
  C  C58  1  0.49645000  0.50630000  0.25671000  1.0
  C  C59  1  0.51559000  0.49395000  0.74688000  1.0
  C  C60  1  0.50428000  0.50353000  0.10394000  1.0
  C  C61  1  0.52755000  0.49768000  0.89962000  1.0
  C  C62  1  0.49597000  0.43416000  0.12827000  1.0
  C  C63  1  0.53407000  0.56689000  0.87498000  1.0
  C  C64  1  0.48688000  0.36560000  0.10191000  1.0
  C  C65  1  0.54470000  0.63547000  0.90111000  1.0
  C  C66  1  0.50204000  0.57444000  0.13013000  1.0
  C  C67  1  0.52861000  0.42667000  0.87353000  1.0
  C  C68  1  0.49961000  0.49754000  0.35655000  1.0
  C  C69  1  0.50541000  0.49932000  0.64708000  1.0
  C  C70  1  0.52456000  0.42713000  0.97512000  1.0
  C  C71  1  0.51014000  0.57439000  0.02851000  1.0
  C  C72  1  0.52281000  0.57097000  0.97670000  1.0
  C  C73  1  0.51178000  0.43049000  0.02688000  1.0
  C  C74  1  0.52294000  0.49829000  0.95077000  1.0
  C  C75  1  0.51101000  0.50313000  0.05286000  1.0
  C  C76  1  0.54257000  0.35868000  0.94837000  1.0
  C  C77  1  0.49167000  0.64283000  0.05519000  1.0
  C  C78  1  0.53881000  0.35974000  0.89793000  1.0
  C  C79  1  0.49335000  0.64151000  0.10564000  1.0
  C  C80  1  0.49336000  0.36445000  0.05206000  1.0
  C  C81  1  0.54063000  0.63679000  0.95111000  1.0
  C  C82  1  0.43064000  0.84146000  0.45612000  1.0
  C  C83  1  0.56019000  0.14484000  0.49834000  1.0
  C  C84  1  0.46282000  0.16205000  0.43374000  1.0
  C  C85  1  0.57500000  0.84326000  0.46358000  1.0
  C  C86  1  0.43074000  0.76470000  0.46864000  1.0
  C  C87  1  0.55486000  0.22301000  0.51063000  1.0
  C  C88  1  0.45436000  0.23813000  0.44967000  1.0
  C  C89  1  0.57347000  0.76624000  0.47521000  1.0
  C  C90  1  0.50145000  0.72645000  0.47756000  1.0
  C  C91  1  0.49953000  0.26919000  0.48796000  1.0
  C  C92  1  0.50342000  0.88263000  0.45340000  1.0
  C  C93  1  0.51254000  0.11215000  0.45996000  1.0
  C  C94  1  0.50564000  0.96257000  0.44791000  1.0
  C  C95  1  0.51129000  0.03227000  0.45053000  1.0
  C  C96  1  0.15681000  0.44493000  0.47577000  1.0
  C  C97  1  0.83700000  0.54480000  0.53514000  1.0
  C  C98  1  0.16120000  0.56486000  0.52239000  1.0
  C  C99  1  0.83567000  0.45599000  0.46634000  1.0
  C  C100  1  0.23966000  0.44638000  0.47568000  1.0
  C  C101  1  0.75426000  0.54144000  0.53421000  1.0
  C  C102  1  0.24374000  0.55976000  0.52256000  1.0
  C  C103  1  0.75321000  0.45345000  0.46937000  1.0
  C  C104  1  0.11675000  0.50574000  0.49898000  1.0
  C  C105  1  0.87864000  0.50221000  0.50013000  1.0
  C  C106  1  0.03361000  0.50646000  0.49908000  1.0
  C  C107  1  0.96171000  0.50490000  0.49935000  1.0
  C  C108  1  0.10680000  0.38486000  0.44899000  1.0
  C  C109  1  0.88372000  0.59674000  0.56967000  1.0
  C  C110  1  0.11675000  0.62671000  0.54959000  1.0
  C  C111  1  0.88248000  0.40537000  0.43227000  1.0
  C  C112  1  0.27562000  0.37823000  0.44874000  1.0
  C  C113  1  0.71534000  0.58811000  0.57417000  1.0
  C  C114  1  0.28853000  0.62132000  0.55196000  1.0
  C  C115  1  0.71217000  0.40194000  0.43170000  1.0
  C  C116  1  0.34340000  0.51301000  0.26003000  1.0
  C  C117  1  0.36380000  0.51301000  0.74973000  1.0
  C  C118  1  0.57197000  0.28522000  0.97011000  1.0
  C  C119  1  0.63888000  0.24613000  0.94193000  1.0
  C  C120  1  0.46330000  0.71647000  0.03319000  1.0
  C  C121  1  0.39668000  0.75671000  0.06098000  1.0
  C  C122  1  0.35093000  0.87660000  0.45003000  1.0
  C  C123  1  0.62093000  0.10199000  0.52636000  1.0
  C  C124  1  0.41879000  0.14045000  0.38836000  1.0
  C  C125  1  0.65358000  0.88338000  0.46563000  1.0
  N  N126  1  0.49914000  0.50627000  0.20511000  1.0
  N  N127  1  0.52553000  0.49426000  0.79829000  1.0
  N  N128  1  0.28281000  0.50219000  0.49923000  1.0
  N  N129  1  0.71246000  0.49613000  0.50224000  1.0
  O  O130  1  0.42725000  0.38453000  0.49000000  1.0
  O  O131  1  0.56397000  0.60699000  0.48316000  1.0
  O  O132  1  0.43537000  0.61721000  0.50597000  1.0
  O  O133  1  0.55334000  0.38573000  0.51991000  1.0
  O  O134  1  0.43589000  0.51232000  0.43080000  1.0
  O  O135  1  0.56473000  0.52358000  0.57283000  1.0
  O  O136  1  0.43510000  0.48750000  0.57298000  1.0
  O  O137  1  0.56242000  0.46885000  0.43072000  1.0
  O  O138  1  0.48284000  0.37552000  0.20380000  1.0
  O  O139  1  0.53548000  0.62557000  0.79901000  1.0
  O  O140  1  0.51808000  0.36274000  0.79647000  1.0
  O  O141  1  0.50419000  0.63782000  0.20764000  1.0
  O  O142  1  0.09673000  0.38424000  0.40550000  1.0
  O  O143  1  0.07052000  0.33789000  0.47901000  1.0
  O  O144  1  0.88488000  0.66637000  0.56685000  1.0
  O  O145  1  0.92688000  0.55651000  0.60086000  1.0
  O  O146  1  0.11503000  0.63163000  0.59329000  1.0
  O  O147  1  0.07580000  0.67146000  0.51973000  1.0
  O  O148  1  0.88810000  0.33624000  0.43693000  1.0
  O  O149  1  0.92174000  0.44628000  0.40021000  1.0
  O  O150  1  0.26270000  0.31330000  0.46146000  1.0
  O  O151  1  0.31113000  0.39747000  0.40820000  1.0
  O  O152  1  0.72935000  0.57406000  0.61596000  1.0
  O  O153  1  0.67384000  0.64747000  0.55853000  1.0
  O  O154  1  0.32584000  0.60981000  0.58836000  1.0
  O  O155  1  0.27337000  0.69048000  0.53338000  1.0
  O  O156  1  0.72415000  0.40985000  0.38911000  1.0
  O  O157  1  0.66997000  0.34589000  0.45073000  1.0
  O  O158  1  0.28244000  0.50716000  0.28287000  1.0
  O  O159  1  0.34116000  0.52476000  0.21180000  1.0
  O  O160  1  0.30066000  0.52451000  0.72925000  1.0
  O  O161  1  0.36790000  0.50701000  0.79859000  1.0
  O  O162  1  0.29226000  0.85569000  0.47150000  1.0
  O  O163  1  0.34849000  0.93319000  0.41777000  1.0
  O  O164  1  0.68157000  0.13246000  0.54262000  1.0
  O  O165  1  0.60283000  0.02712000  0.53266000  1.0
  O  O166  1  0.36440000  0.17814000  0.37186000  1.0
  O  O167  1  0.44741000  0.07691000  0.36524000  1.0
  O  O168  1  0.70036000  0.88003000  0.49947000  1.0
  O  O169  1  0.66901000  0.92277000  0.42566000  1.0
