# generated using pymatgen
data_CuH17C22IN3O
_symmetry_space_group_name_H-M   'P 1'
_cell_length_a   12.60210000
_cell_length_b   13.36220000
_cell_length_c   17.38900000
_cell_angle_alpha   69.54570000
_cell_angle_beta   89.54790000
_cell_angle_gamma   64.43720000
_symmetry_Int_Tables_number   1
_chemical_formula_structural   CuH17C22IN3O
_chemical_formula_sum   'Cu4 H68 C88 I4 N12 O4'
_cell_volume   2439.36088777
_cell_formula_units_Z   4
loop_
 _symmetry_equiv_pos_site_id
 _symmetry_equiv_pos_as_xyz
  1  'x, y, z'
loop_
 _atom_site_type_symbol
 _atom_site_label
 _atom_site_symmetry_multiplicity
 _atom_site_fract_x
 _atom_site_fract_y
 _atom_site_fract_z
 _atom_site_occupancy
  Cu  Cu0  1  0.45494000  0.49926000  0.56621000  1.0
  Cu  Cu1  1  0.54506000  0.50074000  0.43379000  1.0
  Cu  Cu2  1  0.56142000  0.49130000  0.06237000  1.0
  Cu  Cu3  1  0.43858000  0.50869000  0.93762000  1.0
  H  H4  1  0.09530000  0.90808000  0.41643000  1.0
  H  H5  1  0.90470000  0.09191000  0.58357000  1.0
  H  H6  1  0.65100000  0.42618000  0.69705000  1.0
  H  H7  1  0.34901000  0.57382000  0.30296000  1.0
  H  H8  1  0.57508000  0.28971000  0.36809000  1.0
  H  H9  1  0.42492000  0.71029000  0.63191000  1.0
  H  H10  1  0.74361000  0.27030000  0.83878000  1.0
  H  H11  1  0.25640000  0.72970000  0.16122000  1.0
  H  H12  1  0.84654000  0.80634000  0.11788000  1.0
  H  H13  1  0.15347000  0.19366000  0.88212000  1.0
  H  H14  1  0.58921000  0.11631000  0.44150000  1.0
  H  H15  1  0.41079000  0.88369000  0.55850000  1.0
  H  H16  1  0.87159000  0.08204000  0.27128000  1.0
  H  H17  1  0.12842000  0.91795000  0.72871000  1.0
  H  H18  1  0.87531000  0.79392000  0.61706000  1.0
  H  H19  1  0.12468000  0.20609000  0.38293000  1.0
  H  H20  1  0.93015000  0.13376000  0.02103000  1.0
  H  H21  1  0.06985000  0.86624000  0.97897000  1.0
  H  H22  1  0.39192000  0.10269000  0.66073000  1.0
  H  H23  1  0.60808000  0.89731000  0.33927000  1.0
  H  H24  1  0.69072000  0.54653000  0.17084000  1.0
  H  H25  1  0.30929000  0.45347000  0.82915000  1.0
  H  H26  1  0.03947000  0.66123000  0.63121000  1.0
  H  H27  1  0.96053000  0.33878000  0.36880000  1.0
  H  H28  1  0.56647000  0.88735000  0.90282000  1.0
  H  H29  1  0.43352000  0.11265000  0.09717000  1.0
  H  H30  1  0.73345000  0.74042000  0.64876000  1.0
  H  H31  1  0.26654000  0.25958000  0.35124000  1.0
  H  H32  1  0.50226000  0.45014000  0.22695000  1.0
  H  H33  1  0.49775000  0.54986000  0.77305000  1.0
  H  H34  1  0.30971000  0.75392000  0.44716000  1.0
  H  H35  1  0.69029000  0.24608000  0.55285000  1.0
  H  H36  1  0.25320000  0.52066000  0.65336000  1.0
  H  H37  1  0.74679000  0.47934000  0.34665000  1.0
  H  H38  1  0.77340000  0.16922000  0.96505000  1.0
  H  H39  1  0.22660000  0.83078000  0.03495000  1.0
  H  H40  1  0.51771000  0.12584000  0.55535000  1.0
  H  H41  1  0.48229000  0.87416000  0.44465000  1.0
  H  H42  1  0.49362000  0.13715000  0.81591000  1.0
  H  H43  1  0.50639000  0.86285000  0.18410000  1.0
  H  H44  1  0.60883000  0.71765000  0.75845000  1.0
  H  H45  1  0.39116000  0.28236000  0.24155000  1.0
  H  H46  1  0.78555000  0.25429000  0.13245000  1.0
  H  H47  1  0.21445000  0.74571000  0.86755000  1.0
  H  H48  1  0.08042000  0.12438000  0.11395000  1.0
  H  H49  1  0.91957000  0.87562000  0.88605000  1.0
  H  H50  1  0.92944000  0.82169000  0.21036000  1.0
  H  H51  1  0.07055000  0.17831000  0.78964000  1.0
  H  H52  1  0.26276000  0.03941000  0.18968000  1.0
  H  H53  1  0.73724000  0.96059000  0.81032000  1.0
  H  H54  1  0.29083000  0.01165000  0.29779000  1.0
  H  H55  1  0.70917000  0.98836000  0.70221000  1.0
  H  H56  1  0.15137000  0.13057000  0.23478000  1.0
  H  H57  1  0.84862000  0.86943000  0.76522000  1.0
  H  H58  1  0.76004000  0.69900000  0.15475000  1.0
  H  H59  1  0.23997000  0.30100000  0.84525000  1.0
  H  H60  1  0.50334000  0.72620000  0.92977000  1.0
  H  H61  1  0.49666000  0.27380000  0.07023000  1.0
  H  H62  1  0.41350000  0.29731000  0.67158000  1.0
  H  H63  1  0.58650000  0.70270000  0.32842000  1.0
  H  H64  1  0.08295000  0.81141000  0.30385000  1.0
  H  H65  1  0.91705000  0.18859000  0.69615000  1.0
  H  H66  1  0.36290000  0.04877000  0.79941000  1.0
  H  H67  1  0.63710000  0.95124000  0.20059000  1.0
  H  H68  1  0.29919000  0.94874000  0.84246000  1.0
  H  H69  1  0.70080000  0.05127000  0.15754000  1.0
  H  H70  1  0.26560000  0.03506000  0.73272000  1.0
  H  H71  1  0.73440000  0.96494000  0.26728000  1.0
  C  C72  1  0.12717000  0.82293000  0.46940000  1.0
  C  C73  1  0.87283000  0.17707000  0.53060000  1.0
  C  C74  1  0.61798000  0.36081000  0.72613000  1.0
  C  C75  1  0.38203000  0.63919000  0.27387000  1.0
  C  C76  1  0.76699000  0.06426000  0.41079000  1.0
  C  C77  1  0.23301000  0.93573000  0.58921000  1.0
  C  C78  1  0.72810000  0.16869000  0.33090000  1.0
  C  C79  1  0.27191000  0.83130000  0.66910000  1.0
  C  C80  1  0.72009000  0.95163000  0.53710000  1.0
  C  C81  1  0.27990000  0.04837000  0.46290000  1.0
  C  C82  1  0.62476000  0.27584000  0.31797000  1.0
  C  C83  1  0.37524000  0.72416000  0.68203000  1.0
  C  C84  1  0.62500000  0.19001000  0.84048000  1.0
  C  C85  1  0.37500000  0.80999000  0.15952000  1.0
  C  C86  1  0.82505000  0.98608000  0.05019000  1.0
  C  C87  1  0.17495000  0.01392000  0.94981000  1.0
  C  C88  1  0.68040000  0.09051000  0.92264000  1.0
  C  C89  1  0.31960000  0.90949000  0.07736000  1.0
  C  C90  1  0.66876000  0.27345000  0.80559000  1.0
  C  C91  1  0.33124000  0.72655000  0.19441000  1.0
  C  C92  1  0.91651000  0.97883000  0.10722000  1.0
  C  C93  1  0.08349000  0.02117000  0.89278000  1.0
  C  C94  1  0.79737000  0.89046000  0.06473000  1.0
  C  C95  1  0.20263000  0.10954000  0.93527000  1.0
  C  C96  1  0.68308000  0.05113000  0.46164000  1.0
  C  C97  1  0.31692000  0.94887000  0.53836000  1.0
  C  C98  1  0.78979000  0.16273000  0.26377000  1.0
  C  C99  1  0.21021000  0.83727000  0.73623000  1.0
  C  C100  1  0.84180000  0.86963000  0.55737000  1.0
  C  C101  1  0.15819000  0.13037000  0.44263000  1.0
  C  C102  1  0.96132000  0.06300000  0.08309000  1.0
  C  C103  1  0.03868000  0.93700000  0.91691000  1.0
  C  C104  1  0.46701000  0.02270000  0.65923000  1.0
  C  C105  1  0.53298000  0.97730000  0.34077000  1.0
  C  C106  1  0.70767000  0.90232000  0.01005000  1.0
  C  C107  1  0.29233000  0.09768000  0.98995000  1.0
  C  C108  1  0.49484000  0.90807000  0.71813000  1.0
  C  C109  1  0.50516000  0.09193000  0.28186000  1.0
  C  C110  1  0.66515000  0.62367000  0.11209000  1.0
  C  C111  1  0.33485000  0.37633000  0.88791000  1.0
  C  C112  1  0.91966000  0.88663000  0.50209000  1.0
  C  C113  1  0.08034000  0.11337000  0.49791000  1.0
  C  C114  1  0.63735000  0.93528000  0.59470000  1.0
  C  C115  1  0.36265000  0.06472000  0.40530000  1.0
  C  C116  1  0.09490000  0.68757000  0.58848000  1.0
  C  C117  1  0.90510000  0.31243000  0.41153000  1.0
  C  C118  1  0.59548000  0.81312000  0.96304000  1.0
  C  C119  1  0.40452000  0.18688000  0.03696000  1.0
  C  C120  1  0.66038000  0.82037000  0.65232000  1.0
  C  C121  1  0.33962000  0.17964000  0.34768000  1.0
  C  C122  1  0.58407000  0.36699000  0.23952000  1.0
  C  C123  1  0.41594000  0.63301000  0.76048000  1.0
  C  C124  1  0.24607000  0.73786000  0.48632000  1.0
  C  C125  1  0.75393000  0.26213000  0.51368000  1.0
  C  C126  1  0.21484000  0.60771000  0.60128000  1.0
  C  C127  1  0.78516000  0.39228000  0.39873000  1.0
  C  C128  1  0.04760000  0.79871000  0.52068000  1.0
  C  C129  1  0.95240000  0.20129000  0.47933000  1.0
  C  C130  1  0.76138000  0.08930000  0.97809000  1.0
  C  C131  1  0.23862000  0.91070000  0.02191000  1.0
  C  C132  1  0.09193000  0.96682000  0.21571000  1.0
  C  C133  1  0.90807000  0.03318000  0.78429000  1.0
  C  C134  1  0.53803000  0.03525000  0.59832000  1.0
  C  C135  1  0.46197000  0.96475000  0.40168000  1.0
  C  C136  1  0.52997000  0.20039000  0.79143000  1.0
  C  C137  1  0.47003000  0.79961000  0.20856000  1.0
  C  C138  1  0.59082000  0.80629000  0.71346000  1.0
  C  C139  1  0.40918000  0.19372000  0.28653000  1.0
  C  C140  1  0.74261000  0.25780000  0.18690000  1.0
  C  C141  1  0.25740000  0.74219000  0.81310000  1.0
  C  C142  1  0.04729000  0.05815000  0.13596000  1.0
  C  C143  1  0.95270000  0.94185000  0.86404000  1.0
  C  C144  1  0.96254000  0.88812000  0.18800000  1.0
  C  C145  1  0.03746000  0.11188000  0.81200000  1.0
  C  C146  1  0.22247000  0.03975000  0.24599000  1.0
  C  C147  1  0.77753000  0.96025000  0.75401000  1.0
  C  C148  1  0.70443000  0.70917000  0.10217000  1.0
  C  C149  1  0.29557000  0.29083000  0.89783000  1.0
  C  C150  1  0.55987000  0.72430000  0.97795000  1.0
  C  C151  1  0.44014000  0.27570000  0.02206000  1.0
  C  C152  1  0.67008000  0.80711000  0.02577000  1.0
  C  C153  1  0.32992000  0.19289000  0.97423000  1.0
  C  C154  1  0.48480000  0.28937000  0.71218000  1.0
  C  C155  1  0.51520000  0.71063000  0.28782000  1.0
  C  C156  1  0.04837000  0.88155000  0.24154000  1.0
  C  C157  1  0.95163000  0.11845000  0.75847000  1.0
  C  C158  1  0.33486000  0.98650000  0.78862000  1.0
  C  C159  1  0.66514000  0.01350000  0.21138000  1.0
  I  I160  1  0.59316000  0.60846000  0.52436000  1.0
  I  I161  1  0.40684000  0.39154000  0.47564000  1.0
  I  I162  1  0.67354000  0.42830000  0.94505000  1.0
  I  I163  1  0.32647000  0.57170000  0.05494000  1.0
  N  N164  1  0.52728000  0.36984000  0.67883000  1.0
  N  N165  1  0.47272000  0.63016000  0.32117000  1.0
  N  N166  1  0.59424000  0.62979000  0.05137000  1.0
  N  N167  1  0.40576000  0.37021000  0.94863000  1.0
  N  N168  1  0.65208000  0.99974000  0.93920000  1.0
  N  N169  1  0.34793000  0.00026000  0.06080000  1.0
  N  N170  1  0.88274000  0.98262000  0.42965000  1.0
  N  N171  1  0.11726000  0.01738000  0.57034000  1.0
  N  N172  1  0.63923000  0.35820000  0.17352000  1.0
  N  N173  1  0.36078000  0.64179000  0.82648000  1.0
  N  N174  1  0.29051000  0.63079000  0.55114000  1.0
  N  N175  1  0.70948000  0.36921000  0.44887000  1.0
  O  O176  1  0.43407000  0.88620000  0.78190000  1.0
  O  O177  1  0.56592000  0.11381000  0.21810000  1.0
  O  O178  1  0.17677000  0.95369000  0.27136000  1.0
  O  O179  1  0.82324000  0.04631000  0.72864000  1.0
