# generated using pymatgen
data_Ca3H12C16(NO8)2
_symmetry_space_group_name_H-M   'P 1'
_cell_length_a   6.71418000
_cell_length_b   8.71613000
_cell_length_c   10.06720000
_cell_angle_alpha   108.82200000
_cell_angle_beta   99.25330000
_cell_angle_gamma   98.54850000
_symmetry_Int_Tables_number   1
_chemical_formula_structural   Ca3H12C16(NO8)2
_chemical_formula_sum   'Ca3 H12 C16 N2 O16'
_cell_volume   537.55961655
_cell_formula_units_Z   1
loop_
 _symmetry_equiv_pos_site_id
 _symmetry_equiv_pos_as_xyz
  1  'x, y, z'
loop_
 _atom_site_type_symbol
 _atom_site_label
 _atom_site_symmetry_multiplicity
 _atom_site_fract_x
 _atom_site_fract_y
 _atom_site_fract_z
 _atom_site_occupancy
  Ca  Ca0  1  0.55588000  0.05550000  0.32555000  1.0
  Ca  Ca1  1  0.44412000  0.94450000  0.67445000  1.0
  Ca  Ca2  1  0.00000000  0.50000000  0.00000000  1.0
  H  H3  1  0.87595000  0.69637000  0.37008000  1.0
  H  H4  1  0.12404000  0.30363000  0.62992000  1.0
  H  H5  1  0.79119000  0.66829000  0.77936000  1.0
  H  H6  1  0.20881000  0.33171000  0.22064000  1.0
  H  H7  1  0.45167000  0.73852000  0.11959000  1.0
  H  H8  1  0.54833000  0.26148000  0.88041000  1.0
  H  H9  1  0.47681000  0.83048000  0.00794000  1.0
  H  H10  1  0.52319000  0.16952000  0.99206000  1.0
  H  H11  1  0.02145000  0.85740000  0.13433000  1.0
  H  H12  1  0.97855000  0.14260000  0.86567000  1.0
  H  H13  1  0.78132000  0.78492000  0.08055000  1.0
  H  H14  1  0.21868000  0.21508000  0.91945000  1.0
  C  C15  1  0.74456000  0.45648000  0.37436000  1.0
  C  C16  1  0.25544000  0.54352000  0.62564000  1.0
  C  C17  1  0.64826000  0.32430000  0.67231000  1.0
  C  C18  1  0.35174000  0.67570000  0.32769000  1.0
  C  C19  1  0.70816000  0.43922000  0.59402000  1.0
  C  C20  1  0.29183000  0.56078000  0.40598000  1.0
  C  C21  1  0.84198000  0.70542000  0.58336000  1.0
  C  C22  1  0.15802000  0.29458000  0.41664000  1.0
  C  C23  1  0.82782000  0.62668000  0.43617000  1.0
  C  C24  1  0.17218000  0.37332000  0.56383000  1.0
  C  C25  1  0.71501000  0.36183000  0.21531000  1.0
  C  C26  1  0.28499000  0.63818000  0.78469000  1.0
  C  C27  1  0.92269000  0.89018000  0.65499000  1.0
  C  C28  1  0.07731000  0.10982000  0.34501000  1.0
  C  C29  1  0.78136000  0.61029000  0.66426000  1.0
  C  C30  1  0.21864000  0.38971000  0.33574000  1.0
  N  N31  1  0.68523000  0.36539000  0.45173000  1.0
  N  N32  1  0.31477000  0.63461000  0.54827000  1.0
  O  O33  1  0.09488000  0.95162000  0.63874000  1.0
  O  O34  1  0.90512000  0.04838000  0.36127000  1.0
  O  O35  1  0.55454000  0.17587000  0.59551000  1.0
  O  O36  1  0.44546000  0.82413000  0.40449000  1.0
  O  O37  1  0.53979000  0.83275000  0.10634000  1.0
  O  O38  1  0.46021000  0.16725000  0.89366000  1.0
  O  O39  1  0.69528000  0.38345000  0.80919000  1.0
  O  O40  1  0.30472000  0.61655000  0.19081000  1.0
  O  O41  1  0.80868000  0.97012000  0.72877000  1.0
  O  O42  1  0.19132000  0.02988000  0.27123000  1.0
  O  O43  1  0.61454000  0.21138000  0.16788000  1.0
  O  O44  1  0.38546000  0.78862000  0.83212000  1.0
  O  O45  1  0.79011000  0.43744000  0.14113000  1.0
  O  O46  1  0.20989000  0.56256000  0.85887000  1.0
  O  O47  1  0.91688000  0.76252000  0.06098000  1.0
  O  O48  1  0.08313000  0.23748000  0.93902000  1.0
