# generated using pymatgen
data_MnH10C10(N6O)2
_symmetry_space_group_name_H-M   'P 1'
_cell_length_a   3.46805000
_cell_length_b   13.92630000
_cell_length_c   14.55720000
_cell_angle_alpha   80.77850000
_cell_angle_beta   89.99910000
_cell_angle_gamma   89.99920000
_symmetry_Int_Tables_number   1
_chemical_formula_structural   MnH10C10(N6O)2
_chemical_formula_sum   'Mn2 H20 C20 N24 O4'
_cell_volume   693.98426923
_cell_formula_units_Z   2
loop_
 _symmetry_equiv_pos_site_id
 _symmetry_equiv_pos_as_xyz
  1  'x, y, z'
loop_
 _atom_site_type_symbol
 _atom_site_label
 _atom_site_symmetry_multiplicity
 _atom_site_fract_x
 _atom_site_fract_y
 _atom_site_fract_z
 _atom_site_occupancy
  Mn  Mn0  1  0.08763000  0.50000000  0.75000000  1.0
  Mn  Mn1  1  0.91236000  0.50000000  0.25000000  1.0
  H  H2  1  0.25958000  0.70783000  0.61705000  1.0
  H  H3  1  0.25959000  0.29217000  0.88296000  1.0
  H  H4  1  0.74039000  0.29217000  0.38295000  1.0
  H  H5  1  0.74039000  0.70783000  0.11705000  1.0
  H  H6  1  0.79713000  0.81897000  0.89756000  1.0
  H  H7  1  0.79712000  0.18103000  0.60245000  1.0
  H  H8  1  0.20287000  0.18104000  0.10245000  1.0
  H  H9  1  0.20288000  0.81896000  0.39755000  1.0
  H  H10  1  0.80783000  0.64155000  0.88565000  1.0
  H  H11  1  0.80784000  0.35845000  0.61436000  1.0
  H  H12  1  0.19218000  0.35845000  0.11435000  1.0
  H  H13  1  0.19217000  0.64154000  0.38565000  1.0
  H  H14  1  0.35045000  0.04712000  0.55688000  1.0
  H  H15  1  0.35045000  0.95289000  0.94312000  1.0
  H  H16  1  0.64955000  0.95288000  0.44311000  1.0
  H  H17  1  0.64954000  0.04712000  0.05688000  1.0
  H  H18  1  0.12879000  0.01811000  0.66839000  1.0
  H  H19  1  0.12877000  0.98190000  0.83161000  1.0
  H  H20  1  0.87123000  0.98190000  0.33161000  1.0
  H  H21  1  0.87124000  0.01810000  0.16839000  1.0
  C  C22  1  0.15491000  0.73123000  0.68038000  1.0
  C  C23  1  0.15491000  0.26878000  0.81962000  1.0
  C  C24  1  0.84509000  0.26877000  0.31962000  1.0
  C  C25  1  0.84508000  0.73122000  0.18038000  1.0
  C  C26  1  0.14134000  0.83033000  0.68621000  1.0
  C  C27  1  0.14131000  0.16968000  0.81379000  1.0
  C  C28  1  0.85869000  0.16967000  0.31379000  1.0
  C  C29  1  0.85866000  0.83032000  0.18621000  1.0
  C  C30  1  0.89795000  0.79471000  0.83389000  1.0
  C  C31  1  0.89794000  0.20529000  0.66611000  1.0
  C  C32  1  0.10205000  0.20529000  0.16611000  1.0
  C  C33  1  0.10206000  0.79470000  0.33389000  1.0
  C  C34  1  0.90860000  0.69554000  0.82834000  1.0
  C  C35  1  0.90860000  0.30446000  0.67167000  1.0
  C  C36  1  0.09139000  0.30446000  0.17166000  1.0
  C  C37  1  0.09140000  0.69553000  0.32834000  1.0
  C  C38  1  0.28199000  0.90203000  0.60458000  1.0
  C  C39  1  0.28197000  0.09797000  0.89542000  1.0
  C  C40  1  0.71803000  0.09797000  0.39542000  1.0
  C  C41  1  0.71801000  0.90203000  0.10458000  1.0
  N  N42  1  0.04100000  0.66377000  0.75178000  1.0
  N  N43  1  0.04101000  0.33623000  0.74822000  1.0
  N  N44  1  0.95899000  0.33623000  0.24822000  1.0
  N  N45  1  0.95898000  0.66377000  0.25178000  1.0
  N  N46  1  0.01444000  0.86229000  0.76325000  1.0
  N  N47  1  0.01441000  0.13772000  0.73676000  1.0
  N  N48  1  0.98558000  0.13772000  0.23675000  1.0
  N  N49  1  0.98557000  0.86228000  0.26324000  1.0
  N  N50  1  0.24409000  0.99602000  0.61056000  1.0
  N  N51  1  0.24406000  0.00399000  0.88944000  1.0
  N  N52  1  0.75595000  0.00398000  0.38944000  1.0
  N  N53  1  0.75594000  0.99602000  0.11056000  1.0
  N  N54  1  0.58211000  0.47830000  0.84550000  1.0
  N  N55  1  0.58210000  0.52171000  0.65450000  1.0
  N  N56  1  0.41790000  0.52170000  0.15450000  1.0
  N  N57  1  0.41790000  0.47829000  0.34550000  1.0
  N  N58  1  0.61001000  0.43123000  0.92275000  1.0
  N  N59  1  0.61000000  0.56878000  0.57725000  1.0
  N  N60  1  0.39000000  0.56878000  0.07725000  1.0
  N  N61  1  0.39001000  0.43122000  0.42275000  1.0
  N  N62  1  0.64154000  0.38482000  0.99640000  1.0
  N  N63  1  0.64152000  0.61519000  0.50360000  1.0
  N  N64  1  0.35847000  0.61519000  0.00360000  1.0
  N  N65  1  0.35849000  0.38481000  0.49640000  1.0
  O  O66  1  0.43154000  0.87036000  0.53680000  1.0
  O  O67  1  0.43151000  0.12964000  0.96320000  1.0
  O  O68  1  0.56847000  0.12963000  0.46320000  1.0
  O  O69  1  0.56847000  0.87036000  0.03681000  1.0
