# generated using pymatgen
data_H15PbC26N5O4
_symmetry_space_group_name_H-M   'P 1'
_cell_length_a   9.35779000
_cell_length_b   10.09100000
_cell_length_c   12.80690000
_cell_angle_alpha   80.09170000
_cell_angle_beta   69.08180000
_cell_angle_gamma   79.50410000
_symmetry_Int_Tables_number   1
_chemical_formula_structural   H15PbC26N5O4
_chemical_formula_sum   'H30 Pb2 C52 N10 O8'
_cell_volume   1103.17270804
_cell_formula_units_Z   2
loop_
 _symmetry_equiv_pos_site_id
 _symmetry_equiv_pos_as_xyz
  1  'x, y, z'
loop_
 _atom_site_type_symbol
 _atom_site_label
 _atom_site_symmetry_multiplicity
 _atom_site_fract_x
 _atom_site_fract_y
 _atom_site_fract_z
 _atom_site_occupancy
  H  H0  1  0.87242000  0.40743000  0.49458000  1.0
  H  H1  1  0.12758000  0.59257000  0.50542000  1.0
  H  H2  1  0.15680000  0.35927000  0.47353000  1.0
  H  H3  1  0.84320000  0.64073000  0.52647000  1.0
  H  H4  1  0.34640000  0.29954000  0.28910000  1.0
  H  H5  1  0.65359000  0.70046000  0.71090000  1.0
  H  H6  1  0.06172000  0.30797000  0.86032000  1.0
  H  H7  1  0.93828000  0.69203000  0.13968000  1.0
  H  H8  1  0.77580000  0.37176000  0.90561000  1.0
  H  H9  1  0.22420000  0.62824000  0.09439000  1.0
  H  H10  1  0.61408000  0.42802000  0.09944000  1.0
  H  H11  1  0.38592000  0.57198000  0.90056000  1.0
  H  H12  1  0.65067000  0.05415000  0.03013000  1.0
  H  H13  1  0.34933000  0.94585000  0.96987000  1.0
  H  H14  1  0.91779000  0.95188000  0.92839000  1.0
  H  H15  1  0.08221000  0.04812000  0.07161000  1.0
  H  H16  1  0.03485000  0.01611000  0.72167000  1.0
  H  H17  1  0.96515000  0.98389000  0.27833000  1.0
  H  H18  1  0.88836000  0.19054000  0.62185000  1.0
  H  H19  1  0.11164000  0.80945000  0.37815000  1.0
  H  H20  1  0.62007000  0.92971000  0.20940000  1.0
  H  H21  1  0.37994000  0.07029000  0.79060000  1.0
  H  H22  1  0.60103000  0.17879000  0.20679000  1.0
  H  H23  1  0.39897000  0.82120000  0.79321000  1.0
  H  H24  1  0.70021000  0.13260000  0.50345000  1.0
  H  H25  1  0.29978000  0.86740000  0.49655000  1.0
  H  H26  1  0.71812000  0.87803000  0.51941000  1.0
  H  H27  1  0.28187000  0.12197000  0.48059000  1.0
  H  H28  1  0.33391000  0.27011000  0.84155000  1.0
  H  H29  1  0.66609000  0.72989000  0.15845000  1.0
  Pb  Pb30  1  0.61932000  0.43809000  0.36413000  1.0
  Pb  Pb31  1  0.38068000  0.56191000  0.63587000  1.0
  C  C32  1  0.96101000  0.38326000  0.41526000  1.0
  C  C33  1  0.03899000  0.61674000  0.58474000  1.0
  C  C34  1  0.11777000  0.35445000  0.40389000  1.0
  C  C35  1  0.88222000  0.64555000  0.59611000  1.0
  C  C36  1  0.22351000  0.32100000  0.30172000  1.0
  C  C37  1  0.77649000  0.67900000  0.69828000  1.0
  C  C38  1  0.17204000  0.31740000  0.21165000  1.0
  C  C39  1  0.82796000  0.68259000  0.78835000  1.0
  C  C40  1  0.27147000  0.28576000  0.10249000  1.0
  C  C41  1  0.72853000  0.71424000  0.89751000  1.0
  C  C42  1  0.21205000  0.29262000  0.01525000  1.0
  C  C43  1  0.78795000  0.70738000  0.98475000  1.0
  C  C44  1  0.05182000  0.32508000  0.02941000  1.0
  C  C45  1  0.94818000  0.67492000  0.97059000  1.0
  C  C46  1  0.98691000  0.33007000  0.94451000  1.0
  C  C47  1  0.01309000  0.66993000  0.05549000  1.0
  C  C48  1  0.82963000  0.36587000  0.96914000  1.0
  C  C49  1  0.17037000  0.63413000  0.03086000  1.0
  C  C50  1  0.73806000  0.39691000  0.07787000  1.0
  C  C51  1  0.26194000  0.60308000  0.92213000  1.0
  C  C52  1  0.95043000  0.35528000  0.13856000  1.0
  C  C53  1  0.04957000  0.64471000  0.86144000  1.0
  C  C54  1  0.01102000  0.35110000  0.22934000  1.0
  C  C55  1  0.98898000  0.64890000  0.77066000  1.0
  C  C56  1  0.46551000  0.23464000  0.95587000  1.0
  C  C57  1  0.53449000  0.76536000  0.04413000  1.0
  C  C58  1  0.62164000  0.18314000  0.88558000  1.0
  C  C59  1  0.37836000  0.81685000  0.11441000  1.0
  C  C60  1  0.70560000  0.08431000  0.94073000  1.0
  C  C61  1  0.29441000  0.91569000  0.05927000  1.0
  C  C62  1  0.85402000  0.02642000  0.88344000  1.0
  C  C63  1  0.14598000  0.97358000  0.11656000  1.0
  C  C64  1  0.91990000  0.06278000  0.76788000  1.0
  C  C65  1  0.08010000  0.93722000  0.23212000  1.0
  C  C66  1  0.83789000  0.15994000  0.71187000  1.0
  C  C67  1  0.16211000  0.84006000  0.28813000  1.0
  C  C68  1  0.69060000  0.22358000  0.76923000  1.0
  C  C69  1  0.30940000  0.77642000  0.23077000  1.0
  C  C70  1  0.62024000  0.33990000  0.70367000  1.0
  C  C71  1  0.37976000  0.66010000  0.29633000  1.0
  C  C72  1  0.68014000  0.73171000  0.37107000  1.0
  C  C73  1  0.31986000  0.26829000  0.62893000  1.0
  C  C74  1  0.67204000  0.88341000  0.36473000  1.0
  C  C75  1  0.32796000  0.11659000  0.63528000  1.0
  C  C76  1  0.63931000  0.96997000  0.27609000  1.0
  C  C77  1  0.36068000  0.03003000  0.72391000  1.0
  C  C78  1  0.62956000  0.10953000  0.27433000  1.0
  C  C79  1  0.37044000  0.89047000  0.72567000  1.0
  C  C80  1  0.68514000  0.08250000  0.43942000  1.0
  C  C81  1  0.31486000  0.91750000  0.56058000  1.0
  C  C82  1  0.69445000  0.94180000  0.44825000  1.0
  C  C83  1  0.30555000  0.05819000  0.55176000  1.0
  N  N84  1  0.91017000  0.38187000  0.33081000  1.0
  N  N85  1  0.08983000  0.61813000  0.66919000  1.0
  N  N86  1  0.79650000  0.39133000  0.15975000  1.0
  N  N87  1  0.20350000  0.60867000  0.84025000  1.0
  N  N88  1  0.42838000  0.24835000  0.06503000  1.0
  N  N89  1  0.57162000  0.75165000  0.93497000  1.0
  N  N90  1  0.33728000  0.26006000  0.92292000  1.0
  N  N91  1  0.66272000  0.73994000  0.07708000  1.0
  N  N92  1  0.65305000  0.16512000  0.35400000  1.0
  N  N93  1  0.34694000  0.83488000  0.64599000  1.0
  O  O94  1  0.54705000  0.44233000  0.75589000  1.0
  O  O95  1  0.45295000  0.55767000  0.24411000  1.0
  O  O96  1  0.64127000  0.32953000  0.60180000  1.0
  O  O97  1  0.35873000  0.67047000  0.39820000  1.0
  O  O98  1  0.65951000  0.66145000  0.46550000  1.0
  O  O99  1  0.34049000  0.33856000  0.53450000  1.0
  O  O100  1  0.70805000  0.68210000  0.27912000  1.0
  O  O101  1  0.29196000  0.31790000  0.72088000  1.0
