# generated using pymatgen
data_Zn4H12C26S2O23
_symmetry_space_group_name_H-M   'P 1'
_cell_length_a   15.93130000
_cell_length_b   15.93790000
_cell_length_c   21.20978278
_cell_angle_alpha   112.00328421
_cell_angle_beta   111.64310263
_cell_angle_gamma   90.11220000
_symmetry_Int_Tables_number   1
_chemical_formula_structural   Zn4H12C26S2O23
_chemical_formula_sum   'Zn8 H24 C52 S4 O46'
_cell_volume   4579.35058310
_cell_formula_units_Z   2
loop_
 _symmetry_equiv_pos_site_id
 _symmetry_equiv_pos_as_xyz
  1  'x, y, z'
loop_
 _atom_site_type_symbol
 _atom_site_label
 _atom_site_symmetry_multiplicity
 _atom_site_fract_x
 _atom_site_fract_y
 _atom_site_fract_z
 _atom_site_occupancy
  Zn  Zn0  1  0.53019000  0.92919000  0.56551000  1.0
  Zn  Zn1  1  0.93227000  0.53342000  0.56725000  1.0
  Zn  Zn2  1  0.36674000  0.95739000  0.43316000  1.0
  Zn  Zn3  1  0.95984000  0.36445000  0.43619000  1.0
  Zn  Zn4  1  0.57037000  0.96961000  0.44065000  1.0
  Zn  Zn5  1  0.96803000  0.56639000  0.43867000  1.0
  Zn  Zn6  1  0.52181000  0.12878000  0.56422000  1.0
  Zn  Zn7  1  0.13026000  0.52133000  0.56210000  1.0
  H  H8  1  0.65885000  0.33778000  0.93002000  1.0
  H  H9  1  0.33369000  0.64884000  0.92739000  1.0
  H  H10  1  0.41768000  0.76057000  0.04909000  1.0
  H  H11  1  0.77117000  0.41332000  0.05139000  1.0
  H  H12  1  0.60991000  0.25861000  0.95229000  1.0
  H  H13  1  0.24894000  0.61287000  0.95114000  1.0
  H  H14  1  0.36417000  0.68648000  0.07252000  1.0
  H  H15  1  0.68984000  0.36884000  0.07431000  1.0
  H  H16  1  0.77333000  0.09886000  0.94975000  1.0
  H  H17  1  0.11815000  0.80335000  0.95712000  1.0
  H  H18  1  0.16449000  0.81035000  0.07618000  1.0
  H  H19  1  0.79639000  0.15444000  0.07297000  1.0
  H  H20  1  0.69081000  0.21835000  0.12871000  1.0
  H  H21  1  0.22650000  0.69290000  0.12211000  1.0
  H  H22  1  0.07916000  0.59826000  0.88046000  1.0
  H  H23  1  0.57398000  0.09155000  0.87931000  1.0
  H  H24  1  0.84078000  0.14990000  0.85465000  1.0
  H  H25  1  0.16678000  0.84551000  0.85888000  1.0
  H  H26  1  0.19347000  0.97788000  0.02026000  1.0
  H  H27  1  0.89843000  0.13424000  0.02232000  1.0
  H  H28  1  0.94980000  0.44169000  0.99262000  1.0
  H  H29  1  0.47000000  0.93344000  0.00174000  1.0
  H  H30  1  0.32983000  0.01642000  0.00794000  1.0
  H  H31  1  0.96099000  0.43235000  0.19761000  1.0
  C  C32  1  0.40812000  0.89593000  0.30025000  1.0
  C  C33  1  0.89728000  0.39948000  0.30119000  1.0
  C  C34  1  0.15884000  0.65500000  0.50381000  1.0
  C  C35  1  0.65639000  0.16325000  0.50858000  1.0
  C  C36  1  0.34073000  0.83730000  0.50362000  1.0
  C  C37  1  0.83794000  0.34411000  0.50677000  1.0
  C  C38  1  0.59616000  0.09764000  0.70110000  1.0
  C  C39  1  0.27722000  0.77383000  0.50505000  1.0
  C  C40  1  0.77418000  0.28237000  0.50942000  1.0
  C  C41  1  0.10235000  0.60054000  0.70136000  1.0
  C  C42  1  0.22363000  0.71986000  0.50524000  1.0
  C  C43  1  0.72047000  0.22934000  0.51038000  1.0
  C  C44  1  0.72310000  0.14403000  0.95963000  1.0
  C  C45  1  0.15070000  0.74347000  0.96150000  1.0
  C  C46  1  0.19765000  0.76152000  0.04429000  1.0
  C  C47  1  0.75011000  0.19181000  0.04419000  1.0
  C  C48  1  0.67474000  0.29361333  0.96028000  1.0
  C  C49  1  0.29137000  0.67317000  0.95896000  1.0
  C  C50  1  0.35100000  0.72990000  0.04120000  1.0
  C  C51  1  0.73316000  0.34980000  0.04275000  1.0
  C  C52  1  0.86072000  0.36116000  0.22107000  1.0
  C  C53  1  0.37225000  0.86173000  0.22071000  1.0
  C  C54  1  0.14442000  0.64670000  0.78106000  1.0
  C  C55  1  0.63993000  0.13886000  0.78092000  1.0
  C  C56  1  0.72659000  0.21772000  0.92821000  1.0
  C  C57  1  0.67057000  0.19733000  0.06813000  1.0
  C  C58  1  0.19230000  0.67880000  0.06213000  1.0
  C  C59  1  0.06925000  0.66398000  0.91843000  1.0
  C  C60  1  0.22500000  0.73304000  0.92822000  1.0
  C  C61  1  0.63261000  0.07635000  0.91988000  1.0
  C  C62  1  0.30042000  0.80664000  0.07421000  1.0
  C  C63  1  0.87931000  0.18501000  0.91536000  1.0
  C  C64  1  0.22475000  0.88586000  0.91198000  1.0
  C  C65  1  0.22483000  0.94362000  0.05807000  1.0
  C  C66  1  0.93228000  0.20541000  0.06136000  1.0
  C  C67  1  0.80244000  0.29224000  0.07384000  1.0
  C  C68  1  0.88062000  0.28286000  0.04283000  1.0
  C  C69  1  0.29828000  0.88266000  0.04245000  1.0
  C  C70  1  0.27767000  0.83329000  0.95685000  1.0
  C  C71  1  0.83234000  0.25661000  0.95634000  1.0
  C  C72  1  0.83738000  0.33111000  0.15426000  1.0
  C  C73  1  0.34079000  0.84147000  0.15444000  1.0
  C  C74  1  0.18148000  0.68840000  0.84783000  1.0
  C  C75  1  0.68156000  0.17515000  0.84771000  1.0
  C  C76  1  0.26230000  0.20719000  0.48844000  1.0
  C  C77  1  0.20868000  0.26114000  0.48836000  1.0
  C  C78  1  0.71856000  0.77138000  0.49838000  1.0
  C  C79  1  0.77212000  0.71739000  0.49682000  1.0
  C  C80  1  0.65593000  0.83698000  0.50030000  1.0
  C  C81  1  0.83718000  0.65440000  0.49747000  1.0
  C  C82  1  0.32897000  0.14562000  0.49137000  1.0
  C  C83  1  0.14740000  0.32793000  0.49117000  1.0
  S  S84  1  0.83275000  0.34485000  0.91154000  1.0
  S  S85  1  0.37415000  0.81888000  0.91695000  1.0
  S  S86  1  0.40366000  0.97411000  0.09889000  1.0
  S  S87  1  0.97285000  0.38777000  0.09291000  1.0
  O  O88  1  0.49699000  0.99651000  0.50089000  1.0
  O  O89  1  0.89157000  0.34535000  0.33126000  1.0
  O  O90  1  0.15667000  0.57960000  0.66838000  1.0
  O  O91  1  0.49506000  0.91354000  0.33411000  1.0
  O  O92  1  0.93258000  0.48421000  0.33291000  1.0
  O  O93  1  0.56276000  0.15104000  0.66947000  1.0
  O  O94  1  0.59023000  0.18050000  0.02585000  1.0
  O  O95  1  0.15195000  0.60236000  0.01625000  1.0
  O  O96  1  0.99602000  0.67568000  0.92327000  1.0
  O  O97  1  0.62842000  0.00628000  0.92982000  1.0
  O  O98  1  0.59586000  0.01167000  0.67031000  1.0
  O  O99  1  0.01505000  0.58591000  0.67233000  1.0
  O  O100  1  0.95425000  0.16866000  0.94712000  1.0
  O  O101  1  0.24625000  0.96878000  0.93154000  1.0
  O  O102  1  0.20527000  0.95515000  0.11047000  1.0
  O  O103  1  0.99729000  0.22131000  0.11902000  1.0
  O  O104  1  0.34891000  0.90548000  0.32873000  1.0
  O  O105  1  0.81191000  0.28650000  0.83546000  1.0
  O  O106  1  0.77767000  0.41272000  0.93179000  1.0
  O  O107  1  0.93567000  0.39110000  0.94328000  1.0
  O  O108  1  0.43464000  0.76013000  0.94057000  1.0
  O  O109  1  0.31980000  0.79639000  0.83991000  1.0
  O  O110  1  0.42797000  0.91849000  0.94853000  1.0
  O  O111  1  0.41349000  0.01649000  0.17414000  1.0
  O  O112  1  0.48060000  0.93535000  0.08418000  1.0
  O  O113  1  0.37401000  0.04531000  0.06331000  1.0
  O  O114  1  0.04828000  0.36253000  0.07294000  1.0
  O  O115  1  0.92852000  0.46241000  0.07890000  1.0
  O  O116  1  0.00914000  0.41262000  0.17895000  1.0
  O  O117  1  0.99762000  0.49602000  0.50074000  1.0
  O  O118  1  0.65448000  0.88486000  0.46363000  1.0
  O  O119  1  0.86417000  0.63053000  0.44450000  1.0
  O  O120  1  0.41088000  0.18345000  0.53614000  1.0
  O  O121  1  0.18178000  0.40714000  0.54340000  1.0
  O  O122  1  0.64624000  0.08156000  0.46169000  1.0
  O  O123  1  0.07468000  0.65526000  0.46776000  1.0
  O  O124  1  0.61738000  0.19363000  0.55348000  1.0
  O  O125  1  0.19246000  0.60455000  0.53825000  1.0
  O  O126  1  0.31035000  0.86188000  0.44975000  1.0
  O  O127  1  0.87701000  0.30693000  0.46275000  1.0
  O  O128  1  0.41995000  0.86138000  0.55615000  1.0
  O  O129  1  0.84810000  0.42861000  0.54835000  1.0
  O  O130  1  0.60944000  0.83984000  0.53851000  1.0
  O  O131  1  0.86105000  0.62974000  0.55132000  1.0
  O  O132  1  0.29878000  0.06109000  0.44950000  1.0
  O  O133  1  0.06594000  0.30077000  0.44164000  1.0
