# generated using pymatgen
data_CoH17C26N2(O2F3)2
_symmetry_space_group_name_H-M   'P 1'
_cell_length_a   7.58959000
_cell_length_b   14.81430000
_cell_length_c   24.13290000
_cell_angle_alpha   77.13300000
_cell_angle_beta   89.99980000
_cell_angle_gamma   89.99980000
_symmetry_Int_Tables_number   1
_chemical_formula_structural   CoH17C26N2(O2F3)2
_chemical_formula_sum   'Co4 H68 C104 N8 O16 F24'
_cell_volume   2645.23589965
_cell_formula_units_Z   4
loop_
 _symmetry_equiv_pos_site_id
 _symmetry_equiv_pos_as_xyz
  1  'x, y, z'
loop_
 _atom_site_type_symbol
 _atom_site_label
 _atom_site_symmetry_multiplicity
 _atom_site_fract_x
 _atom_site_fract_y
 _atom_site_fract_z
 _atom_site_occupancy
  Co  Co0  1  0.11420000  0.55481000  0.48989000  1.0
  Co  Co1  1  0.11432000  0.44515000  0.01012000  1.0
  Co  Co2  1  0.88580000  0.44522000  0.51010000  1.0
  Co  Co3  1  0.88592000  0.55474000  0.98991000  1.0
  H  H4  1  0.49312000  0.58832000  0.50351000  1.0
  H  H5  1  0.49316000  0.41168000  0.99650000  1.0
  H  H6  1  0.50688000  0.41171000  0.49646000  1.0
  H  H7  1  0.50693000  0.58829000  0.00354000  1.0
  H  H8  1  0.68500000  0.65519000  0.79766000  1.0
  H  H9  1  0.68497000  0.34484000  0.70233000  1.0
  H  H10  1  0.31504000  0.34482000  0.20232000  1.0
  H  H11  1  0.31502000  0.65520000  0.29768000  1.0
  H  H12  1  0.92746000  0.80300000  0.68206000  1.0
  H  H13  1  0.92747000  0.19699000  0.81793000  1.0
  H  H14  1  0.07248000  0.19704000  0.31795000  1.0
  H  H15  1  0.07250000  0.80295000  0.18205000  1.0
  H  H16  1  0.33693000  0.91572000  0.43489000  1.0
  H  H17  1  0.33695000  0.08428000  0.06511000  1.0
  H  H18  1  0.66302000  0.08430000  0.56511000  1.0
  H  H19  1  0.66302000  0.91569000  0.93488000  1.0
  H  H20  1  0.22863000  0.83284000  0.75888000  1.0
  H  H21  1  0.22863000  0.16716000  0.74113000  1.0
  H  H22  1  0.77128000  0.16709000  0.24115000  1.0
  H  H23  1  0.77129000  0.83291000  0.25885000  1.0
  H  H24  1  0.07416000  0.73610000  0.84019000  1.0
  H  H25  1  0.07413000  0.26390000  0.65981000  1.0
  H  H26  1  0.92588000  0.26380000  0.15985000  1.0
  H  H27  1  0.92586000  0.73618000  0.34015000  1.0
  H  H28  1  0.53362000  0.57394000  0.62242000  1.0
  H  H29  1  0.53368000  0.42605000  0.87760000  1.0
  H  H30  1  0.46644000  0.42610000  0.37755000  1.0
  H  H31  1  0.46649000  0.57390000  0.12246000  1.0
  H  H32  1  0.88238000  0.87822000  0.39882000  1.0
  H  H33  1  0.88239000  0.12180000  0.10118000  1.0
  H  H34  1  0.11758000  0.12181000  0.60118000  1.0
  H  H35  1  0.11759000  0.87821000  0.89882000  1.0
  H  H36  1  0.09522000  0.92126000  0.37917000  1.0
  H  H37  1  0.09523000  0.07875000  0.12083000  1.0
  H  H38  1  0.90474000  0.07877000  0.62083000  1.0
  H  H39  1  0.90474000  0.92123000  0.87918000  1.0
  H  H40  1  0.53479000  0.56549000  0.88262000  1.0
  H  H41  1  0.53473000  0.43452000  0.61738000  1.0
  H  H42  1  0.46537000  0.43448000  0.11739000  1.0
  H  H43  1  0.46532000  0.56552000  0.38261000  1.0
  H  H44  1  0.97259000  0.82909000  0.53142000  1.0
  H  H45  1  0.97259000  0.17091000  0.96857000  1.0
  H  H46  1  0.02735000  0.17093000  0.46857000  1.0
  H  H47  1  0.02736000  0.82908000  0.03142000  1.0
  H  H48  1  0.03921000  0.70587000  0.61930000  1.0
  H  H49  1  0.03926000  0.29411000  0.88069000  1.0
  H  H50  1  0.96081000  0.29421000  0.38069000  1.0
  H  H51  1  0.96084000  0.70577000  0.11930000  1.0
  H  H52  1  0.04563000  0.07236000  0.39807000  1.0
  H  H53  1  0.04564000  0.92765000  0.10193000  1.0
  H  H54  1  0.95431000  0.92767000  0.60193000  1.0
  H  H55  1  0.95430000  0.07234000  0.89807000  1.0
  H  H56  1  0.72803000  0.70785000  0.49825000  1.0
  H  H57  1  0.72806000  0.29215000  0.00176000  1.0
  H  H58  1  0.27194000  0.29219000  0.50174000  1.0
  H  H59  1  0.27197000  0.70780000  0.99826000  1.0
  H  H60  1  0.64519000  0.87571000  0.46418000  1.0
  H  H61  1  0.64521000  0.12429000  0.03582000  1.0
  H  H62  1  0.35475000  0.12433000  0.53582000  1.0
  H  H63  1  0.35476000  0.87566000  0.96418000  1.0
  H  H64  1  0.42065000  0.66882000  0.68684000  1.0
  H  H65  1  0.42067000  0.33119000  0.81317000  1.0
  H  H66  1  0.57937000  0.33117000  0.31314000  1.0
  H  H67  1  0.57940000  0.66883000  0.18686000  1.0
  H  H68  1  0.00299000  0.73652000  0.43405000  1.0
  H  H69  1  0.00302000  0.26348000  0.06595000  1.0
  H  H70  1  0.99699000  0.26350000  0.56593000  1.0
  H  H71  1  0.99702000  0.73650000  0.93407000  1.0
  C  C72  1  0.57824000  0.80785000  0.72283000  1.0
  C  C73  1  0.57825000  0.19217000  0.77717000  1.0
  C  C74  1  0.42169000  0.19214000  0.27718000  1.0
  C  C75  1  0.42170000  0.80786000  0.22282000  1.0
  C  C76  1  0.46885000  0.75077000  0.77189000  1.0
  C  C77  1  0.46884000  0.24925000  0.72811000  1.0
  C  C78  1  0.53112000  0.24921000  0.22812000  1.0
  C  C79  1  0.53110000  0.75080000  0.27189000  1.0
  C  C80  1  0.46318000  0.66153000  0.48792000  1.0
  C  C81  1  0.46322000  0.33848000  0.01209000  1.0
  C  C82  1  0.53681000  0.33851000  0.51207000  1.0
  C  C83  1  0.53686000  0.66148000  0.98794000  1.0
  C  C84  1  0.55140000  0.67405000  0.80701000  1.0
  C  C85  1  0.55136000  0.32597000  0.69299000  1.0
  C  C86  1  0.44864000  0.32594000  0.19299000  1.0
  C  C87  1  0.44862000  0.67407000  0.30701000  1.0
  C  C88  1  0.86155000  0.58304000  0.57443000  1.0
  C  C89  1  0.86162000  0.41694000  0.92558000  1.0
  C  C90  1  0.13856000  0.41705000  0.42555000  1.0
  C  C91  1  0.13861000  0.58294000  0.07446000  1.0
  C  C92  1  0.66394000  0.74428000  0.68820000  1.0
  C  C93  1  0.66395000  0.25573000  0.81179000  1.0
  C  C94  1  0.33602000  0.25573000  0.31180000  1.0
  C  C95  1  0.33604000  0.74427000  0.18820000  1.0
  C  C96  1  0.83932000  0.75306000  0.66975000  1.0
  C  C97  1  0.83933000  0.24694000  0.83024000  1.0
  C  C98  1  0.16064000  0.24698000  0.33025000  1.0
  C  C99  1  0.16066000  0.75301000  0.16975000  1.0
  C  C100  1  0.71605000  0.86153000  0.75115000  1.0
  C  C101  1  0.71603000  0.13849000  0.74883000  1.0
  C  C102  1  0.28387000  0.13850000  0.24884000  1.0
  C  C103  1  0.28385000  0.86151000  0.25115000  1.0
  C  C104  1  0.19706000  0.58958000  0.91631000  1.0
  C  C105  1  0.19698000  0.41041000  0.58369000  1.0
  C  C106  1  0.80313000  0.41032000  0.08372000  1.0
  C  C107  1  0.80307000  0.58966000  0.41628000  1.0
  C  C108  1  0.46578000  0.87983000  0.67980000  1.0
  C  C109  1  0.46579000  0.12019000  0.82020000  1.0
  C  C110  1  0.53409000  0.12014000  0.32022000  1.0
  C  C111  1  0.53410000  0.87987000  0.17978000  1.0
  C  C112  1  0.37587000  0.84381000  0.44979000  1.0
  C  C113  1  0.37589000  0.15619000  0.05021000  1.0
  C  C114  1  0.62410000  0.15622000  0.55021000  1.0
  C  C115  1  0.62412000  0.84377000  0.94979000  1.0
  C  C116  1  0.79404000  0.63400000  0.61672000  1.0
  C  C117  1  0.79410000  0.36598000  0.88329000  1.0
  C  C118  1  0.20599000  0.36607000  0.38326000  1.0
  C  C119  1  0.20603000  0.63392000  0.11674000  1.0
  C  C120  1  0.00812000  0.94393000  0.45973000  1.0
  C  C121  1  0.00812000  0.05607000  0.04027000  1.0
  C  C122  1  0.99184000  0.05610000  0.54027000  1.0
  C  C123  1  0.99184000  0.94391000  0.95973000  1.0
  C  C124  1  0.29676000  0.77351000  0.78457000  1.0
  C  C125  1  0.29674000  0.22650000  0.71544000  1.0
  C  C126  1  0.70321000  0.22642000  0.21546000  1.0
  C  C127  1  0.70320000  0.77357000  0.28454000  1.0
  C  C128  1  0.24991000  0.77223000  0.45294000  1.0
  C  C129  1  0.24993000  0.22777000  0.04706000  1.0
  C  C130  1  0.75007000  0.22781000  0.54705000  1.0
  C  C131  1  0.75009000  0.77219000  0.95295000  1.0
  C  C132  1  0.20911000  0.71968000  0.83097000  1.0
  C  C133  1  0.20907000  0.28032000  0.66904000  1.0
  C  C134  1  0.79092000  0.28024000  0.16907000  1.0
  C  C135  1  0.79090000  0.71975000  0.33093000  1.0
  C  C136  1  0.62019000  0.62310000  0.63639000  1.0
  C  C137  1  0.62024000  0.37690000  0.86362000  1.0
  C  C138  1  0.37984000  0.37694000  0.36358000  1.0
  C  C139  1  0.37988000  0.62305000  0.13642000  1.0
  C  C140  1  0.01543000  0.88487000  0.41566000  1.0
  C  C141  1  0.01544000  0.11514000  0.08433000  1.0
  C  C142  1  0.98453000  0.11517000  0.58433000  1.0
  C  C143  1  0.98454000  0.88484000  0.91567000  1.0
  C  C144  1  0.46580000  0.62204000  0.85435000  1.0
  C  C145  1  0.46574000  0.37798000  0.64565000  1.0
  C  C146  1  0.53431000  0.37794000  0.14566000  1.0
  C  C147  1  0.53426000  0.62207000  0.35434000  1.0
  C  C148  1  0.29283000  0.64424000  0.86634000  1.0
  C  C149  1  0.29277000  0.35577000  0.63367000  1.0
  C  C150  1  0.70726000  0.35570000  0.13370000  1.0
  C  C151  1  0.70723000  0.64429000  0.36631000  1.0
  C  C152  1  0.98394000  0.90418000  0.51751000  1.0
  C  C153  1  0.98394000  0.09583000  0.98249000  1.0
  C  C154  1  0.01601000  0.09585000  0.48249000  1.0
  C  C155  1  0.01601000  0.90416000  0.01751000  1.0
  C  C156  1  0.90367000  0.69816000  0.63445000  1.0
  C  C157  1  0.90371000  0.30183000  0.86555000  1.0
  C  C158  1  0.09633000  0.30191000  0.36555000  1.0
  C  C159  1  0.09637000  0.69808000  0.13445000  1.0
  C  C160  1  0.02439000  0.04028000  0.44287000  1.0
  C  C161  1  0.02439000  0.95972000  0.05713000  1.0
  C  C162  1  0.97556000  0.95974000  0.55713000  1.0
  C  C163  1  0.97556000  0.04026000  0.94287000  1.0
  C  C164  1  0.59393000  0.72796000  0.48535000  1.0
  C  C165  1  0.59396000  0.27205000  0.01465000  1.0
  C  C166  1  0.40605000  0.27209000  0.51464000  1.0
  C  C167  1  0.40608000  0.72790000  0.98537000  1.0
  C  C168  1  0.54764000  0.82106000  0.46603000  1.0
  C  C169  1  0.54766000  0.17895000  0.03397000  1.0
  C  C170  1  0.45233000  0.17898000  0.53397000  1.0
  C  C171  1  0.45235000  0.82101000  0.96603000  1.0
  C  C172  1  0.55642000  0.67747000  0.67202000  1.0
  C  C173  1  0.55646000  0.32254000  0.82798000  1.0
  C  C174  1  0.44358000  0.32254000  0.32796000  1.0
  C  C175  1  0.44360000  0.67746000  0.17204000  1.0
  N  N176  1  0.29457000  0.68136000  0.47227000  1.0
  N  N177  1  0.29461000  0.31864000  0.02773000  1.0
  N  N178  1  0.70543000  0.31868000  0.52771000  1.0
  N  N179  1  0.70546000  0.68132000  0.97229000  1.0
  N  N180  1  0.07979000  0.79180000  0.43715000  1.0
  N  N181  1  0.07981000  0.20821000  0.06285000  1.0
  N  N182  1  0.92017000  0.20823000  0.56285000  1.0
  N  N183  1  0.92019000  0.79177000  0.93715000  1.0
  O  O184  1  0.00052000  0.61551000  0.54741000  1.0
  O  O185  1  0.00059000  0.38445000  0.95259000  1.0
  O  O186  1  0.99959000  0.38458000  0.45259000  1.0
  O  O187  1  0.99963000  0.61538000  0.04741000  1.0
  O  O188  1  0.77710000  0.51266000  0.56586000  1.0
  O  O189  1  0.77719000  0.48731000  0.93415000  1.0
  O  O190  1  0.22303000  0.48741000  0.43409000  1.0
  O  O191  1  0.22309000  0.51258000  0.06591000  1.0
  O  O192  1  0.04563000  0.62021000  0.92709000  1.0
  O  O193  1  0.04555000  0.37977000  0.57293000  1.0
  O  O194  1  0.95454000  0.37967000  0.07298000  1.0
  O  O195  1  0.95448000  0.62031000  0.42703000  1.0
  O  O196  1  0.26563000  0.51624000  0.94601000  1.0
  O  O197  1  0.26556000  0.48374000  0.55398000  1.0
  O  O198  1  0.73461000  0.48367000  0.05399000  1.0
  O  O199  1  0.73455000  0.51631000  0.44601000  1.0
  F  F200  1  0.84016000  0.80319000  0.78059000  1.0
  F  F201  1  0.84014000  0.19684000  0.71939000  1.0
  F  F202  1  0.15979000  0.19687000  0.21941000  1.0
  F  F203  1  0.15978000  0.80314000  0.28059000  1.0
  F  F204  1  0.80618000  0.92743000  0.71306000  1.0
  F  F205  1  0.80618000  0.07258000  0.78692000  1.0
  F  F206  1  0.19366000  0.07260000  0.28693000  1.0
  F  F207  1  0.19363000  0.92740000  0.21305000  1.0
  F  F208  1  0.63853000  0.90410000  0.78901000  1.0
  F  F209  1  0.63851000  0.09593000  0.71098000  1.0
  F  F210  1  0.36134000  0.09592000  0.21099000  1.0
  F  F211  1  0.36131000  0.90411000  0.28899000  1.0
  F  F212  1  0.39960000  0.94910000  0.70254000  1.0
  F  F213  1  0.39961000  0.05091000  0.79747000  1.0
  F  F214  1  0.60023000  0.05087000  0.29748000  1.0
  F  F215  1  0.60024000  0.94914000  0.20252000  1.0
  F  F216  1  0.32555000  0.83826000  0.66028000  1.0
  F  F217  1  0.32556000  0.16175000  0.83972000  1.0
  F  F218  1  0.67432000  0.16167000  0.33976000  1.0
  F  F219  1  0.67434000  0.83834000  0.16024000  1.0
  F  F220  1  0.56173000  0.92080000  0.63338000  1.0
  F  F221  1  0.56175000  0.07922000  0.86661000  1.0
  F  F222  1  0.43806000  0.07919000  0.36662000  1.0
  F  F223  1  0.43809000  0.92082000  0.13338000  1.0
