# generated using pymatgen
data_MnH24C36S4(N6Cl)2
_symmetry_space_group_name_H-M   'P 1'
_cell_length_a   8.09612000
_cell_length_b   10.08920000
_cell_length_c   11.75660000
_cell_angle_alpha   99.74760000
_cell_angle_beta   107.38500000
_cell_angle_gamma   96.00260000
_symmetry_Int_Tables_number   1
_chemical_formula_structural   MnH24C36S4(N6Cl)2
_chemical_formula_sum   'Mn1 H24 C36 S4 N12 Cl2'
_cell_volume   890.84395651
_cell_formula_units_Z   1
loop_
 _symmetry_equiv_pos_site_id
 _symmetry_equiv_pos_as_xyz
  1  'x, y, z'
loop_
 _atom_site_type_symbol
 _atom_site_label
 _atom_site_symmetry_multiplicity
 _atom_site_fract_x
 _atom_site_fract_y
 _atom_site_fract_z
 _atom_site_occupancy
  Mn  Mn0  1  0.50000000  0.00000000  0.50000000  1.0
  H  H1  1  0.32245000  0.74591000  0.55398000  1.0
  H  H2  1  0.67755000  0.25409000  0.44601000  1.0
  H  H3  1  0.34151000  0.39556000  0.29482000  1.0
  H  H4  1  0.65850000  0.60444000  0.70518000  1.0
  H  H5  1  0.10873000  0.89924000  0.37439000  1.0
  H  H6  1  0.89127000  0.10076000  0.62561000  1.0
  H  H7  1  0.47962000  0.55673000  0.19542000  1.0
  H  H8  1  0.52039000  0.44327000  0.80458000  1.0
  H  H9  1  0.53395000  0.80523000  0.28216000  1.0
  H  H10  1  0.46605000  0.19477000  0.71783000  1.0
  H  H11  1  0.18372000  0.28231000  0.36342000  1.0
  H  H12  1  0.81628000  0.71770000  0.63658000  1.0
  H  H13  1  0.86605000  0.95027000  0.21146000  1.0
  H  H14  1  0.13395000  0.04973000  0.78854000  1.0
  H  H15  1  0.93707000  0.10344000  0.07494000  1.0
  H  H16  1  0.06293000  0.89655000  0.92505000  1.0
  H  H17  1  0.05361000  0.15197000  0.48740000  1.0
  H  H18  1  0.94638000  0.84803000  0.51260000  1.0
  H  H19  1  0.48204000  0.13770000  0.28689000  1.0
  H  H20  1  0.51796000  0.86230000  0.71311000  1.0
  H  H21  1  0.54087000  0.18304000  0.13058000  1.0
  H  H22  1  0.45913000  0.81697000  0.86943000  1.0
  H  H23  1  0.59314000  0.32483000  0.98557000  1.0
  H  H24  1  0.40685000  0.67517000  0.01443000  1.0
  C  C25  1  0.35821000  0.70089000  0.47578000  1.0
  C  C26  1  0.64179000  0.29911000  0.52422000  1.0
  C  C27  1  0.23367000  0.47402000  0.49543000  1.0
  C  C28  1  0.76633000  0.52598000  0.50457000  1.0
  C  C29  1  0.36322000  0.50502000  0.32958000  1.0
  C  C30  1  0.63679000  0.49498000  0.67042000  1.0
  C  C31  1  0.13546000  0.96635000  0.31661000  1.0
  C  C32  1  0.86454000  0.03365000  0.68340000  1.0
  C  C33  1  0.43917000  0.59382000  0.27390000  1.0
  C  C34  1  0.56084000  0.40618000  0.72610000  1.0
  C  C35  1  0.47166000  0.73313000  0.32194000  1.0
  C  C36  1  0.52835000  0.26687000  0.67806000  1.0
  C  C37  1  0.31902000  0.55969000  0.43228000  1.0
  C  C38  1  0.68098000  0.44031000  0.56771000  1.0
  C  C39  1  0.17414000  0.33400000  0.44943000  1.0
  C  C40  1  0.82586000  0.66600000  0.55057000  1.0
  C  C41  1  0.00031000  0.99409000  0.22300000  1.0
  C  C42  1  0.99969000  0.00591000  0.77701000  1.0
  C  C43  1  0.03860000  0.07744000  0.14820000  1.0
  C  C44  1  0.96140000  0.92256000  0.85180000  1.0
  C  C45  1  0.09991000  0.26149000  0.51753000  1.0
  C  C46  1  0.90009000  0.73851000  0.48247000  1.0
  C  C47  1  0.13644000  0.45550000  0.65619000  1.0
  C  C48  1  0.86356000  0.54451000  0.34381000  1.0
  C  C49  1  0.34347000  0.09872000  0.26611000  1.0
  C  C50  1  0.65653000  0.90128000  0.73389000  1.0
  C  C51  1  0.21565000  0.12712000  0.16727000  1.0
  C  C52  1  0.78435000  0.87288000  0.83273000  1.0
  C  C53  1  0.18166000  0.34018000  0.94416000  1.0
  C  C54  1  0.81833000  0.65982000  0.05583000  1.0
  C  C55  1  0.26515000  0.20913000  0.08604000  1.0
  C  C56  1  0.73484000  0.79087000  0.91396000  1.0
  C  C57  1  0.43507000  0.22774000  0.07725000  1.0
  C  C58  1  0.56493000  0.77226000  0.92275000  1.0
  C  C59  1  0.46392000  0.30635000  0.99636000  1.0
  C  C60  1  0.53607000  0.69365000  0.00363000  1.0
  S  S61  1  0.00048000  0.40622000  0.85931000  1.0
  S  S62  1  0.99952000  0.59378000  0.14068000  1.0
  S  S63  1  0.11014000  0.54952000  0.79062000  1.0
  S  S64  1  0.88985000  0.45047000  0.20938000  1.0
  N  N65  1  0.43516000  0.78775000  0.42387000  1.0
  N  N66  1  0.56484000  0.21225000  0.57613000  1.0
  N  N67  1  0.21305000  0.53548000  0.60057000  1.0
  N  N68  1  0.78695000  0.46452000  0.39943000  1.0
  N  N69  1  0.08047000  0.32141000  0.62270000  1.0
  N  N70  1  0.91953000  0.67859000  0.37730000  1.0
  N  N71  1  0.30612000  0.02276000  0.34255000  1.0
  N  N72  1  0.69388000  0.97724000  0.65746000  1.0
  N  N73  1  0.13781000  0.26653000  0.01849000  1.0
  N  N74  1  0.86218000  0.73347000  0.98150000  1.0
  N  N75  1  0.33802000  0.36331000  0.92815000  1.0
  N  N76  1  0.66197000  0.63669000  0.07185000  1.0
  Cl  Cl77  1  0.28745000  0.98497000  0.59896000  1.0
  Cl  Cl78  1  0.71255000  0.01503000  0.40104000  1.0
