# generated using pymatgen
data_CuP2H14C18(NO3)2
_symmetry_space_group_name_H-M   'P 1'
_cell_length_a   8.60381000
_cell_length_b   8.97657000
_cell_length_c   12.14370000
_cell_angle_alpha   99.72980000
_cell_angle_beta   106.80600000
_cell_angle_gamma   98.27970000
_symmetry_Int_Tables_number   1
_chemical_formula_structural   CuP2H14C18(NO3)2
_chemical_formula_sum   'Cu2 P4 H28 C36 N4 O12'
_cell_volume   866.23238835
_cell_formula_units_Z   2
loop_
 _symmetry_equiv_pos_site_id
 _symmetry_equiv_pos_as_xyz
  1  'x, y, z'
loop_
 _atom_site_type_symbol
 _atom_site_label
 _atom_site_symmetry_multiplicity
 _atom_site_fract_x
 _atom_site_fract_y
 _atom_site_fract_z
 _atom_site_occupancy
  Cu  Cu0  1  0.32538000  0.82115000  0.58419000  1.0
  Cu  Cu1  1  0.67461000  0.17885000  0.41581000  1.0
  P  P2  1  0.32677000  0.04795000  0.85562000  1.0
  P  P3  1  0.67324000  0.95206000  0.14438000  1.0
  P  P4  1  0.66196000  0.05183000  0.64705000  1.0
  P  P5  1  0.33804000  0.94816000  0.35295000  1.0
  H  H6  1  0.41511000  0.86617000  0.95666000  1.0
  H  H7  1  0.58490000  0.13383000  0.04335000  1.0
  H  H8  1  0.45686000  0.12608000  0.70035000  1.0
  H  H9  1  0.54315000  0.87393000  0.29965000  1.0
  H  H10  1  0.99781000  0.99974000  0.68468000  1.0
  H  H11  1  0.00220000  0.00026000  0.31532000  1.0
  H  H12  1  0.71592000  0.18673000  0.89660000  1.0
  H  H13  1  0.28408000  0.81327000  0.10340000  1.0
  H  H14  1  0.96632000  0.24949000  0.07321000  1.0
  H  H15  1  0.03368000  0.75051000  0.92680000  1.0
  H  H16  1  0.23502000  0.19154000  0.05529000  1.0
  H  H17  1  0.76498000  0.80846000  0.94471000  1.0
  H  H18  1  0.97397000  0.85374000  0.43357000  1.0
  H  H19  1  0.02602000  0.14625000  0.56643000  1.0
  H  H20  1  0.68593000  0.75622000  0.43589000  1.0
  H  H21  1  0.31406000  0.24377000  0.56410000  1.0
  H  H22  1  0.64552000  0.57497000  0.56457000  1.0
  H  H23  1  0.35447000  0.42502000  0.43542000  1.0
  H  H24  1  0.78236000  0.42692000  0.72061000  1.0
  H  H25  1  0.21763000  0.57306000  0.27938000  1.0
  H  H26  1  0.03815000  0.36813000  0.84444000  1.0
  H  H27  1  0.96184000  0.63187000  0.15556000  1.0
  H  H28  1  0.35638000  0.38716000  0.89772000  1.0
  H  H29  1  0.64362000  0.61284000  0.10229000  1.0
  H  H30  1  0.61823000  0.50723000  0.87176000  1.0
  H  H31  1  0.38177000  0.49278000  0.12824000  1.0
  H  H32  1  0.61008000  0.69566000  0.73758000  1.0
  H  H33  1  0.38991000  0.30434000  0.26242000  1.0
  C  C34  1  0.13309000  0.09174000  0.86872000  1.0
  C  C35  1  0.86692000  0.90826000  0.13129000  1.0
  C  C36  1  0.99016000  0.05318000  0.76991000  1.0
  C  C37  1  0.00984000  0.94682000  0.23009000  1.0
  C  C38  1  0.83983000  0.08768000  0.77873000  1.0
  C  C39  1  0.16018000  0.91232000  0.22126000  1.0
  C  C40  1  0.83210000  0.15890000  0.88868000  1.0
  C  C41  1  0.16790000  0.84110000  0.11132000  1.0
  C  C42  1  0.97413000  0.19576000  0.98805000  1.0
  C  C43  1  0.02587000  0.80424000  0.01195000  1.0
  C  C44  1  0.12390000  0.16322000  0.97814000  1.0
  C  C45  1  0.87610000  0.83678000  0.02186000  1.0
  C  C46  1  0.95159000  0.77615000  0.48972000  1.0
  C  C47  1  0.04840000  0.22384000  0.51028000  1.0
  C  C48  1  0.79097000  0.71923000  0.49061000  1.0
  C  C49  1  0.20902000  0.28076000  0.50939000  1.0
  C  C50  1  0.76933000  0.62000000  0.56307000  1.0
  C  C51  1  0.23066000  0.37998000  0.43693000  1.0
  C  C52  1  0.90859000  0.57783000  0.63617000  1.0
  C  C53  1  0.09141000  0.42216000  0.36382000  1.0
  C  C54  1  0.06522000  0.64052000  0.62918000  1.0
  C  C55  1  0.93478000  0.35948000  0.37082000  1.0
  C  C56  1  0.90278000  0.47798000  0.71608000  1.0
  C  C57  1  0.09722000  0.52202000  0.28391000  1.0
  C  C58  1  0.04454000  0.44341000  0.78377000  1.0
  C  C59  1  0.95546000  0.55659000  0.21623000  1.0
  C  C60  1  0.20380000  0.50256000  0.77587000  1.0
  C  C61  1  0.79620000  0.49745000  0.22413000  1.0
  C  C62  1  0.21237000  0.60222000  0.69839000  1.0
  C  C63  1  0.78763000  0.39778000  0.30161000  1.0
  C  C64  1  0.35437000  0.46710000  0.83911000  1.0
  C  C65  1  0.64563000  0.53290000  0.16089000  1.0
  C  C66  1  0.50056000  0.53298000  0.82431000  1.0
  C  C67  1  0.49944000  0.46703000  0.17569000  1.0
  C  C68  1  0.49799000  0.63531000  0.74842000  1.0
  C  C69  1  0.50201000  0.36470000  0.25158000  1.0
  N  N70  1  0.08466000  0.73758000  0.55752000  1.0
  N  N71  1  0.91534000  0.26242000  0.44248000  1.0
  N  N72  1  0.35686000  0.66698000  0.68599000  1.0
  N  N73  1  0.64314000  0.33302000  0.31401000  1.0
  O  O74  1  0.31802000  0.04165000  0.72683000  1.0
  O  O75  1  0.68198000  0.95836000  0.27318000  1.0
  O  O76  1  0.32439000  0.88199000  0.88155000  1.0
  O  O77  1  0.67563000  0.11802000  0.11845000  1.0
  O  O78  1  0.46932000  0.16850000  0.94634000  1.0
  O  O79  1  0.53068000  0.83151000  0.05367000  1.0
  O  O80  1  0.56550000  0.88644000  0.62746000  1.0
  O  O81  1  0.43450000  0.11356000  0.37254000  1.0
  O  O82  1  0.55422000  0.17384000  0.67236000  1.0
  O  O83  1  0.44578000  0.82616000  0.32763000  1.0
  O  O84  1  0.73253000  0.08105000  0.54918000  1.0
  O  O85  1  0.26747000  0.91895000  0.45082000  1.0
