# generated using pymatgen
data_GdH3C4O9
_symmetry_space_group_name_H-M   'P 1'
_cell_length_a   9.94724000
_cell_length_b   10.72810000
_cell_length_c   12.19910000
_cell_angle_alpha   107.75100000
_cell_angle_beta   90.00550000
_cell_angle_gamma   89.99700000
_symmetry_Int_Tables_number   1
_chemical_formula_structural   GdH3C4O9
_chemical_formula_sum   'Gd4 H12 C16 O36'
_cell_volume   1239.84742298
_cell_formula_units_Z   4
loop_
 _symmetry_equiv_pos_site_id
 _symmetry_equiv_pos_as_xyz
  1  'x, y, z'
loop_
 _atom_site_type_symbol
 _atom_site_label
 _atom_site_symmetry_multiplicity
 _atom_site_fract_x
 _atom_site_fract_y
 _atom_site_fract_z
 _atom_site_occupancy
  Gd  Gd0  1  0.42801000  0.20463000  0.38513000  1.0
  Gd  Gd1  1  0.92797000  0.29531000  0.11480000  1.0
  Gd  Gd2  1  0.57199000  0.79523000  0.61480000  1.0
  Gd  Gd3  1  0.07202000  0.70481000  0.88528000  1.0
  H  H4  1  0.24133000  0.09189000  0.16144000  1.0
  H  H5  1  0.74127000  0.40797000  0.33855000  1.0
  H  H6  1  0.75868000  0.90813000  0.83853000  1.0
  H  H7  1  0.25877000  0.59203000  0.66148000  1.0
  H  H8  1  0.44824000  0.12813000  0.11390000  1.0
  H  H9  1  0.94821000  0.37160000  0.38602000  1.0
  H  H10  1  0.55178000  0.87194000  0.88608000  1.0
  H  H11  1  0.05185000  0.62837000  0.61402000  1.0
  H  H12  1  0.33418000  0.98104000  0.18211000  1.0
  H  H13  1  0.83417000  0.51883000  0.31798000  1.0
  H  H14  1  0.66580000  0.01892000  0.81779000  1.0
  H  H15  1  0.16584000  0.48124000  0.68214000  1.0
  C  C16  1  0.12050000  0.28720000  0.39314000  1.0
  C  C17  1  0.62047000  0.21262000  0.10677000  1.0
  C  C18  1  0.87954000  0.71273000  0.60683000  1.0
  C  C19  1  0.37954000  0.78747000  0.89326000  1.0
  C  C20  1  0.18139000  0.34544000  0.30168000  1.0
  C  C21  1  0.68144000  0.15444000  0.19826000  1.0
  C  C22  1  0.81864000  0.65456000  0.69834000  1.0
  C  C23  1  0.31857000  0.84557000  0.80172000  1.0
  C  C24  1  0.46032000  0.94688000  0.45283000  1.0
  C  C25  1  0.96024000  0.55308000  0.04712000  1.0
  C  C26  1  0.53964000  0.05296000  0.54710000  1.0
  C  C27  1  0.03969000  0.44705000  0.95293000  1.0
  C  C28  1  0.44019000  0.50467000  0.54158000  1.0
  C  C29  1  0.94023000  0.99533000  0.95836000  1.0
  C  C30  1  0.55981000  0.49518000  0.45839000  1.0
  C  C31  1  0.05976000  0.00480000  0.04165000  1.0
  O  O32  1  0.19007000  0.21242000  0.42936000  1.0
  O  O33  1  0.68999000  0.28741000  0.07056000  1.0
  O  O34  1  0.80996000  0.78745000  0.57057000  1.0
  O  O35  1  0.31001000  0.71274000  0.92954000  1.0
  O  O36  1  0.99778000  0.31933000  0.43020000  1.0
  O  O37  1  0.49776000  0.18041000  0.06970000  1.0
  O  O38  1  0.00226000  0.68058000  0.56978000  1.0
  O  O39  1  0.50225000  0.81969000  0.93032000  1.0
  O  O40  1  0.30757000  0.34224000  0.29570000  1.0
  O  O41  1  0.80762000  0.15762000  0.20420000  1.0
  O  O42  1  0.69246000  0.65771000  0.70429000  1.0
  O  O43  1  0.19238000  0.84245000  0.79584000  1.0
  O  O44  1  0.10056000  0.38693000  0.24114000  1.0
  O  O45  1  0.60066000  0.11300000  0.25886000  1.0
  O  O46  1  0.89947000  0.61315000  0.75893000  1.0
  O  O47  1  0.39933000  0.88689000  0.74103000  1.0
  O  O48  1  0.40029000  0.98558000  0.37766000  1.0
  O  O49  1  0.90017000  0.51434000  0.12224000  1.0
  O  O50  1  0.59969000  0.01427000  0.62226000  1.0
  O  O51  1  0.09980000  0.48580000  0.87783000  1.0
  O  O52  1  0.46283000  0.83147000  0.45933000  1.0
  O  O53  1  0.96269000  0.66849000  0.04063000  1.0
  O  O54  1  0.53711000  0.16837000  0.54061000  1.0
  O  O55  1  0.03722000  0.33164000  0.95941000  1.0
  O  O56  1  0.37928000  0.40107000  0.53826000  1.0
  O  O57  1  0.87941000  0.09895000  0.96159000  1.0
  O  O58  1  0.62069000  0.59879000  0.46173000  1.0
  O  O59  1  0.12054000  0.90117000  0.03846000  1.0
  O  O60  1  0.41070000  0.61898000  0.60754000  1.0
  O  O61  1  0.91069000  0.88102000  0.89244000  1.0
  O  O62  1  0.58932000  0.38088000  0.39243000  1.0
  O  O63  1  0.08931000  0.11911000  0.10756000  1.0
  O  O64  1  0.33311000  0.07399000  0.18800000  1.0
  O  O65  1  0.83305000  0.42585000  0.31197000  1.0
  O  O66  1  0.66690000  0.92598000  0.81193000  1.0
  O  O67  1  0.16700000  0.57421000  0.68811000  1.0
