# generated using pymatgen
data_ZnH6(C3N2)2
_symmetry_space_group_name_H-M   'P 1'
_cell_length_a   9.90671000
_cell_length_b   14.97360000
_cell_length_c   15.14820000
_cell_angle_alpha   89.99980000
_cell_angle_beta   89.99990000
_cell_angle_gamma   81.41820000
_symmetry_Int_Tables_number   1
_chemical_formula_structural   ZnH6(C3N2)2
_chemical_formula_sum   'Zn8 H48 C48 N32'
_cell_volume   2221.91196784
_cell_formula_units_Z   8
loop_
 _symmetry_equiv_pos_site_id
 _symmetry_equiv_pos_as_xyz
  1  'x, y, z'
loop_
 _atom_site_type_symbol
 _atom_site_label
 _atom_site_symmetry_multiplicity
 _atom_site_fract_x
 _atom_site_fract_y
 _atom_site_fract_z
 _atom_site_occupancy
  Zn  Zn0  1  0.54877000  0.73514000  0.07681000  1.0
  Zn  Zn1  1  0.95123000  0.76486000  0.57681000  1.0
  Zn  Zn2  1  0.45123000  0.26486000  0.92319000  1.0
  Zn  Zn3  1  0.04877000  0.23514000  0.42319000  1.0
  Zn  Zn4  1  0.08543000  0.57962000  0.22367000  1.0
  Zn  Zn5  1  0.41457000  0.92038000  0.72367000  1.0
  Zn  Zn6  1  0.91457000  0.42038000  0.77633000  1.0
  Zn  Zn7  1  0.58543000  0.07962000  0.27633000  1.0
  H  H8  1  0.79011000  0.69669000  0.21436000  1.0
  H  H9  1  0.70989000  0.80331000  0.71436000  1.0
  H  H10  1  0.20989000  0.30331000  0.78564000  1.0
  H  H11  1  0.29010000  0.19670000  0.28564000  1.0
  H  H12  1  0.79186000  0.65170000  0.93969000  1.0
  H  H13  1  0.70814000  0.84831000  0.43969000  1.0
  H  H14  1  0.20814000  0.34830000  0.06031000  1.0
  H  H15  1  0.29186000  0.15169000  0.56031000  1.0
  H  H16  1  0.04506000  0.58004000  0.00963000  1.0
  H  H17  1  0.45494000  0.91996000  0.50964000  1.0
  H  H18  1  0.95494000  0.41995000  0.99037000  1.0
  H  H19  1  0.54506000  0.08004000  0.49037000  1.0
  H  H20  1  0.65210000  0.92478000  0.12224000  1.0
  H  H21  1  0.84790000  0.57522000  0.62224000  1.0
  H  H22  1  0.34790000  0.07522000  0.87776000  1.0
  H  H23  1  0.15210000  0.42478000  0.37776000  1.0
  H  H24  1  0.36905000  0.78683000  0.25262000  1.0
  H  H25  1  0.13095000  0.71317000  0.75262000  1.0
  H  H26  1  0.63095000  0.21317000  0.74738000  1.0
  H  H27  1  0.86905000  0.28683000  0.24738000  1.0
  H  H28  1  0.39257000  0.94485000  0.34381000  1.0
  H  H29  1  0.10743000  0.55515000  0.84381000  1.0
  H  H30  1  0.60743000  0.05515000  0.65619000  1.0
  H  H31  1  0.89257000  0.44485000  0.15619000  1.0
  H  H32  1  0.49628000  0.90617000  0.93478000  1.0
  H  H33  1  0.00373000  0.59383000  0.43478000  1.0
  H  H34  1  0.50372000  0.09383000  0.06522000  1.0
  H  H35  1  0.99628000  0.40617000  0.56522000  1.0
  H  H36  1  0.45006000  0.63165000  0.91757000  1.0
  H  H37  1  0.04993000  0.86835000  0.41757000  1.0
  H  H38  1  0.54994000  0.36835000  0.08243000  1.0
  H  H39  1  0.95006000  0.13165000  0.58243000  1.0
  H  H40  1  0.39434000  0.71322000  0.75395000  1.0
  H  H41  1  0.10566000  0.78678000  0.25395000  1.0
  H  H42  1  0.60566000  0.28678000  0.24605000  1.0
  H  H43  1  0.89434000  0.21322000  0.74605000  1.0
  H  H44  1  0.24144000  0.70791000  0.11412000  1.0
  H  H45  1  0.25856000  0.79209000  0.61412000  1.0
  H  H46  1  0.75856000  0.29209000  0.88588000  1.0
  H  H47  1  0.74144000  0.20791000  0.38588000  1.0
  H  H48  1  0.60537000  0.52654000  0.14824000  1.0
  H  H49  1  0.89463000  0.97346000  0.64823000  1.0
  H  H50  1  0.39463000  0.47346000  0.85176000  1.0
  H  H51  1  0.10537000  0.02654000  0.35177000  1.0
  H  H52  1  0.38754000  0.44998000  0.21612000  1.0
  H  H53  1  0.11246000  0.05002000  0.71612000  1.0
  H  H54  1  0.61246000  0.55002000  0.78387000  1.0
  H  H55  1  0.88754000  0.94998000  0.28388000  1.0
  C  C56  1  0.82520000  0.67455000  0.14888000  1.0
  C  C57  1  0.67480000  0.82545000  0.64888000  1.0
  C  C58  1  0.17480000  0.32545000  0.85112000  1.0
  C  C59  1  0.32520000  0.17455000  0.35113000  1.0
  C  C60  1  0.82898000  0.65041000  0.00713000  1.0
  C  C61  1  0.67102000  0.84959000  0.50713000  1.0
  C  C62  1  0.17102000  0.34959000  0.99287000  1.0
  C  C63  1  0.32897000  0.15041000  0.49287000  1.0
  C  C64  1  0.95434000  0.61493000  0.04164000  1.0
  C  C65  1  0.54566000  0.88507000  0.54165000  1.0
  C  C66  1  0.04566000  0.38507000  0.95835000  1.0
  C  C67  1  0.45434000  0.11494000  0.45836000  1.0
  C  C68  1  0.57691000  0.90913000  0.16976000  1.0
  C  C69  1  0.92309000  0.59087000  0.66975000  1.0
  C  C70  1  0.42309000  0.09087000  0.83024000  1.0
  C  C71  1  0.07691000  0.40913000  0.33025000  1.0
  C  C72  1  0.43033000  0.83933000  0.23830000  1.0
  C  C73  1  0.06967000  0.66067000  0.73830000  1.0
  C  C74  1  0.56967000  0.16067000  0.76170000  1.0
  C  C75  1  0.93034000  0.33933000  0.26170000  1.0
  C  C76  1  0.44253000  0.91729000  0.28392000  1.0
  C  C77  1  0.05747000  0.58270000  0.78392000  1.0
  C  C78  1  0.55747000  0.08271000  0.71608000  1.0
  C  C79  1  0.94253000  0.41729000  0.21608000  1.0
  C  C80  1  0.47544000  0.84243000  0.90780000  1.0
  C  C81  1  0.02457000  0.65757000  0.40780000  1.0
  C  C82  1  0.52457000  0.15757000  0.09220000  1.0
  C  C83  1  0.97543000  0.34243000  0.59220000  1.0
  C  C84  1  0.45036000  0.70094000  0.89679000  1.0
  C  C85  1  0.04964000  0.79906000  0.39679000  1.0
  C  C86  1  0.54963000  0.29906000  0.10321000  1.0
  C  C87  1  0.95036000  0.20094000  0.60321000  1.0
  C  C88  1  0.42298000  0.74155000  0.81588000  1.0
  C  C89  1  0.07701000  0.75845000  0.31588000  1.0
  C  C90  1  0.57701000  0.25845000  0.18412000  1.0
  C  C91  1  0.92298000  0.24154000  0.68412000  1.0
  C  C92  1  0.31139000  0.64818000  0.13335000  1.0
  C  C93  1  0.18861000  0.85182000  0.63335000  1.0
  C  C94  1  0.68861000  0.35182000  0.86665000  1.0
  C  C95  1  0.81139000  0.14818000  0.36665000  1.0
  C  C96  1  0.49734000  0.55286000  0.15139000  1.0
  C  C97  1  0.00267000  0.94714000  0.65139000  1.0
  C  C98  1  0.50266000  0.44715000  0.84860000  1.0
  C  C99  1  0.99734000  0.05286000  0.34861000  1.0
  C  C100  1  0.38954000  0.51531000  0.18557000  1.0
  C  C101  1  0.11046000  0.98469000  0.68557000  1.0
  C  C102  1  0.61046000  0.48469000  0.81442000  1.0
  C  C103  1  0.88954000  0.01531000  0.31443000  1.0
  N  N104  1  0.74777000  0.68818000  0.07568000  1.0
  N  N105  1  0.75223000  0.81182000  0.57568000  1.0
  N  N106  1  0.25223000  0.31182000  0.92432000  1.0
  N  N107  1  0.24777000  0.18818000  0.42432000  1.0
  N  N108  1  0.95099000  0.63046000  0.13158000  1.0
  N  N109  1  0.54901000  0.86954000  0.63158000  1.0
  N  N110  1  0.04901000  0.36954000  0.86842000  1.0
  N  N111  1  0.45099000  0.13046000  0.36842000  1.0
  N  N112  1  0.51571000  0.83471000  0.16575000  1.0
  N  N113  1  0.98429000  0.66530000  0.66575000  1.0
  N  N114  1  0.48429000  0.16529000  0.83425000  1.0
  N  N115  1  0.01571000  0.33470000  0.33425000  1.0
  N  N116  1  0.53583000  0.96120000  0.24009000  1.0
  N  N117  1  0.96417000  0.53880000  0.74008000  1.0
  N  N118  1  0.46417000  0.03880000  0.75991000  1.0
  N  N119  1  0.03582000  0.46120000  0.25992000  1.0
  N  N120  1  0.48360000  0.76547000  0.95478000  1.0
  N  N121  1  0.01640000  0.73453000  0.45478000  1.0
  N  N122  1  0.51640000  0.23454000  0.04522000  1.0
  N  N123  1  0.98360000  0.26546000  0.54522000  1.0
  N  N124  1  0.43882000  0.83135000  0.82337000  1.0
  N  N125  1  0.06118000  0.66865000  0.32337000  1.0
  N  N126  1  0.56118000  0.16865000  0.17663000  1.0
  N  N127  1  0.93882000  0.33135000  0.67663000  1.0
  N  N128  1  0.44678000  0.63723000  0.11853000  1.0
  N  N129  1  0.05323000  0.86277000  0.61853000  1.0
  N  N130  1  0.55323000  0.36277000  0.88147000  1.0
  N  N131  1  0.94678000  0.13723000  0.38147000  1.0
  N  N132  1  0.27192000  0.57635000  0.17394000  1.0
  N  N133  1  0.22808000  0.92365000  0.67394000  1.0
  N  N134  1  0.72808000  0.42365000  0.82606000  1.0
  N  N135  1  0.77192000  0.07635000  0.32606000  1.0
