# generated using pymatgen
data_CuH7C4SN2Cl
_symmetry_space_group_name_H-M   'P 1'
_cell_length_a   7.84737000
_cell_length_b   8.78503000
_cell_length_c   10.47230000
_cell_angle_alpha   89.99990000
_cell_angle_beta   90.00000000
_cell_angle_gamma   95.68770000
_symmetry_Int_Tables_number   1
_chemical_formula_structural   CuH7C4SN2Cl
_chemical_formula_sum   'Cu4 H28 C16 S4 N8 Cl4'
_cell_volume   718.39960445
_cell_formula_units_Z   4
loop_
 _symmetry_equiv_pos_site_id
 _symmetry_equiv_pos_as_xyz
  1  'x, y, z'
loop_
 _atom_site_type_symbol
 _atom_site_label
 _atom_site_symmetry_multiplicity
 _atom_site_fract_x
 _atom_site_fract_y
 _atom_site_fract_z
 _atom_site_occupancy
  Cu  Cu0  1  0.93516000  0.61644000  0.94892000  1.0
  Cu  Cu1  1  0.56484000  0.88356000  0.44892000  1.0
  Cu  Cu2  1  0.06484000  0.38356000  0.05108000  1.0
  Cu  Cu3  1  0.43516000  0.11644000  0.55108000  1.0
  H  H4  1  0.42479000  0.17086000  0.02615000  1.0
  H  H5  1  0.07521000  0.32914000  0.52615000  1.0
  H  H6  1  0.57521000  0.82914000  0.97385000  1.0
  H  H7  1  0.92479000  0.67086000  0.47385000  1.0
  H  H8  1  0.44799000  0.29741000  0.15957000  1.0
  H  H9  1  0.05201000  0.20260000  0.65957000  1.0
  H  H10  1  0.55201000  0.70260000  0.84043000  1.0
  H  H11  1  0.94799000  0.79740000  0.34043000  1.0
  H  H12  1  0.59032000  0.15339000  0.14040000  1.0
  H  H13  1  0.90968000  0.34661000  0.64040000  1.0
  H  H14  1  0.40968000  0.84661000  0.85960000  1.0
  H  H15  1  0.09033000  0.65339000  0.35960000  1.0
  H  H16  1  0.11262000  0.82299000  0.14820000  1.0
  H  H17  1  0.38738000  0.67701000  0.64820000  1.0
  H  H18  1  0.88738000  0.17701000  0.85181000  1.0
  H  H19  1  0.61262000  0.32300000  0.35180000  1.0
  H  H20  1  0.84203000  0.89572000  0.81505000  1.0
  H  H21  1  0.65796000  0.60428000  0.31505000  1.0
  H  H22  1  0.15796000  0.10427000  0.18495000  1.0
  H  H23  1  0.34204000  0.39572000  0.68495000  1.0
  H  H24  1  0.53099000  0.26400000  0.84484000  1.0
  H  H25  1  0.96902000  0.23600000  0.34485000  1.0
  H  H26  1  0.46901000  0.73600000  0.15515000  1.0
  H  H27  1  0.03099000  0.76399000  0.65516000  1.0
  H  H28  1  0.69656000  0.41786000  0.83233000  1.0
  H  H29  1  0.80344000  0.08213000  0.33233000  1.0
  H  H30  1  0.30344000  0.58213000  0.16767000  1.0
  H  H31  1  0.19656000  0.91787000  0.66768000  1.0
  C  C32  1  0.63622000  0.34396000  0.01307000  1.0
  C  C33  1  0.86378000  0.15604000  0.51307000  1.0
  C  C34  1  0.36378000  0.65604000  0.98693000  1.0
  C  C35  1  0.13622000  0.84395000  0.48693000  1.0
  C  C36  1  0.51797000  0.23530000  0.08876000  1.0
  C  C37  1  0.98203000  0.26470000  0.58876000  1.0
  C  C38  1  0.48203000  0.76470000  0.91124000  1.0
  C  C39  1  0.01797000  0.73530000  0.41124000  1.0
  C  C40  1  0.06175000  0.90157000  0.08127000  1.0
  C  C41  1  0.43825000  0.59844000  0.58127000  1.0
  C  C42  1  0.93825000  0.09844000  0.91873000  1.0
  C  C43  1  0.56175000  0.40157000  0.41872000  1.0
  C  C44  1  0.91249000  0.94192000  0.89843000  1.0
  C  C45  1  0.58751000  0.55808000  0.39843000  1.0
  C  C46  1  0.08751000  0.05808000  0.10157000  1.0
  C  C47  1  0.41249000  0.44192000  0.60157000  1.0
  S  S48  1  0.78358000  0.46713000  0.09087000  1.0
  S  S49  1  0.71642000  0.03287000  0.59087000  1.0
  S  S50  1  0.21642000  0.53286000  0.90913000  1.0
  S  S51  1  0.28358000  0.96714000  0.40912000  1.0
  N  N52  1  0.62277000  0.33957000  0.88777000  1.0
  N  N53  1  0.87723000  0.16043000  0.38777000  1.0
  N  N54  1  0.37723000  0.66043000  0.11223000  1.0
  N  N55  1  0.12277000  0.83957000  0.61223000  1.0
  N  N56  1  0.97427000  0.84102000  0.97925000  1.0
  N  N57  1  0.52573000  0.65898000  0.47925000  1.0
  N  N58  1  0.02574000  0.15898000  0.02075000  1.0
  N  N59  1  0.47426000  0.34102000  0.52075000  1.0
  Cl  Cl60  1  0.83357000  0.60275000  0.73506000  1.0
  Cl  Cl61  1  0.66643000  0.89725000  0.23507000  1.0
  Cl  Cl62  1  0.16643000  0.39725000  0.26494000  1.0
  Cl  Cl63  1  0.33357000  0.10275000  0.76494000  1.0
