# generated using pymatgen
data_AgHC3NO2
_symmetry_space_group_name_H-M   'P 1'
_cell_length_a   7.28970000
_cell_length_b   7.28960000
_cell_length_c   14.48710000
_cell_angle_alpha   90.31870000
_cell_angle_beta   90.31760000
_cell_angle_gamma   79.61280000
_symmetry_Int_Tables_number   1
_chemical_formula_structural   AgHC3NO2
_chemical_formula_sum   'Ag8 H8 C24 N8 O16'
_cell_volume   757.19403722
_cell_formula_units_Z   8
loop_
 _symmetry_equiv_pos_site_id
 _symmetry_equiv_pos_as_xyz
  1  'x, y, z'
loop_
 _atom_site_type_symbol
 _atom_site_label
 _atom_site_symmetry_multiplicity
 _atom_site_fract_x
 _atom_site_fract_y
 _atom_site_fract_z
 _atom_site_occupancy
  Ag  Ag0  1  0.16262000  0.74412000  0.57868000  1.0
  Ag  Ag1  1  0.25587000  0.83738000  0.92132000  1.0
  Ag  Ag2  1  0.83738000  0.25587000  0.42132000  1.0
  Ag  Ag3  1  0.74413000  0.16262000  0.07868000  1.0
  Ag  Ag4  1  0.16194000  0.61332000  0.28961000  1.0
  Ag  Ag5  1  0.38669000  0.83808000  0.21040000  1.0
  Ag  Ag6  1  0.83807000  0.38667000  0.71039000  1.0
  Ag  Ag7  1  0.61331000  0.16191000  0.78961000  1.0
  H  H8  1  0.83380000  0.80182000  0.72521000  1.0
  H  H9  1  0.19817000  0.16621000  0.77479000  1.0
  H  H10  1  0.16621000  0.19817000  0.27479000  1.0
  H  H11  1  0.80183000  0.83380000  0.22521000  1.0
  H  H12  1  0.49786000  0.77028000  0.73045000  1.0
  H  H13  1  0.22970000  0.50215000  0.76954000  1.0
  H  H14  1  0.50215000  0.22971000  0.26954000  1.0
  H  H15  1  0.77029000  0.49786000  0.23046000  1.0
  C  C16  1  0.56087000  0.75801000  0.50591000  1.0
  C  C17  1  0.24199000  0.43915000  0.99409000  1.0
  C  C18  1  0.43913000  0.24199000  0.49409000  1.0
  C  C19  1  0.75800000  0.56086000  0.00591000  1.0
  C  C20  1  0.75152000  0.76811000  0.50277000  1.0
  C  C21  1  0.23190000  0.24849000  0.99723000  1.0
  C  C22  1  0.24848000  0.23189000  0.49723000  1.0
  C  C23  1  0.76810000  0.75152000  0.00277000  1.0
  C  C24  1  0.75725000  0.78432000  0.66172000  1.0
  C  C25  1  0.21567000  0.24276000  0.83829000  1.0
  C  C26  1  0.24276000  0.21567000  0.33828000  1.0
  C  C27  1  0.78432000  0.75725000  0.16172000  1.0
  C  C28  1  0.86075000  0.74931000  0.41358000  1.0
  C  C29  1  0.25070000  0.13926000  0.08641000  1.0
  C  C30  1  0.13926000  0.25070000  0.58641000  1.0
  C  C31  1  0.74929000  0.86074000  0.91359000  1.0
  C  C32  1  0.45269000  0.74571000  0.41805000  1.0
  C  C33  1  0.25429000  0.54734000  0.08195000  1.0
  C  C34  1  0.54733000  0.25430000  0.58194000  1.0
  C  C35  1  0.74569000  0.45267000  0.91806000  1.0
  C  C36  1  0.56869000  0.76909000  0.66440000  1.0
  C  C37  1  0.23090000  0.43131000  0.83561000  1.0
  C  C38  1  0.43131000  0.23090000  0.33561000  1.0
  C  C39  1  0.76909000  0.56868000  0.16440000  1.0
  N  N40  1  0.47051000  0.75706000  0.58678000  1.0
  N  N41  1  0.24292000  0.52951000  0.91322000  1.0
  N  N42  1  0.52950000  0.24293000  0.41321000  1.0
  N  N43  1  0.75706000  0.47050000  0.08679000  1.0
  N  N44  1  0.84848000  0.78368000  0.58119000  1.0
  N  N45  1  0.21632000  0.15153000  0.91881000  1.0
  N  N46  1  0.15152000  0.21632000  0.41881000  1.0
  N  N47  1  0.78368000  0.84848000  0.08119000  1.0
  O  O48  1  0.89976000  0.58273000  0.38181000  1.0
  O  O49  1  0.41727000  0.10025000  0.11819000  1.0
  O  O50  1  0.10023000  0.41728000  0.61819000  1.0
  O  O51  1  0.58273000  0.89976000  0.88181000  1.0
  O  O52  1  0.91489000  0.88870000  0.38027000  1.0
  O  O53  1  0.11130000  0.08512000  0.11974000  1.0
  O  O54  1  0.08512000  0.11129000  0.61973000  1.0
  O  O55  1  0.88870000  0.91488000  0.88027000  1.0
  O  O56  1  0.51758000  0.81314000  0.34739000  1.0
  O  O57  1  0.18686000  0.48245000  0.15262000  1.0
  O  O58  1  0.48244000  0.18687000  0.65262000  1.0
  O  O59  1  0.81313000  0.51754000  0.84739000  1.0
  O  O60  1  0.30953000  0.67026000  0.42244000  1.0
  O  O61  1  0.32974000  0.69048000  0.07756000  1.0
  O  O62  1  0.69047000  0.32973000  0.57755000  1.0
  O  O63  1  0.67023000  0.30952000  0.92245000  1.0
