# generated using pymatgen
data_ZnH10C20NO4F3
_symmetry_space_group_name_H-M   'P 1'
_cell_length_a   11.10010000
_cell_length_b   16.36180000
_cell_length_c   17.77490000
_cell_angle_alpha   95.58880000
_cell_angle_beta   90.30240000
_cell_angle_gamma   92.21280000
_symmetry_Int_Tables_number   1
_chemical_formula_structural   ZnH10C20NO4F3
_chemical_formula_sum   'Zn2 H20 C40 N2 O8 F6'
_cell_volume   3210.36102308
_cell_formula_units_Z   2
loop_
 _symmetry_equiv_pos_site_id
 _symmetry_equiv_pos_as_xyz
  1  'x, y, z'
loop_
 _atom_site_type_symbol
 _atom_site_label
 _atom_site_symmetry_multiplicity
 _atom_site_fract_x
 _atom_site_fract_y
 _atom_site_fract_z
 _atom_site_occupancy
  Zn  Zn0  1  0.49470000  0.41347000  0.49768000  1.0
  Zn  Zn1  1  0.50421000  0.58509000  0.50664000  1.0
  H  H2  1  0.37688000  0.71023000  0.42735000  1.0
  H  H3  1  0.37840000  0.86174000  0.42749000  1.0
  H  H4  1  0.66287000  0.87486000  0.59709000  1.0
  H  H5  1  0.64806000  0.72160000  0.58885000  1.0
  H  H6  1  0.33770000  0.12410000  0.40351000  1.0
  H  H7  1  0.62280000  0.13664000  0.57272000  1.0
  H  H8  1  0.62473000  0.28842000  0.57307000  1.0
  H  H9  1  0.35122000  0.27747000  0.41315000  1.0
  H  H10  1  0.50679000  0.61974000  0.26597000  1.0
  H  H11  1  0.50743000  0.61375000  0.12669000  1.0
  H  H12  1  0.49106000  0.34834000  0.11430000  1.0
  H  H13  1  0.49069000  0.35684000  0.25458000  1.0
  H  H14  1  0.50916000  0.65238000  0.89008000  1.0
  H  H15  1  0.49296000  0.38677000  0.87520000  1.0
  H  H16  1  0.49328000  0.38250000  0.73582000  1.0
  H  H17  1  0.50945000  0.64545000  0.74987000  1.0
  H  H18  1  0.78062000  0.59865000  0.40141000  1.0
  H  H19  1  0.89636000  0.68351000  0.31804000  1.0
  H  H20  1  0.22870000  0.59541000  0.39941000  1.0
  H  H21  1  0.12187000  0.68195000  0.31688000  1.0
  C  C22  1  0.49698000  0.49295000  0.35355000  1.0
  C  C23  1  0.26358000  0.49609000  0.50107000  1.0
  C  C24  1  0.50274000  0.51082000  0.64994000  1.0
  C  C25  1  0.73543000  0.49708000  0.50178000  1.0
  C  C26  1  0.43870000  0.74952000  0.46402000  1.0
  C  C27  1  0.44014000  0.83439000  0.46439000  1.0
  C  C28  1  0.52154000  0.88262000  0.51293000  1.0
  C  C29  1  0.59809000  0.84106000  0.55860000  1.0
  C  C30  1  0.59040000  0.75593000  0.55447000  1.0
  C  C31  1  0.53103000  0.97195000  0.51873000  1.0
  C  C32  1  0.46986000  0.02671000  0.48164000  1.0
  C  C33  1  0.40254000  0.15778000  0.44208000  1.0
  C  C34  1  0.47934000  0.11607000  0.48748000  1.0
  C  C35  1  0.56097000  0.16414000  0.53599000  1.0
  C  C36  1  0.56240000  0.24907000  0.53675000  1.0
  C  C37  1  0.40967000  0.24295000  0.44686000  1.0
  C  C38  1  0.49776000  0.48872000  0.26909000  1.0
  C  C39  1  0.50295000  0.56054000  0.23200000  1.0
  C  C40  1  0.50345000  0.55699000  0.15361000  1.0
  C  C41  1  0.49878000  0.48027000  0.10930000  1.0
  C  C42  1  0.49426000  0.40808000  0.14715000  1.0
  C  C43  1  0.49382000  0.41252000  0.22555000  1.0
  C  C44  1  0.49845000  0.47140000  0.02705000  1.0
  C  C45  1  0.50182000  0.52853000  0.97600000  1.0
  C  C46  1  0.50603000  0.59295000  0.85672000  1.0
  C  C47  1  0.50158000  0.52023000  0.89377000  1.0
  C  C48  1  0.49697000  0.44391000  0.84884000  1.0
  C  C49  1  0.49726000  0.44125000  0.77049000  1.0
  C  C50  1  0.50226000  0.51364000  0.73430000  1.0
  C  C51  1  0.50634000  0.58944000  0.77841000  1.0
  C  C52  1  0.87092000  0.49881000  0.49937000  1.0
  C  C53  1  0.93742000  0.54872000  0.45076000  1.0
  C  C54  1  0.93373000  0.45137000  0.54482000  1.0
  C  C55  1  0.87854000  0.59816000  0.40146000  1.0
  C  C56  1  0.94370000  0.64575000  0.35498000  1.0
  C  C57  1  0.12830000  0.49803000  0.49890000  1.0
  C  C58  1  0.06085000  0.45103000  0.54471000  1.0
  C  C59  1  0.06694000  0.54813000  0.45043000  1.0
  C  C60  1  0.13084000  0.59670000  0.40053000  1.0
  C  C61  1  0.07078000  0.64494000  0.35444000  1.0
  N  N62  1  0.51196000  0.71078000  0.50814000  1.0
  N  N63  1  0.48822000  0.28786000  0.49326000  1.0
  O  O64  1  0.49356000  0.42508000  0.38303000  1.0
  O  O65  1  0.50002000  0.56437000  0.38995000  1.0
  O  O66  1  0.32037000  0.56543000  0.50941000  1.0
  O  O67  1  0.30944000  0.42599000  0.49390000  1.0
  O  O68  1  0.50738000  0.57946000  0.62168000  1.0
  O  O69  1  0.49827000  0.43999000  0.61267000  1.0
  O  O70  1  0.68138000  0.42704000  0.49548000  1.0
  O  O71  1  0.68663000  0.56648000  0.50918000  1.0
  F  F72  1  0.61573000  0.00487000  0.57018000  1.0
  F  F73  1  0.38506000  0.99372000  0.43024000  1.0
  F  F74  1  0.49386000  0.39098000  0.99641000  1.0
  F  F75  1  0.50636000  0.60892000  0.00684000  1.0
  F  F76  1  0.11385000  0.40429000  0.59333000  1.0
  F  F77  1  0.87606000  0.40459000  0.59349000  1.0
