# generated using pymatgen
data_CuH10C10S2N3Cl
_symmetry_space_group_name_H-M   'P 1'
_cell_length_a   7.33245000
_cell_length_b   7.39615000
_cell_length_c   12.34560000
_cell_angle_alpha   90.00130000
_cell_angle_beta   90.00040000
_cell_angle_gamma   68.68700000
_symmetry_Int_Tables_number   1
_chemical_formula_structural   CuH10C10S2N3Cl
_chemical_formula_sum   'Cu2 H20 C20 S4 N6 Cl2'
_cell_volume   623.73569314
_cell_formula_units_Z   2
loop_
 _symmetry_equiv_pos_site_id
 _symmetry_equiv_pos_as_xyz
  1  'x, y, z'
loop_
 _atom_site_type_symbol
 _atom_site_label
 _atom_site_symmetry_multiplicity
 _atom_site_fract_x
 _atom_site_fract_y
 _atom_site_fract_z
 _atom_site_occupancy
  Cu  Cu0  1  0.40722000  0.32810000  0.54741000  1.0
  Cu  Cu1  1  0.40721000  0.82810000  0.45260000  1.0
  H  H2  1  0.16903000  0.00208000  0.03929000  1.0
  H  H3  1  0.16903000  0.50207000  0.96070000  1.0
  H  H4  1  0.28412000  0.11051000  0.93671000  1.0
  H  H5  1  0.28411000  0.61051000  0.06329000  1.0
  H  H6  1  0.03725000  0.11221000  0.80199000  1.0
  H  H7  1  0.03725000  0.61220000  0.19800000  1.0
  H  H8  1  0.88619000  0.91371000  0.98458000  1.0
  H  H9  1  0.88617000  0.41369000  0.01541000  1.0
  H  H10  1  0.86724000  0.87959000  0.84239000  1.0
  H  H11  1  0.86724000  0.37959000  0.15761000  1.0
  H  H12  1  0.91582000  0.92015000  0.53716000  1.0
  H  H13  1  0.91581000  0.42016000  0.46284000  1.0
  H  H14  1  0.96559000  0.88740000  0.32930000  1.0
  H  H15  1  0.96559000  0.38742000  0.67070000  1.0
  H  H16  1  0.83710000  0.00730000  0.14405000  1.0
  H  H17  1  0.83713000  0.50734000  0.85595000  1.0
  H  H18  1  0.50723000  0.27905000  0.12797000  1.0
  H  H19  1  0.50725000  0.77909000  0.87204000  1.0
  H  H20  1  0.32645000  0.42317000  0.29861000  1.0
  H  H21  1  0.32646000  0.92320000  0.70140000  1.0
  C  C22  1  0.16817000  0.05670000  0.95696000  1.0
  C  C23  1  0.16817000  0.55669000  0.04303000  1.0
  C  C24  1  0.03360000  0.05682000  0.88378000  1.0
  C  C25  1  0.03359000  0.55682000  0.11621000  1.0
  C  C26  1  0.87292000  0.98302000  0.90487000  1.0
  C  C27  1  0.87292000  0.48300000  0.09513000  1.0
  C  C28  1  0.57646000  0.20450000  0.76667000  1.0
  C  C29  1  0.57645000  0.70450000  0.23333000  1.0
  C  C30  1  0.77724000  0.03678000  0.51851000  1.0
  C  C31  1  0.77723000  0.53678000  0.48149000  1.0
  C  C32  1  0.71444000  0.09330000  0.40874000  1.0
  C  C33  1  0.71443000  0.59332000  0.59126000  1.0
  C  C34  1  0.82546000  0.00578000  0.31800000  1.0
  C  C35  1  0.82547000  0.50580000  0.68199000  1.0
  C  C36  1  0.75247000  0.07328000  0.21569000  1.0
  C  C37  1  0.75249000  0.57331000  0.78432000  1.0
  C  C38  1  0.57074000  0.22319000  0.20637000  1.0
  C  C39  1  0.57076000  0.72323000  0.79364000  1.0
  C  C40  1  0.46804000  0.30423000  0.30072000  1.0
  C  C41  1  0.46805000  0.80426000  0.69929000  1.0
  S  S42  1  0.62937000  0.17634000  0.90459000  1.0
  S  S43  1  0.62936000  0.67634000  0.09541000  1.0
  S  S44  1  0.35189000  0.37422000  0.73161000  1.0
  S  S45  1  0.35189000  0.87421000  0.26840000  1.0
  N  N46  1  0.71194000  0.09616000  0.69912000  1.0
  N  N47  1  0.71193000  0.59616000  0.30088000  1.0
  N  N48  1  0.65943000  0.13444000  0.59466000  1.0
  N  N49  1  0.65941000  0.63445000  0.40534000  1.0
  N  N50  1  0.53851000  0.24211000  0.39891000  1.0
  N  N51  1  0.53850000  0.74213000  0.60110000  1.0
  Cl  Cl52  1  0.19161000  0.61776000  0.48999000  1.0
  Cl  Cl53  1  0.19160000  0.11776000  0.51001000  1.0
