# generated using pymatgen
data_KNiH12C18(NO3)3
_symmetry_space_group_name_H-M   'P 1'
_cell_length_a   10.25930000
_cell_length_b   10.25930000
_cell_length_c   14.00520000
_cell_angle_alpha   68.51220000
_cell_angle_beta   68.51210000
_cell_angle_gamma   59.99820000
_symmetry_Int_Tables_number   1
_chemical_formula_structural   KNiH12C18(NO3)3
_chemical_formula_sum   'K2 Ni2 H24 C36 N6 O18'
_cell_volume   1156.76504728
_cell_formula_units_Z   2
loop_
 _symmetry_equiv_pos_site_id
 _symmetry_equiv_pos_as_xyz
  1  'x, y, z'
loop_
 _atom_site_type_symbol
 _atom_site_label
 _atom_site_symmetry_multiplicity
 _atom_site_fract_x
 _atom_site_fract_y
 _atom_site_fract_z
 _atom_site_occupancy
  K  K0  1  0.41336000  0.41336000  0.75964000  1.0
  K  K1  1  0.91337000  0.91336000  0.25964000  1.0
  Ni  Ni2  1  0.50360000  0.50364000  0.48910000  1.0
  Ni  Ni3  1  0.00364000  0.00359000  0.98910000  1.0
  H  H4  1  0.77001000  0.21673000  0.73486000  1.0
  H  H5  1  0.21669000  0.27842000  0.73483000  1.0
  H  H6  1  0.27837000  0.77005000  0.73486000  1.0
  H  H7  1  0.77842000  0.71669000  0.23483000  1.0
  H  H8  1  0.27005000  0.77837000  0.23486000  1.0
  H  H9  1  0.71673000  0.27001000  0.23486000  1.0
  H  H10  1  0.97148000  0.94200000  0.45819000  1.0
  H  H11  1  0.94192000  0.62846000  0.45815000  1.0
  H  H12  1  0.62845000  0.97138000  0.45814000  1.0
  H  H13  1  0.12846000  0.44191000  0.95815000  1.0
  H  H14  1  0.47138000  0.12844000  0.95814000  1.0
  H  H15  1  0.44200000  0.47147000  0.95819000  1.0
  H  H16  1  0.08264000  0.81462000  0.61927000  1.0
  H  H17  1  0.81452000  0.48359000  0.61929000  1.0
  H  H18  1  0.48359000  0.08258000  0.61926000  1.0
  H  H19  1  0.98359000  0.31452000  0.11929000  1.0
  H  H20  1  0.58258000  0.98359000  0.11926000  1.0
  H  H21  1  0.31463000  0.58264000  0.11927000  1.0
  H  H22  1  0.97088000  0.96965000  0.75978000  1.0
  H  H23  1  0.96957000  0.29982000  0.75977000  1.0
  H  H24  1  0.29984000  0.97082000  0.75975000  1.0
  H  H25  1  0.79982000  0.46957000  0.25977000  1.0
  H  H26  1  0.47082000  0.79984000  0.25975000  1.0
  H  H27  1  0.46965000  0.47088000  0.25978000  1.0
  C  C28  1  0.75661000  0.23750000  0.58568000  1.0
  C  C29  1  0.23742000  0.42028000  0.58565000  1.0
  C  C30  1  0.42018000  0.75663000  0.58567000  1.0
  C  C31  1  0.92028000  0.73742000  0.08565000  1.0
  C  C32  1  0.25662000  0.92018000  0.08568000  1.0
  C  C33  1  0.73751000  0.25660000  0.08568000  1.0
  C  C34  1  0.81263000  0.15346000  0.50569000  1.0
  C  C35  1  0.15335000  0.52832000  0.50569000  1.0
  C  C36  1  0.52830000  0.81256000  0.50572000  1.0
  C  C37  1  0.02832000  0.65335000  0.00569000  1.0
  C  C38  1  0.31256000  0.02830000  0.00572000  1.0
  C  C39  1  0.65346000  0.31263000  0.00569000  1.0
  C  C40  1  0.92854000  0.00363000  0.52013000  1.0
  C  C41  1  0.00346000  0.54794000  0.52015000  1.0
  C  C42  1  0.54792000  0.92839000  0.52013000  1.0
  C  C43  1  0.04794000  0.50346000  0.02015000  1.0
  C  C44  1  0.42839000  0.04792000  0.02014000  1.0
  C  C45  1  0.50363000  0.42853000  0.02013000  1.0
  C  C46  1  0.99091000  0.93122000  0.60990000  1.0
  C  C47  1  0.93106000  0.46823000  0.60994000  1.0
  C  C48  1  0.46822000  0.99076000  0.60991000  1.0
  C  C49  1  0.96823000  0.43106000  0.10994000  1.0
  C  C50  1  0.49077000  0.96822000  0.10991000  1.0
  C  C51  1  0.43123000  0.49090000  0.10990000  1.0
  C  C52  1  0.93250000  0.01292000  0.68662000  1.0
  C  C53  1  0.01279000  0.36819000  0.68664000  1.0
  C  C54  1  0.36817000  0.93241000  0.68660000  1.0
  C  C55  1  0.86818000  0.51279000  0.18664000  1.0
  C  C56  1  0.43240000  0.86817000  0.18660000  1.0
  C  C57  1  0.51292000  0.43250000  0.18662000  1.0
  C  C58  1  0.75138000  0.22190000  0.40777000  1.0
  C  C59  1  0.22187000  0.61892000  0.40774000  1.0
  C  C60  1  0.61893000  0.75140000  0.40778000  1.0
  C  C61  1  0.11892000  0.72187000  0.90774000  1.0
  C  C62  1  0.25140000  0.11892000  0.90778000  1.0
  C  C63  1  0.72191000  0.25137000  0.90777000  1.0
  N  N64  1  0.82010000  0.15825000  0.67345000  1.0
  N  N65  1  0.15814000  0.34835000  0.67346000  1.0
  N  N66  1  0.34829000  0.82006000  0.67345000  1.0
  N  N67  1  0.84836000  0.65814000  0.17346000  1.0
  N  N68  1  0.32006000  0.84829000  0.17345000  1.0
  N  N69  1  0.65825000  0.32010000  0.17345000  1.0
  O  O70  1  0.65607000  0.37616000  0.58567000  1.0
  O  O71  1  0.37614000  0.38199000  0.58559000  1.0
  O  O72  1  0.38192000  0.65623000  0.58563000  1.0
  O  O73  1  0.88200000  0.87614000  0.08559000  1.0
  O  O74  1  0.15622000  0.88192000  0.08563000  1.0
  O  O75  1  0.87616000  0.15607000  0.08567000  1.0
  O  O76  1  0.63339000  0.35113000  0.39671000  1.0
  O  O77  1  0.35110000  0.61873000  0.39668000  1.0
  O  O78  1  0.61872000  0.63343000  0.39670000  1.0
  O  O79  1  0.11873000  0.85110000  0.89668000  1.0
  O  O80  1  0.13343000  0.11872000  0.89670000  1.0
  O  O81  1  0.85113000  0.13338000  0.89672000  1.0
  O  O82  1  0.82091000  0.14639000  0.33573000  1.0
  O  O83  1  0.14641000  0.69681000  0.33567000  1.0
  O  O84  1  0.69683000  0.82100000  0.33570000  1.0
  O  O85  1  0.19681000  0.64641000  0.83567000  1.0
  O  O86  1  0.32100000  0.19683000  0.83570000  1.0
  O  O87  1  0.64640000  0.32091000  0.83573000  1.0
