# generated using pymatgen
data_AgH4C7BrO3
_symmetry_space_group_name_H-M   'P 1'
_cell_length_a   7.21637000
_cell_length_b   8.21067000
_cell_length_c   12.87520000
_cell_angle_alpha   89.99990000
_cell_angle_beta   94.08840000
_cell_angle_gamma   90.00000000
_symmetry_Int_Tables_number   1
_chemical_formula_structural   AgH4C7BrO3
_chemical_formula_sum   'Ag4 H16 C28 Br4 O12'
_cell_volume   760.93014431
_cell_formula_units_Z   4
loop_
 _symmetry_equiv_pos_site_id
 _symmetry_equiv_pos_as_xyz
  1  'x, y, z'
loop_
 _atom_site_type_symbol
 _atom_site_label
 _atom_site_symmetry_multiplicity
 _atom_site_fract_x
 _atom_site_fract_y
 _atom_site_fract_z
 _atom_site_occupancy
  Ag  Ag0  1  0.54382000  0.47139000  0.10595000  1.0
  Ag  Ag1  1  0.95617000  0.97139000  0.39406000  1.0
  Ag  Ag2  1  0.45617000  0.52861000  0.89405000  1.0
  Ag  Ag3  1  0.04384000  0.02862000  0.60594000  1.0
  H  H4  1  0.54717000  0.73273000  0.29326000  1.0
  H  H5  1  0.95282000  0.23273000  0.20674000  1.0
  H  H6  1  0.45282000  0.26727000  0.70673000  1.0
  H  H7  1  0.04718000  0.76726000  0.79326000  1.0
  H  H8  1  0.55519000  0.91389000  0.44690000  1.0
  H  H9  1  0.94481000  0.41389000  0.05310000  1.0
  H  H10  1  0.44481000  0.08611000  0.55309000  1.0
  H  H11  1  0.05519000  0.58611000  0.94691000  1.0
  H  H12  1  0.81457000  0.52960000  0.63566000  1.0
  H  H13  1  0.68544000  0.02960000  0.86434000  1.0
  H  H14  1  0.18543000  0.47041000  0.36434000  1.0
  H  H15  1  0.31457000  0.97041000  0.13566000  1.0
  H  H16  1  0.72491000  0.32544000  0.31794000  1.0
  H  H17  1  0.77508000  0.82544000  0.18207000  1.0
  H  H18  1  0.27509000  0.67456000  0.68207000  1.0
  H  H19  1  0.22492000  0.17456000  0.81793000  1.0
  C  C20  1  0.67722000  0.53090000  0.37691000  1.0
  C  C21  1  0.82278000  0.03090000  0.12309000  1.0
  C  C22  1  0.32279000  0.46910000  0.62309000  1.0
  C  C23  1  0.17722000  0.96909000  0.87691000  1.0
  C  C24  1  0.60794000  0.69017000  0.36825000  1.0
  C  C25  1  0.89206000  0.19017000  0.13175000  1.0
  C  C26  1  0.39207000  0.30983000  0.63175000  1.0
  C  C27  1  0.10794000  0.80982000  0.86825000  1.0
  C  C28  1  0.61248000  0.79156000  0.45497000  1.0
  C  C29  1  0.88752000  0.29155000  0.04503000  1.0
  C  C30  1  0.38752000  0.20845000  0.54502000  1.0
  C  C31  1  0.11248000  0.70844000  0.95497000  1.0
  C  C32  1  0.68469000  0.73211000  0.55140000  1.0
  C  C33  1  0.81531000  0.23211000  0.94861000  1.0
  C  C34  1  0.31532000  0.26790000  0.44860000  1.0
  C  C35  1  0.18469000  0.76789000  0.05140000  1.0
  C  C36  1  0.75535000  0.57564000  0.56136000  1.0
  C  C37  1  0.74465000  0.07563000  0.93865000  1.0
  C  C38  1  0.24465000  0.42437000  0.43864000  1.0
  C  C39  1  0.25535000  0.92437000  0.06136000  1.0
  C  C40  1  0.75296000  0.47266000  0.47446000  1.0
  C  C41  1  0.74704000  0.97266000  0.02555000  1.0
  C  C42  1  0.24705000  0.52734000  0.52555000  1.0
  C  C43  1  0.25296000  0.02734000  0.97445000  1.0
  C  C44  1  0.83081000  0.30521000  0.48626000  1.0
  C  C45  1  0.66920000  0.80521000  0.01374000  1.0
  C  C46  1  0.16920000  0.69479000  0.51374000  1.0
  C  C47  1  0.33080000  0.19479000  0.98626000  1.0
  Br  Br48  1  0.68632000  0.86694000  0.67251000  1.0
  Br  Br49  1  0.81366000  0.36695000  0.82749000  1.0
  Br  Br50  1  0.31368000  0.13308000  0.32748000  1.0
  Br  Br51  1  0.18631000  0.63307000  0.17252000  1.0
  O  O52  1  0.66964000  0.43417000  0.29157000  1.0
  O  O53  1  0.83035000  0.93417000  0.20844000  1.0
  O  O54  1  0.33036000  0.56583000  0.70843000  1.0
  O  O55  1  0.16965000  0.06582000  0.79156000  1.0
  O  O56  1  0.82201000  0.21592000  0.40270000  1.0
  O  O57  1  0.67799000  0.71592000  0.09730000  1.0
  O  O58  1  0.17800000  0.78408000  0.59730000  1.0
  O  O59  1  0.32200000  0.28408000  0.90269000  1.0
  O  O60  1  0.89963000  0.26136000  0.57459000  1.0
  O  O61  1  0.60038000  0.76136000  0.92541000  1.0
  O  O62  1  0.10038000  0.73864000  0.42541000  1.0
  O  O63  1  0.39961000  0.23864000  0.07458000  1.0
