# generated using pymatgen
data_CdH16C22N2O5
_symmetry_space_group_name_H-M   'P 1'
_cell_length_a   8.80048000
_cell_length_b   11.14380000
_cell_length_c   12.58760000
_cell_angle_alpha   111.39200000
_cell_angle_beta   109.76000000
_cell_angle_gamma   94.61660000
_symmetry_Int_Tables_number   1
_chemical_formula_structural   CdH16C22N2O5
_chemical_formula_sum   'Cd2 H32 C44 N4 O10'
_cell_volume   1052.08363954
_cell_formula_units_Z   2
loop_
 _symmetry_equiv_pos_site_id
 _symmetry_equiv_pos_as_xyz
  1  'x, y, z'
loop_
 _atom_site_type_symbol
 _atom_site_label
 _atom_site_symmetry_multiplicity
 _atom_site_fract_x
 _atom_site_fract_y
 _atom_site_fract_z
 _atom_site_occupancy
  Cd  Cd0  1  0.11224000  0.37693000  0.53260000  1.0
  Cd  Cd1  1  0.88776000  0.62308000  0.46740000  1.0
  H  H2  1  0.68365000  0.23631000  0.64214000  1.0
  H  H3  1  0.31635000  0.76369000  0.35785000  1.0
  H  H4  1  0.77735000  0.17091000  0.81952000  1.0
  H  H5  1  0.22265000  0.82909000  0.18048000  1.0
  H  H6  1  0.81873000  0.57016000  0.06949000  1.0
  H  H7  1  0.18128000  0.42984000  0.93051000  1.0
  H  H8  1  0.72816000  0.63297000  0.89391000  1.0
  H  H9  1  0.27183000  0.36703000  0.10609000  1.0
  H  H10  1  0.66733000  0.41613000  0.57059000  1.0
  H  H11  1  0.33267000  0.58387000  0.42941000  1.0
  H  H12  1  0.68506000  0.58137000  0.67449000  1.0
  H  H13  1  0.31493000  0.41863000  0.32551000  1.0
  H  H14  1  0.77187000  0.44464000  0.17812000  1.0
  H  H15  1  0.22814000  0.55536000  0.82188000  1.0
  H  H16  1  0.97769000  0.50339000  0.19530000  1.0
  H  H17  1  0.02231000  0.49662000  0.80470000  1.0
  H  H18  1  0.41210000  0.38159000  0.79064000  1.0
  H  H19  1  0.58790000  0.61840000  0.20935000  1.0
  H  H20  1  0.46056000  0.25758000  0.92479000  1.0
  H  H21  1  0.53944000  0.74241000  0.07520000  1.0
  H  H22  1  0.23035000  0.07001000  0.87525000  1.0
  H  H23  1  0.76964000  0.92998000  0.12474000  1.0
  H  H24  1  0.51412000  0.92494000  0.37788000  1.0
  H  H25  1  0.48587000  0.07506000  0.62212000  1.0
  H  H26  1  0.48267000  0.07541000  0.26790000  1.0
  H  H27  1  0.51733000  0.92459000  0.73210000  1.0
  H  H28  1  0.72309000  0.26243000  0.33829000  1.0
  H  H29  1  0.27691000  0.73757000  0.66171000  1.0
  H  H30  1  0.94720000  0.92581000  0.73379000  1.0
  H  H31  1  0.05279000  0.07418000  0.26621000  1.0
  H  H32  1  0.68689000  0.87185000  0.55181000  1.0
  H  H33  1  0.31311000  0.12815000  0.44818000  1.0
  C  C34  1  0.70000000  0.43942000  0.75532000  1.0
  C  C35  1  0.30000000  0.56058000  0.24469000  1.0
  C  C36  1  0.71395000  0.30932000  0.73639000  1.0
  C  C37  1  0.28605000  0.69068000  0.26361000  1.0
  C  C38  1  0.76449000  0.27165000  0.83453000  1.0
  C  C39  1  0.23552000  0.72835000  0.16548000  1.0
  C  C40  1  0.80135000  0.36487000  0.95579000  1.0
  C  C41  1  0.19866000  0.63514000  0.04422000  1.0
  C  C42  1  0.78794000  0.49529000  0.97640000  1.0
  C  C43  1  0.21207000  0.50472000  0.02361000  1.0
  C  C44  1  0.73772000  0.53115000  0.87670000  1.0
  C  C45  1  0.26229000  0.46886000  0.12330000  1.0
  C  C46  1  0.63495000  0.47636000  0.64699000  1.0
  C  C47  1  0.36504000  0.52365000  0.35300000  1.0
  C  C48  1  0.44676000  0.45068000  0.60288000  1.0
  C  C49  1  0.55324000  0.54932000  0.39712000  1.0
  C  C50  1  0.88518000  0.41419000  0.16993000  1.0
  C  C51  1  0.11483000  0.58581000  0.83007000  1.0
  C  C52  1  0.95586000  0.35669000  0.26377000  1.0
  C  C53  1  0.04415000  0.64331000  0.73623000  1.0
  C  C54  1  0.31507000  0.30022000  0.77198000  1.0
  C  C55  1  0.68493000  0.69978000  0.22801000  1.0
  C  C56  1  0.34133000  0.23019000  0.84721000  1.0
  C  C57  1  0.65867000  0.76980000  0.15279000  1.0
  C  C58  1  0.21505000  0.12762000  0.81996000  1.0
  C  C59  1  0.78495000  0.87238000  0.18004000  1.0
  C  C60  1  0.06331000  0.09449000  0.71712000  1.0
  C  C61  1  0.93668000  0.90551000  0.28288000  1.0
  C  C62  1  0.04768000  0.17140000  0.64683000  1.0
  C  C63  1  0.95232000  0.82860000  0.35317000  1.0
  C  C64  1  0.89369000  0.14139000  0.54133000  1.0
  C  C65  1  0.10630000  0.85861000  0.45867000  1.0
  C  C66  1  0.76365000  0.03371000  0.50905000  1.0
  C  C67  1  0.23635000  0.96629000  0.49095000  1.0
  C  C68  1  0.61447000  0.00874000  0.40675000  1.0
  C  C69  1  0.38553000  0.99125000  0.59325000  1.0
  C  C70  1  0.59754000  0.09055000  0.34530000  1.0
  C  C71  1  0.40246000  0.90945000  0.65470000  1.0
  C  C72  1  0.73225000  0.19496000  0.38361000  1.0
  C  C73  1  0.26775000  0.80504000  0.61639000  1.0
  C  C74  1  0.92966000  0.98679000  0.68158000  1.0
  C  C75  1  0.07033000  0.01320000  0.31841000  1.0
  C  C76  1  0.78571000  0.95695000  0.58055000  1.0
  C  C77  1  0.21429000  0.04305000  0.41945000  1.0
  N  N78  1  0.17243000  0.27230000  0.67573000  1.0
  N  N79  1  0.82757000  0.72769000  0.32427000  1.0
  N  N80  1  0.87604000  0.21777000  0.47724000  1.0
  N  N81  1  0.12396000  0.78223000  0.52276000  1.0
  O  O82  1  0.38236000  0.53350000  0.66372000  1.0
  O  O83  1  0.61764000  0.46650000  0.33628000  1.0
  O  O84  1  0.35970000  0.34193000  0.50945000  1.0
  O  O85  1  0.64029000  0.65807000  0.49055000  1.0
  O  O86  1  0.84937000  0.31994000  0.04693000  1.0
  O  O87  1  0.15065000  0.68006000  0.95307000  1.0
  O  O88  1  0.99482000  0.44293000  0.37784000  1.0
  O  O89  1  0.00518000  0.55708000  0.62216000  1.0
  O  O90  1  0.97450000  0.24196000  0.23384000  1.0
  O  O91  1  0.02550000  0.75805000  0.76617000  1.0
