# generated using pymatgen
data_ZnH32C34(NO)4
_symmetry_space_group_name_H-M   'P 1'
_cell_length_a   8.66001000
_cell_length_b   11.77130000
_cell_length_c   16.28630000
_cell_angle_alpha   99.88110000
_cell_angle_beta   90.00000000
_cell_angle_gamma   111.58300000
_symmetry_Int_Tables_number   1
_chemical_formula_structural   ZnH32C34(NO)4
_chemical_formula_sum   'Zn2 H64 C68 N8 O8'
_cell_volume   1517.29746791
_cell_formula_units_Z   2
loop_
 _symmetry_equiv_pos_site_id
 _symmetry_equiv_pos_as_xyz
  1  'x, y, z'
loop_
 _atom_site_type_symbol
 _atom_site_label
 _atom_site_symmetry_multiplicity
 _atom_site_fract_x
 _atom_site_fract_y
 _atom_site_fract_z
 _atom_site_occupancy
  Zn  Zn0  1  0.33545000  0.99982000  0.74999000  1.0
  Zn  Zn1  1  0.66454000  0.00018000  0.25001000  1.0
  H  H2  1  0.48727000  0.83499000  0.77086000  1.0
  H  H3  1  0.65247000  0.16431000  0.72907000  1.0
  H  H4  1  0.51273000  0.16500000  0.22915000  1.0
  H  H5  1  0.34752000  0.83568000  0.27094000  1.0
  H  H6  1  0.48489000  0.78685000  0.86844000  1.0
  H  H7  1  0.69805000  0.21249000  0.63147000  1.0
  H  H8  1  0.51512000  0.21314000  0.13156000  1.0
  H  H9  1  0.30195000  0.78751000  0.36853000  1.0
  H  H10  1  0.67556000  0.84479000  0.82087000  1.0
  H  H11  1  0.83070000  0.15431000  0.67889000  1.0
  H  H12  1  0.32444000  0.15521000  0.17914000  1.0
  H  H13  1  0.16929000  0.84569000  0.32112000  1.0
  H  H14  1  0.82449000  0.23803000  0.08779000  1.0
  H  H15  1  0.58550000  0.76092000  0.41216000  1.0
  H  H16  1  0.17549000  0.76197000  0.91222000  1.0
  H  H17  1  0.41451000  0.23908000  0.58784000  1.0
  H  H18  1  0.47444000  0.29336000  0.86132000  1.0
  H  H19  1  0.17992000  0.70646000  0.63850000  1.0
  H  H20  1  0.52555000  0.70664000  0.13868000  1.0
  H  H21  1  0.82008000  0.29354000  0.36149000  1.0
  H  H22  1  0.78406000  0.43892000  0.09268000  1.0
  H  H23  1  0.34373000  0.56032000  0.40725000  1.0
  H  H24  1  0.21593000  0.56108000  0.90732000  1.0
  H  H25  1  0.65629000  0.43969000  0.59275000  1.0
  H  H26  1  0.61081000  0.46486000  0.98276000  1.0
  H  H27  1  0.14439000  0.53476000  0.51713000  1.0
  H  H28  1  0.38918000  0.53513000  0.01724000  1.0
  H  H29  1  0.85562000  0.46523000  0.48287000  1.0
  H  H30  1  0.70819000  0.88354000  0.97955000  1.0
  H  H31  1  0.82380000  0.11561000  0.52019000  1.0
  H  H32  1  0.29182000  0.11647000  0.02045000  1.0
  H  H33  1  0.17620000  0.88440000  0.47982000  1.0
  H  H34  1  0.75944000  0.01394000  0.06107000  1.0
  H  H35  1  0.74496000  0.98503000  0.43877000  1.0
  H  H36  1  0.24056000  0.98606000  0.93894000  1.0
  H  H37  1  0.25505000  0.01498000  0.56123000  1.0
  H  H38  1  0.00918000  0.12876000  0.98750000  1.0
  H  H39  1  0.88101000  0.87095000  0.51238000  1.0
  H  H40  1  0.99082000  0.87125000  0.01250000  1.0
  H  H41  1  0.11900000  0.12905000  0.48762000  1.0
  H  H42  1  0.96304000  0.99862000  0.90717000  1.0
  H  H43  1  0.96421000  0.00111000  0.59278000  1.0
  H  H44  1  0.03696000  0.00139000  0.09283000  1.0
  H  H45  1  0.03579000  0.99890000  0.40722000  1.0
  H  H46  1  0.92607000  0.70578000  0.86667000  1.0
  H  H47  1  0.22148000  0.29474000  0.63349000  1.0
  H  H48  1  0.07392000  0.29421000  0.13333000  1.0
  H  H49  1  0.77852000  0.70525000  0.36650000  1.0
  H  H50  1  0.64014000  0.55466000  0.87775000  1.0
  H  H51  1  0.08660000  0.44579000  0.62242000  1.0
  H  H52  1  0.35986000  0.44532000  0.12225000  1.0
  H  H53  1  0.91340000  0.55421000  0.37758000  1.0
  H  H54  1  0.42290000  0.49790000  0.76170000  1.0
  H  H55  1  0.92528000  0.50200000  0.73829000  1.0
  H  H56  1  0.57709000  0.50209000  0.23829000  1.0
  H  H57  1  0.07473000  0.49801000  0.26171000  1.0
  H  H58  1  0.49202000  0.59386000  0.63477000  1.0
  H  H59  1  0.89806000  0.40577000  0.86508000  1.0
  H  H60  1  0.50798000  0.40614000  0.36523000  1.0
  H  H61  1  0.10194000  0.59423000  0.13491000  1.0
  H  H62  1  0.77973000  0.74622000  0.62492000  1.0
  H  H63  1  0.03362000  0.25359000  0.87498000  1.0
  H  H64  1  0.22027000  0.25379000  0.37509000  1.0
  H  H65  1  0.96638000  0.74642000  0.12502000  1.0
  C  C66  1  0.55611000  0.85566000  0.83119000  1.0
  C  C67  1  0.70043000  0.14359000  0.66867000  1.0
  C  C68  1  0.44389000  0.14434000  0.16881000  1.0
  C  C69  1  0.29956000  0.85640000  0.33134000  1.0
  C  C70  1  0.58208000  0.98309000  0.87416000  1.0
  C  C71  1  0.59868000  0.01619000  0.62574000  1.0
  C  C72  1  0.41792000  0.01691000  0.12584000  1.0
  C  C73  1  0.40132000  0.98381000  0.37426000  1.0
  C  C74  1  0.67822000  0.15770000  0.96897000  1.0
  C  C75  1  0.51976000  0.84149000  0.53098000  1.0
  C  C76  1  0.32178000  0.84230000  0.03103000  1.0
  C  C77  1  0.48024000  0.15851000  0.46902000  1.0
  C  C78  1  0.57696000  0.17043000  0.90562000  1.0
  C  C79  1  0.40575000  0.82901000  0.59431000  1.0
  C  C80  1  0.42304000  0.82957000  0.09438000  1.0
  C  C81  1  0.59425000  0.17099000  0.40569000  1.0
  C  C82  1  0.75459000  0.25216000  0.03735000  1.0
  C  C83  1  0.50144000  0.74695000  0.46262000  1.0
  C  C84  1  0.24541000  0.74784000  0.96266000  1.0
  C  C85  1  0.49857000  0.25305000  0.53738000  1.0
  C  C86  1  0.55152000  0.28191000  0.90948000  1.0
  C  C87  1  0.26854000  0.71767000  0.59040000  1.0
  C  C88  1  0.44847000  0.71809000  0.09052000  1.0
  C  C89  1  0.73147000  0.28233000  0.40960000  1.0
  C  C90  1  0.72792000  0.36260000  0.04029000  1.0
  C  C91  1  0.36404000  0.63666000  0.45963000  1.0
  C  C92  1  0.27208000  0.63740000  0.95971000  1.0
  C  C93  1  0.63596000  0.36334000  0.54037000  1.0
  C  C94  1  0.62842000  0.37687000  0.97744000  1.0
  C  C95  1  0.25023000  0.62265000  0.52244000  1.0
  C  C96  1  0.37158000  0.62314000  0.02256000  1.0
  C  C97  1  0.74979000  0.37735000  0.47756000  1.0
  C  C98  1  0.76989000  0.98515000  0.99418000  1.0
  C  C99  1  0.78418000  0.01399000  0.50566000  1.0
  C  C100  1  0.23011000  0.01485000  0.00583000  1.0
  C  C101  1  0.21582000  0.98601000  0.49434000  1.0
  C  C102  1  0.95237000  0.02641000  0.97426000  1.0
  C  C103  1  0.92591000  0.97329000  0.52567000  1.0
  C  C104  1  0.04764000  0.97360000  0.02574000  1.0
  C  C105  1  0.07409000  0.02672000  0.47433000  1.0
  C  C106  1  0.04045000  0.82777000  0.73651000  1.0
  C  C107  1  0.21315000  0.17224000  0.76356000  1.0
  C  C108  1  0.95954000  0.17223000  0.26349000  1.0
  C  C109  1  0.78685000  0.82776000  0.23644000  1.0
  C  C110  1  0.87051000  0.73440000  0.74458000  1.0
  C  C111  1  0.13663000  0.26564000  0.75543000  1.0
  C  C112  1  0.12948000  0.26560000  0.25542000  1.0
  C  C113  1  0.86338000  0.73436000  0.24457000  1.0
  C  C114  1  0.83066000  0.68030000  0.81597000  1.0
  C  C115  1  0.15118000  0.31994000  0.68411000  1.0
  C  C116  1  0.16934000  0.31969000  0.18403000  1.0
  C  C117  1  0.84882000  0.68006000  0.31589000  1.0
  C  C118  1  0.67026000  0.59557000  0.82189000  1.0
  C  C119  1  0.07544000  0.40461000  0.67817000  1.0
  C  C120  1  0.32974000  0.40442000  0.17810000  1.0
  C  C121  1  0.92456000  0.59539000  0.32182000  1.0
  C  C122  1  0.54829000  0.56371000  0.75678000  1.0
  C  C123  1  0.98489000  0.43620000  0.74317000  1.0
  C  C124  1  0.45171000  0.43628000  0.24322000  1.0
  C  C125  1  0.01511000  0.56381000  0.25683000  1.0
  C  C126  1  0.58711000  0.61720000  0.68541000  1.0
  C  C127  1  0.96998000  0.38258000  0.81448000  1.0
  C  C128  1  0.41289000  0.38280000  0.31459000  1.0
  C  C129  1  0.03003000  0.61743000  0.18552000  1.0
  C  C130  1  0.74724000  0.70217000  0.67947000  1.0
  C  C131  1  0.04524000  0.29768000  0.82044000  1.0
  C  C132  1  0.25275000  0.29784000  0.32053000  1.0
  C  C133  1  0.95476000  0.70232000  0.17955000  1.0
  N  N134  1  0.67762000  0.03824000  0.94745000  1.0
  N  N135  1  0.63890000  0.96086000  0.55247000  1.0
  N  N136  1  0.32238000  0.96176000  0.05255000  1.0
  N  N137  1  0.36110000  0.03914000  0.44754000  1.0
  N  N138  1  0.51809000  0.05940000  0.84772000  1.0
  N  N139  1  0.45818000  0.94010000  0.65217000  1.0
  N  N140  1  0.48191000  0.94060000  0.15228000  1.0
  N  N141  1  0.54182000  0.05990000  0.34783000  1.0
  O  O142  1  0.15886000  0.84704000  0.79186000  1.0
  O  O143  1  0.31228000  0.15288000  0.70824000  1.0
  O  O144  1  0.84113000  0.15297000  0.20814000  1.0
  O  O145  1  0.68771000  0.84711000  0.29176000  1.0
  O  O146  1  0.06426000  0.88444000  0.67581000  1.0
  O  O147  1  0.17994000  0.11544000  0.82420000  1.0
  O  O148  1  0.93574000  0.11555000  0.32419000  1.0
  O  O149  1  0.82005000  0.88456000  0.17581000  1.0
