# generated using pymatgen
data_ZnH6C12N2(ClO2)2
_symmetry_space_group_name_H-M   'P 1'
_cell_length_a   7.76920000
_cell_length_b   7.77706000
_cell_length_c   24.68940000
_cell_angle_alpha   89.99990000
_cell_angle_beta   91.21630000
_cell_angle_gamma   89.99820000
_symmetry_Int_Tables_number   1
_chemical_formula_structural   ZnH6C12N2(ClO2)2
_chemical_formula_sum   'Zn4 H24 C48 N8 Cl8 O16'
_cell_volume   1491.43531615
_cell_formula_units_Z   4
loop_
 _symmetry_equiv_pos_site_id
 _symmetry_equiv_pos_as_xyz
  1  'x, y, z'
loop_
 _atom_site_type_symbol
 _atom_site_label
 _atom_site_symmetry_multiplicity
 _atom_site_fract_x
 _atom_site_fract_y
 _atom_site_fract_z
 _atom_site_occupancy
  Zn  Zn0  1  0.41381000  0.88084000  0.39681000  1.0
  Zn  Zn1  1  0.58619000  0.88082000  0.10319000  1.0
  Zn  Zn2  1  0.58619000  0.11917000  0.60318000  1.0
  Zn  Zn3  1  0.41384000  0.11915000  0.89682000  1.0
  H  H4  1  0.44274000  0.49815000  0.40841000  1.0
  H  H5  1  0.55729000  0.49813000  0.09158000  1.0
  H  H6  1  0.55724000  0.50185000  0.59158000  1.0
  H  H7  1  0.44277000  0.50184000  0.90843000  1.0
  H  H8  1  0.29620000  0.81768000  0.28065000  1.0
  H  H9  1  0.70378000  0.81767000  0.21935000  1.0
  H  H10  1  0.70380000  0.18233000  0.71935000  1.0
  H  H11  1  0.29625000  0.18231000  0.78066000  1.0
  H  H12  1  0.24551000  0.26523000  0.26135000  1.0
  H  H13  1  0.75440000  0.26521000  0.23866000  1.0
  H  H14  1  0.75441000  0.73478000  0.73865000  1.0
  H  H15  1  0.24561000  0.73476000  0.76136000  1.0
  H  H16  1  0.03384000  0.90693000  0.38367000  1.0
  H  H17  1  0.96617000  0.90690000  0.11632000  1.0
  H  H18  1  0.96617000  0.09310000  0.61632000  1.0
  H  H19  1  0.03385000  0.09309000  0.88368000  1.0
  H  H20  1  0.35580000  0.76381000  0.51327000  1.0
  H  H21  1  0.64419000  0.76381000  0.98673000  1.0
  H  H22  1  0.64418000  0.23619000  0.48673000  1.0
  H  H23  1  0.35582000  0.23618000  0.01328000  1.0
  H  H24  1  0.80097000  0.72064000  0.52895000  1.0
  H  H25  1  0.19902000  0.72061000  0.97104000  1.0
  H  H26  1  0.19901000  0.27940000  0.47104000  1.0
  H  H27  1  0.80099000  0.27941000  0.02896000  1.0
  C  C28  1  0.34606000  0.36083000  0.33792000  1.0
  C  C29  1  0.65391000  0.36080000  0.16208000  1.0
  C  C30  1  0.65390000  0.63918000  0.66207000  1.0
  C  C31  1  0.34612000  0.63917000  0.83793000  1.0
  C  C32  1  0.39051000  0.50837000  0.36721000  1.0
  C  C33  1  0.60948000  0.50834000  0.13279000  1.0
  C  C34  1  0.60946000  0.49164000  0.63279000  1.0
  C  C35  1  0.39055000  0.49163000  0.86722000  1.0
  C  C36  1  0.30959000  0.68635000  0.29556000  1.0
  C  C37  1  0.69038000  0.68633000  0.20444000  1.0
  C  C38  1  0.69038000  0.31366000  0.70444000  1.0
  C  C39  1  0.30964000  0.31364000  0.79557000  1.0
  C  C40  1  0.26328000  0.54425000  0.26390000  1.0
  C  C41  1  0.73667000  0.54423000  0.23610000  1.0
  C  C42  1  0.73667000  0.45576000  0.73610000  1.0
  C  C43  1  0.26335000  0.45574000  0.76391000  1.0
  C  C44  1  0.28112000  0.37864000  0.28497000  1.0
  C  C45  1  0.71883000  0.37862000  0.21504000  1.0
  C  C46  1  0.71882000  0.62137000  0.71503000  1.0
  C  C47  1  0.28119000  0.62135000  0.78498000  1.0
  C  C48  1  0.36774000  0.18862000  0.36448000  1.0
  C  C49  1  0.63224000  0.18859000  0.13553000  1.0
  C  C50  1  0.63223000  0.81139000  0.63552000  1.0
  C  C51  1  0.36779000  0.81138000  0.86448000  1.0
  C  C52  1  0.89767000  0.81349000  0.45308000  1.0
  C  C53  1  0.10233000  0.81345000  0.04691000  1.0
  C  C54  1  0.10232000  0.18655000  0.54691000  1.0
  C  C55  1  0.89769000  0.18655000  0.95309000  1.0
  C  C56  1  0.04510000  0.85531000  0.42467000  1.0
  C  C57  1  0.95491000  0.85528000  0.07532000  1.0
  C  C58  1  0.95491000  0.14472000  0.57532000  1.0
  C  C59  1  0.04511000  0.14471000  0.92468000  1.0
  C  C60  1  0.22440000  0.77532000  0.49711000  1.0
  C  C61  1  0.77559000  0.77532000  0.00288000  1.0
  C  C62  1  0.77559000  0.22468000  0.50288000  1.0
  C  C63  1  0.22442000  0.22467000  0.99712000  1.0
  C  C64  1  0.08149000  0.73216000  0.52778000  1.0
  C  C65  1  0.91850000  0.73215000  0.97222000  1.0
  C  C66  1  0.91849000  0.26786000  0.47222000  1.0
  C  C67  1  0.08151000  0.26786000  0.02779000  1.0
  C  C68  1  0.91545000  0.75027000  0.50584000  1.0
  C  C69  1  0.08454000  0.75024000  0.99415000  1.0
  C  C70  1  0.08453000  0.24977000  0.49415000  1.0
  C  C71  1  0.91547000  0.24977000  0.00585000  1.0
  C  C72  1  0.72433000  0.84019000  0.42683000  1.0
  C  C73  1  0.27568000  0.84014000  0.07316000  1.0
  C  C74  1  0.27567000  0.15985000  0.57316000  1.0
  C  C75  1  0.72434000  0.15984000  0.92684000  1.0
  N  N76  1  0.37169000  0.66679000  0.34637000  1.0
  N  N77  1  0.62829000  0.66677000  0.15362000  1.0
  N  N78  1  0.62828000  0.33322000  0.65362000  1.0
  N  N79  1  0.37174000  0.33320000  0.84639000  1.0
  N  N80  1  0.20396000  0.83537000  0.44619000  1.0
  N  N81  1  0.79604000  0.83535000  0.05380000  1.0
  N  N82  1  0.79604000  0.16464000  0.55380000  1.0
  N  N83  1  0.20398000  0.16463000  0.94620000  1.0
  Cl  Cl84  1  0.18331000  0.57938000  0.19931000  1.0
  Cl  Cl85  1  0.81663000  0.57937000  0.30069000  1.0
  Cl  Cl86  1  0.81665000  0.42063000  0.80068000  1.0
  Cl  Cl87  1  0.18339000  0.42062000  0.69932000  1.0
  Cl  Cl88  1  0.11245000  0.65813000  0.59299000  1.0
  Cl  Cl89  1  0.88754000  0.65813000  0.90700000  1.0
  Cl  Cl90  1  0.88752000  0.34188000  0.40700000  1.0
  Cl  Cl91  1  0.11248000  0.34189000  0.09300000  1.0
  O  O92  1  0.42064000  0.18128000  0.41315000  1.0
  O  O93  1  0.57938000  0.18124000  0.08685000  1.0
  O  O94  1  0.57937000  0.81873000  0.58684000  1.0
  O  O95  1  0.42067000  0.81872000  0.91316000  1.0
  O  O96  1  0.33086000  0.05397000  0.33643000  1.0
  O  O97  1  0.66910000  0.05394000  0.16358000  1.0
  O  O98  1  0.66910000  0.94604000  0.66357000  1.0
  O  O99  1  0.33092000  0.94603000  0.83643000  1.0
  O  O100  1  0.71253000  0.91562000  0.38171000  1.0
  O  O101  1  0.28748000  0.91560000  0.11827000  1.0
  O  O102  1  0.28749000  0.08439000  0.61827000  1.0
  O  O103  1  0.71253000  0.08440000  0.88173000  1.0
  O  O104  1  0.59253000  0.78498000  0.45233000  1.0
  O  O105  1  0.40749000  0.78492000  0.04766000  1.0
  O  O106  1  0.40748000  0.21508000  0.54766000  1.0
  O  O107  1  0.59254000  0.21506000  0.95234000  1.0
