# generated using pymatgen
data_CdH36C36Br2N4O5
_symmetry_space_group_name_H-M   'P 1'
_cell_length_a   5.79317000
_cell_length_b   12.25940000
_cell_length_c   13.28810000
_cell_angle_alpha   68.35600000
_cell_angle_beta   89.28310000
_cell_angle_gamma   86.43500000
_symmetry_Int_Tables_number   1
_chemical_formula_structural   CdH36C36Br2N4O5
_chemical_formula_sum   'Cd1 H36 C36 Br2 N4 O5'
_cell_volume   875.43944200
_cell_formula_units_Z   1
loop_
 _symmetry_equiv_pos_site_id
 _symmetry_equiv_pos_as_xyz
  1  'x, y, z'
loop_
 _atom_site_type_symbol
 _atom_site_label
 _atom_site_symmetry_multiplicity
 _atom_site_fract_x
 _atom_site_fract_y
 _atom_site_fract_z
 _atom_site_occupancy
  Cd  Cd0  1  0.81422000  0.55785000  0.40874000  1.0
  H  H1  1  0.39142000  0.74840000  0.45103000  1.0
  H  H2  1  0.27432000  0.35877000  0.38809000  1.0
  H  H3  1  0.58475000  0.35464000  0.62023000  1.0
  H  H4  1  0.04758000  0.76919000  0.19668000  1.0
  H  H5  1  0.61240000  0.26913000  0.34748000  1.0
  H  H6  1  0.57040000  0.12106000  0.36317000  1.0
  H  H7  1  0.75470000  0.15079000  0.45320000  1.0
  H  H8  1  0.13238000  0.99171000  0.70796000  1.0
  H  H9  1  0.60016000  0.33833000  0.05981000  1.0
  H  H10  1  0.46189000  0.11682000  0.12135000  1.0
  H  H11  1  0.45908000  0.89632000  0.66812000  1.0
  H  H12  1  0.69065000  0.98465000  0.60258000  1.0
  H  H13  1  0.50684000  0.93393000  0.52746000  1.0
  H  H14  1  0.79853000  0.51104000  0.05558000  1.0
  H  H15  1  0.49136000  0.44119000  0.18593000  1.0
  H  H16  1  0.91346000  0.42286000  0.91857000  1.0
  H  H17  1  0.07979000  0.83850000  0.51079000  1.0
  H  H18  1  0.88590000  0.91776000  0.40296000  1.0
  H  H19  1  0.05068000  0.99434000  0.46317000  1.0
  H  H20  1  0.36448000  0.57241000  0.69024000  1.0
  H  H21  1  0.68542000  0.73550000  0.68634000  1.0
  H  H22  1  0.57256000  0.04265000  0.97282000  1.0
  H  H23  1  0.74807000  0.92789000  0.95460000  1.0
  H  H24  1  0.53449000  0.15699000  0.76481000  1.0
  H  H25  1  0.69071000  0.03520000  0.75155000  1.0
  H  H26  1  0.86276000  0.18854000  0.86980000  1.0
  H  H27  1  0.03159000  0.07332000  0.84997000  1.0
  H  H28  1  0.90740000  0.08721000  0.06932000  1.0
  H  H29  1  0.07434000  0.96878000  0.05422000  1.0
  H  H30  1  0.48216000  0.63532000  0.83887000  1.0
  H  H31  1  0.80785000  0.81074000  0.82762000  1.0
  H  H32  1  0.11882000  0.20122000  0.16825000  1.0
  H  H33  1  0.10808000  0.16866000  0.30950000  1.0
  H  H34  1  0.91528000  0.10387000  0.25024000  1.0
  H  H35  1  0.33378000  0.55504000  0.47396000  1.0
  H  H36  1  0.34315000  0.55691000  0.35385000  1.0
  C  C37  1  0.58484000  0.83512000  0.30543000  1.0
  C  C38  1  0.05314000  0.27671000  0.52415000  1.0
  C  C39  1  0.40637000  0.82760000  0.37909000  1.0
  C  C40  1  0.24098000  0.27919000  0.45653000  1.0
  C  C41  1  0.74039000  0.31191000  0.60169000  1.0
  C  C42  1  0.60509000  0.93965000  0.21393000  1.0
  C  C43  1  0.38958000  0.17886000  0.47961000  1.0
  C  C44  1  0.89205000  0.80887000  0.21922000  1.0
  C  C45  1  0.24797000  0.92404000  0.35923000  1.0
  C  C46  1  0.59172000  0.18044000  0.40707000  1.0
  C  C47  1  0.16203000  0.07188000  0.63884000  1.0
  C  C48  1  0.34988000  0.07496000  0.57089000  1.0
  C  C49  1  0.26690000  0.02838000  0.26549000  1.0
  C  C50  1  0.13562000  0.47921000  0.13057000  1.0
  C  C51  1  0.42576000  0.37782000  0.05789000  1.0
  C  C52  1  0.06697000  0.53022000  0.21450000  1.0
  C  C53  1  0.44696000  0.03653000  0.19237000  1.0
  C  C54  1  0.50940000  0.96704000  0.59392000  1.0
  C  C55  1  0.97411000  0.47374000  0.05540000  1.0
  C  C56  1  0.36306000  0.43346000  0.12975000  1.0
  C  C57  1  0.26151000  0.37419000  0.98357000  1.0
  C  C58  1  0.03653000  0.42321000  0.97976000  1.0
  C  C59  1  0.05655000  0.91826000  0.43811000  1.0
  C  C60  1  0.01531000  0.17319000  0.61423000  1.0
  C  C61  1  0.24016000  0.62114000  0.72253000  1.0
  C  C62  1  0.85964000  0.71485000  0.72040000  1.0
  C  C63  1  0.01393000  0.64787000  0.68114000  1.0
  C  C64  1  0.75230000  0.01428000  0.96214000  1.0
  C  C65  1  0.71023000  0.12019000  0.75983000  1.0
  C  C66  1  0.85301000  0.10320000  0.86074000  1.0
  C  C67  1  0.89638000  0.00128000  0.06170000  1.0
  C  C68  1  0.93279000  0.60955000  0.59306000  1.0
  C  C69  1  0.30899000  0.65909000  0.80389000  1.0
  C  C70  1  0.15406000  0.72849000  0.83945000  1.0
  C  C71  1  0.92829000  0.75716000  0.79868000  1.0
  C  C72  1  0.09379000  0.13079000  0.24669000  1.0
  Br  Br73  1  0.34905000  0.30144000  0.88274000  1.0
  Br  Br74  1  0.25788000  0.78697000  0.94492000  1.0
  N  N75  1  0.76659000  0.75514000  0.30539000  1.0
  N  N76  1  0.87808000  0.36151000  0.51925000  1.0
  N  N77  1  0.81388000  0.19851000  0.66167000  1.0
  N  N78  1  0.80379000  0.92010000  0.16141000  1.0
  O  O79  1  0.86786000  0.50754000  0.25644000  1.0
  O  O80  1  0.21298000  0.58980000  0.23886000  1.0
  O  O81  1  0.08487000  0.59405000  0.52765000  1.0
  O  O82  1  0.71952000  0.59775000  0.58487000  1.0
  O  O83  1  0.42908000  0.52771000  0.42468000  1.0
