# generated using pymatgen
data_ZnH10C11N2O5
_symmetry_space_group_name_H-M   'P 1'
_cell_length_a   19.55240000
_cell_length_b   19.55250000
_cell_length_c   21.64070000
_cell_angle_alpha   64.28710000
_cell_angle_beta   64.28680000
_cell_angle_gamma   60.69130000
_symmetry_Int_Tables_number   1
_chemical_formula_structural   ZnH10C11N2O5
_chemical_formula_sum   'Zn12 H120 C132 N24 O60'
_cell_volume   6236.20373139
_cell_formula_units_Z   12
loop_
 _symmetry_equiv_pos_site_id
 _symmetry_equiv_pos_as_xyz
  1  'x, y, z'
loop_
 _atom_site_type_symbol
 _atom_site_label
 _atom_site_symmetry_multiplicity
 _atom_site_fract_x
 _atom_site_fract_y
 _atom_site_fract_z
 _atom_site_occupancy
  Zn  Zn0  1  0.81680000  0.69367000  0.68800000  1.0
  Zn  Zn1  1  0.73246000  0.73376000  0.82492000  1.0
  Zn  Zn2  1  0.73472000  0.17792000  0.81766000  1.0
  Zn  Zn3  1  0.30633000  0.18320000  0.81200000  1.0
  Zn  Zn4  1  0.26624000  0.26754000  0.67508000  1.0
  Zn  Zn5  1  0.82208000  0.26527000  0.68234000  1.0
  Zn  Zn6  1  0.18320000  0.30634000  0.31200000  1.0
  Zn  Zn7  1  0.26754000  0.26624000  0.17508000  1.0
  Zn  Zn8  1  0.26527000  0.82208000  0.18234000  1.0
  Zn  Zn9  1  0.69366000  0.81680000  0.18800000  1.0
  Zn  Zn10  1  0.73376000  0.73246000  0.32492000  1.0
  Zn  Zn11  1  0.17792000  0.73472000  0.31766000  1.0
  H  H12  1  0.63169000  0.85987000  0.58398000  1.0
  H  H13  1  0.52791000  0.95805000  0.76254000  1.0
  H  H14  1  0.85317000  0.81827000  0.55357000  1.0
  H  H15  1  0.75056000  0.12410000  0.96786000  1.0
  H  H16  1  0.85095000  0.88424000  0.38814000  1.0
  H  H17  1  0.95748000  0.85020000  0.37746000  1.0
  H  H18  1  0.88281000  0.89754000  0.44690000  1.0
  H  H19  1  0.98117000  0.70950000  0.39268000  1.0
  H  H20  1  0.87634000  0.72739000  0.40939000  1.0
  H  H21  1  0.92897000  0.65480000  0.47571000  1.0
  H  H22  1  0.58968000  0.01266000  0.08373000  1.0
  H  H23  1  0.56206000  0.10000000  0.01003000  1.0
  H  H24  1  0.52998000  0.11159000  0.09747000  1.0
  H  H25  1  0.68900000  0.01284000  0.13541000  1.0
  H  H26  1  0.63350000  0.11786000  0.13376000  1.0
  H  H27  1  0.73774000  0.08571000  0.08086000  1.0
  H  H28  1  0.59511000  0.69468000  0.95697000  1.0
  H  H29  1  0.54334000  0.64493000  0.13371000  1.0
  H  H30  1  0.50576000  0.67658000  0.05989000  1.0
  H  H31  1  0.47258000  0.74650000  0.10874000  1.0
  H  H32  1  0.64721000  0.70349000  0.11395000  1.0
  H  H33  1  0.57812000  0.80489000  0.08680000  1.0
  H  H34  1  0.67666000  0.76810000  0.02640000  1.0
  H  H35  1  0.42013000  0.08382000  0.58790000  1.0
  H  H36  1  0.58352000  0.58975000  0.91789000  1.0
  H  H37  1  0.59699000  0.36371000  0.91691000  1.0
  H  H38  1  0.76140000  0.47966000  0.74923000  1.0
  H  H39  1  0.94236000  0.84952000  0.59719000  1.0
  H  H40  1  0.93625000  0.07450000  0.59307000  1.0
  H  H41  1  0.79516000  0.94507000  0.77857000  1.0
  H  H42  1  0.14013000  0.36831000  0.91602000  1.0
  H  H43  1  0.04195000  0.47209000  0.73746000  1.0
  H  H44  1  0.18173000  0.14682000  0.94643000  1.0
  H  H45  1  0.87590000  0.24944000  0.53214000  1.0
  H  H46  1  0.11576000  0.14905000  0.11186000  1.0
  H  H47  1  0.14981000  0.04251000  0.12254000  1.0
  H  H48  1  0.10246000  0.11718000  0.05311000  1.0
  H  H49  1  0.29051000  0.01883000  0.10732000  1.0
  H  H50  1  0.27262000  0.12366000  0.09061000  1.0
  H  H51  1  0.34521000  0.07103000  0.02428000  1.0
  H  H52  1  0.98735000  0.41033000  0.41627000  1.0
  H  H53  1  0.90000000  0.43794000  0.48997000  1.0
  H  H54  1  0.88841000  0.47002000  0.40253000  1.0
  H  H55  1  0.98716000  0.31100000  0.36459000  1.0
  H  H56  1  0.88214000  0.36650000  0.36624000  1.0
  H  H57  1  0.91430000  0.26226000  0.41915000  1.0
  H  H58  1  0.30532000  0.40489000  0.54303000  1.0
  H  H59  1  0.35506000  0.45667000  0.36629000  1.0
  H  H60  1  0.32343000  0.49423000  0.44011000  1.0
  H  H61  1  0.25349000  0.52742000  0.39128000  1.0
  H  H62  1  0.29652000  0.35278000  0.38605000  1.0
  H  H63  1  0.19511000  0.42187000  0.41321000  1.0
  H  H64  1  0.23191000  0.32333000  0.47360000  1.0
  H  H65  1  0.91617000  0.57987000  0.91210000  1.0
  H  H66  1  0.41025000  0.41647000  0.58211000  1.0
  H  H67  1  0.63629000  0.40301000  0.58309000  1.0
  H  H68  1  0.52034000  0.23860000  0.75076000  1.0
  H  H69  1  0.15048000  0.05764000  0.90282000  1.0
  H  H70  1  0.92550000  0.06375000  0.90693000  1.0
  H  H71  1  0.05493000  0.20484000  0.72143000  1.0
  H  H72  1  0.36830000  0.14013000  0.41602000  1.0
  H  H73  1  0.47209000  0.04195000  0.23747000  1.0
  H  H74  1  0.14682000  0.18174000  0.44643000  1.0
  H  H75  1  0.24944000  0.87589000  0.03214000  1.0
  H  H76  1  0.14906000  0.11577000  0.61186000  1.0
  H  H77  1  0.04252000  0.14980000  0.62254000  1.0
  H  H78  1  0.11720000  0.10245000  0.55311000  1.0
  H  H79  1  0.01883000  0.29051000  0.60732000  1.0
  H  H80  1  0.12366000  0.27262000  0.59060000  1.0
  H  H81  1  0.07103000  0.34521000  0.52428000  1.0
  H  H82  1  0.41033000  0.98734000  0.91627000  1.0
  H  H83  1  0.43794000  0.90000000  0.98997000  1.0
  H  H84  1  0.47002000  0.88841000  0.90253000  1.0
  H  H85  1  0.31100000  0.98716000  0.86459000  1.0
  H  H86  1  0.36650000  0.88214000  0.86624000  1.0
  H  H87  1  0.26226000  0.91430000  0.91915000  1.0
  H  H88  1  0.40489000  0.30532000  0.04303000  1.0
  H  H89  1  0.45667000  0.35506000  0.86630000  1.0
  H  H90  1  0.49423000  0.32341000  0.94012000  1.0
  H  H91  1  0.52742000  0.25350000  0.89127000  1.0
  H  H92  1  0.35279000  0.29651000  0.88604000  1.0
  H  H93  1  0.42187000  0.19511000  0.91320000  1.0
  H  H94  1  0.32333000  0.23191000  0.97359000  1.0
  H  H95  1  0.57987000  0.91618000  0.41210000  1.0
  H  H96  1  0.41648000  0.41025000  0.08211000  1.0
  H  H97  1  0.40301000  0.63629000  0.08309000  1.0
  H  H98  1  0.23860000  0.52033000  0.25076000  1.0
  H  H99  1  0.05764000  0.15047000  0.40283000  1.0
  H  H100  1  0.06376000  0.92549000  0.40694000  1.0
  H  H101  1  0.20484000  0.05493000  0.22144000  1.0
  H  H102  1  0.85987000  0.63169000  0.08398000  1.0
  H  H103  1  0.95805000  0.52792000  0.26253000  1.0
  H  H104  1  0.81827000  0.85317000  0.05357000  1.0
  H  H105  1  0.12410000  0.75056000  0.46786000  1.0
  H  H106  1  0.88423000  0.85094000  0.88814000  1.0
  H  H107  1  0.85020000  0.95748000  0.87746000  1.0
  H  H108  1  0.89755000  0.88281000  0.94689000  1.0
  H  H109  1  0.70949000  0.98117000  0.89268000  1.0
  H  H110  1  0.72738000  0.87634000  0.90940000  1.0
  H  H111  1  0.65479000  0.92897000  0.97572000  1.0
  H  H112  1  0.01266000  0.58968000  0.58373000  1.0
  H  H113  1  0.10000000  0.56206000  0.51003000  1.0
  H  H114  1  0.11159000  0.52998000  0.59747000  1.0
  H  H115  1  0.01284000  0.68900000  0.63541000  1.0
  H  H116  1  0.11786000  0.63350000  0.63376000  1.0
  H  H117  1  0.08570000  0.73774000  0.58085000  1.0
  H  H118  1  0.69468000  0.59511000  0.45697000  1.0
  H  H119  1  0.64495000  0.54332000  0.63371000  1.0
  H  H120  1  0.67658000  0.50577000  0.55989000  1.0
  H  H121  1  0.74652000  0.47258000  0.60872000  1.0
  H  H122  1  0.70349000  0.64722000  0.61395000  1.0
  H  H123  1  0.80489000  0.57813000  0.58680000  1.0
  H  H124  1  0.76809000  0.67667000  0.52640000  1.0
  H  H125  1  0.08382000  0.42013000  0.08790000  1.0
  H  H126  1  0.58975000  0.58352000  0.41789000  1.0
  H  H127  1  0.36371000  0.59699000  0.41691000  1.0
  H  H128  1  0.47966000  0.76140000  0.24924000  1.0
  H  H129  1  0.84952000  0.94236000  0.09718000  1.0
  H  H130  1  0.07450000  0.93626000  0.09307000  1.0
  H  H131  1  0.94508000  0.79516000  0.27856000  1.0
  C  C132  1  0.65350000  0.83269000  0.70889000  1.0
  C  C133  1  0.58649000  0.90134000  0.67707000  1.0
  C  C134  1  0.58532000  0.90635000  0.61106000  1.0
  C  C135  1  0.52674000  0.96145000  0.71143000  1.0
  C  C136  1  0.87210000  0.76464000  0.53629000  1.0
  C  C137  1  0.69615000  0.11515000  0.97409000  1.0
  C  C138  1  0.89711000  0.85707000  0.41676000  1.0
  C  C139  1  0.92247000  0.71308000  0.43390000  1.0
  C  C140  1  0.57921000  0.07801000  0.05910000  1.0
  C  C141  1  0.52485000  0.97124000  0.57945000  1.0
  C  C142  1  0.68023000  0.07592000  0.10134000  1.0
  C  C143  1  0.62402000  0.71933000  0.97190000  1.0
  C  C144  1  0.52477000  0.69634000  0.08810000  1.0
  C  C145  1  0.62577000  0.75151000  0.06815000  1.0
  C  C146  1  0.46605000  0.03230000  0.61319000  1.0
  C  C147  1  0.46703000  0.02729000  0.67898000  1.0
  C  C148  1  0.40401000  0.09456000  0.71267000  1.0
  C  C149  1  0.70820000  0.60843000  0.79985000  1.0
  C  C150  1  0.67548000  0.54156000  0.83053000  1.0
  C  C151  1  0.61088000  0.54109000  0.89287000  1.0
  C  C152  1  0.58166000  0.47741000  0.92354000  1.0
  C  C153  1  0.61839000  0.41409000  0.89207000  1.0
  C  C154  1  0.68272000  0.41473000  0.82913000  1.0
  C  C155  1  0.71091000  0.47890000  0.79797000  1.0
  C  C156  1  0.72021000  0.34547000  0.79730000  1.0
  C  C157  1  0.83484000  0.82140000  0.72605000  1.0
  C  C158  1  0.86665000  0.88921000  0.69234000  1.0
  C  C159  1  0.92118000  0.89534000  0.62381000  1.0
  C  C160  1  0.94578000  0.96203000  0.58811000  1.0
  C  C161  1  0.91737000  0.02235000  0.62117000  1.0
  C  C162  1  0.86351000  0.01624000  0.68957000  1.0
  C  C163  1  0.83848000  0.94926000  0.72561000  1.0
  C  C164  1  0.82988000  0.08521000  0.72083000  1.0
  C  C165  1  0.16731000  0.34650000  0.79111000  1.0
  C  C166  1  0.09866000  0.41351000  0.82293000  1.0
  C  C167  1  0.09365000  0.41468000  0.88893000  1.0
  C  C168  1  0.03855000  0.47326000  0.78857000  1.0
  C  C169  1  0.23536000  0.12790000  0.96371000  1.0
  C  C170  1  0.88485000  0.30384000  0.52591000  1.0
  C  C171  1  0.14294000  0.10288000  0.08324000  1.0
  C  C172  1  0.28692000  0.07753000  0.06609000  1.0
  C  C173  1  0.92199000  0.42079000  0.44090000  1.0
  C  C174  1  0.02876000  0.47515000  0.92055000  1.0
  C  C175  1  0.92408000  0.31976000  0.39866000  1.0
  C  C176  1  0.28067000  0.37598000  0.52810000  1.0
  C  C177  1  0.30366000  0.47523000  0.41191000  1.0
  C  C178  1  0.24849000  0.37422000  0.43185000  1.0
  C  C179  1  0.96770000  0.53395000  0.88681000  1.0
  C  C180  1  0.97271000  0.53296000  0.82102000  1.0
  C  C181  1  0.90544000  0.59599000  0.78732000  1.0
  C  C182  1  0.39157000  0.29180000  0.70015000  1.0
  C  C183  1  0.45844000  0.32452000  0.66947000  1.0
  C  C184  1  0.45891000  0.38912000  0.60713000  1.0
  C  C185  1  0.52260000  0.41834000  0.57646000  1.0
  C  C186  1  0.58591000  0.38161000  0.60793000  1.0
  C  C187  1  0.58527000  0.31728000  0.67086000  1.0
  C  C188  1  0.52110000  0.28909000  0.70203000  1.0
  C  C189  1  0.65452000  0.27979000  0.70270000  1.0
  C  C190  1  0.17860000  0.16515000  0.77395000  1.0
  C  C191  1  0.11079000  0.13335000  0.80766000  1.0
  C  C192  1  0.10465000  0.07882000  0.87619000  1.0
  C  C193  1  0.03797000  0.05422000  0.91190000  1.0
  C  C194  1  0.97765000  0.08263000  0.87883000  1.0
  C  C195  1  0.98376000  0.13649000  0.81043000  1.0
  C  C196  1  0.05074000  0.16152000  0.77439000  1.0
  C  C197  1  0.91480000  0.17011000  0.77917000  1.0
  C  C198  1  0.34649000  0.16731000  0.29112000  1.0
  C  C199  1  0.41350000  0.09866000  0.32293000  1.0
  C  C200  1  0.41468000  0.09366000  0.38894000  1.0
  C  C201  1  0.47325000  0.03855000  0.28857000  1.0
  C  C202  1  0.12790000  0.23536000  0.46371000  1.0
  C  C203  1  0.30385000  0.88485000  0.02591000  1.0
  C  C204  1  0.10289000  0.14294000  0.58324000  1.0
  C  C205  1  0.07753000  0.28693000  0.56610000  1.0
  C  C206  1  0.42079000  0.92199000  0.94090000  1.0
  C  C207  1  0.47515000  0.02876000  0.42055000  1.0
  C  C208  1  0.31976000  0.92408000  0.89866000  1.0
  C  C209  1  0.37598000  0.28067000  0.02810000  1.0
  C  C210  1  0.47523000  0.30366000  0.91191000  1.0
  C  C211  1  0.37422000  0.24849000  0.93185000  1.0
  C  C212  1  0.53395000  0.96770000  0.38681000  1.0
  C  C213  1  0.53296000  0.97272000  0.32102000  1.0
  C  C214  1  0.59598000  0.90545000  0.28733000  1.0
  C  C215  1  0.29180000  0.39157000  0.20015000  1.0
  C  C216  1  0.32452000  0.45844000  0.16946000  1.0
  C  C217  1  0.38912000  0.45891000  0.10713000  1.0
  C  C218  1  0.41834000  0.52260000  0.07646000  1.0
  C  C219  1  0.38161000  0.58591000  0.10793000  1.0
  C  C220  1  0.31728000  0.58527000  0.17086000  1.0
  C  C221  1  0.28909000  0.52110000  0.20203000  1.0
  C  C222  1  0.27979000  0.65452000  0.20270000  1.0
  C  C223  1  0.16516000  0.17860000  0.27396000  1.0
  C  C224  1  0.13336000  0.11078000  0.30766000  1.0
  C  C225  1  0.07883000  0.10465000  0.37620000  1.0
  C  C226  1  0.05423000  0.03796000  0.41191000  1.0
  C  C227  1  0.08264000  0.97764000  0.37883000  1.0
  C  C228  1  0.13650000  0.98375000  0.31044000  1.0
  C  C229  1  0.16152000  0.05074000  0.27440000  1.0
  C  C230  1  0.17012000  0.91479000  0.27917000  1.0
  C  C231  1  0.83269000  0.65351000  0.20888000  1.0
  C  C232  1  0.90134000  0.58650000  0.17707000  1.0
  C  C233  1  0.90635000  0.58532000  0.11106000  1.0
  C  C234  1  0.96145000  0.52675000  0.21143000  1.0
  C  C235  1  0.76464000  0.87210000  0.03629000  1.0
  C  C236  1  0.11515000  0.69616000  0.47409000  1.0
  C  C237  1  0.85707000  0.89711000  0.91676000  1.0
  C  C238  1  0.71307000  0.92247000  0.93391000  1.0
  C  C239  1  0.07801000  0.57921000  0.55910000  1.0
  C  C240  1  0.97124000  0.52485000  0.07945000  1.0
  C  C241  1  0.07592000  0.68024000  0.60134000  1.0
  C  C242  1  0.71933000  0.62402000  0.47190000  1.0
  C  C243  1  0.69635000  0.52477000  0.58809000  1.0
  C  C244  1  0.75151000  0.62578000  0.56815000  1.0
  C  C245  1  0.03230000  0.46605000  0.11319000  1.0
  C  C246  1  0.02729000  0.46704000  0.17897000  1.0
  C  C247  1  0.09456000  0.40402000  0.21267000  1.0
  C  C248  1  0.60843000  0.70820000  0.29985000  1.0
  C  C249  1  0.54156000  0.67548000  0.33054000  1.0
  C  C250  1  0.54109000  0.61087000  0.39287000  1.0
  C  C251  1  0.47740000  0.58166000  0.42354000  1.0
  C  C252  1  0.41409000  0.61839000  0.39207000  1.0
  C  C253  1  0.41473000  0.68271000  0.32914000  1.0
  C  C254  1  0.47890000  0.71091000  0.29797000  1.0
  C  C255  1  0.34548000  0.72020000  0.29730000  1.0
  C  C256  1  0.82140000  0.83484000  0.22604000  1.0
  C  C257  1  0.88922000  0.86665000  0.19234000  1.0
  C  C258  1  0.89534000  0.92118000  0.12380000  1.0
  C  C259  1  0.96203000  0.94579000  0.08810000  1.0
  C  C260  1  0.02235000  0.91737000  0.12117000  1.0
  C  C261  1  0.01624000  0.86352000  0.18956000  1.0
  C  C262  1  0.94926000  0.83849000  0.22560000  1.0
  C  C263  1  0.08521000  0.82989000  0.22083000  1.0
  N  N264  1  0.89728000  0.77707000  0.46578000  1.0
  N  N265  1  0.65364000  0.09120000  0.04158000  1.0
  N  N266  1  0.52890000  0.97124000  0.51270000  1.0
  N  N267  1  0.59283000  0.72259000  0.03946000  1.0
  N  N268  1  0.51653000  0.47080000  0.98637000  1.0
  N  N269  1  0.99718000  0.96543000  0.51782000  1.0
  N  N270  1  0.22294000  0.10272000  0.03422000  1.0
  N  N271  1  0.90880000  0.34635000  0.45842000  1.0
  N  N272  1  0.02876000  0.47110000  0.98730000  1.0
  N  N273  1  0.27741000  0.40716000  0.46054000  1.0
  N  N274  1  0.52920000  0.48347000  0.51363000  1.0
  N  N275  1  0.03456000  0.00284000  0.98219000  1.0
  N  N276  1  0.10272000  0.22294000  0.53422000  1.0
  N  N277  1  0.34636000  0.90880000  0.95842000  1.0
  N  N278  1  0.47110000  0.02876000  0.48731000  1.0
  N  N279  1  0.40716000  0.27741000  0.96054000  1.0
  N  N280  1  0.48347000  0.52920000  0.01363000  1.0
  N  N281  1  0.00284000  0.03456000  0.48219000  1.0
  N  N282  1  0.77707000  0.89728000  0.96578000  1.0
  N  N283  1  0.09120000  0.65365000  0.54158000  1.0
  N  N284  1  0.97124000  0.52890000  0.01269000  1.0
  N  N285  1  0.72259000  0.59284000  0.53946000  1.0
  N  N286  1  0.47080000  0.51653000  0.48637000  1.0
  N  N287  1  0.96543000  0.99717000  0.01781000  1.0
  O  O288  1  0.71014000  0.78679000  0.66962000  1.0
  O  O289  1  0.64897000  0.82640000  0.77151000  1.0
  O  O290  1  0.39398000  0.08249000  0.77844000  1.0
  O  O291  1  0.36509000  0.15913000  0.67229000  1.0
  O  O292  1  0.75975000  0.61224000  0.73815000  1.0
  O  O293  1  0.68205000  0.65490000  0.83851000  1.0
  O  O294  1  0.85148000  0.78121000  0.68480000  1.0
  O  O295  1  0.79289000  0.81069000  0.79130000  1.0
  O  O296  1  0.68219000  0.74193000  0.92746000  1.0
  O  O297  1  0.86979000  0.69726000  0.58149000  1.0
  O  O298  1  0.69446000  0.28688000  0.83478000  1.0
  O  O299  1  0.77337000  0.35050000  0.73663000  1.0
  O  O300  1  0.78841000  0.07469000  0.78659000  1.0
  O  O301  1  0.84417000  0.14950000  0.67888000  1.0
  O  O302  1  0.67725000  0.12687000  0.92055000  1.0
  O  O303  1  0.21321000  0.28986000  0.83038000  1.0
  O  O304  1  0.17360000  0.35102000  0.72849000  1.0
  O  O305  1  0.91751000  0.60602000  0.72156000  1.0
  O  O306  1  0.84088000  0.63491000  0.82771000  1.0
  O  O307  1  0.38776000  0.24025000  0.76185000  1.0
  O  O308  1  0.34509000  0.31795000  0.66149000  1.0
  O  O309  1  0.21879000  0.14852000  0.81520000  1.0
  O  O310  1  0.18932000  0.20710000  0.70870000  1.0
  O  O311  1  0.25807000  0.31780000  0.57254000  1.0
  O  O312  1  0.30274000  0.13022000  0.91851000  1.0
  O  O313  1  0.71312000  0.30554000  0.66522000  1.0
  O  O314  1  0.64950000  0.22663000  0.76337000  1.0
  O  O315  1  0.92530000  0.21158000  0.71341000  1.0
  O  O316  1  0.85050000  0.15582000  0.82112000  1.0
  O  O317  1  0.87314000  0.32274000  0.57945000  1.0
  O  O318  1  0.28984000  0.21321000  0.33039000  1.0
  O  O319  1  0.35102000  0.17361000  0.22849000  1.0
  O  O320  1  0.60602000  0.91751000  0.22156000  1.0
  O  O321  1  0.63492000  0.84088000  0.32771000  1.0
  O  O322  1  0.24025000  0.38776000  0.26185000  1.0
  O  O323  1  0.31795000  0.34510000  0.16148000  1.0
  O  O324  1  0.14851000  0.21879000  0.31520000  1.0
  O  O325  1  0.20710000  0.18932000  0.20871000  1.0
  O  O326  1  0.31780000  0.25806000  0.07254000  1.0
  O  O327  1  0.13021000  0.30274000  0.41851000  1.0
  O  O328  1  0.30553000  0.71312000  0.16521000  1.0
  O  O329  1  0.22663000  0.64949000  0.26337000  1.0
  O  O330  1  0.21159000  0.92530000  0.21341000  1.0
  O  O331  1  0.15583000  0.85050000  0.32112000  1.0
  O  O332  1  0.32275000  0.87313000  0.07945000  1.0
  O  O333  1  0.78679000  0.71016000  0.16961000  1.0
  O  O334  1  0.82640000  0.64898000  0.27151000  1.0
  O  O335  1  0.08250000  0.39398000  0.27843000  1.0
  O  O336  1  0.15913000  0.36508000  0.17228000  1.0
  O  O337  1  0.61223000  0.75975000  0.23815000  1.0
  O  O338  1  0.65490000  0.68205000  0.33852000  1.0
  O  O339  1  0.78121000  0.85148000  0.18480000  1.0
  O  O340  1  0.81069000  0.79289000  0.29129000  1.0
  O  O341  1  0.74193000  0.68220000  0.42746000  1.0
  O  O342  1  0.69726000  0.86979000  0.08149000  1.0
  O  O343  1  0.28688000  0.69445000  0.33478000  1.0
  O  O344  1  0.35050000  0.77337000  0.23663000  1.0
  O  O345  1  0.07470000  0.78842000  0.28659000  1.0
  O  O346  1  0.14950000  0.84418000  0.17888000  1.0
  O  O347  1  0.12687000  0.67726000  0.42055000  1.0
