# generated using pymatgen
data_H14PbC18(BrN2)2
_symmetry_space_group_name_H-M   'P 1'
_cell_length_a   4.13236000
_cell_length_b   13.25590000
_cell_length_c   17.30890000
_cell_angle_alpha   90.00150000
_cell_angle_beta   90.00120000
_cell_angle_gamma   89.00450000
_symmetry_Int_Tables_number   1
_chemical_formula_structural   H14PbC18(BrN2)2
_chemical_formula_sum   'H28 Pb2 C36 Br4 N8'
_cell_volume   948.00642495
_cell_formula_units_Z   2
loop_
 _symmetry_equiv_pos_site_id
 _symmetry_equiv_pos_as_xyz
  1  'x, y, z'
loop_
 _atom_site_type_symbol
 _atom_site_label
 _atom_site_symmetry_multiplicity
 _atom_site_fract_x
 _atom_site_fract_y
 _atom_site_fract_z
 _atom_site_occupancy
  H  H0  1  0.15691000  0.69290000  0.12180000  1.0
  H  H1  1  0.84303000  0.80708000  0.62181000  1.0
  H  H2  1  0.84308000  0.30710000  0.87820000  1.0
  H  H3  1  0.15690000  0.19290000  0.37820000  1.0
  H  H4  1  0.61781000  0.66811000  0.05636000  1.0
  H  H5  1  0.38220000  0.83189000  0.55635000  1.0
  H  H6  1  0.38217000  0.33190000  0.94364000  1.0
  H  H7  1  0.61779000  0.16811000  0.44365000  1.0
  H  H8  1  0.19264000  0.37489000  0.07590000  1.0
  H  H9  1  0.80737000  0.12511000  0.57590000  1.0
  H  H10  1  0.80736000  0.62511000  0.92410000  1.0
  H  H11  1  0.19264000  0.87488000  0.42409000  1.0
  H  H12  1  0.19300000  0.52442000  0.30261000  1.0
  H  H13  1  0.80698000  0.97558000  0.80261000  1.0
  H  H14  1  0.80697000  0.47557000  0.69739000  1.0
  H  H15  1  0.19301000  0.02442000  0.19739000  1.0
  H  H16  1  0.68259000  0.86078000  0.33384000  1.0
  H  H17  1  0.31744000  0.63923000  0.83385000  1.0
  H  H18  1  0.31743000  0.13922000  0.66615000  1.0
  H  H19  1  0.68257000  0.36078000  0.16616000  1.0
  H  H20  1  0.90165000  0.81105000  0.20371000  1.0
  H  H21  1  0.09833000  0.68894000  0.70371000  1.0
  H  H22  1  0.09836000  0.18895000  0.79629000  1.0
  H  H23  1  0.90166000  0.31106000  0.29630000  1.0
  H  H24  1  0.73151000  0.73611000  0.44297000  1.0
  H  H25  1  0.26855000  0.76392000  0.94297000  1.0
  H  H26  1  0.26849000  0.26389000  0.55703000  1.0
  H  H27  1  0.73150000  0.23610000  0.05703000  1.0
  Pb  Pb28  1  0.00003000  0.49999000  0.49999000  1.0
  Pb  Pb29  1  0.00002000  0.00000000  0.00001000  1.0
  C  C30  1  0.39010000  0.52399000  0.07508000  1.0
  C  C31  1  0.60992000  0.97600000  0.57508000  1.0
  C  C32  1  0.60990000  0.47601000  0.92491000  1.0
  C  C33  1  0.39010000  0.02399000  0.42492000  1.0
  C  C34  1  0.56364000  0.59468000  0.03148000  1.0
  C  C35  1  0.43637000  0.90532000  0.53148000  1.0
  C  C36  1  0.43634000  0.40533000  0.96852000  1.0
  C  C37  1  0.56363000  0.09467000  0.46852000  1.0
  C  C38  1  0.05881000  0.66303000  0.24271000  1.0
  C  C39  1  0.94115000  0.83697000  0.74271000  1.0
  C  C40  1  0.94117000  0.33697000  0.75729000  1.0
  C  C41  1  0.05881000  0.16304000  0.25729000  1.0
  C  C42  1  0.33125000  0.42883000  0.04258000  1.0
  C  C43  1  0.66874000  0.07117000  0.54258000  1.0
  C  C44  1  0.66873000  0.57117000  0.95742000  1.0
  C  C45  1  0.33127000  0.92883000  0.45742000  1.0
  C  C46  1  0.07934000  0.59918000  0.30744000  1.0
  C  C47  1  0.92065000  0.90082000  0.80744000  1.0
  C  C48  1  0.92064000  0.40082000  0.69256000  1.0
  C  C49  1  0.07935000  0.09918000  0.19257000  1.0
  C  C50  1  0.79655000  0.78697000  0.32474000  1.0
  C  C51  1  0.20345000  0.71303000  0.82474000  1.0
  C  C52  1  0.20344000  0.21302000  0.67526000  1.0
  C  C53  1  0.79655000  0.28698000  0.17526000  1.0
  C  C54  1  0.17270000  0.63308000  0.16612000  1.0
  C  C55  1  0.82728000  0.86691000  0.66612000  1.0
  C  C56  1  0.82728000  0.36691000  0.83388000  1.0
  C  C57  1  0.17269000  0.13309000  0.33389000  1.0
  C  C58  1  0.91838000  0.75931000  0.25270000  1.0
  C  C59  1  0.08161000  0.74069000  0.75270000  1.0
  C  C60  1  0.08163000  0.24069000  0.74730000  1.0
  C  C61  1  0.91839000  0.25931000  0.24731000  1.0
  C  C62  1  0.82413000  0.71820000  0.38538000  1.0
  C  C63  1  0.17591000  0.78181000  0.88538000  1.0
  C  C64  1  0.17589000  0.28181000  0.61462000  1.0
  C  C65  1  0.82410000  0.21820000  0.11462000  1.0
  Br  Br66  1  0.50414000  0.37617000  0.41603000  1.0
  Br  Br67  1  0.49588000  0.12384000  0.91606000  1.0
  Br  Br68  1  0.49591000  0.62383000  0.58393000  1.0
  Br  Br69  1  0.50415000  0.87617000  0.08395000  1.0
  N  N70  1  0.96581000  0.62641000  0.37696000  1.0
  N  N71  1  0.03419000  0.87360000  0.87696000  1.0
  N  N72  1  0.03417000  0.37358000  0.62304000  1.0
  N  N73  1  0.96583000  0.12642000  0.12304000  1.0
  N  N74  1  0.27712000  0.54344000  0.14995000  1.0
  N  N75  1  0.72292000  0.95655000  0.64995000  1.0
  N  N76  1  0.72287000  0.45655000  0.85004000  1.0
  N  N77  1  0.27709000  0.04345000  0.35005000  1.0
