# generated using pymatgen
data_CdH8C7SN4O5
_symmetry_space_group_name_H-M   'P 1'
_cell_length_a   5.40424000
_cell_length_b   5.58993000
_cell_length_c   18.46370000
_cell_angle_alpha   89.99950000
_cell_angle_beta   89.99860000
_cell_angle_gamma   104.09300000
_symmetry_Int_Tables_number   1
_chemical_formula_structural   CdH8C7SN4O5
_chemical_formula_sum   'Cd2 H16 C14 S2 N8 O10'
_cell_volume   540.98781633
_cell_formula_units_Z   2
loop_
 _symmetry_equiv_pos_site_id
 _symmetry_equiv_pos_as_xyz
  1  'x, y, z'
loop_
 _atom_site_type_symbol
 _atom_site_label
 _atom_site_symmetry_multiplicity
 _atom_site_fract_x
 _atom_site_fract_y
 _atom_site_fract_z
 _atom_site_occupancy
  Cd  Cd0  1  0.30331000  0.73765000  0.16772000  1.0
  Cd  Cd1  1  0.69670000  0.26234000  0.66772000  1.0
  H  H2  1  0.23597000  0.18345000  0.19370000  1.0
  H  H3  1  0.76401000  0.81653000  0.69370000  1.0
  H  H4  1  0.95196000  0.02913000  0.19798000  1.0
  H  H5  1  0.04802000  0.97086000  0.69798000  1.0
  H  H6  1  0.03019000  0.04469000  0.05441000  1.0
  H  H7  1  0.96984000  0.95529000  0.55441000  1.0
  H  H8  1  0.98104000  0.09705000  0.92092000  1.0
  H  H9  1  0.01898000  0.90296000  0.42090000  1.0
  H  H10  1  0.19665000  0.87094000  0.83523000  1.0
  H  H11  1  0.80334000  0.12909000  0.33524000  1.0
  H  H12  1  0.46583000  0.53691000  0.02199000  1.0
  H  H13  1  0.53420000  0.46310000  0.52199000  1.0
  H  H14  1  0.74361000  0.44376000  0.95296000  1.0
  H  H15  1  0.25640000  0.55626000  0.45296000  1.0
  H  H16  1  0.29046000  0.54258000  0.77227000  1.0
  H  H17  1  0.70951000  0.45743000  0.27227000  1.0
  C  C18  1  0.12038000  0.94506000  0.01596000  1.0
  C  C19  1  0.87962000  0.05494000  0.51596000  1.0
  C  C20  1  0.09466000  0.97550000  0.94160000  1.0
  C  C21  1  0.90534000  0.02451000  0.44158000  1.0
  C  C22  1  0.21381000  0.84748000  0.89348000  1.0
  C  C23  1  0.78617000  0.15254000  0.39347000  1.0
  C  C24  1  0.35140000  0.68830000  0.92240000  1.0
  C  C25  1  0.64862000  0.31169000  0.42240000  1.0
  C  C26  1  0.36599000  0.66397000  0.99743000  1.0
  C  C27  1  0.63403000  0.33604000  0.49744000  1.0
  C  C28  1  0.67089000  0.44089000  0.89792000  1.0
  C  C29  1  0.32911000  0.55912000  0.39793000  1.0
  C  C30  1  0.43661000  0.49436000  0.80581000  1.0
  C  C31  1  0.56338000  0.50563000  0.30581000  1.0
  S  S32  1  0.70558000  0.31648000  0.12874000  1.0
  S  S33  1  0.29443000  0.68352000  0.62875000  1.0
  N  N34  1  0.25495000  0.79231000  0.04300000  1.0
  N  N35  1  0.74506000  0.20770000  0.54300000  1.0
  N  N36  1  0.47700000  0.54829000  0.87771000  1.0
  N  N37  1  0.52299000  0.45169000  0.37771000  1.0
  N  N38  1  0.74641000  0.33054000  0.84229000  1.0
  N  N39  1  0.25357000  0.66946000  0.34229000  1.0
  N  N40  1  0.59706000  0.36482000  0.78411000  1.0
  N  N41  1  0.40293000  0.63518000  0.28411000  1.0
  O  O42  1  0.89296000  0.48714000  0.17597000  1.0
  O  O43  1  0.10703000  0.51287000  0.67597000  1.0
  O  O44  1  0.78533000  0.33203000  0.05278000  1.0
  O  O45  1  0.21467000  0.66799000  0.55278000  1.0
  O  O46  1  0.67884000  0.05873000  0.15781000  1.0
  O  O47  1  0.32118000  0.94128000  0.65782000  1.0
  O  O48  1  0.44989000  0.37700000  0.13646000  1.0
  O  O49  1  0.55011000  0.62299000  0.63645000  1.0
  O  O50  1  0.12573000  0.03636000  0.21749000  1.0
  O  O51  1  0.87425000  0.96361000  0.71749000  1.0
