# generated using pymatgen
data_Zn2H24C37(N2O3)3
_symmetry_space_group_name_H-M   'P 1'
_cell_length_a   11.44230000
_cell_length_b   20.13320000
_cell_length_c   29.51030000
_cell_angle_alpha   89.99990000
_cell_angle_beta   98.88270000
_cell_angle_gamma   89.99990000
_symmetry_Int_Tables_number   1
_chemical_formula_structural   Zn2H24C37(N2O3)3
_chemical_formula_sum   'Zn8 H96 C148 N24 O36'
_cell_volume   6716.75611355
_cell_formula_units_Z   4
loop_
 _symmetry_equiv_pos_site_id
 _symmetry_equiv_pos_as_xyz
  1  'x, y, z'
loop_
 _atom_site_type_symbol
 _atom_site_label
 _atom_site_symmetry_multiplicity
 _atom_site_fract_x
 _atom_site_fract_y
 _atom_site_fract_z
 _atom_site_occupancy
  Zn  Zn0  1  0.45184000  0.92294000  0.45411000  1.0
  Zn  Zn1  1  0.46457000  0.57826000  0.54241000  1.0
  Zn  Zn2  1  0.54816000  0.42294000  0.04589000  1.0
  Zn  Zn3  1  0.53543000  0.07826000  0.95759000  1.0
  Zn  Zn4  1  0.54816000  0.07706000  0.54589000  1.0
  Zn  Zn5  1  0.53543000  0.42174000  0.45759000  1.0
  Zn  Zn6  1  0.45184000  0.57706000  0.95411000  1.0
  Zn  Zn7  1  0.46457000  0.92174000  0.04241000  1.0
  H  H8  1  0.60421000  0.60702000  0.29225000  1.0
  H  H9  1  0.61833000  0.60796000  0.22443000  1.0
  H  H10  1  0.44137000  0.69799000  0.45550000  1.0
  H  H11  1  0.54745000  0.56559000  0.35500000  1.0
  H  H12  1  0.52845000  0.77749000  0.32928000  1.0
  H  H13  1  0.57678000  0.56561000  0.15425000  1.0
  H  H14  1  0.47774000  0.69615000  0.03926000  1.0
  H  H15  1  0.54978000  0.77756000  0.17572000  1.0
  H  H16  1  0.68506000  0.89078000  0.52420000  1.0
  H  H17  1  0.90215000  0.88864000  0.52392000  1.0
  H  H18  1  0.83276000  0.95624000  0.38317000  1.0
  H  H19  1  0.61828000  0.95746000  0.39022000  1.0
  H  H20  1  0.05701000  0.83892000  0.49857000  1.0
  H  H21  1  0.27348000  0.84226000  0.49396000  1.0
  H  H22  1  0.23115000  0.99779000  0.40192000  1.0
  H  H23  1  0.01262000  0.00252000  0.40246000  1.0
  H  H24  1  0.68501000  0.51845000  0.59773000  1.0
  H  H25  1  0.90347000  0.51666000  0.60077000  1.0
  H  H26  1  0.85670000  0.65250000  0.48572000  1.0
  H  H27  1  0.64106000  0.65089000  0.48942000  1.0
  H  H28  1  0.05379000  0.48128000  0.56961000  1.0
  H  H29  1  0.27268000  0.48290000  0.57029000  1.0
  H  H30  1  0.26195000  0.67080000  0.51428000  1.0
  H  H31  1  0.04306000  0.67967000  0.51290000  1.0
  H  H32  1  0.39579000  0.10702000  0.20775000  1.0
  H  H33  1  0.38167000  0.10797000  0.27557000  1.0
  H  H34  1  0.55863000  0.19799000  0.04450000  1.0
  H  H35  1  0.45255000  0.06559000  0.14500000  1.0
  H  H36  1  0.47155000  0.27749000  0.17072000  1.0
  H  H37  1  0.42322000  0.06561000  0.34575000  1.0
  H  H38  1  0.52226000  0.19615000  0.46074000  1.0
  H  H39  1  0.45021000  0.27757000  0.32428000  1.0
  H  H40  1  0.31494000  0.39078000  0.97580000  1.0
  H  H41  1  0.09785000  0.38864000  0.97608000  1.0
  H  H42  1  0.16724000  0.45624000  0.11683000  1.0
  H  H43  1  0.38172000  0.45746000  0.10978000  1.0
  H  H44  1  0.94299000  0.33892000  0.00143000  1.0
  H  H45  1  0.72652000  0.34226000  0.00604000  1.0
  H  H46  1  0.76885000  0.49779000  0.09808000  1.0
  H  H47  1  0.98738000  0.50252000  0.09754000  1.0
  H  H48  1  0.31499000  0.01845000  0.90227000  1.0
  H  H49  1  0.09653000  0.01666000  0.89923000  1.0
  H  H50  1  0.14330000  0.15250000  0.01428000  1.0
  H  H51  1  0.35894000  0.15089000  0.01058000  1.0
  H  H52  1  0.94621000  0.98128000  0.93039000  1.0
  H  H53  1  0.72732000  0.98290000  0.92971000  1.0
  H  H54  1  0.73805000  0.17080000  0.98572000  1.0
  H  H55  1  0.95694000  0.17967000  0.98710000  1.0
  H  H56  1  0.39579000  0.39298000  0.70775000  1.0
  H  H57  1  0.38167000  0.39203000  0.77557000  1.0
  H  H58  1  0.55863000  0.30201000  0.54450000  1.0
  H  H59  1  0.45255000  0.43441000  0.64500000  1.0
  H  H60  1  0.47155000  0.22251000  0.67072000  1.0
  H  H61  1  0.42322000  0.43439000  0.84575000  1.0
  H  H62  1  0.52226000  0.30385000  0.96074000  1.0
  H  H63  1  0.45022000  0.22243000  0.82428000  1.0
  H  H64  1  0.31494000  0.10922000  0.47580000  1.0
  H  H65  1  0.09785000  0.11137000  0.47608000  1.0
  H  H66  1  0.16724000  0.04376000  0.61683000  1.0
  H  H67  1  0.38172000  0.04254000  0.60978000  1.0
  H  H68  1  0.94299000  0.16108000  0.50143000  1.0
  H  H69  1  0.72652000  0.15774000  0.50604000  1.0
  H  H70  1  0.76885000  0.00221000  0.59808000  1.0
  H  H71  1  0.98738000  0.99748000  0.59754000  1.0
  H  H72  1  0.31498000  0.48155000  0.40227000  1.0
  H  H73  1  0.09653000  0.48334000  0.39923000  1.0
  H  H74  1  0.14330000  0.34750000  0.51428000  1.0
  H  H75  1  0.35894000  0.34911000  0.51058000  1.0
  H  H76  1  0.94621000  0.51872000  0.43040000  1.0
  H  H77  1  0.72732000  0.51710000  0.42971000  1.0
  H  H78  1  0.73805000  0.32920000  0.48572000  1.0
  H  H79  1  0.95694000  0.32033000  0.48710000  1.0
  H  H80  1  0.60421000  0.89298000  0.79225000  1.0
  H  H81  1  0.61833000  0.89204000  0.72443000  1.0
  H  H82  1  0.44137000  0.80201000  0.95550000  1.0
  H  H83  1  0.54745000  0.93441000  0.85500000  1.0
  H  H84  1  0.52845000  0.72252000  0.82928000  1.0
  H  H85  1  0.57678000  0.93439000  0.65425000  1.0
  H  H86  1  0.47774000  0.80385000  0.53926000  1.0
  H  H87  1  0.54978000  0.72243000  0.67572000  1.0
  H  H88  1  0.68506000  0.60922000  0.02420000  1.0
  H  H89  1  0.90215000  0.61136000  0.02392000  1.0
  H  H90  1  0.83276000  0.54376000  0.88317000  1.0
  H  H91  1  0.61829000  0.54254000  0.89022000  1.0
  H  H92  1  0.05701000  0.66108000  0.99857000  1.0
  H  H93  1  0.27348000  0.65774000  0.99396000  1.0
  H  H94  1  0.23115000  0.50221000  0.90192000  1.0
  H  H95  1  0.01262000  0.49748000  0.90246000  1.0
  H  H96  1  0.68501000  0.98155000  0.09773000  1.0
  H  H97  1  0.90347000  0.98334000  0.10077000  1.0
  H  H98  1  0.85670000  0.84750000  0.98572000  1.0
  H  H99  1  0.64106000  0.84911000  0.98942000  1.0
  H  H100  1  0.05379000  0.01872000  0.06960000  1.0
  H  H101  1  0.27267000  0.01710000  0.07029000  1.0
  H  H102  1  0.26195000  0.82920000  0.01428000  1.0
  H  H103  1  0.04306000  0.82033000  0.01290000  1.0
  C  C104  1  0.46548000  0.81303000  0.41062000  1.0
  C  C105  1  0.48343000  0.74390000  0.39384000  1.0
  C  C106  1  0.46834000  0.68977000  0.42211000  1.0
  C  C107  1  0.49167000  0.62560000  0.40771000  1.0
  C  C108  1  0.52948000  0.61619000  0.36539000  1.0
  C  C109  1  0.54254000  0.67026000  0.33666000  1.0
  C  C110  1  0.51914000  0.73474000  0.35093000  1.0
  C  C111  1  0.48028000  0.56672000  0.43793000  1.0
  C  C112  1  0.56335000  0.69231000  0.25453000  1.0
  C  C113  1  0.56586000  0.67033000  0.17110000  1.0
  C  C114  1  0.55888000  0.61593000  0.14114000  1.0
  C  C115  1  0.52573000  0.62463000  0.09397000  1.0
  C  C116  1  0.50223000  0.68843000  0.07607000  1.0
  C  C117  1  0.51305000  0.74296000  0.10582000  1.0
  C  C118  1  0.54394000  0.73449000  0.15330000  1.0
  C  C119  1  0.51326000  0.56507000  0.06310000  1.0
  C  C120  1  0.49221000  0.81157000  0.08632000  1.0
  C  C121  1  0.72160000  0.90569000  0.49374000  1.0
  C  C122  1  0.84285000  0.90373000  0.49315000  1.0
  C  C123  1  0.88727000  0.92260000  0.45330000  1.0
  C  C124  1  0.80474000  0.94270000  0.41559000  1.0
  C  C125  1  0.68500000  0.94334000  0.41907000  1.0
  C  C126  1  0.01529000  0.92121000  0.45109000  1.0
  C  C127  1  0.09131000  0.87572000  0.47693000  1.0
  C  C128  1  0.21169000  0.87682000  0.47446000  1.0
  C  C129  1  0.18765000  0.96350000  0.42258000  1.0
  C  C130  1  0.06635000  0.96551000  0.42307000  1.0
  C  C131  1  0.72719000  0.54692000  0.57334000  1.0
  C  C132  1  0.84897000  0.54598000  0.57458000  1.0
  C  C133  1  0.90004000  0.58333000  0.54256000  1.0
  C  C134  1  0.82343000  0.62221000  0.51156000  1.0
  C  C135  1  0.70244000  0.62081000  0.51288000  1.0
  C  C136  1  0.02868000  0.58116000  0.54180000  1.0
  C  C137  1  0.09584000  0.52517000  0.55772000  1.0
  C  C138  1  0.21731000  0.52513000  0.55774000  1.0
  C  C139  1  0.21108000  0.63027000  0.52616000  1.0
  C  C140  1  0.08946000  0.63439000  0.52538000  1.0
  C  C141  1  0.53452000  0.31303000  0.08938000  1.0
  C  C142  1  0.51657000  0.24390000  0.10616000  1.0
  C  C143  1  0.53166000  0.18977000  0.07789000  1.0
  C  C144  1  0.50833000  0.12560000  0.09229000  1.0
  C  C145  1  0.47051000  0.11619000  0.13461000  1.0
  C  C146  1  0.45745000  0.17026000  0.16334000  1.0
  C  C147  1  0.48086000  0.23474000  0.14907000  1.0
  C  C148  1  0.51972000  0.06672000  0.06207000  1.0
  C  C149  1  0.43665000  0.19231000  0.24547000  1.0
  C  C150  1  0.43414000  0.17033000  0.32890000  1.0
  C  C151  1  0.44112000  0.11593000  0.35886000  1.0
  C  C152  1  0.47427000  0.12463000  0.40603000  1.0
  C  C153  1  0.49777000  0.18843000  0.42393000  1.0
  C  C154  1  0.48695000  0.24296000  0.39418000  1.0
  C  C155  1  0.45606000  0.23449000  0.34670000  1.0
  C  C156  1  0.48674000  0.06507000  0.43690000  1.0
  C  C157  1  0.50779000  0.31157000  0.41368000  1.0
  C  C158  1  0.27840000  0.40569000  0.00626000  1.0
  C  C159  1  0.15715000  0.40373000  0.00685000  1.0
  C  C160  1  0.11273000  0.42260000  0.04670000  1.0
  C  C161  1  0.19526000  0.44270000  0.08441000  1.0
  C  C162  1  0.31500000  0.44334000  0.08093000  1.0
  C  C163  1  0.98471000  0.42121000  0.04891000  1.0
  C  C164  1  0.90869000  0.37572000  0.02307000  1.0
  C  C165  1  0.78831000  0.37682000  0.02554000  1.0
  C  C166  1  0.81235000  0.46350000  0.07742000  1.0
  C  C167  1  0.93365000  0.46551000  0.07693000  1.0
  C  C168  1  0.27281000  0.04692000  0.92666000  1.0
  C  C169  1  0.15103000  0.04598000  0.92542000  1.0
  C  C170  1  0.09996000  0.08333000  0.95744000  1.0
  C  C171  1  0.17657000  0.12221000  0.98844000  1.0
  C  C172  1  0.29755000  0.12081000  0.98711000  1.0
  C  C173  1  0.97132000  0.08116000  0.95820000  1.0
  C  C174  1  0.90416000  0.02517000  0.94228000  1.0
  C  C175  1  0.78269000  0.02513000  0.94226000  1.0
  C  C176  1  0.78892000  0.13027000  0.97384000  1.0
  C  C177  1  0.91054000  0.13439000  0.97462000  1.0
  C  C178  1  0.53452000  0.18697000  0.58938000  1.0
  C  C179  1  0.51657000  0.25610000  0.60616000  1.0
  C  C180  1  0.53166000  0.31023000  0.57789000  1.0
  C  C181  1  0.50833000  0.37440000  0.59229000  1.0
  C  C182  1  0.47051000  0.38381000  0.63461000  1.0
  C  C183  1  0.45746000  0.32974000  0.66334000  1.0
  C  C184  1  0.48087000  0.26526000  0.64907000  1.0
  C  C185  1  0.51972000  0.43328000  0.56207000  1.0
  C  C186  1  0.43665000  0.30769000  0.74547000  1.0
  C  C187  1  0.43414000  0.32967000  0.82890000  1.0
  C  C188  1  0.44112000  0.38407000  0.85886000  1.0
  C  C189  1  0.47427000  0.37537000  0.90603000  1.0
  C  C190  1  0.49777000  0.31157000  0.92393000  1.0
  C  C191  1  0.48695000  0.25704000  0.89418000  1.0
  C  C192  1  0.45606000  0.26551000  0.84670000  1.0
  C  C193  1  0.48674000  0.43493000  0.93690000  1.0
  C  C194  1  0.50779000  0.18843000  0.91368000  1.0
  C  C195  1  0.27840000  0.09431000  0.50626000  1.0
  C  C196  1  0.15715000  0.09627000  0.50685000  1.0
  C  C197  1  0.11273000  0.07740000  0.54670000  1.0
  C  C198  1  0.19526000  0.05730000  0.58441000  1.0
  C  C199  1  0.31499000  0.05665000  0.58093000  1.0
  C  C200  1  0.98470000  0.07879000  0.54891000  1.0
  C  C201  1  0.90869000  0.12428000  0.52307000  1.0
  C  C202  1  0.78831000  0.12318000  0.52554000  1.0
  C  C203  1  0.81235000  0.03650000  0.57742000  1.0
  C  C204  1  0.93365000  0.03449000  0.57693000  1.0
  C  C205  1  0.27281000  0.45307000  0.42666000  1.0
  C  C206  1  0.15103000  0.45402000  0.42542000  1.0
  C  C207  1  0.09996000  0.41667000  0.45744000  1.0
  C  C208  1  0.17657000  0.37779000  0.48844000  1.0
  C  C209  1  0.29755000  0.37919000  0.48711000  1.0
  C  C210  1  0.97132000  0.41884000  0.45820000  1.0
  C  C211  1  0.90416000  0.47483000  0.44228000  1.0
  C  C212  1  0.78269000  0.47486000  0.44226000  1.0
  C  C213  1  0.78892000  0.36973000  0.47384000  1.0
  C  C214  1  0.91054000  0.36561000  0.47462000  1.0
  C  C215  1  0.46548000  0.68697000  0.91062000  1.0
  C  C216  1  0.48343000  0.75610000  0.89384000  1.0
  C  C217  1  0.46833000  0.81023000  0.92211000  1.0
  C  C218  1  0.49167000  0.87440000  0.90771000  1.0
  C  C219  1  0.52948000  0.88382000  0.86539000  1.0
  C  C220  1  0.54254000  0.82974000  0.83666000  1.0
  C  C221  1  0.51914000  0.76526000  0.85093000  1.0
  C  C222  1  0.48028000  0.93328000  0.93793000  1.0
  C  C223  1  0.56335000  0.80769000  0.75453000  1.0
  C  C224  1  0.56585000  0.82967000  0.67110000  1.0
  C  C225  1  0.55888000  0.88407000  0.64114000  1.0
  C  C226  1  0.52573000  0.87537000  0.59397000  1.0
  C  C227  1  0.50223000  0.81157000  0.57607000  1.0
  C  C228  1  0.51305000  0.75704000  0.60582000  1.0
  C  C229  1  0.54393000  0.76551000  0.65330000  1.0
  C  C230  1  0.51326000  0.93493000  0.56310000  1.0
  C  C231  1  0.49221000  0.68843000  0.58632000  1.0
  C  C232  1  0.72160000  0.59431000  0.99374000  1.0
  C  C233  1  0.84285000  0.59627000  0.99315000  1.0
  C  C234  1  0.88727000  0.57740000  0.95330000  1.0
  C  C235  1  0.80474000  0.55730000  0.91559000  1.0
  C  C236  1  0.68501000  0.55666000  0.91907000  1.0
  C  C237  1  0.01530000  0.57879000  0.95109000  1.0
  C  C238  1  0.09131000  0.62428000  0.97693000  1.0
  C  C239  1  0.21169000  0.62318000  0.97446000  1.0
  C  C240  1  0.18765000  0.53650000  0.92258000  1.0
  C  C241  1  0.06635000  0.53449000  0.92307000  1.0
  C  C242  1  0.72719000  0.95308000  0.07334000  1.0
  C  C243  1  0.84897000  0.95402000  0.07458000  1.0
  C  C244  1  0.90004000  0.91667000  0.04256000  1.0
  C  C245  1  0.82343000  0.87779000  0.01156000  1.0
  C  C246  1  0.70245000  0.87919000  0.01288000  1.0
  C  C247  1  0.02868000  0.91884000  0.04180000  1.0
  C  C248  1  0.09584000  0.97483000  0.05772000  1.0
  C  C249  1  0.21731000  0.97487000  0.05774000  1.0
  C  C250  1  0.21108000  0.86973000  0.02616000  1.0
  C  C251  1  0.08946000  0.86561000  0.02538000  1.0
  N  N252  1  0.58177000  0.65547000  0.29495000  1.0
  N  N253  1  0.59619000  0.65629000  0.21815000  1.0
  N  N254  1  0.64375000  0.92544000  0.45754000  1.0
  N  N255  1  0.25945000  0.92038000  0.44806000  1.0
  N  N256  1  0.65458000  0.58275000  0.54260000  1.0
  N  N257  1  0.27445000  0.57683000  0.54249000  1.0
  N  N258  1  0.41823000  0.15547000  0.20505000  1.0
  N  N259  1  0.40381000  0.15629000  0.28185000  1.0
  N  N260  1  0.35625000  0.42544000  0.04246000  1.0
  N  N261  1  0.74055000  0.42038000  0.05194000  1.0
  N  N262  1  0.34542000  0.08275000  0.95740000  1.0
  N  N263  1  0.72555000  0.07683000  0.95751000  1.0
  N  N264  1  0.41823000  0.34453000  0.70505000  1.0
  N  N265  1  0.40381000  0.34371000  0.78185000  1.0
  N  N266  1  0.35625000  0.07456000  0.54246000  1.0
  N  N267  1  0.74055000  0.07962000  0.55194000  1.0
  N  N268  1  0.34542000  0.41725000  0.45740000  1.0
  N  N269  1  0.72555000  0.42317000  0.45751000  1.0
  N  N270  1  0.58177000  0.84453000  0.79495000  1.0
  N  N271  1  0.59619000  0.84371000  0.71815000  1.0
  N  N272  1  0.64375000  0.57456000  0.95754000  1.0
  N  N273  1  0.25945000  0.57962000  0.94806000  1.0
  N  N274  1  0.65458000  0.91725000  0.04260000  1.0
  N  N275  1  0.27445000  0.92317000  0.04249000  1.0
  O  O276  1  0.46323000  0.86227000  0.38394000  1.0
  O  O277  1  0.45587000  0.81941000  0.45343000  1.0
  O  O278  1  0.45150000  0.57060000  0.02383000  1.0
  O  O279  1  0.56494000  0.51186000  0.07937000  1.0
  O  O280  1  0.42442000  0.57372000  0.47149000  1.0
  O  O281  1  0.52807000  0.51282000  0.42689000  1.0
  O  O282  1  0.46326000  0.81648000  0.04243000  1.0
  O  O283  1  0.50435000  0.86208000  0.11214000  1.0
  O  O284  1  0.52413000  0.74916000  0.25140000  1.0
  O  O285  1  0.53677000  0.36227000  0.11607000  1.0
  O  O286  1  0.54413000  0.31940000  0.04657000  1.0
  O  O287  1  0.54850000  0.07060000  0.47617000  1.0
  O  O288  1  0.43506000  0.01186000  0.42063000  1.0
  O  O289  1  0.57558000  0.07372000  0.02851000  1.0
  O  O290  1  0.47193000  0.01282000  0.07311000  1.0
  O  O291  1  0.53674000  0.31648000  0.45757000  1.0
  O  O292  1  0.49565000  0.36209000  0.38786000  1.0
  O  O293  1  0.47587000  0.24916000  0.24860000  1.0
  O  O294  1  0.53677000  0.13773000  0.61606000  1.0
  O  O295  1  0.54413000  0.18059000  0.54657000  1.0
  O  O296  1  0.54850000  0.42940000  0.97617000  1.0
  O  O297  1  0.43506000  0.48814000  0.92063000  1.0
  O  O298  1  0.57558000  0.42628000  0.52851000  1.0
  O  O299  1  0.47193000  0.48718000  0.57311000  1.0
  O  O300  1  0.53674000  0.18351000  0.95757000  1.0
  O  O301  1  0.49564000  0.13791000  0.88786000  1.0
  O  O302  1  0.47587000  0.25084000  0.74860000  1.0
  O  O303  1  0.46323000  0.63773000  0.88393000  1.0
  O  O304  1  0.45587000  0.68059000  0.95343000  1.0
  O  O305  1  0.45149000  0.92940000  0.52383000  1.0
  O  O306  1  0.56494000  0.98814000  0.57937000  1.0
  O  O307  1  0.42442000  0.92628000  0.97149000  1.0
  O  O308  1  0.52808000  0.98718000  0.92689000  1.0
  O  O309  1  0.46326000  0.68352000  0.54243000  1.0
  O  O310  1  0.50435000  0.63792000  0.61214000  1.0
  O  O311  1  0.52413000  0.75085000  0.75140000  1.0
