# generated using pymatgen
data_Ag2H4C3SIN3
_symmetry_space_group_name_H-M   'P 1'
_cell_length_a   7.78986000
_cell_length_b   10.15940000
_cell_length_c   19.76310000
_cell_angle_alpha   90.00030000
_cell_angle_beta   90.00020000
_cell_angle_gamma   90.00000000
_symmetry_Int_Tables_number   1
_chemical_formula_structural   Ag2H4C3SIN3
_chemical_formula_sum   'Ag16 H32 C24 S8 I8 N24'
_cell_volume   1564.05773571
_cell_formula_units_Z   8
loop_
 _symmetry_equiv_pos_site_id
 _symmetry_equiv_pos_as_xyz
  1  'x, y, z'
loop_
 _atom_site_type_symbol
 _atom_site_label
 _atom_site_symmetry_multiplicity
 _atom_site_fract_x
 _atom_site_fract_y
 _atom_site_fract_z
 _atom_site_occupancy
  Ag  Ag0  1  0.92120000  0.56985000  0.70662000  1.0
  Ag  Ag1  1  0.07881000  0.93016000  0.20662000  1.0
  Ag  Ag2  1  0.42119000  0.43015000  0.79338000  1.0
  Ag  Ag3  1  0.57881000  0.06985000  0.29338000  1.0
  Ag  Ag4  1  0.07881000  0.43016000  0.29338000  1.0
  Ag  Ag5  1  0.92119000  0.06985000  0.79338000  1.0
  Ag  Ag6  1  0.57881000  0.56985000  0.20662000  1.0
  Ag  Ag7  1  0.42119000  0.93016000  0.70662000  1.0
  Ag  Ag8  1  0.60598000  0.19507000  0.67471000  1.0
  Ag  Ag9  1  0.39402000  0.30493000  0.17471000  1.0
  Ag  Ag10  1  0.10598000  0.80493000  0.82529000  1.0
  Ag  Ag11  1  0.89402000  0.69507000  0.32529000  1.0
  Ag  Ag12  1  0.39402000  0.80493000  0.32529000  1.0
  Ag  Ag13  1  0.60598000  0.69507000  0.82529000  1.0
  Ag  Ag14  1  0.89402000  0.19507000  0.17471000  1.0
  Ag  Ag15  1  0.10599000  0.30492000  0.67471000  1.0
  H  H16  1  0.77234000  0.99042000  0.53551000  1.0
  H  H17  1  0.22766000  0.50957000  0.03551000  1.0
  H  H18  1  0.27234000  0.00957000  0.96449000  1.0
  H  H19  1  0.72766000  0.49043000  0.46449000  1.0
  H  H20  1  0.22766000  0.00957000  0.46449000  1.0
  H  H21  1  0.77234000  0.49043000  0.96449000  1.0
  H  H22  1  0.72766000  0.99043000  0.03551000  1.0
  H  H23  1  0.27234000  0.50957000  0.53551000  1.0
  H  H24  1  0.95119000  0.79692000  0.49628000  1.0
  H  H25  1  0.04881000  0.70307000  0.99628000  1.0
  H  H26  1  0.45119000  0.20308000  0.00372000  1.0
  H  H27  1  0.54881000  0.29693000  0.50372000  1.0
  H  H28  1  0.04881000  0.20308000  0.50372000  1.0
  H  H29  1  0.95119000  0.29693000  0.00372000  1.0
  H  H30  1  0.54881000  0.79692000  0.99628000  1.0
  H  H31  1  0.45119000  0.70307000  0.49628000  1.0
  H  H32  1  0.98338000  0.67626000  0.56155000  1.0
  H  H33  1  0.01661000  0.82373000  0.06155000  1.0
  H  H34  1  0.48339000  0.32373000  0.93844000  1.0
  H  H35  1  0.51661000  0.17627000  0.43845000  1.0
  H  H36  1  0.01662000  0.32373000  0.43845000  1.0
  H  H37  1  0.98339000  0.17627000  0.93845000  1.0
  H  H38  1  0.51661000  0.67627000  0.06155000  1.0
  H  H39  1  0.48338000  0.82373000  0.56155000  1.0
  H  H40  1  0.15087000  0.78904000  0.54047000  1.0
  H  H41  1  0.84913000  0.71096000  0.04047000  1.0
  H  H42  1  0.65087000  0.21096000  0.95953000  1.0
  H  H43  1  0.34913000  0.28904000  0.45953000  1.0
  H  H44  1  0.84913000  0.21096000  0.45953000  1.0
  H  H45  1  0.15087000  0.28904000  0.95953000  1.0
  H  H46  1  0.34913000  0.78904000  0.04047000  1.0
  H  H47  1  0.65087000  0.71096000  0.54047000  1.0
  C  C48  1  0.98853000  0.87517000  0.66244000  1.0
  C  C49  1  0.01147000  0.62483000  0.16245000  1.0
  C  C50  1  0.48853000  0.12483000  0.83755000  1.0
  C  C51  1  0.51147000  0.37517000  0.33755000  1.0
  C  C52  1  0.01147000  0.12483000  0.33755000  1.0
  C  C53  1  0.98853000  0.37517000  0.83756000  1.0
  C  C54  1  0.51147000  0.87517000  0.16245000  1.0
  C  C55  1  0.48853000  0.62483000  0.66245000  1.0
  C  C56  1  0.83232000  0.97019000  0.58404000  1.0
  C  C57  1  0.16767000  0.52980000  0.08404000  1.0
  C  C58  1  0.33232000  0.02981000  0.91596000  1.0
  C  C59  1  0.66767000  0.47019000  0.41596000  1.0
  C  C60  1  0.16767000  0.02981000  0.41596000  1.0
  C  C61  1  0.83232000  0.47020000  0.91596000  1.0
  C  C62  1  0.66767000  0.97019000  0.08405000  1.0
  C  C63  1  0.33232000  0.52980000  0.58404000  1.0
  C  C64  1  0.01151000  0.77751000  0.54534000  1.0
  C  C65  1  0.98848000  0.72249000  0.04534000  1.0
  C  C66  1  0.51152000  0.22249000  0.95466000  1.0
  C  C67  1  0.48848000  0.27751000  0.45466000  1.0
  C  C68  1  0.98849000  0.22249000  0.45466000  1.0
  C  C69  1  0.01152000  0.27751000  0.95466000  1.0
  C  C70  1  0.48848000  0.77751000  0.04534000  1.0
  C  C71  1  0.51151000  0.72249000  0.54534000  1.0
  S  S72  1  0.12655000  0.76543000  0.70034000  1.0
  S  S73  1  0.87345000  0.73456000  0.20034000  1.0
  S  S74  1  0.62655000  0.23456000  0.79966000  1.0
  S  S75  1  0.37345000  0.26543000  0.29966000  1.0
  S  S76  1  0.87345000  0.23457000  0.29966000  1.0
  S  S77  1  0.12655000  0.26544000  0.79966000  1.0
  S  S78  1  0.37345000  0.76544000  0.20034000  1.0
  S  S79  1  0.62655000  0.73457000  0.70034000  1.0
  I  I80  1  0.81133000  0.39586000  0.60368000  1.0
  I  I81  1  0.18866000  0.10413000  0.10368000  1.0
  I  I82  1  0.31134000  0.60413000  0.89632000  1.0
  I  I83  1  0.68867000  0.89587000  0.39632000  1.0
  I  I84  1  0.18867000  0.60413000  0.39632000  1.0
  I  I85  1  0.81134000  0.89587000  0.89632000  1.0
  I  I86  1  0.68866000  0.39587000  0.10368000  1.0
  I  I87  1  0.31133000  0.10413000  0.60368000  1.0
  N  N88  1  0.80573000  0.03445000  0.64090000  1.0
  N  N89  1  0.19426000  0.46555000  0.14090000  1.0
  N  N90  1  0.30574000  0.96555000  0.85909000  1.0
  N  N91  1  0.69426000  0.53445000  0.35910000  1.0
  N  N92  1  0.19426000  0.96555000  0.35910000  1.0
  N  N93  1  0.80574000  0.53445000  0.85910000  1.0
  N  N94  1  0.69426000  0.03445000  0.14091000  1.0
  N  N95  1  0.30574000  0.46555000  0.64091000  1.0
  N  N96  1  0.90364000  0.97571000  0.69022000  1.0
  N  N97  1  0.09636000  0.52428000  0.19022000  1.0
  N  N98  1  0.40364000  0.02428000  0.80978000  1.0
  N  N99  1  0.59636000  0.47572000  0.30978000  1.0
  N  N100  1  0.09637000  0.02429000  0.30978000  1.0
  N  N101  1  0.90364000  0.47572000  0.80978000  1.0
  N  N102  1  0.59636000  0.97572000  0.19022000  1.0
  N  N103  1  0.40364000  0.52428000  0.69022000  1.0
  N  N104  1  0.94605000  0.87043000  0.59475000  1.0
  N  N105  1  0.05395000  0.62957000  0.09475000  1.0
  N  N106  1  0.44605000  0.12957000  0.90524000  1.0
  N  N107  1  0.55395000  0.37043000  0.40524000  1.0
  N  N108  1  0.05396000  0.12957000  0.40525000  1.0
  N  N109  1  0.94605000  0.37043000  0.90525000  1.0
  N  N110  1  0.55395000  0.87043000  0.09476000  1.0
  N  N111  1  0.44605000  0.62957000  0.59475000  1.0
