# generated using pymatgen
data_AgAsH19C19NCl
_symmetry_space_group_name_H-M   'P 1'
_cell_length_a   9.20524000
_cell_length_b   10.25720000
_cell_length_c   11.16550000
_cell_angle_alpha   73.38730000
_cell_angle_beta   66.87970000
_cell_angle_gamma   71.88480000
_symmetry_Int_Tables_number   1
_chemical_formula_structural   AgAsH19C19NCl
_chemical_formula_sum   'Ag2 As2 H38 C38 N2 Cl2'
_cell_volume   905.18656686
_cell_formula_units_Z   2
loop_
 _symmetry_equiv_pos_site_id
 _symmetry_equiv_pos_as_xyz
  1  'x, y, z'
loop_
 _atom_site_type_symbol
 _atom_site_label
 _atom_site_symmetry_multiplicity
 _atom_site_fract_x
 _atom_site_fract_y
 _atom_site_fract_z
 _atom_site_occupancy
  Ag  Ag0  1  0.54279000  0.62914000  0.99749000  1.0
  Ag  Ag1  1  0.45721000  0.37086000  0.00251000  1.0
  As  As2  1  0.36318000  0.82014000  0.11912000  1.0
  As  As3  1  0.63682000  0.17986000  0.88089000  1.0
  H  H4  1  0.81242000  0.75242000  0.00806000  1.0
  H  H5  1  0.18758000  0.24758000  0.99194000  1.0
  H  H6  1  0.01776000  0.65796000  0.97398000  1.0
  H  H7  1  0.98223000  0.34204000  0.02601000  1.0
  H  H8  1  0.85418000  0.56955000  0.03967000  1.0
  H  H9  1  0.14582000  0.43045000  0.96033000  1.0
  H  H10  1  0.15823000  0.67773000  0.73987000  1.0
  H  H11  1  0.84177000  0.32227000  0.26013000  1.0
  H  H12  1  0.15993000  0.68819000  0.51228000  1.0
  H  H13  1  0.84007000  0.31182000  0.48772000  1.0
  H  H14  1  0.90538000  0.67409000  0.48659000  1.0
  H  H15  1  0.09462000  0.32593000  0.51341000  1.0
  H  H16  1  0.66113000  0.64960000  0.69207000  1.0
  H  H17  1  0.33887000  0.35040000  0.30792000  1.0
  H  H18  1  0.36243000  0.03574000  0.94084000  1.0
  H  H19  1  0.63757000  0.96426000  0.05916000  1.0
  H  H20  1  0.34339000  0.08150000  0.08993000  1.0
  H  H21  1  0.65661000  0.91850000  0.91008000  1.0
  H  H22  1  0.53386000  0.60696000  0.29363000  1.0
  H  H23  1  0.46614000  0.39304000  0.70638000  1.0
  H  H24  1  0.56709000  0.59753000  0.50794000  1.0
  H  H25  1  0.43291000  0.40246000  0.49206000  1.0
  H  H26  1  0.43909000  0.80157000  0.62020000  1.0
  H  H27  1  0.56092000  0.19843000  0.37980000  1.0
  H  H28  1  0.27469000  0.01625000  0.52065000  1.0
  H  H29  1  0.72532000  0.98374000  0.47935000  1.0
  H  H30  1  0.23583000  0.02529000  0.31123000  1.0
  H  H31  1  0.76419000  0.97472000  0.68877000  1.0
  H  H32  1  0.14009000  0.63294000  0.20470000  1.0
  H  H33  1  0.85992000  0.36706000  0.79530000  1.0
  H  H34  1  0.84143000  0.66328000  0.27441000  1.0
  H  H35  1  0.15857000  0.33671000  0.72559000  1.0
  H  H36  1  0.66193000  0.90131000  0.27075000  1.0
  H  H37  1  0.33807000  0.09869000  0.72925000  1.0
  H  H38  1  0.78267000  0.11089000  0.19088000  1.0
  H  H39  1  0.21733000  0.88910000  0.80912000  1.0
  H  H40  1  0.07750000  0.08036000  0.12976000  1.0
  H  H41  1  0.92250000  0.91964000  0.87025000  1.0
  C  C42  1  0.90855000  0.66204000  0.83362000  1.0
  C  C43  1  0.09144000  0.33796000  0.16638000  1.0
  C  C44  1  0.89958000  0.65995000  0.97088000  1.0
  C  C45  1  0.10041000  0.34005000  0.02911000  1.0
  C  C46  1  0.05007000  0.67348000  0.72430000  1.0
  C  C47  1  0.94993000  0.32652000  0.27570000  1.0
  C  C48  1  0.05094000  0.67795000  0.59809000  1.0
  C  C49  1  0.94906000  0.32205000  0.40191000  1.0
  C  C50  1  0.91029000  0.67012000  0.58346000  1.0
  C  C51  1  0.08971000  0.32988000  0.41653000  1.0
  C  C52  1  0.77453000  0.65766000  0.69632000  1.0
  C  C53  1  0.22547000  0.34235000  0.30368000  1.0
  C  C54  1  0.40935000  0.00546000  0.02380000  1.0
  C  C55  1  0.59065000  0.99454000  0.97621000  1.0
  C  C56  1  0.38415000  0.81684000  0.28840000  1.0
  C  C57  1  0.61585000  0.18316000  0.71160000  1.0
  C  C58  1  0.47704000  0.69645000  0.34398000  1.0
  C  C59  1  0.52296000  0.30354000  0.65602000  1.0
  C  C60  1  0.49619000  0.69162000  0.46362000  1.0
  C  C61  1  0.50381000  0.30838000  0.53638000  1.0
  C  C62  1  0.42469000  0.80686000  0.52648000  1.0
  C  C63  1  0.57533000  0.19314000  0.47353000  1.0
  C  C64  1  0.33194000  0.92687000  0.47085000  1.0
  C  C65  1  0.66807000  0.07312000  0.52916000  1.0
  C  C66  1  0.31076000  0.93175000  0.35240000  1.0
  C  C67  1  0.68926000  0.06825000  0.64760000  1.0
  C  C68  1  0.12777000  0.85447000  0.16659000  1.0
  C  C69  1  0.87223000  0.14553000  0.83342000  1.0
  C  C70  1  0.06106000  0.73732000  0.20530000  1.0
  C  C71  1  0.93895000  0.26268000  0.79469000  1.0
  C  C72  1  0.89347000  0.75459000  0.24337000  1.0
  C  C73  1  0.10653000  0.24541000  0.75663000  1.0
  C  C74  1  0.79280000  0.88860000  0.23992000  1.0
  C  C75  1  0.20720000  0.11140000  0.76008000  1.0
  C  C76  1  0.85980000  0.00566000  0.19725000  1.0
  C  C77  1  0.14020000  0.99434000  0.80275000  1.0
  C  C78  1  0.02708000  0.98839000  0.16180000  1.0
  C  C79  1  0.97292000  0.01161000  0.83820000  1.0
  N  N80  1  0.77302000  0.65388000  0.81829000  1.0
  N  N81  1  0.22698000  0.34613000  0.18171000  1.0
  Cl  Cl82  1  0.37098000  0.60996000  0.85755000  1.0
  Cl  Cl83  1  0.62902000  0.39004000  0.14246000  1.0
