# generated using pymatgen
data_Cd3H58C58N8O15
_symmetry_space_group_name_H-M   'P 1'
_cell_length_a   11.57810000
_cell_length_b   16.80070000
_cell_length_c   17.20790516
_cell_angle_alpha   69.28520676
_cell_angle_beta   70.35957367
_cell_angle_gamma   89.99250000
_symmetry_Int_Tables_number   1
_chemical_formula_structural   Cd3H58C58N8O15
_chemical_formula_sum   'Cd6 H116 C116 N16 O30'
_cell_volume   2921.82073444
_cell_formula_units_Z   2
loop_
 _symmetry_equiv_pos_site_id
 _symmetry_equiv_pos_as_xyz
  1  'x, y, z'
loop_
 _atom_site_type_symbol
 _atom_site_label
 _atom_site_symmetry_multiplicity
 _atom_site_fract_x
 _atom_site_fract_y
 _atom_site_fract_z
 _atom_site_occupancy
  Cd  Cd0  1  0.22102000  0.65464000  0.23264000  1.0
  Cd  Cd1  1  0.45377000  0.84516000  0.76746000  1.0
  Cd  Cd2  1  0.77899000  0.34536000  0.76735000  1.0
  Cd  Cd3  1  0.54623000  0.15484000  0.23254000  1.0
  Cd  Cd4  1  0.23937000  0.75001000  0.99999000  1.0
  Cd  Cd5  1  0.76063000  0.24999000  0.00001000  1.0
  H  H6  1  0.08487000  0.21337000  0.95034000  1.0
  H  H7  1  0.03521000  0.28640000  0.04990000  1.0
  H  H8  1  0.91514000  0.78663000  0.04966000  1.0
  H  H9  1  0.96480000  0.71360000  0.95010000  1.0
  H  H10  1  0.07755000  0.28660000  0.80129000  1.0
  H  H11  1  0.87888000  0.21339000  0.19894000  1.0
  H  H12  1  0.92246000  0.71340000  0.19871000  1.0
  H  H13  1  0.12112000  0.78661000  0.80106000  1.0
  H  H14  1  0.41539000  0.45144000  0.72266000  1.0
  H  H15  1  0.13776000  0.04815000  0.27775000  1.0
  H  H16  1  0.58461000  0.54857000  0.27734000  1.0
  H  H17  1  0.86225000  0.95185000  0.72224000  1.0
  H  H18  1  0.42373000  0.37670000  0.87371000  1.0
  H  H19  1  0.29696000  0.12252000  0.12660000  1.0
  H  H20  1  0.57628000  0.62330000  0.12628000  1.0
  H  H21  1  0.70305000  0.87749000  0.87340000  1.0
  H  H22  1  0.11488000  0.33516000  0.66406000  1.0
  H  H23  1  0.77877000  0.16466000  0.33632000  1.0
  H  H24  1  0.88512000  0.66485000  0.33594000  1.0
  H  H25  1  0.22123000  0.83534000  0.66368000  1.0
  H  H26  1  0.27590000  0.56310000  0.54291000  1.0
  H  H27  1  0.81907000  0.93666000  0.45722000  1.0
  H  H28  1  0.72409000  0.43690000  0.45709000  1.0
  H  H29  1  0.18092000  0.06333000  0.54277000  1.0
  H  H30  1  0.27882000  0.65691000  0.39115000  1.0
  H  H31  1  0.67020000  0.84265000  0.60883000  1.0
  H  H32  1  0.72118000  0.34309000  0.60884000  1.0
  H  H33  1  0.32980000  0.15734000  0.39116000  1.0
  H  H34  1  0.08260000  0.46171000  0.37474000  1.0
  H  H35  1  0.45748000  0.03775000  0.62552000  1.0
  H  H36  1  0.91740000  0.53829000  0.62526000  1.0
  H  H37  1  0.54252000  0.96225000  0.37447000  1.0
  H  H38  1  0.07120000  0.35957000  0.52570000  1.0
  H  H39  1  0.59702000  0.14010000  0.47471000  1.0
  H  H40  1  0.92881000  0.64043000  0.47430000  1.0
  H  H41  1  0.40298000  0.85989000  0.52529000  1.0
  H  H42  1  0.89872000  0.82514000  0.32416000  1.0
  H  H43  1  0.22204000  0.67506000  0.67608000  1.0
  H  H44  1  0.10127000  0.17486000  0.67585000  1.0
  H  H45  1  0.77795000  0.32494000  0.32392000  1.0
  H  H46  1  0.77147000  0.94621000  0.29879000  1.0
  H  H47  1  0.06974000  0.55380000  0.70146000  1.0
  H  H48  1  0.22852000  0.05379000  0.70122000  1.0
  H  H49  1  0.93026000  0.44619000  0.29854000  1.0
  H  H50  1  0.02068000  0.06268000  0.02822000  1.0
  H  H51  1  0.04937000  0.43713000  0.97182000  1.0
  H  H52  1  0.97932000  0.93732000  0.97178000  1.0
  H  H53  1  0.95062000  0.56287000  0.02818000  1.0
  H  H54  1  0.14351000  0.93941000  0.05121000  1.0
  H  H55  1  0.19495000  0.56051000  0.94886000  1.0
  H  H56  1  0.85649000  0.06059000  0.94879000  1.0
  H  H57  1  0.80504000  0.43949000  0.05114000  1.0
  H  H58  1  0.38856000  0.62100000  0.94373000  1.0
  H  H59  1  0.33232000  0.87918000  0.05599000  1.0
  H  H60  1  0.61145000  0.37900000  0.05627000  1.0
  H  H61  1  0.66768000  0.12082000  0.94401000  1.0
  H  H62  1  0.50728000  0.45929000  0.15189000  1.0
  H  H63  1  0.65955000  0.04056000  0.84830000  1.0
  H  H64  1  0.49273000  0.54071000  0.84811000  1.0
  H  H65  1  0.34046000  0.95944000  0.15170000  1.0
  H  H66  1  0.49588000  0.78994000  0.11376000  1.0
  H  H67  1  0.61001000  0.71022000  0.88646000  1.0
  H  H68  1  0.50414000  0.21005000  0.88624000  1.0
  H  H69  1  0.38998000  0.28977000  0.11355000  1.0
  H  H70  1  0.43119000  0.82007000  0.32470000  1.0
  H  H71  1  0.75587000  0.67960000  0.67582000  1.0
  H  H72  1  0.56882000  0.17993000  0.67530000  1.0
  H  H73  1  0.24413000  0.32040000  0.32418000  1.0
  H  H74  1  0.58171000  0.87837000  0.28543000  1.0
  H  H75  1  0.86705000  0.62120000  0.71521000  1.0
  H  H76  1  0.41829000  0.12163000  0.71458000  1.0
  H  H77  1  0.13296000  0.37880000  0.28479000  1.0
  H  H78  1  0.56201000  0.76340000  0.32602000  1.0
  H  H79  1  0.88817000  0.73618000  0.67436000  1.0
  H  H80  1  0.43799000  0.23660000  0.67399000  1.0
  H  H81  1  0.11183000  0.26382000  0.32565000  1.0
  H  H82  1  0.74437000  0.86260000  0.13783000  1.0
  H  H83  1  0.88252000  0.63733000  0.86257000  1.0
  H  H84  1  0.25564000  0.13740000  0.86217000  1.0
  H  H85  1  0.11747000  0.36267000  0.13744000  1.0
  H  H86  1  0.65462000  0.94954000  0.12662000  1.0
  H  H87  1  0.78148000  0.55040000  0.87392000  1.0
  H  H88  1  0.34538000  0.05046000  0.87339000  1.0
  H  H89  1  0.21852000  0.44960000  0.12608000  1.0
  H  H90  1  0.66082000  0.88395000  0.06362000  1.0
  H  H91  1  0.72485000  0.61609000  0.93682000  1.0
  H  H92  1  0.33918000  0.11604000  0.93639000  1.0
  H  H93  1  0.27515000  0.38391000  0.06318000  1.0
  H  H94  1  0.15293000  0.81420000  0.37830000  1.0
  H  H95  1  0.53152000  0.68611000  0.62123000  1.0
  H  H96  1  0.84706000  0.18580000  0.62171000  1.0
  H  H97  1  0.46847000  0.31388000  0.37877000  1.0
  H  H98  1  0.25229000  0.74042000  0.48120000  1.0
  H  H99  1  0.73376000  0.75961000  0.51831000  1.0
  H  H100  1  0.74771000  0.25958000  0.51881000  1.0
  H  H101  1  0.26624000  0.24039000  0.48169000  1.0
  H  H102  1  0.15514000  0.78234000  0.55753000  1.0
  H  H103  1  0.71269000  0.71773000  0.44201000  1.0
  H  H104  1  0.84486000  0.21766000  0.44248000  1.0
  H  H105  1  0.28731000  0.28227000  0.55798000  1.0
  H  H106  1  0.08963000  0.70417000  0.53085000  1.0
  H  H107  1  0.62083000  0.79606000  0.46860000  1.0
  H  H108  1  0.91036000  0.29583000  0.46916000  1.0
  H  H109  1  0.37917000  0.20394000  0.53139000  1.0
  H  H110  1  0.02004000  0.91791000  0.40079000  1.0
  H  H111  1  0.42075000  0.58250000  0.59885000  1.0
  H  H112  1  0.97997000  0.08209000  0.59921000  1.0
  H  H113  1  0.57925000  0.41750000  0.40113000  1.0
  H  H114  1  0.94691000  0.81558000  0.48628000  1.0
  H  H115  1  0.43303000  0.68489000  0.51341000  1.0
  H  H116  1  0.05309000  0.18443000  0.51372000  1.0
  H  H117  1  0.56697000  0.31511000  0.48658000  1.0
  H  H118  1  0.02622000  0.89113000  0.50865000  1.0
  H  H119  1  0.53450000  0.60926000  0.49093000  1.0
  H  H120  1  0.97379000  0.10888000  0.49135000  1.0
  H  H121  1  0.46550000  0.39075000  0.50905000  1.0
  C  C122  1  0.25591000  0.29080000  0.92063000  1.0
  C  C123  1  0.17635000  0.20874000  0.07966000  1.0
  C  C124  1  0.74410000  0.70920000  0.07937000  1.0
  C  C125  1  0.82366000  0.79126000  0.92034000  1.0
  C  C126  1  0.15830000  0.26459000  0.90051000  1.0
  C  C127  1  0.05878000  0.23515000  0.09976000  1.0
  C  C128  1  0.84171000  0.73541000  0.09949000  1.0
  C  C129  1  0.94123000  0.76485000  0.90024000  1.0
  C  C130  1  0.15533000  0.30558000  0.81574000  1.0
  C  C131  1  0.97104000  0.19427000  0.18453000  1.0
  C  C132  1  0.84468000  0.69442000  0.18426000  1.0
  C  C133  1  0.02896000  0.80573000  0.81547000  1.0
  C  C134  1  0.24751000  0.37327000  0.75038000  1.0
  C  C135  1  0.99787000  0.12658000  0.24995000  1.0
  C  C136  1  0.75249000  0.62673000  0.24962000  1.0
  C  C137  1  0.00214000  0.87342000  0.75004000  1.0
  C  C138  1  0.34408000  0.39873000  0.77261000  1.0
  C  C139  1  0.11651000  0.10092000  0.22777000  1.0
  C  C140  1  0.65592000  0.60127000  0.22739000  1.0
  C  C141  1  0.88350000  0.89908000  0.77223000  1.0
  C  C142  1  0.34855000  0.35765000  0.85682000  1.0
  C  C143  1  0.20508000  0.14181000  0.14350000  1.0
  C  C144  1  0.65146000  0.64235000  0.14317000  1.0
  C  C145  1  0.79492000  0.85820000  0.85650000  1.0
  C  C146  1  0.17642000  0.39672000  0.63201000  1.0
  C  C147  1  0.80848000  0.10314000  0.36835000  1.0
  C  C148  1  0.82358000  0.60328000  0.36799000  1.0
  C  C149  1  0.19152000  0.89686000  0.63165000  1.0
  C  C150  1  0.17576000  0.45338000  0.54528000  1.0
  C  C151  1  0.72127000  0.04636000  0.45504000  1.0
  C  C152  1  0.82423000  0.54662000  0.45472000  1.0
  C  C153  1  0.27873000  0.95363000  0.54495000  1.0
  C  C154  1  0.23268000  0.53887000  0.50703000  1.0
  C  C155  1  0.73998000  0.96085000  0.49314000  1.0
  C  C156  1  0.76732000  0.46113000  0.49297000  1.0
  C  C157  1  0.26002000  0.03915000  0.50685000  1.0
  C  C158  1  0.23350000  0.59075000  0.42403000  1.0
  C  C159  1  0.65779000  0.90886000  0.57605000  1.0
  C  C160  1  0.76650000  0.40925000  0.57597000  1.0
  C  C161  1  0.34221000  0.09113000  0.42394000  1.0
  C  C162  1  0.12453000  0.48123000  0.41438000  1.0
  C  C163  1  0.53911000  0.01833000  0.58585000  1.0
  C  C164  1  0.87547000  0.51877000  0.58562000  1.0
  C  C165  1  0.46089000  0.98166000  0.41414000  1.0
  C  C166  1  0.11895000  0.42490000  0.49775000  1.0
  C  C167  1  0.61688000  0.07477000  0.50259000  1.0
  C  C168  1  0.88105000  0.57511000  0.50225000  1.0
  C  C169  1  0.38313000  0.92523000  0.49740000  1.0
  C  C170  1  0.09906000  0.79988000  0.20407000  1.0
  C  C171  1  0.30281000  0.70017000  0.79603000  1.0
  C  C172  1  0.90094000  0.20012000  0.79594000  1.0
  C  C173  1  0.69719000  0.29983000  0.20396000  1.0
  C  C174  1  0.02848000  0.87486000  0.18919000  1.0
  C  C175  1  0.21721000  0.62525000  0.81100000  1.0
  C  C176  1  0.97151000  0.12514000  0.81082000  1.0
  C  C177  1  0.78278000  0.37475000  0.18900000  1.0
  C  C178  1  0.92394000  0.87718000  0.25928000  1.0
  C  C179  1  0.18256000  0.62297000  0.74095000  1.0
  C  C180  1  0.07607000  0.12282000  0.74072000  1.0
  C  C181  1  0.81743000  0.37703000  0.25905000  1.0
  C  C182  1  0.85343000  0.94417000  0.24523000  1.0
  C  C183  1  0.09821000  0.55589000  0.75499000  1.0
  C  C184  1  0.14657000  0.05583000  0.75477000  1.0
  C  C185  1  0.90180000  0.44411000  0.24500000  1.0
  C  C186  1  0.88761000  0.01100000  0.16140000  1.0
  C  C187  1  0.04887000  0.48899000  0.83880000  1.0
  C  C188  1  0.11239000  0.98899000  0.83860000  1.0
  C  C189  1  0.95112000  0.51100000  0.16120000  1.0
  C  C190  1  0.80856000  0.08193000  0.14510000  1.0
  C  C191  1  0.95373000  0.41799000  0.85508000  1.0
  C  C192  1  0.19144000  0.91807000  0.85490000  1.0
  C  C193  1  0.04627000  0.58201000  0.14492000  1.0
  C  C194  1  0.99448000  0.01012000  0.09264000  1.0
  C  C195  1  0.08724000  0.48981000  0.90749000  1.0
  C  C196  1  0.00552000  0.98988000  0.90736000  1.0
  C  C197  1  0.91275000  0.51019000  0.09251000  1.0
  C  C198  1  0.06350000  0.94203000  0.10574000  1.0
  C  C199  1  0.16918000  0.55799000  0.89439000  1.0
  C  C200  1  0.93649000  0.05797000  0.89427000  1.0
  C  C201  1  0.83081000  0.44201000  0.10561000  1.0
  C  C202  1  0.37694000  0.59000000  0.11303000  1.0
  C  C203  1  0.49021000  0.90993000  0.88698000  1.0
  C  C204  1  0.62306000  0.41000000  0.88697000  1.0
  C  C205  1  0.50978000  0.09007000  0.11303000  1.0
  C  C206  1  0.44255000  0.54512000  0.05344000  1.0
  C  C207  1  0.49620000  0.95482000  0.94656000  1.0
  C  C208  1  0.55746000  0.45487000  0.94656000  1.0
  C  C209  1  0.50380000  0.04518000  0.05344000  1.0
  C  C210  1  0.43756000  0.56812000  0.96820000  1.0
  C  C211  1  0.40583000  0.93196000  0.03167000  1.0
  C  C212  1  0.56244000  0.43188000  0.03180000  1.0
  C  C213  1  0.59417000  0.06804000  0.96833000  1.0
  C  C214  1  0.50530000  0.47681000  0.08507000  1.0
  C  C215  1  0.59058000  0.02309000  0.91503000  1.0
  C  C216  1  0.49470000  0.52319000  0.91493000  1.0
  C  C217  1  0.40942000  0.97692000  0.08497000  1.0
  C  C218  1  0.47228000  0.78221000  0.18388000  1.0
  C  C219  1  0.65653000  0.71782000  0.81639000  1.0
  C  C220  1  0.52774000  0.21778000  0.81612000  1.0
  C  C221  1  0.34348000  0.28218000  0.18361000  1.0
  C  C222  1  0.53008000  0.82160000  0.28940000  1.0
  C  C223  1  0.81954000  0.67805000  0.71110000  1.0
  C  C224  1  0.46993000  0.17840000  0.71060000  1.0
  C  C225  1  0.18047000  0.32196000  0.28890000  1.0
  C  C226  1  0.65915000  0.88397000  0.12766000  1.0
  C  C227  1  0.78712000  0.61600000  0.87280000  1.0
  C  C228  1  0.34086000  0.11603000  0.87234000  1.0
  C  C229  1  0.21289000  0.38399000  0.12720000  1.0
  C  C230  1  0.16093000  0.76126000  0.50278000  1.0
  C  C231  1  0.66389000  0.73887000  0.49672000  1.0
  C  C232  1  0.83906000  0.23874000  0.49723000  1.0
  C  C233  1  0.33611000  0.26113000  0.50327000  1.0
  C  C234  1  0.02932000  0.86527000  0.45751000  1.0
  C  C235  1  0.48667000  0.63513000  0.54210000  1.0
  C  C236  1  0.97068000  0.13473000  0.54249000  1.0
  C  C237  1  0.51332000  0.36488000  0.45789000  1.0
  N  N238  1  0.24705000  0.42113000  0.66575000  1.0
  N  N239  1  0.91285000  0.07877000  0.33460000  1.0
  N  N240  1  0.75295000  0.57887000  0.33425000  1.0
  N  N241  1  0.08715000  0.92123000  0.66540000  1.0
  N  N242  1  0.18095000  0.56261000  0.37778000  1.0
  N  N243  1  0.55897000  0.93693000  0.62230000  1.0
  N  N244  1  0.81904000  0.43739000  0.62222000  1.0
  N  N245  1  0.44102000  0.06307000  0.37769000  1.0
  N  N246  1  0.55132000  0.82749000  0.19899000  1.0
  N  N247  1  0.75056000  0.67241000  0.80143000  1.0
  N  N248  1  0.44868000  0.17250000  0.80102000  1.0
  N  N249  1  0.24944000  0.32758000  0.19857000  1.0
  N  N250  1  0.14657000  0.83262000  0.43006000  1.0
  N  N251  1  0.57672000  0.66764000  0.56947000  1.0
  N  N252  1  0.85344000  0.16738000  0.56994000  1.0
  N  N253  1  0.42327000  0.33236000  0.43052000  1.0
  O  O254  1  0.27352000  0.24973000  0.00017000  1.0
  O  O255  1  0.72649000  0.75028000  0.99983000  1.0
  O  O256  1  0.08331000  0.75052000  0.28344000  1.0
  O  O257  1  0.36642000  0.74942000  0.71662000  1.0
  O  O258  1  0.91669000  0.24948000  0.71657000  1.0
  O  O259  1  0.63357000  0.25058000  0.28338000  1.0
  O  O260  1  0.17260000  0.78597000  0.13645000  1.0
  O  O261  1  0.30901000  0.71406000  0.86361000  1.0
  O  O262  1  0.82740000  0.21402000  0.86356000  1.0
  O  O263  1  0.69100000  0.28594000  0.13638000  1.0
  O  O264  1  0.71635000  0.08051000  0.21151000  1.0
  O  O265  1  0.92781000  0.41946000  0.78868000  1.0
  O  O266  1  0.28365000  0.91949000  0.78849000  1.0
  O  O267  1  0.07219000  0.58054000  0.21132000  1.0
  O  O268  1  0.84186000  0.13658000  0.06490000  1.0
  O  O269  1  0.90704000  0.36325000  0.93526000  1.0
  O  O270  1  0.15813000  0.86342000  0.93510000  1.0
  O  O271  1  0.09296000  0.63675000  0.06474000  1.0
  O  O272  1  0.34932000  0.55152000  0.19609000  1.0
  O  O273  1  0.54569000  0.94838000  0.80392000  1.0
  O  O274  1  0.65068000  0.44848000  0.80391000  1.0
  O  O275  1  0.45431000  0.05162000  0.19608000  1.0
  O  O276  1  0.35102000  0.66627000  0.07919000  1.0
  O  O277  1  0.43032000  0.83372000  0.92077000  1.0
  O  O278  1  0.64898000  0.33373000  0.92081000  1.0
  O  O279  1  0.56968000  0.16628000  0.07923000  1.0
  O  O280  1  0.37750000  0.73451000  0.24463000  1.0
  O  O281  1  0.62255000  0.76547000  0.75554000  1.0
  O  O282  1  0.62251000  0.26548000  0.75537000  1.0
  O  O283  1  0.37746000  0.23453000  0.24446000  1.0
