# generated using pymatgen
data_Zn2P2H10C6N2O7
_symmetry_space_group_name_H-M   'P 1'
_cell_length_a   9.40050000
_cell_length_b   10.46740000
_cell_length_c   13.51470000
_cell_angle_alpha   107.91100000
_cell_angle_beta   90.00000000
_cell_angle_gamma   90.00000000
_symmetry_Int_Tables_number   1
_chemical_formula_structural   Zn2P2H10C6N2O7
_chemical_formula_sum   'Zn8 P8 H40 C24 N8 O28'
_cell_volume   1265.38046050
_cell_formula_units_Z   4
loop_
 _symmetry_equiv_pos_site_id
 _symmetry_equiv_pos_as_xyz
  1  'x, y, z'
loop_
 _atom_site_type_symbol
 _atom_site_label
 _atom_site_symmetry_multiplicity
 _atom_site_fract_x
 _atom_site_fract_y
 _atom_site_fract_z
 _atom_site_occupancy
  Zn  Zn0  1  0.60872000  0.23500000  0.76164000  1.0
  Zn  Zn1  1  0.10872000  0.26500000  0.23836000  1.0
  Zn  Zn2  1  0.39127000  0.76500000  0.23836000  1.0
  Zn  Zn3  1  0.89127000  0.73500000  0.76164000  1.0
  Zn  Zn4  1  0.60115000  0.87369000  0.58617000  1.0
  Zn  Zn5  1  0.10115000  0.62631000  0.41383000  1.0
  Zn  Zn6  1  0.39885000  0.12631000  0.41383000  1.0
  Zn  Zn7  1  0.89885000  0.37369000  0.58617000  1.0
  P  P8  1  0.69172000  0.12661000  0.52246000  1.0
  P  P9  1  0.19172000  0.37339000  0.47754000  1.0
  P  P10  1  0.30828000  0.87339000  0.47754000  1.0
  P  P11  1  0.80828000  0.62661000  0.52246000  1.0
  P  P12  1  0.71921000  0.99471000  0.82453000  1.0
  P  P13  1  0.21920000  0.50529000  0.17546000  1.0
  P  P14  1  0.28079000  0.00529000  0.17546000  1.0
  P  P15  1  0.78079000  0.49471000  0.82453000  1.0
  H  H16  1  0.64986000  0.00243000  0.91912000  1.0
  H  H17  1  0.14986000  0.49757000  0.08088000  1.0
  H  H18  1  0.35014000  0.99756000  0.08088000  1.0
  H  H19  1  0.85014000  0.50243000  0.91912000  1.0
  H  H20  1  0.46711000  0.21225000  0.95357000  1.0
  H  H21  1  0.96711000  0.28775000  0.04643000  1.0
  H  H22  1  0.53289000  0.78775000  0.04643000  1.0
  H  H23  1  0.03289000  0.71225000  0.95357000  1.0
  H  H24  1  0.22447000  0.15869000  0.00483000  1.0
  H  H25  1  0.72447000  0.34131000  0.99517000  1.0
  H  H26  1  0.77553000  0.84131000  0.99517000  1.0
  H  H27  1  0.27553000  0.65869000  0.00483000  1.0
  H  H28  1  0.02846000  0.11189000  0.87103000  1.0
  H  H29  1  0.52846000  0.38811000  0.12897000  1.0
  H  H30  1  0.97154000  0.88811000  0.12897000  1.0
  H  H31  1  0.47154000  0.61189000  0.87103000  1.0
  H  H32  1  0.33278000  0.18269000  0.65468000  1.0
  H  H33  1  0.83278000  0.31731000  0.34532000  1.0
  H  H34  1  0.66722000  0.81731000  0.34532000  1.0
  H  H35  1  0.16722000  0.68269000  0.65468000  1.0
  H  H36  1  0.96439000  0.19732000  0.70303000  1.0
  H  H37  1  0.46439000  0.30267000  0.29697000  1.0
  H  H38  1  0.03561000  0.80267000  0.29697000  1.0
  H  H39  1  0.53561000  0.69732000  0.70303000  1.0
  H  H40  1  0.09412000  0.14645000  0.60239000  1.0
  H  H41  1  0.59412000  0.35355000  0.39761000  1.0
  H  H42  1  0.90588000  0.85355000  0.39761000  1.0
  H  H43  1  0.40588000  0.64645000  0.60239000  1.0
  H  H44  1  0.89375000  0.98817000  0.59817000  1.0
  H  H45  1  0.39375000  0.51183000  0.40183000  1.0
  H  H46  1  0.10625000  0.01183000  0.40183000  1.0
  H  H47  1  0.60625000  0.48817000  0.59817000  1.0
  H  H48  1  0.96212000  0.95972000  0.70330000  1.0
  H  H49  1  0.46212000  0.54028000  0.29670000  1.0
  H  H50  1  0.03788000  0.04028000  0.29670000  1.0
  H  H51  1  0.53788000  0.45972000  0.70330000  1.0
  H  H52  1  0.05895000  0.91642000  0.59107000  1.0
  H  H53  1  0.55895000  0.58358000  0.40893000  1.0
  H  H54  1  0.94105000  0.08358000  0.40893000  1.0
  H  H55  1  0.44105000  0.41642000  0.59107000  1.0
  C  C56  1  0.37893000  0.19266000  0.89851000  1.0
  C  C57  1  0.87893000  0.30734000  0.10149000  1.0
  C  C58  1  0.62107000  0.80734000  0.10149000  1.0
  C  C59  1  0.12107000  0.69266000  0.89851000  1.0
  C  C60  1  0.24386000  0.16180000  0.92620000  1.0
  C  C61  1  0.74387000  0.33820000  0.07380000  1.0
  C  C62  1  0.75614000  0.83820000  0.07380000  1.0
  C  C63  1  0.25614000  0.66180000  0.92620000  1.0
  C  C64  1  0.13553000  0.13777000  0.85230000  1.0
  C  C65  1  0.63553000  0.36223000  0.14770000  1.0
  C  C66  1  0.86447000  0.86223000  0.14770000  1.0
  C  C67  1  0.36447000  0.63777000  0.85230000  1.0
  C  C68  1  0.30377000  0.17633000  0.73114000  1.0
  C  C69  1  0.80377000  0.32367000  0.26886000  1.0
  C  C70  1  0.69623000  0.82367000  0.26886000  1.0
  C  C71  1  0.19623000  0.67633000  0.73114000  1.0
  C  C72  1  0.16524000  0.14560000  0.75283000  1.0
  C  C73  1  0.66524000  0.35440000  0.24717000  1.0
  C  C74  1  0.83476000  0.85440000  0.24717000  1.0
  C  C75  1  0.33476000  0.64560000  0.75283000  1.0
  C  C76  1  0.05156000  0.12672000  0.67168000  1.0
  C  C77  1  0.55156000  0.37328000  0.32832000  1.0
  C  C78  1  0.94844000  0.87328000  0.32832000  1.0
  C  C79  1  0.44844000  0.62672000  0.67168000  1.0
  N  N80  1  0.40818000  0.19927000  0.80259000  1.0
  N  N81  1  0.90818000  0.30073000  0.19741000  1.0
  N  N82  1  0.59182000  0.80073000  0.19741000  1.0
  N  N83  1  0.09182000  0.69927000  0.80259000  1.0
  N  N84  1  0.99011000  0.98870000  0.63927000  1.0
  N  N85  1  0.49011000  0.51130000  0.36072000  1.0
  N  N86  1  0.00989000  0.01130000  0.36073000  1.0
  N  N87  1  0.50989000  0.48870000  0.63927000  1.0
  O  O88  1  0.86662000  0.93081000  0.82870000  1.0
  O  O89  1  0.36662000  0.56919000  0.17130000  1.0
  O  O90  1  0.13338000  0.06919000  0.17130000  1.0
  O  O91  1  0.63338000  0.43081000  0.82870000  1.0
  O  O92  1  0.60861000  0.22005000  0.61574000  1.0
  O  O93  1  0.10861000  0.27995000  0.38426000  1.0
  O  O94  1  0.39139000  0.77995000  0.38426000  1.0
  O  O95  1  0.89139000  0.72005000  0.61574000  1.0
  O  O96  1  0.74245000  0.13986000  0.82289000  1.0
  O  O97  1  0.24245000  0.36014000  0.17711000  1.0
  O  O98  1  0.25755000  0.86014000  0.17711000  1.0
  O  O99  1  0.75755000  0.63986000  0.82289000  1.0
  O  O100  1  0.62197000  0.90947000  0.73893000  1.0
  O  O101  1  0.12197000  0.59053000  0.26107000  1.0
  O  O102  1  0.37803000  0.09053000  0.26107000  1.0
  O  O103  1  0.87803000  0.40947000  0.73893000  1.0
  O  O104  1  0.60095000  0.09706000  0.42318000  1.0
  O  O105  1  0.10095000  0.40294000  0.57682000  1.0
  O  O106  1  0.39905000  0.90294000  0.57682000  1.0
  O  O107  1  0.89906000  0.59706000  0.42318000  1.0
  O  O108  1  0.83539000  0.19181000  0.50524000  1.0
  O  O109  1  0.33539000  0.30819000  0.49476000  1.0
  O  O110  1  0.16461000  0.80819000  0.49476000  1.0
  O  O111  1  0.66461000  0.69181000  0.50524000  1.0
  O  O112  1  0.73444000  0.99262000  0.54371000  1.0
  O  O113  1  0.23444000  0.50738000  0.45629000  1.0
  O  O114  1  0.26556000  0.00738000  0.45629000  1.0
  O  O115  1  0.76556000  0.49262000  0.54371000  1.0
