# generated using pymatgen
data_AgH8C13N2(OF)3
_symmetry_space_group_name_H-M   'P 1'
_cell_length_a   8.27138000
_cell_length_b   19.99209772
_cell_length_c   19.99630000
_cell_angle_alpha   118.13602481
_cell_angle_beta   97.91470000
_cell_angle_gamma   97.90336123
_symmetry_Int_Tables_number   1
_chemical_formula_structural   AgH8C13N2(OF)3
_chemical_formula_sum   'Ag6 H48 C78 N12 O18 F18'
_cell_volume   2809.47065547
_cell_formula_units_Z   6
loop_
 _symmetry_equiv_pos_site_id
 _symmetry_equiv_pos_as_xyz
  1  'x, y, z'
loop_
 _atom_site_type_symbol
 _atom_site_label
 _atom_site_symmetry_multiplicity
 _atom_site_fract_x
 _atom_site_fract_y
 _atom_site_fract_z
 _atom_site_occupancy
  Ag  Ag0  1  0.32440000  0.97602000  0.51099000  1.0
  Ag  Ag1  1  0.34827000  0.53480000  0.02395000  1.0
  Ag  Ag2  1  0.81370000  0.48901000  0.46503000  1.0
  Ag  Ag3  1  0.67560000  0.02398000  0.48900000  1.0
  Ag  Ag4  1  0.65172000  0.46519000  0.97604000  1.0
  Ag  Ag5  1  0.18629000  0.51099000  0.53497000  1.0
  H  H6  1  0.05653000  0.00705000  0.41771000  1.0
  H  H7  1  0.04987000  0.41047000  0.99302000  1.0
  H  H8  1  0.63959000  0.58255000  0.58937000  1.0
  H  H9  1  0.94346000  0.99295000  0.58228000  1.0
  H  H10  1  0.95014000  0.58953000  0.00698000  1.0
  H  H11  1  0.36041000  0.41745000  0.41063000  1.0
  H  H12  1  0.92078000  0.11583000  0.42907000  1.0
  H  H13  1  0.80525000  0.31311000  0.88443000  1.0
  H  H14  1  0.49172000  0.57128000  0.68659000  1.0
  H  H15  1  0.07921000  0.88417000  0.57093000  1.0
  H  H16  1  0.19476000  0.68689000  0.11557000  1.0
  H  H17  1  0.50827000  0.42872000  0.31341000  1.0
  H  H18  1  0.01435000  0.24587000  0.55440000  1.0
  H  H19  1  0.76828000  0.30857000  0.75444000  1.0
  H  H20  1  0.45950000  0.44591000  0.69129000  1.0
  H  H21  1  0.98565000  0.75413000  0.44561000  1.0
  H  H22  1  0.23172000  0.69143000  0.24556000  1.0
  H  H23  1  0.54050000  0.55409000  0.30871000  1.0
  H  H24  1  0.36159000  0.14513000  0.63942000  1.0
  H  H25  1  0.21603000  0.49427000  0.85489000  1.0
  H  H26  1  0.72231000  0.36062000  0.50574000  1.0
  H  H27  1  0.63842000  0.85487000  0.36058000  1.0
  H  H28  1  0.78397000  0.50573000  0.14511000  1.0
  H  H29  1  0.27769000  0.63938000  0.49426000  1.0
  H  H30  1  0.12521000  0.17968000  0.72958000  1.0
  H  H31  1  0.94496000  0.55007000  0.82048000  1.0
  H  H32  1  0.39492000  0.27057000  0.45009000  1.0
  H  H33  1  0.87479000  0.82032000  0.27043000  1.0
  H  H34  1  0.05504000  0.44993000  0.17952000  1.0
  H  H35  1  0.60507000  0.72943000  0.54991000  1.0
  H  H36  1  0.21948000  0.20008000  0.86405000  1.0
  H  H37  1  0.01918000  0.66416000  0.80012000  1.0
  H  H38  1  0.35489000  0.13609000  0.33601000  1.0
  H  H39  1  0.78052000  0.79992000  0.13595000  1.0
  H  H40  1  0.98082000  0.33584000  0.19988000  1.0
  H  H41  1  0.64510000  0.86391000  0.66399000  1.0
  H  H42  1  0.44404000  0.31758000  0.96170000  1.0
  H  H43  1  0.12658000  0.64430000  0.68266000  1.0
  H  H44  1  0.48226000  0.03843000  0.35574000  1.0
  H  H45  1  0.55597000  0.68242000  0.03830000  1.0
  H  H46  1  0.87343000  0.35570000  0.31734000  1.0
  H  H47  1  0.51775000  0.96158000  0.64427000  1.0
  H  H48  1  0.48768000  0.39297000  0.80269000  1.0
  H  H49  1  0.09457000  0.40983000  0.60722000  1.0
  H  H50  1  0.68478000  0.19740000  0.59013000  1.0
  H  H51  1  0.51232000  0.60703000  0.19731000  1.0
  H  H52  1  0.90543000  0.59017000  0.39277000  1.0
  H  H53  1  0.31522000  0.80260000  0.40987000  1.0
  C  C54  1  0.09112000  0.06426000  0.47046000  1.0
  C  C55  1  0.02706000  0.40604000  0.93583000  1.0
  C  C56  1  0.62114000  0.52978000  0.59381000  1.0
  C  C57  1  0.90888000  0.93574000  0.52953000  1.0
  C  C58  1  0.97295000  0.59396000  0.06417000  1.0
  C  C59  1  0.37885000  0.47022000  0.40619000  1.0
  C  C60  1  0.01651000  0.12492000  0.47751000  1.0
  C  C61  1  0.89170000  0.35248000  0.87528000  1.0
  C  C62  1  0.53903000  0.52277000  0.64729000  1.0
  C  C63  1  0.98348000  0.87508000  0.52249000  1.0
  C  C64  1  0.10831000  0.64752000  0.12472000  1.0
  C  C65  1  0.46097000  0.47723000  0.35271000  1.0
  C  C66  1  0.06827000  0.19651000  0.54610000  1.0
  C  C67  1  0.87158000  0.34959000  0.80373000  1.0
  C  C68  1  0.52193000  0.45415000  0.65027000  1.0
  C  C69  1  0.93173000  0.80349000  0.45390000  1.0
  C  C70  1  0.12842000  0.65041000  0.19627000  1.0
  C  C71  1  0.47807000  0.54585000  0.34973000  1.0
  C  C72  1  0.19082000  0.20463000  0.60696000  1.0
  C  C73  1  0.98587000  0.40234000  0.79553000  1.0
  C  C74  1  0.58381000  0.39323000  0.59764000  1.0
  C  C75  1  0.80918000  0.79537000  0.39304000  1.0
  C  C76  1  0.01414000  0.59766000  0.20447000  1.0
  C  C77  1  0.41619000  0.60677000  0.40236000  1.0
  C  C78  1  0.26029000  0.14114000  0.59556000  1.0
  C  C79  1  0.11889000  0.45435000  0.85892000  1.0
  C  C80  1  0.66499000  0.40457000  0.54562000  1.0
  C  C81  1  0.73971000  0.85886000  0.40443000  1.0
  C  C82  1  0.88111000  0.54565000  0.14108000  1.0
  C  C83  1  0.33501000  0.59543000  0.45438000  1.0
  C  C84  1  0.24985000  0.28153000  0.68008000  1.0
  C  C85  1  0.96802000  0.39868000  0.71870000  1.0
  C  C86  1  0.56956000  0.32010000  0.60141000  1.0
  C  C87  1  0.75014000  0.71847000  0.31993000  1.0
  C  C88  1  0.03199000  0.60133000  0.28130000  1.0
  C  C89  1  0.43044000  0.67990000  0.39859000  1.0
  C  C90  1  0.30334000  0.28446000  0.75576000  1.0
  C  C91  1  0.01855000  0.47142000  0.71574000  1.0
  C  C92  1  0.54715000  0.24439000  0.52866000  1.0
  C  C93  1  0.69666000  0.71554000  0.24424000  1.0
  C  C94  1  0.98145000  0.52858000  0.28426000  1.0
  C  C95  1  0.45284000  0.75561000  0.47134000  1.0
  C  C96  1  0.22715000  0.22903000  0.77273000  1.0
  C  C97  1  0.99768000  0.54383000  0.77114000  1.0
  C  C98  1  0.45381000  0.22741000  0.45629000  1.0
  C  C99  1  0.77285000  0.77097000  0.22727000  1.0
  C  C100  1  0.00232000  0.45617000  0.22886000  1.0
  C  C101  1  0.54618000  0.77259000  0.54371000  1.0
  C  C102  1  0.27762000  0.24075000  0.84769000  1.0
  C  C103  1  0.03666000  0.60711000  0.75945000  1.0
  C  C104  1  0.42945000  0.15244000  0.39302000  1.0
  C  C105  1  0.72238000  0.75925000  0.15231000  1.0
  C  C106  1  0.96335000  0.39290000  0.24056000  1.0
  C  C107  1  0.57055000  0.84756000  0.60698000  1.0
  C  C108  1  0.40184000  0.30597000  0.90243000  1.0
  C  C109  1  0.09586000  0.59662000  0.69424000  1.0
  C  C110  1  0.49920000  0.09769000  0.40343000  1.0
  C  C111  1  0.59816000  0.69403000  0.09757000  1.0
  C  C112  1  0.90414000  0.40338000  0.30576000  1.0
  C  C113  1  0.50080000  0.90231000  0.59657000  1.0
  C  C114  1  0.42700000  0.34887000  0.81422000  1.0
  C  C115  1  0.07795000  0.46549000  0.65134000  1.0
  C  C116  1  0.61245000  0.18587000  0.53451000  1.0
  C  C117  1  0.57300000  0.65113000  0.18578000  1.0
  C  C118  1  0.92206000  0.53452000  0.34867000  1.0
  C  C119  1  0.38755000  0.81413000  0.46549000  1.0
  C  C120  1  0.25941000  0.89313000  0.32779000  1.0
  C  C121  1  0.36628000  0.43454000  0.10710000  1.0
  C  C122  1  0.93174000  0.67239000  0.56548000  1.0
  C  C123  1  0.74060000  0.10688000  0.67221000  1.0
  C  C124  1  0.63372000  0.56546000  0.89290000  1.0
  C  C125  1  0.06826000  0.32761000  0.43452000  1.0
  C  C126  1  0.26850000  0.86690000  0.24141000  1.0
  C  C127  1  0.40214000  0.37449000  0.13339000  1.0
  C  C128  1  0.02715000  0.75879000  0.62556000  1.0
  C  C129  1  0.73151000  0.13310000  0.75859000  1.0
  C  C130  1  0.59785000  0.62551000  0.86661000  1.0
  C  C131  1  0.97284000  0.24121000  0.37444000  1.0
  N  N132  1  0.21246000  0.07253000  0.52814000  1.0
  N  N133  1  0.13993000  0.45548000  0.92751000  1.0
  N  N134  1  0.68481000  0.47202000  0.54445000  1.0
  N  N135  1  0.78754000  0.92747000  0.47186000  1.0
  N  N136  1  0.86008000  0.54452000  0.07249000  1.0
  N  N137  1  0.31519000  0.52798000  0.45555000  1.0
  N  N138  1  0.47584000  0.35928000  0.88589000  1.0
  N  N139  1  0.11648000  0.52674000  0.64092000  1.0
  N  N140  1  0.58975000  0.11420000  0.47325000  1.0
  N  N141  1  0.52416000  0.64072000  0.11411000  1.0
  N  N142  1  0.88352000  0.47326000  0.35908000  1.0
  N  N143  1  0.41025000  0.88580000  0.52675000  1.0
  O  O144  1  0.25117000  0.34252000  0.67832000  1.0
  O  O145  1  0.90846000  0.33593000  0.65772000  1.0
  O  O146  1  0.57284000  0.32190000  0.66417000  1.0
  O  O147  1  0.74884000  0.65748000  0.32168000  1.0
  O  O148  1  0.09154000  0.66407000  0.34228000  1.0
  O  O149  1  0.42716000  0.67810000  0.33583000  1.0
  O  O150  1  0.40119000  0.91013000  0.37211000  1.0
  O  O151  1  0.49073000  0.46187000  0.08991000  1.0
  O  O152  1  0.02916000  0.62805000  0.53802000  1.0
  O  O153  1  0.59882000  0.08988000  0.62789000  1.0
  O  O154  1  0.50927000  0.53813000  0.91009000  1.0
  O  O155  1  0.97083000  0.37195000  0.46198000  1.0
  O  O156  1  0.11780000  0.89595000  0.34307000  1.0
  O  O157  1  0.22176000  0.44691000  0.10435000  1.0
  O  O158  1  0.77490000  0.65710000  0.55319000  1.0
  O  O159  1  0.88220000  0.10405000  0.65693000  1.0
  O  O160  1  0.77824000  0.55309000  0.89565000  1.0
  O  O161  1  0.22509000  0.34289000  0.44680000  1.0
  F  F162  1  0.11676000  0.83170000  0.18953000  1.0
  F  F163  1  0.28601000  0.35778000  0.16878000  1.0
  F  F164  1  0.92727000  0.81074000  0.64224000  1.0
  F  F165  1  0.88325000  0.16829000  0.81047000  1.0
  F  F166  1  0.71400000  0.64223000  0.83123000  1.0
  F  F167  1  0.07272000  0.18925000  0.35775000  1.0
  F  F168  1  0.33407000  0.93000000  0.23489000  1.0
  F  F169  1  0.40468000  0.30487000  0.07027000  1.0
  F  F170  1  0.09933000  0.76533000  0.69516000  1.0
  F  F171  1  0.66592000  0.06999000  0.76510000  1.0
  F  F172  1  0.59533000  0.69514000  0.92974000  1.0
  F  F173  1  0.90067000  0.23467000  0.30484000  1.0
  F  F174  1  0.37045000  0.81583000  0.21560000  1.0
  F  F175  1  0.55528000  0.39986000  0.18432000  1.0
  F  F176  1  0.15482000  0.78454000  0.60025000  1.0
  F  F177  1  0.62956000  0.18417000  0.78441000  1.0
  F  F178  1  0.44472000  0.60014000  0.81568000  1.0
  F  F179  1  0.84518000  0.21546000  0.39975000  1.0
