# generated using pymatgen
data_LaH16C8Cl3O2
_symmetry_space_group_name_H-M   'P 1'
_cell_length_a   8.15200000
_cell_length_b   10.43960000
_cell_length_c   14.72100000
_cell_angle_alpha   90.00000000
_cell_angle_beta   90.00000000
_cell_angle_gamma   93.68620000
_symmetry_Int_Tables_number   1
_chemical_formula_structural   LaH16C8Cl3O2
_chemical_formula_sum   'La4 H64 C32 Cl12 O8'
_cell_volume   1250.21847930
_cell_formula_units_Z   4
loop_
 _symmetry_equiv_pos_site_id
 _symmetry_equiv_pos_as_xyz
  1  'x, y, z'
loop_
 _atom_site_type_symbol
 _atom_site_label
 _atom_site_symmetry_multiplicity
 _atom_site_fract_x
 _atom_site_fract_y
 _atom_site_fract_z
 _atom_site_occupancy
  La  La0  1  0.73304000  0.23418000  0.27666000  1.0
  La  La1  1  0.76696000  0.76582000  0.77666000  1.0
  La  La2  1  0.26696000  0.76582000  0.72334000  1.0
  La  La3  1  0.23304000  0.23418000  0.22334000  1.0
  H  H4  1  0.91114000  0.93482000  0.23517000  1.0
  H  H5  1  0.58886000  0.06519000  0.73518000  1.0
  H  H6  1  0.08886000  0.06519000  0.76483000  1.0
  H  H7  1  0.41114000  0.93482000  0.26483000  1.0
  H  H8  1  0.71780000  0.89080000  0.18200000  1.0
  H  H9  1  0.78220000  0.10920000  0.68200000  1.0
  H  H10  1  0.28220000  0.10920000  0.81800000  1.0
  H  H11  1  0.21780000  0.89080000  0.31800000  1.0
  H  H12  1  0.87472000  0.71072000  0.28280000  1.0
  H  H13  1  0.62529000  0.28928000  0.78280000  1.0
  H  H14  1  0.12529000  0.28928000  0.71720000  1.0
  H  H15  1  0.37472000  0.71072000  0.21720000  1.0
  H  H16  1  0.65871000  0.71847000  0.29336000  1.0
  H  H17  1  0.84129000  0.28153000  0.79336000  1.0
  H  H18  1  0.34129000  0.28153000  0.70664000  1.0
  H  H19  1  0.15872000  0.71847000  0.20664000  1.0
  H  H20  1  0.92352000  0.85744000  0.41345000  1.0
  H  H21  1  0.57648000  0.14256000  0.91345000  1.0
  H  H22  1  0.07648000  0.14256000  0.58655000  1.0
  H  H23  1  0.42352000  0.85744000  0.08655000  1.0
  H  H24  1  0.75346000  0.75717000  0.45224000  1.0
  H  H25  1  0.74654000  0.24283000  0.95224000  1.0
  H  H26  1  0.24654000  0.24283000  0.54776000  1.0
  H  H27  1  0.25346000  0.75717000  0.04776000  1.0
  H  H28  1  0.73469000  0.01710000  0.44330000  1.0
  H  H29  1  0.76531000  0.98290000  0.94330000  1.0
  H  H30  1  0.26531000  0.98290000  0.55670000  1.0
  H  H31  1  0.23469000  0.01710000  0.05670000  1.0
  H  H32  1  0.56012000  0.91500000  0.41138000  1.0
  H  H33  1  0.93988000  0.08500000  0.91139000  1.0
  H  H34  1  0.43988000  0.08500000  0.58862000  1.0
  H  H35  1  0.06012000  0.91500000  0.08862000  1.0
  H  H36  1  0.88595000  0.25244000  0.52289000  1.0
  H  H37  1  0.61405000  0.74756000  0.02289000  1.0
  H  H38  1  0.11405000  0.74756000  0.47711000  1.0
  H  H39  1  0.38595000  0.25244000  0.97711000  1.0
  H  H40  1  0.67121000  0.20367000  0.51642000  1.0
  H  H41  1  0.82879000  0.79632000  0.01642000  1.0
  H  H42  1  0.32879000  0.79632000  0.48359000  1.0
  H  H43  1  0.17121000  0.20368000  0.98358000  1.0
  H  H44  1  0.79390000  0.37632000  0.65053000  1.0
  H  H45  1  0.70610000  0.62368000  0.15053000  1.0
  H  H46  1  0.20610000  0.62368000  0.34947000  1.0
  H  H47  1  0.29390000  0.37632000  0.84947000  1.0
  H  H48  1  0.59336000  0.38161000  0.60480000  1.0
  H  H49  1  0.90664000  0.61839000  0.10480000  1.0
  H  H50  1  0.40664000  0.61839000  0.39520000  1.0
  H  H51  1  0.09336000  0.38161000  0.89520000  1.0
  H  H52  1  0.90624000  0.53839000  0.54744000  1.0
  H  H53  1  0.59376000  0.46160000  0.04744000  1.0
  H  H54  1  0.09376000  0.46161000  0.45256000  1.0
  H  H55  1  0.40624000  0.53839000  0.95256000  1.0
  H  H56  1  0.70909000  0.59478000  0.56760000  1.0
  H  H57  1  0.79092000  0.40522000  0.06760000  1.0
  H  H58  1  0.29091000  0.40522000  0.43241000  1.0
  H  H59  1  0.20909000  0.59478000  0.93240000  1.0
  H  H60  1  0.80461000  0.53884000  0.39153000  1.0
  H  H61  1  0.69539000  0.46116000  0.89153000  1.0
  H  H62  1  0.19539000  0.46116000  0.60847000  1.0
  H  H63  1  0.30461000  0.53884000  0.10847000  1.0
  H  H64  1  0.59778000  0.50107000  0.42784000  1.0
  H  H65  1  0.90223000  0.49893000  0.92784000  1.0
  H  H66  1  0.40222000  0.49893000  0.57216000  1.0
  H  H67  1  0.09777000  0.50108000  0.07216000  1.0
  C  C68  1  0.78398000  0.89681000  0.24697000  1.0
  C  C69  1  0.71602000  0.10319000  0.74697000  1.0
  C  C70  1  0.21602000  0.10319000  0.75303000  1.0
  C  C71  1  0.28398000  0.89681000  0.25303000  1.0
  C  C72  1  0.77744000  0.77342000  0.30218000  1.0
  C  C73  1  0.72256000  0.22658000  0.80218000  1.0
  C  C74  1  0.22256000  0.22658000  0.69782000  1.0
  C  C75  1  0.27744000  0.77342000  0.19782000  1.0
  C  C76  1  0.79513000  0.82531000  0.39924000  1.0
  C  C77  1  0.70487000  0.17469000  0.89924000  1.0
  C  C78  1  0.20488000  0.17469000  0.60076000  1.0
  C  C79  1  0.29513000  0.82531000  0.10076000  1.0
  C  C80  1  0.69048000  0.94028000  0.39692000  1.0
  C  C81  1  0.80952000  0.05972000  0.89692000  1.0
  C  C82  1  0.30952000  0.05972000  0.60308000  1.0
  C  C83  1  0.19048000  0.94028000  0.10308000  1.0
  C  C84  1  0.76162000  0.28652000  0.51683000  1.0
  C  C85  1  0.73838000  0.71348000  0.01683000  1.0
  C  C86  1  0.23838000  0.71348000  0.48317000  1.0
  C  C87  1  0.26162000  0.28652000  0.98317000  1.0
  C  C88  1  0.72467000  0.38707000  0.58758000  1.0
  C  C89  1  0.77532000  0.61293000  0.08758000  1.0
  C  C90  1  0.27532000  0.61293000  0.41242000  1.0
  C  C91  1  0.22467000  0.38707000  0.91242000  1.0
  C  C92  1  0.77388000  0.51434000  0.54007000  1.0
  C  C93  1  0.72612000  0.48566000  0.04007000  1.0
  C  C94  1  0.22612000  0.48566000  0.45993000  1.0
  C  C95  1  0.27388000  0.51434000  0.95993000  1.0
  C  C96  1  0.72766000  0.48614000  0.44189000  1.0
  C  C97  1  0.77234000  0.51386000  0.94189000  1.0
  C  C98  1  0.27234000  0.51386000  0.55811000  1.0
  C  C99  1  0.22765000  0.48614000  0.05811000  1.0
  Cl  Cl100  1  0.93266000  0.16807000  0.12443000  1.0
  Cl  Cl101  1  0.56734000  0.83193000  0.62443000  1.0
  Cl  Cl102  1  0.06734000  0.83193000  0.87557000  1.0
  Cl  Cl103  1  0.43266000  0.16807000  0.37557000  1.0
  Cl  Cl104  1  0.00098000  0.43422000  0.25376000  1.0
  Cl  Cl105  1  0.49903000  0.56578000  0.75377000  1.0
  Cl  Cl106  1  0.99902000  0.56578000  0.74623000  1.0
  Cl  Cl107  1  0.50098000  0.43422000  0.24623000  1.0
  Cl  Cl108  1  0.01828000  0.14508000  0.36622000  1.0
  Cl  Cl109  1  0.48172000  0.85491000  0.86623000  1.0
  Cl  Cl110  1  0.98172000  0.85491000  0.63377000  1.0
  Cl  Cl111  1  0.51828000  0.14508000  0.13378000  1.0
  O  O112  1  0.70203000  0.98889000  0.30349000  1.0
  O  O113  1  0.79797000  0.01111000  0.80349000  1.0
  O  O114  1  0.29797000  0.01111000  0.69651000  1.0
  O  O115  1  0.20203000  0.98889000  0.19651000  1.0
  O  O116  1  0.75297000  0.35031000  0.42880000  1.0
  O  O117  1  0.74703000  0.64969000  0.92880000  1.0
  O  O118  1  0.24703000  0.64969000  0.57121000  1.0
  O  O119  1  0.25297000  0.35031000  0.07120000  1.0
