# generated using pymatgen
data_H11PtAuC17N5Cl
_symmetry_space_group_name_H-M   'P 1'
_cell_length_a   6.38697000
_cell_length_b   7.47255000
_cell_length_c   19.56920000
_cell_angle_alpha   90.00020000
_cell_angle_beta   90.00090000
_cell_angle_gamma   115.27100000
_symmetry_Int_Tables_number   1
_chemical_formula_structural   H11PtAuC17N5Cl
_chemical_formula_sum   'H22 Pt2 Au2 C34 N10 Cl2'
_cell_volume   844.59538283
_cell_formula_units_Z   2
loop_
 _symmetry_equiv_pos_site_id
 _symmetry_equiv_pos_as_xyz
  1  'x, y, z'
loop_
 _atom_site_type_symbol
 _atom_site_label
 _atom_site_symmetry_multiplicity
 _atom_site_fract_x
 _atom_site_fract_y
 _atom_site_fract_z
 _atom_site_occupancy
  H  H0  1  0.55054000  0.09826000  0.18404000  1.0
  H  H1  1  0.44945000  0.90173000  0.68404000  1.0
  H  H2  1  0.58383000  0.16380000  0.30864000  1.0
  H  H3  1  0.41616000  0.83619000  0.80863000  1.0
  H  H4  1  0.43767000  0.87282000  0.39112000  1.0
  H  H5  1  0.56234000  0.12718000  0.89111000  1.0
  H  H6  1  0.26585000  0.53026000  0.34234000  1.0
  H  H7  1  0.73416000  0.46975000  0.84232000  1.0
  H  H8  1  0.11979000  0.23803000  0.29114000  1.0
  H  H9  1  0.88022000  0.76198000  0.79113000  1.0
  H  H10  1  0.96920000  0.93747000  0.21530000  1.0
  H  H11  1  0.03079000  0.06253000  0.71529000  1.0
  H  H12  1  0.98770000  0.97453000  0.08950000  1.0
  H  H13  1  0.01230000  0.02546000  0.58948000  1.0
  H  H14  1  0.02736000  0.05423000  0.97945000  1.0
  H  H15  1  0.97262000  0.94576000  0.47945000  1.0
  H  H16  1  0.08636000  0.17365000  0.85920000  1.0
  H  H17  1  0.91362000  0.82633000  0.35919000  1.0
  H  H18  1  0.26781000  0.53614000  0.83585000  1.0
  H  H19  1  0.73217000  0.46386000  0.33585000  1.0
  H  H20  1  0.38678000  0.77300000  0.93751000  1.0
  H  H21  1  0.61323000  0.22701000  0.43750000  1.0
  Pt  Pt22  1  0.35769000  0.71422000  0.09472000  1.0
  Pt  Pt23  1  0.64231000  0.28578000  0.59471000  1.0
  Au  Au24  1  0.80299000  0.60511000  0.06433000  1.0
  Au  Au25  1  0.19702000  0.39492000  0.56434000  1.0
  C  C26  1  0.49017000  0.97738000  0.22087000  1.0
  C  C27  1  0.50982000  0.02260000  0.72086000  1.0
  C  C28  1  0.50724000  0.01121000  0.29108000  1.0
  C  C29  1  0.49277000  0.98880000  0.79107000  1.0
  C  C30  1  0.42680000  0.85087000  0.33585000  1.0
  C  C31  1  0.57319000  0.14913000  0.83584000  1.0
  C  C32  1  0.33093000  0.65974000  0.30895000  1.0
  C  C33  1  0.66907000  0.34027000  0.80895000  1.0
  C  C34  1  0.31746000  0.63291000  0.23845000  1.0
  C  C35  1  0.68253000  0.36709000  0.73844000  1.0
  C  C36  1  0.22020000  0.43905000  0.20502000  1.0
  C  C37  1  0.77980000  0.56096000  0.70501000  1.0
  C  C38  1  0.12673000  0.25231000  0.23550000  1.0
  C  C39  1  0.87327000  0.74769000  0.73549000  1.0
  C  C40  1  0.04331000  0.08568000  0.19319000  1.0
  C  C41  1  0.95669000  0.91433000  0.69317000  1.0
  C  C42  1  0.05291000  0.10509000  0.12222000  1.0
  C  C43  1  0.94708000  0.89490000  0.62221000  1.0
  C  C44  1  0.14756000  0.29423000  0.09386000  1.0
  C  C45  1  0.85243000  0.70577000  0.59385000  1.0
  C  C46  1  0.17459000  0.34830000  0.02150000  1.0
  C  C47  1  0.82540000  0.65169000  0.52149000  1.0
  C  C48  1  0.10623000  0.21183000  0.96840000  1.0
  C  C49  1  0.89376000  0.78817000  0.46839000  1.0
  C  C50  1  0.13976000  0.27964000  0.90117000  1.0
  C  C51  1  0.86022000  0.72035000  0.40117000  1.0
  C  C52  1  0.24110000  0.48230000  0.88847000  1.0
  C  C53  1  0.75890000  0.51771000  0.38846000  1.0
  C  C54  1  0.30675000  0.61292000  0.94341000  1.0
  C  C55  1  0.69325000  0.38706000  0.44341000  1.0
  C  C56  1  0.87041000  0.74148000  0.91126000  1.0
  C  C57  1  0.12968000  0.25850000  0.41128000  1.0
  C  C58  1  0.74267000  0.48409000  0.21889000  1.0
  C  C59  1  0.25731000  0.51591000  0.71890000  1.0
  N  N60  1  0.39775000  0.79330000  0.19474000  1.0
  N  N61  1  0.60226000  0.20670000  0.69474000  1.0
  N  N62  1  0.22687000  0.45279000  0.13606000  1.0
  N  N63  1  0.77312000  0.54721000  0.63605000  1.0
  N  N64  1  0.27466000  0.54856000  0.00822000  1.0
  N  N65  1  0.72534000  0.45143000  0.50821000  1.0
  N  N66  1  0.84320000  0.68609000  0.96838000  1.0
  N  N67  1  0.15685000  0.31391000  0.46839000  1.0
  N  N68  1  0.76370000  0.52628000  0.16047000  1.0
  N  N69  1  0.23629000  0.47374000  0.66047000  1.0
  Cl  Cl70  1  0.51235000  0.02407000  0.04460000  1.0
  Cl  Cl71  1  0.48764000  0.97591000  0.54460000  1.0
