# generated using pymatgen
data_Cd3H26C12(NCl2)4
_symmetry_space_group_name_H-M   'P 1'
_cell_length_a   6.59339000
_cell_length_b   8.64884000
_cell_length_c   21.13290000
_cell_angle_alpha   89.99980000
_cell_angle_beta   89.99970000
_cell_angle_gamma   85.89230000
_symmetry_Int_Tables_number   1
_chemical_formula_structural   Cd3H26C12(NCl2)4
_chemical_formula_sum   'Cd6 H52 C24 N8 Cl16'
_cell_volume   1202.01160283
_cell_formula_units_Z   2
loop_
 _symmetry_equiv_pos_site_id
 _symmetry_equiv_pos_as_xyz
  1  'x, y, z'
loop_
 _atom_site_type_symbol
 _atom_site_label
 _atom_site_symmetry_multiplicity
 _atom_site_fract_x
 _atom_site_fract_y
 _atom_site_fract_z
 _atom_site_occupancy
  Cd  Cd0  1  0.00321000  0.60203000  0.59380000  1.0
  Cd  Cd1  1  0.99679000  0.89796000  0.09380000  1.0
  Cd  Cd2  1  0.99679000  0.39797000  0.40620000  1.0
  Cd  Cd3  1  0.00322000  0.10203000  0.90620000  1.0
  Cd  Cd4  1  0.50000000  0.50000000  0.50000000  1.0
  Cd  Cd5  1  0.50001000  0.00000000  0.00000000  1.0
  H  H6  1  0.79302000  0.76999000  0.71524000  1.0
  H  H7  1  0.20698000  0.73001000  0.21524000  1.0
  H  H8  1  0.20698000  0.23001000  0.28476000  1.0
  H  H9  1  0.79302000  0.26999000  0.78476000  1.0
  H  H10  1  0.57636000  0.78023000  0.66467000  1.0
  H  H11  1  0.42364000  0.71977000  0.16467000  1.0
  H  H12  1  0.42364000  0.21978000  0.33534000  1.0
  H  H13  1  0.57637000  0.28022000  0.83534000  1.0
  H  H14  1  0.62618000  0.84864000  0.55165000  1.0
  H  H15  1  0.37383000  0.65136000  0.05165000  1.0
  H  H16  1  0.37382000  0.15136000  0.44835000  1.0
  H  H17  1  0.62618000  0.34864000  0.94835000  1.0
  H  H18  1  0.82754000  0.96945000  0.53639000  1.0
  H  H19  1  0.17246000  0.53054000  0.03639000  1.0
  H  H20  1  0.17245000  0.03055000  0.46362000  1.0
  H  H21  1  0.82755000  0.46945000  0.96361000  1.0
  H  H22  1  0.11703000  0.96111000  0.60638000  1.0
  H  H23  1  0.88297000  0.53890000  0.10638000  1.0
  H  H24  1  0.88297000  0.03890000  0.39362000  1.0
  H  H25  1  0.11703000  0.46111000  0.89361000  1.0
  H  H26  1  0.07033000  0.92248000  0.68780000  1.0
  H  H27  1  0.92967000  0.57753000  0.18780000  1.0
  H  H28  1  0.92967000  0.07753000  0.31220000  1.0
  H  H29  1  0.07033000  0.42247000  0.81220000  1.0
  H  H30  1  0.58251000  0.17075000  0.56551000  1.0
  H  H31  1  0.41750000  0.32925000  0.06551000  1.0
  H  H32  1  0.41748000  0.82925000  0.43449000  1.0
  H  H33  1  0.58251000  0.67075000  0.93449000  1.0
  H  H34  1  0.43208000  0.04166000  0.60808000  1.0
  H  H35  1  0.56792000  0.45834000  0.10808000  1.0
  H  H36  1  0.56791000  0.95834000  0.39193000  1.0
  H  H37  1  0.43208000  0.54166000  0.89193000  1.0
  H  H38  1  0.48072000  0.01431000  0.72280000  1.0
  H  H39  1  0.51927000  0.48569000  0.22280000  1.0
  H  H40  1  0.51929000  0.98570000  0.27720000  1.0
  H  H41  1  0.48071000  0.51430000  0.77720000  1.0
  H  H42  1  0.73523000  0.02834000  0.75028000  1.0
  H  H43  1  0.26476000  0.47166000  0.25028000  1.0
  H  H44  1  0.26477000  0.97167000  0.24972000  1.0
  H  H45  1  0.73523000  0.52833000  0.74972000  1.0
  H  H46  1  0.96287000  0.18825000  0.69273000  1.0
  H  H47  1  0.03711000  0.31175000  0.19273000  1.0
  H  H48  1  0.03713000  0.81176000  0.30727000  1.0
  H  H49  1  0.96287000  0.68824000  0.80726000  1.0
  H  H50  1  0.92471000  0.20431000  0.60917000  1.0
  H  H51  1  0.07528000  0.29569000  0.10917000  1.0
  H  H52  1  0.07528000  0.79569000  0.39082000  1.0
  H  H53  1  0.92472000  0.70431000  0.89082000  1.0
  H  H54  1  0.61583000  0.23051000  0.66988000  1.0
  H  H55  1  0.38416000  0.26950000  0.16988000  1.0
  H  H56  1  0.38417000  0.76950000  0.33012000  1.0
  H  H57  1  0.61583000  0.73049000  0.83012000  1.0
  C  C58  1  0.70699000  0.84217000  0.68034000  1.0
  C  C59  1  0.29302000  0.65783000  0.18034000  1.0
  C  C60  1  0.29302000  0.15783000  0.31966000  1.0
  C  C61  1  0.70698000  0.34217000  0.81966000  1.0
  C  C62  1  0.72160000  0.93334000  0.57265000  1.0
  C  C63  1  0.27841000  0.56666000  0.07265000  1.0
  C  C64  1  0.27840000  0.06666000  0.42735000  1.0
  C  C65  1  0.72161000  0.43334000  0.92735000  1.0
  C  C66  1  0.00039000  0.96521000  0.64341000  1.0
  C  C67  1  0.99961000  0.53480000  0.14341000  1.0
  C  C68  1  0.99960000  0.03479000  0.35659000  1.0
  C  C69  1  0.00039000  0.46522000  0.85659000  1.0
  C  C70  1  0.58737000  0.07181000  0.59778000  1.0
  C  C71  1  0.41263000  0.42820000  0.09778000  1.0
  C  C72  1  0.41262000  0.92819000  0.40222000  1.0
  C  C73  1  0.58737000  0.57180000  0.90222000  1.0
  C  C74  1  0.64188000  0.00249000  0.70918000  1.0
  C  C75  1  0.35810000  0.49750000  0.20919000  1.0
  C  C76  1  0.35812000  0.99751000  0.29082000  1.0
  C  C77  1  0.64189000  0.50249000  0.79082000  1.0
  C  C78  1  0.90462000  0.13144000  0.65075000  1.0
  C  C79  1  0.09537000  0.36857000  0.15075000  1.0
  C  C80  1  0.09538000  0.86857000  0.34924000  1.0
  C  C81  1  0.90462000  0.63143000  0.84924000  1.0
  N  N82  1  0.84264000  0.85960000  0.62506000  1.0
  N  N83  1  0.15737000  0.64040000  0.12506000  1.0
  N  N84  1  0.15737000  0.14040000  0.37494000  1.0
  N  N85  1  0.84264000  0.35960000  0.87494000  1.0
  N  N86  1  0.67887000  0.12083000  0.65910000  1.0
  N  N87  1  0.32113000  0.37917000  0.15910000  1.0
  N  N88  1  0.32114000  0.87917000  0.34090000  1.0
  N  N89  1  0.67886000  0.62083000  0.84090000  1.0
  Cl  Cl90  1  0.65953000  0.47619000  0.61584000  1.0
  Cl  Cl91  1  0.34047000  0.02381000  0.11584000  1.0
  Cl  Cl92  1  0.34046000  0.52381000  0.38416000  1.0
  Cl  Cl93  1  0.65954000  0.97618000  0.88416000  1.0
  Cl  Cl94  1  0.17961000  0.35187000  0.53400000  1.0
  Cl  Cl95  1  0.82040000  0.14812000  0.03400000  1.0
  Cl  Cl96  1  0.82039000  0.64813000  0.46600000  1.0
  Cl  Cl97  1  0.17961000  0.85187000  0.96600000  1.0
  Cl  Cl98  1  0.28478000  0.75148000  0.53837000  1.0
  Cl  Cl99  1  0.71523000  0.74852000  0.03836000  1.0
  Cl  Cl100  1  0.71522000  0.24852000  0.46164000  1.0
  Cl  Cl101  1  0.28478000  0.25148000  0.96164000  1.0
  Cl  Cl102  1  0.14820000  0.56109000  0.70322000  1.0
  Cl  Cl103  1  0.85180000  0.93891000  0.20322000  1.0
  Cl  Cl104  1  0.85181000  0.43891000  0.29678000  1.0
  Cl  Cl105  1  0.14820000  0.06109000  0.79678000  1.0
