# generated using pymatgen
data_TbH18C20N4Cl3
_symmetry_space_group_name_H-M   'P 1'
_cell_length_a   12.70780000
_cell_length_b   14.21580000
_cell_length_c   14.81670000
_cell_angle_alpha   90.00000000
_cell_angle_beta   90.00020000
_cell_angle_gamma   89.99980000
_symmetry_Int_Tables_number   1
_chemical_formula_structural   TbH18C20N4Cl3
_chemical_formula_sum   'Tb4 H72 C80 N16 Cl12'
_cell_volume   2676.65972069
_cell_formula_units_Z   4
loop_
 _symmetry_equiv_pos_site_id
 _symmetry_equiv_pos_as_xyz
  1  'x, y, z'
loop_
 _atom_site_type_symbol
 _atom_site_label
 _atom_site_symmetry_multiplicity
 _atom_site_fract_x
 _atom_site_fract_y
 _atom_site_fract_z
 _atom_site_occupancy
  Tb  Tb0  1  0.33517000  0.33423000  0.63538000  1.0
  Tb  Tb1  1  0.16483000  0.66577000  0.13538000  1.0
  Tb  Tb2  1  0.83517000  0.16577000  0.36462000  1.0
  Tb  Tb3  1  0.66483000  0.83423000  0.86462000  1.0
  H  H4  1  0.09347000  0.99640000  0.32745000  1.0
  H  H5  1  0.40652000  0.00360000  0.82745000  1.0
  H  H6  1  0.59348000  0.50360000  0.67255000  1.0
  H  H7  1  0.90653000  0.49640000  0.17255000  1.0
  H  H8  1  0.33653000  0.43701000  0.21159000  1.0
  H  H9  1  0.16347000  0.56299000  0.71159000  1.0
  H  H10  1  0.83653000  0.06299000  0.78841000  1.0
  H  H11  1  0.66348000  0.93701000  0.28841000  1.0
  H  H12  1  0.44319000  0.06090000  0.38160000  1.0
  H  H13  1  0.05681000  0.93910000  0.88160000  1.0
  H  H14  1  0.94319000  0.43910000  0.61840000  1.0
  H  H15  1  0.55681000  0.56090000  0.11840000  1.0
  H  H16  1  0.41526000  0.89957000  0.35776000  1.0
  H  H17  1  0.08474000  0.10043000  0.85777000  1.0
  H  H18  1  0.91526000  0.60043000  0.64223000  1.0
  H  H19  1  0.58474000  0.39957000  0.14223000  1.0
  H  H20  1  0.11969000  0.03800000  0.47002000  1.0
  H  H21  1  0.38031000  0.96200000  0.97002000  1.0
  H  H22  1  0.61969000  0.46200000  0.52998000  1.0
  H  H23  1  0.88031000  0.53800000  0.02998000  1.0
  H  H24  1  0.19207000  0.36273000  0.82766000  1.0
  H  H25  1  0.30793000  0.63727000  0.32766000  1.0
  H  H26  1  0.69207000  0.13727000  0.17234000  1.0
  H  H27  1  0.80792000  0.86273000  0.67235000  1.0
  H  H28  1  0.18158000  0.32484000  0.44632000  1.0
  H  H29  1  0.31842000  0.67516000  0.94632000  1.0
  H  H30  1  0.68158000  0.17516000  0.55368000  1.0
  H  H31  1  0.81842000  0.82484000  0.05368000  1.0
  H  H32  1  0.46641000  0.18811000  0.49248000  1.0
  H  H33  1  0.03360000  0.81189000  0.99248000  1.0
  H  H34  1  0.96641000  0.31189000  0.50752000  1.0
  H  H35  1  0.53359000  0.68811000  0.00752000  1.0
  H  H36  1  0.38034000  0.45958000  0.05067000  1.0
  H  H37  1  0.11966000  0.54042000  0.55067000  1.0
  H  H38  1  0.88034000  0.04042000  0.94933000  1.0
  H  H39  1  0.61967000  0.95958000  0.44933000  1.0
  H  H40  1  0.37172000  0.77043000  0.25047000  1.0
  H  H41  1  0.12828000  0.22957000  0.75047000  1.0
  H  H42  1  0.87172000  0.72957000  0.74953000  1.0
  H  H43  1  0.62828000  0.27043000  0.24953000  1.0
  H  H44  1  0.15572000  0.17076000  0.57612000  1.0
  H  H45  1  0.34428000  0.82923000  0.07612000  1.0
  H  H46  1  0.65572000  0.32923000  0.42388000  1.0
  H  H47  1  0.84428000  0.67076000  0.92388000  1.0
  H  H48  1  0.53892000  0.44866000  0.94811000  1.0
  H  H49  1  0.96108000  0.55134000  0.44811000  1.0
  H  H50  1  0.03892000  0.05134000  0.05189000  1.0
  H  H51  1  0.46108000  0.94866000  0.55189000  1.0
  H  H52  1  0.17741000  0.36403000  0.28258000  1.0
  H  H53  1  0.32259000  0.63597000  0.78258000  1.0
  H  H54  1  0.67741000  0.13597000  0.71742000  1.0
  H  H55  1  0.82259000  0.86403000  0.21742000  1.0
  H  H56  1  0.49725000  0.46414000  0.30900000  1.0
  H  H57  1  0.00275000  0.53586000  0.80900000  1.0
  H  H58  1  0.99725000  0.03586000  0.69100000  1.0
  H  H59  1  0.50275000  0.96414000  0.19100000  1.0
  H  H60  1  0.20496000  0.41263000  0.99003000  1.0
  H  H61  1  0.29504000  0.58737000  0.49003000  1.0
  H  H62  1  0.70496000  0.08737000  0.00997000  1.0
  H  H63  1  0.79505000  0.91264000  0.50998000  1.0
  H  H64  1  0.51253000  0.39441000  0.78903000  1.0
  H  H65  1  0.98747000  0.60559000  0.28903000  1.0
  H  H66  1  0.01253000  0.10559000  0.21097000  1.0
  H  H67  1  0.48746000  0.89441000  0.71097000  1.0
  H  H68  1  0.48659000  0.42275000  0.47301000  1.0
  H  H69  1  0.01342000  0.57725000  0.97301000  1.0
  H  H70  1  0.98658000  0.07725000  0.52699000  1.0
  H  H71  1  0.51341000  0.92275000  0.02699000  1.0
  H  H72  1  0.06371000  0.86161000  0.22484000  1.0
  H  H73  1  0.43629000  0.13839000  0.72484000  1.0
  H  H74  1  0.56371000  0.63839000  0.77516000  1.0
  H  H75  1  0.93629000  0.36161000  0.27516000  1.0
  C  C76  1  0.25799000  0.96012000  0.35233000  1.0
  C  C77  1  0.24200000  0.03989000  0.85234000  1.0
  C  C78  1  0.75799000  0.53988000  0.64766000  1.0
  C  C79  1  0.74201000  0.46011000  0.14766000  1.0
  C  C80  1  0.27822000  0.03685000  0.41693000  1.0
  C  C81  1  0.22178000  0.96315000  0.91693000  1.0
  C  C82  1  0.77822000  0.46315000  0.58307000  1.0
  C  C83  1  0.72178000  0.53685000  0.08307000  1.0
  C  C84  1  0.15830000  0.94837000  0.31308000  1.0
  C  C85  1  0.34169000  0.05163000  0.81308000  1.0
  C  C86  1  0.65831000  0.55163000  0.68692000  1.0
  C  C87  1  0.84170000  0.44837000  0.18692000  1.0
  C  C88  1  0.33753000  0.41661000  0.28250000  1.0
  C  C89  1  0.16247000  0.58339000  0.78250000  1.0
  C  C90  1  0.83753000  0.08339000  0.71750000  1.0
  C  C91  1  0.66247000  0.91661000  0.21750000  1.0
  C  C92  1  0.37687000  0.08027000  0.42437000  1.0
  C  C93  1  0.12313000  0.91973000  0.92437000  1.0
  C  C94  1  0.87687000  0.41973000  0.57563000  1.0
  C  C95  1  0.62313000  0.58027000  0.07563000  1.0
  C  C96  1  0.33649000  0.89523000  0.32886000  1.0
  C  C97  1  0.16351000  0.10478000  0.82887000  1.0
  C  C98  1  0.83649000  0.60477000  0.67114000  1.0
  C  C99  1  0.66351000  0.39523000  0.17113000  1.0
  C  C100  1  0.19769000  0.06944000  0.47344000  1.0
  C  C101  1  0.30231000  0.93056000  0.97344000  1.0
  C  C102  1  0.69769000  0.43056000  0.52656000  1.0
  C  C103  1  0.80231000  0.56944000  0.02656000  1.0
  C  C104  1  0.26782000  0.38049000  0.85777000  1.0
  C  C105  1  0.23218000  0.61951000  0.35777000  1.0
  C  C106  1  0.76782000  0.11951000  0.14223000  1.0
  C  C107  1  0.73217000  0.88050000  0.64224000  1.0
  C  C108  1  0.25031000  0.35555000  0.41360000  1.0
  C  C109  1  0.24969000  0.64445000  0.91360000  1.0
  C  C110  1  0.75031000  0.14445000  0.58640000  1.0
  C  C111  1  0.74969000  0.85555000  0.08640000  1.0
  C  C112  1  0.39047000  0.15310000  0.48583000  1.0
  C  C113  1  0.10954000  0.84690000  0.98583000  1.0
  C  C114  1  0.89047000  0.34690000  0.51417000  1.0
  C  C115  1  0.60953000  0.65310000  0.01417000  1.0
  C  C116  1  0.37324000  0.43375000  0.98165000  1.0
  C  C117  1  0.12676000  0.56625000  0.48165000  1.0
  C  C118  1  0.87324000  0.06625000  0.01835000  1.0
  C  C119  1  0.62676000  0.93375000  0.51835000  1.0
  C  C120  1  0.31245000  0.82210000  0.27015000  1.0
  C  C121  1  0.18754000  0.17790000  0.77015000  1.0
  C  C122  1  0.81245000  0.67790000  0.72985000  1.0
  C  C123  1  0.68755000  0.32210000  0.22985000  1.0
  C  C124  1  0.21775000  0.14274000  0.53288000  1.0
  C  C125  1  0.28226000  0.85726000  0.03288000  1.0
  C  C126  1  0.71775000  0.35726000  0.46712000  1.0
  C  C127  1  0.78225000  0.64274000  0.96712000  1.0
  C  C128  1  0.46059000  0.42897000  0.92477000  1.0
  C  C129  1  0.03941000  0.57103000  0.42477000  1.0
  C  C130  1  0.96059000  0.07103000  0.07523000  1.0
  C  C131  1  0.53941000  0.92897000  0.57524000  1.0
  C  C132  1  0.24841000  0.37682000  0.32185000  1.0
  C  C133  1  0.25159000  0.62318000  0.82185000  1.0
  C  C134  1  0.74841000  0.12318000  0.67815000  1.0
  C  C135  1  0.75159000  0.87682000  0.17815000  1.0
  C  C136  1  0.42586000  0.43263000  0.33645000  1.0
  C  C137  1  0.07414000  0.56737000  0.83645000  1.0
  C  C138  1  0.92586000  0.06737000  0.66355000  1.0
  C  C139  1  0.57414000  0.93263000  0.16355000  1.0
  C  C140  1  0.27497000  0.40820000  0.94765000  1.0
  C  C141  1  0.22503000  0.59180000  0.44765000  1.0
  C  C142  1  0.77497000  0.09180000  0.05235000  1.0
  C  C143  1  0.72503000  0.90820000  0.55236000  1.0
  C  C144  1  0.44657000  0.39964000  0.83590000  1.0
  C  C145  1  0.05343000  0.60036000  0.33590000  1.0
  C  C146  1  0.94657000  0.10036000  0.16410000  1.0
  C  C147  1  0.55343000  0.89965000  0.66410000  1.0
  C  C148  1  0.42081000  0.40963000  0.42765000  1.0
  C  C149  1  0.07919000  0.59037000  0.92765000  1.0
  C  C150  1  0.92081000  0.09037000  0.57235000  1.0
  C  C151  1  0.57919000  0.90963000  0.07235000  1.0
  C  C152  1  0.14089000  0.87295000  0.25526000  1.0
  C  C153  1  0.35911000  0.12705000  0.75526000  1.0
  C  C154  1  0.64089000  0.62705000  0.74474000  1.0
  C  C155  1  0.85911000  0.37295000  0.24474000  1.0
  N  N156  1  0.33468000  0.37199000  0.46641000  1.0
  N  N157  1  0.16532000  0.62801000  0.96641000  1.0
  N  N158  1  0.83468000  0.12801000  0.53359000  1.0
  N  N159  1  0.66532000  0.87198000  0.03359000  1.0
  N  N160  1  0.31243000  0.18479000  0.53938000  1.0
  N  N161  1  0.18758000  0.81521000  0.03938000  1.0
  N  N162  1  0.81243000  0.31521000  0.46062000  1.0
  N  N163  1  0.68757000  0.68479000  0.96062000  1.0
  N  N164  1  0.35164000  0.37602000  0.80219000  1.0
  N  N165  1  0.14836000  0.62398000  0.30219000  1.0
  N  N166  1  0.85164000  0.12398000  0.19781000  1.0
  N  N167  1  0.64835000  0.87603000  0.69781000  1.0
  N  N168  1  0.21601000  0.80961000  0.23420000  1.0
  N  N169  1  0.28399000  0.19039000  0.73420000  1.0
  N  N170  1  0.71601000  0.69039000  0.76580000  1.0
  N  N171  1  0.78399000  0.30961000  0.26580000  1.0
  Cl  Cl172  1  0.13071000  0.36310000  0.63890000  1.0
  Cl  Cl173  1  0.36929000  0.63690000  0.13890000  1.0
  Cl  Cl174  1  0.63071000  0.13690000  0.36110000  1.0
  Cl  Cl175  1  0.86929000  0.86310000  0.86110000  1.0
  Cl  Cl176  1  0.53160000  0.28180000  0.64028000  1.0
  Cl  Cl177  1  0.96840000  0.71820000  0.14028000  1.0
  Cl  Cl178  1  0.03160000  0.21820000  0.35972000  1.0
  Cl  Cl179  1  0.46840000  0.78180000  0.85972000  1.0
  Cl  Cl180  1  0.38876000  0.51341000  0.63158000  1.0
  Cl  Cl181  1  0.11124000  0.48659000  0.13158000  1.0
  Cl  Cl182  1  0.88876000  0.98659000  0.36842000  1.0
  Cl  Cl183  1  0.61124000  0.01341000  0.86842000  1.0
