# generated using pymatgen
data_Zn2H22C46N2O18F
_symmetry_space_group_name_H-M   'P 1'
_cell_length_a   16.49800000
_cell_length_b   17.89660000
_cell_length_c   28.98050000
_cell_angle_alpha   90.24560000
_cell_angle_beta   89.70130000
_cell_angle_gamma   89.89760000
_symmetry_Int_Tables_number   1
_chemical_formula_structural   Zn2H22C46N2O18F
_chemical_formula_sum   'Zn4 H44 C92 N4 O36 F2'
_cell_volume   8556.51866417
_cell_formula_units_Z   2
loop_
 _symmetry_equiv_pos_site_id
 _symmetry_equiv_pos_as_xyz
  1  'x, y, z'
loop_
 _atom_site_type_symbol
 _atom_site_label
 _atom_site_symmetry_multiplicity
 _atom_site_fract_x
 _atom_site_fract_y
 _atom_site_fract_z
 _atom_site_occupancy
  Zn  Zn0  1  0.58217000  0.50046000  0.50139000  1.0
  Zn  Zn1  1  0.41466000  0.49857000  0.50018000  1.0
  Zn  Zn2  1  0.41554000  0.50341000  0.88559000  1.0
  Zn  Zn3  1  0.58348000  0.50115000  0.88234000  1.0
  H  H4  1  0.28479000  0.57478000  0.55315000  1.0
  H  H5  1  0.13275000  0.57891000  0.55461000  1.0
  H  H6  1  0.28607000  0.41981000  0.44631000  1.0
  H  H7  1  0.70834000  0.58314000  0.55319000  1.0
  H  H8  1  0.71477000  0.41448000  0.45482000  1.0
  H  H9  1  0.86714000  0.41381000  0.45382000  1.0
  H  H10  1  0.62685000  0.74019000  0.50510000  1.0
  H  H11  1  0.62397000  0.87943000  0.50247000  1.0
  H  H12  1  0.36713000  0.73617000  0.49463000  1.0
  H  H13  1  0.63230000  0.26348000  0.49290000  1.0
  H  H14  1  0.37205000  0.25873000  0.50005000  1.0
  H  H15  1  0.37572000  0.11950000  0.49766000  1.0
  H  H16  1  0.68891000  0.55226000  0.73203000  1.0
  H  H17  1  0.68711000  0.45252000  0.73244000  1.0
  H  H18  1  0.68227000  0.45139000  0.64548000  1.0
  H  H19  1  0.68526000  0.55113000  0.64552000  1.0
  H  H20  1  0.37498000  0.51019000  0.03371000  1.0
  H  H21  1  0.37984000  0.50466000  0.11970000  1.0
  H  H22  1  0.63503000  0.49646000  0.02832000  1.0
  H  H23  1  0.37072000  0.49097000  0.35496000  1.0
  H  H24  1  0.63085000  0.50433000  0.35261000  1.0
  H  H25  1  0.62884000  0.50182000  0.26646000  1.0
  H  H26  1  0.71494000  0.58370000  0.83471000  1.0
  H  H27  1  0.86698000  0.58780000  0.83511000  1.0
  H  H28  1  0.71046000  0.42089000  0.93603000  1.0
  H  H29  1  0.28900000  0.58847000  0.83534000  1.0
  H  H30  1  0.28349000  0.41386000  0.92889000  1.0
  H  H31  1  0.13114000  0.41370000  0.93033000  1.0
  H  H32  1  0.36851000  0.74565000  0.87820000  1.0
  H  H33  1  0.37457000  0.88472000  0.88087000  1.0
  H  H34  1  0.62825000  0.73611000  0.88757000  1.0
  H  H35  1  0.36576000  0.26518000  0.89352000  1.0
  H  H36  1  0.62596000  0.26260000  0.88502000  1.0
  H  H37  1  0.62424000  0.12334000  0.88605000  1.0
  H  H38  1  0.02841000  0.45158000  0.43501000  1.0
  H  H39  1  0.96979000  0.59690000  0.54101000  1.0
  H  H40  1  0.38147000  0.97740000  0.48771000  1.0
  H  H41  1  0.61969000  0.02187000  0.49130000  1.0
  H  H42  1  0.62395000  0.48380000  0.17742000  1.0
  H  H43  1  0.38658000  0.48289000  0.20589000  1.0
  H  H44  1  0.96826000  0.45129000  0.95076000  1.0
  H  H45  1  0.02597000  0.59610000  0.84547000  1.0
  H  H46  1  0.61953000  0.97765000  0.89479000  1.0
  H  H47  1  0.38166000  0.02381000  0.89334000  1.0
  C  C48  1  0.49854000  0.64561000  0.50022000  1.0
  C  C49  1  0.49456000  0.50285000  0.59041000  1.0
  C  C50  1  0.50039000  0.35363000  0.49888000  1.0
  C  C51  1  0.50156000  0.49781000  0.41084000  1.0
  C  C52  1  0.49540000  0.64831000  0.88234000  1.0
  C  C53  1  0.50396000  0.50212000  0.79442000  1.0
  C  C54  1  0.49666000  0.35655000  0.88764000  1.0
  C  C55  1  0.50216000  0.50463000  0.97395000  1.0
  C  C56  1  0.24865000  0.54168000  0.52924000  1.0
  C  C57  1  0.16468000  0.54344000  0.52988000  1.0
  C  C58  1  0.12135000  0.49844000  0.49852000  1.0
  C  C59  1  0.16534000  0.45207000  0.46748000  1.0
  C  C60  1  0.24995000  0.45450000  0.46964000  1.0
  C  C61  1  0.03550000  0.50046000  0.49996000  1.0
  C  C62  1  0.96155000  0.50332000  0.50292000  1.0
  C  C63  1  0.87569000  0.50329000  0.50459000  1.0
  C  C64  1  0.83012000  0.55137000  0.53386000  1.0
  C  C65  1  0.74564000  0.54685000  0.53147000  1.0
  C  C66  1  0.74985000  0.45267000  0.47623000  1.0
  C  C67  1  0.83385000  0.45268000  0.47588000  1.0
  C  C68  1  0.49727000  0.72944000  0.49973000  1.0
  C  C69  1  0.56962000  0.77019000  0.50222000  1.0
  C  C70  1  0.56778000  0.84758000  0.50082000  1.0
  C  C71  1  0.49338000  0.88648000  0.49727000  1.0
  C  C72  1  0.41966000  0.84538000  0.49541000  1.0
  C  C73  1  0.42359000  0.76744000  0.49648000  1.0
  C  C74  1  0.49669000  0.96548000  0.49583000  1.0
  C  C75  1  0.50378000  0.03374000  0.49475000  1.0
  C  C76  1  0.50663000  0.11281000  0.49463000  1.0
  C  C77  1  0.58021000  0.15416000  0.49303000  1.0
  C  C78  1  0.57587000  0.23210000  0.49402000  1.0
  C  C79  1  0.50196000  0.26988000  0.49686000  1.0
  C  C80  1  0.42960000  0.22894000  0.49803000  1.0
  C  C81  1  0.43185000  0.15153000  0.49675000  1.0
  C  C82  1  0.49942000  0.50477000  0.74299000  1.0
  C  C83  1  0.49452000  0.50475000  0.64193000  1.0
  C  C84  1  0.56885000  0.50435000  0.71516000  1.0
  C  C85  1  0.42399000  0.50674000  0.66958000  1.0
  C  C86  1  0.56652000  0.50393000  0.66713000  1.0
  C  C87  1  0.42630000  0.50660000  0.71804000  1.0
  C  C88  1  0.66067000  0.50257000  0.71663000  1.0
  C  C89  1  0.65797000  0.50202000  0.66208000  1.0
  C  C90  1  0.50459000  0.50318000  0.02566000  1.0
  C  C91  1  0.43268000  0.50586000  0.05161000  1.0
  C  C92  1  0.43561000  0.50287000  0.09935000  1.0
  C  C93  1  0.51074000  0.49784000  0.12245000  1.0
  C  C94  1  0.58394000  0.49585000  0.09629000  1.0
  C  C95  1  0.57892000  0.49833000  0.04824000  1.0
  C  C96  1  0.50855000  0.49579000  0.17125000  1.0
  C  C97  1  0.50167000  0.49516000  0.21343000  1.0
  C  C98  1  0.49811000  0.49545000  0.26222000  1.0
  C  C99  1  0.42401000  0.49275000  0.28753000  1.0
  C  C100  1  0.42746000  0.49328000  0.33567000  1.0
  C  C101  1  0.50103000  0.49713000  0.35911000  1.0
  C  C102  1  0.57378000  0.50059000  0.33402000  1.0
  C  C103  1  0.57245000  0.49938000  0.28621000  1.0
  C  C104  1  0.75040000  0.54841000  0.85762000  1.0
  C  C105  1  0.83430000  0.55031000  0.85807000  1.0
  C  C106  1  0.87668000  0.50275000  0.88825000  1.0
  C  C107  1  0.83180000  0.45461000  0.91743000  1.0
  C  C108  1  0.74729000  0.45706000  0.91425000  1.0
  C  C109  1  0.96251000  0.50410000  0.88735000  1.0
  C  C110  1  0.03646000  0.50662000  0.88436000  1.0
  C  C111  1  0.12226000  0.50641000  0.88231000  1.0
  C  C112  1  0.16748000  0.55635000  0.85444000  1.0
  C  C113  1  0.25199000  0.55107000  0.85621000  1.0
  C  C114  1  0.24824000  0.45348000  0.90869000  1.0
  C  C115  1  0.16426000  0.45377000  0.90931000  1.0
  C  C116  1  0.49802000  0.73211000  0.88294000  1.0
  C  C117  1  0.42648000  0.77433000  0.88088000  1.0
  C  C118  1  0.43009000  0.85170000  0.88234000  1.0
  C  C119  1  0.50533000  0.88907000  0.88568000  1.0
  C  C120  1  0.57814000  0.84641000  0.88725000  1.0
  C  C121  1  0.57250000  0.76859000  0.88598000  1.0
  C  C122  1  0.50365000  0.96816000  0.88725000  1.0
  C  C123  1  0.49701000  0.03647000  0.88871000  1.0
  C  C124  1  0.49345000  0.11553000  0.88960000  1.0
  C  C125  1  0.41935000  0.15636000  0.89197000  1.0
  C  C126  1  0.42264000  0.23434000  0.89174000  1.0
  C  C127  1  0.49602000  0.27272000  0.88894000  1.0
  C  C128  1  0.56884000  0.23231000  0.88699000  1.0
  C  C129  1  0.56766000  0.15486000  0.88753000  1.0
  C  C130  1  0.13040000  0.39781000  0.43299000  1.0
  C  C131  1  0.86292000  0.60660000  0.56847000  1.0
  C  C132  1  0.33551000  0.87812000  0.49248000  1.0
  C  C133  1  0.66460000  0.12184000  0.49036000  1.0
  C  C134  1  0.66858000  0.49158000  0.11560000  1.0
  C  C135  1  0.33996000  0.48998000  0.26726000  1.0
  C  C136  1  0.86581000  0.39841000  0.95082000  1.0
  C  C137  1  0.13443000  0.61529000  0.82244000  1.0
  C  C138  1  0.66305000  0.87716000  0.89013000  1.0
  C  C139  1  0.33541000  0.12337000  0.89488000  1.0
  N  N140  1  0.29017000  0.49818000  0.49931000  1.0
  N  N141  1  0.70684000  0.49971000  0.50329000  1.0
  N  N142  1  0.70800000  0.50240000  0.88530000  1.0
  N  N143  1  0.29102000  0.50198000  0.88289000  1.0
  O  O144  1  0.56652000  0.61433000  0.50821000  1.0
  O  O145  1  0.43186000  0.61253000  0.49241000  1.0
  O  O146  1  0.42802000  0.51399000  0.56952000  1.0
  O  O147  1  0.56300000  0.49003000  0.57128000  1.0
  O  O148  1  0.43228000  0.38456000  0.50698000  1.0
  O  O149  1  0.56760000  0.38709000  0.49243000  1.0
  O  O150  1  0.56890000  0.51084000  0.43055000  1.0
  O  O151  1  0.43415000  0.48518000  0.43088000  1.0
  O  O152  1  0.42650000  0.61773000  0.87672000  1.0
  O  O153  1  0.56255000  0.61447000  0.88783000  1.0
  O  O154  1  0.57395000  0.51227000  0.81190000  1.0
  O  O155  1  0.43910000  0.48911000  0.81682000  1.0
  O  O156  1  0.56408000  0.38760000  0.87814000  1.0
  O  O157  1  0.42987000  0.38984000  0.89595000  1.0
  O  O158  1  0.43380000  0.51767000  0.95534000  1.0
  O  O159  1  0.56863000  0.49222000  0.95283000  1.0
  O  O160  1  0.05268000  0.40833000  0.41923000  1.0
  O  O161  1  0.17055000  0.34638000  0.41765000  1.0
  O  O162  1  0.94245000  0.62485000  0.56593000  1.0
  O  O163  1  0.81927000  0.63449000  0.59783000  1.0
  O  O164  1  0.32781000  0.95325000  0.48814000  1.0
  O  O165  1  0.27511000  0.83904000  0.49386000  1.0
  O  O166  1  0.67312000  0.04642000  0.48996000  1.0
  O  O167  1  0.72458000  0.16148000  0.48860000  1.0
  O  O168  1  0.67730000  0.48475000  0.16195000  1.0
  O  O169  1  0.72844000  0.49397000  0.09085000  1.0
  O  O170  1  0.33270000  0.48410000  0.22074000  1.0
  O  O171  1  0.27935000  0.49276000  0.29141000  1.0
  O  O172  1  0.94331000  0.40748000  0.96526000  1.0
  O  O173  1  0.82507000  0.34658000  0.96465000  1.0
  O  O174  1  0.05351000  0.62861000  0.82304000  1.0
  O  O175  1  0.17887000  0.65034000  0.79696000  1.0
  O  O176  1  0.67257000  0.95218000  0.89436000  1.0
  O  O177  1  0.72252000  0.83666000  0.88880000  1.0
  O  O178  1  0.32791000  0.04789000  0.89509000  1.0
  O  O179  1  0.27495000  0.16252000  0.89709000  1.0
  F  F180  1  0.34914000  0.50803000  0.65060000  1.0
  F  F181  1  0.35349000  0.50888000  0.73974000  1.0
