# generated using pymatgen
data_CuH7C13NO4
_symmetry_space_group_name_H-M   'P 1'
_cell_length_a   10.55750000
_cell_length_b   10.75300000
_cell_length_c   14.78940000
_cell_angle_alpha   89.98310000
_cell_angle_beta   71.34300000
_cell_angle_gamma   89.95950000
_symmetry_Int_Tables_number   1
_chemical_formula_structural   CuH7C13NO4
_chemical_formula_sum   'Cu4 H28 C52 N4 O16'
_cell_volume   1590.73475418
_cell_formula_units_Z   4
loop_
 _symmetry_equiv_pos_site_id
 _symmetry_equiv_pos_as_xyz
  1  'x, y, z'
loop_
 _atom_site_type_symbol
 _atom_site_label
 _atom_site_symmetry_multiplicity
 _atom_site_fract_x
 _atom_site_fract_y
 _atom_site_fract_z
 _atom_site_occupancy
  Cu  Cu0  1  0.91127000  0.08591000  0.00907000  1.0
  Cu  Cu1  1  0.08931000  0.58666000  0.49091000  1.0
  Cu  Cu2  1  0.08874000  0.91411000  0.99092000  1.0
  Cu  Cu3  1  0.91067000  0.41329000  0.50910000  1.0
  H  H4  1  0.96090000  0.72025000  0.77471000  1.0
  H  H5  1  0.03907000  0.22024000  0.72529000  1.0
  H  H6  1  0.03911000  0.27976000  0.22528000  1.0
  H  H7  1  0.96093000  0.77977000  0.27472000  1.0
  H  H8  1  0.43240000  0.45563000  0.93042000  1.0
  H  H9  1  0.56766000  0.95569000  0.56956000  1.0
  H  H10  1  0.56760000  0.54437000  0.06959000  1.0
  H  H11  1  0.43232000  0.04431000  0.43044000  1.0
  H  H12  1  0.59842000  0.54251000  0.77016000  1.0
  H  H13  1  0.40168000  0.04245000  0.72987000  1.0
  H  H14  1  0.40159000  0.45749000  0.22984000  1.0
  H  H15  1  0.59832000  0.95755000  0.27013000  1.0
  H  H16  1  0.58791000  0.81444000  0.98778000  1.0
  H  H17  1  0.41206000  0.31443000  0.51224000  1.0
  H  H18  1  0.41210000  0.18556000  0.01222000  1.0
  H  H19  1  0.58793000  0.68557000  0.48775000  1.0
  H  H20  1  0.04796000  0.63671000  0.04068000  1.0
  H  H21  1  0.95205000  0.13664000  0.45931000  1.0
  H  H22  1  0.95205000  0.36328000  0.95932000  1.0
  H  H23  1  0.04795000  0.86334000  0.54068000  1.0
  H  H24  1  0.38543000  0.85459000  0.93588000  1.0
  H  H25  1  0.61449000  0.35462000  0.56413000  1.0
  H  H26  1  0.61456000  0.14542000  0.06412000  1.0
  H  H27  1  0.38551000  0.64537000  0.43586000  1.0
  H  H28  1  0.18351000  0.43965000  0.00646000  1.0
  H  H29  1  0.81655000  0.93960000  0.49352000  1.0
  H  H30  1  0.81649000  0.56035000  0.99355000  1.0
  H  H31  1  0.18344000  0.06039000  0.50648000  1.0
  C  C32  1  0.85630000  0.85919000  0.93194000  1.0
  C  C33  1  0.14346000  0.35948000  0.56792000  1.0
  C  C34  1  0.14371000  0.14082000  0.06806000  1.0
  C  C35  1  0.85654000  0.64052000  0.43209000  1.0
  C  C36  1  0.43007000  0.65681000  0.92804000  1.0
  C  C37  1  0.56995000  0.15684000  0.57196000  1.0
  C  C38  1  0.56993000  0.34320000  0.07196000  1.0
  C  C39  1  0.43005000  0.84316000  0.42804000  1.0
  C  C40  1  0.86265000  0.56994000  0.66828000  1.0
  C  C41  1  0.13754000  0.07010000  0.83148000  1.0
  C  C42  1  0.13736000  0.43007000  0.33172000  1.0
  C  C43  1  0.86247000  0.92991000  0.16852000  1.0
  C  C44  1  0.57601000  0.67402000  0.88542000  1.0
  C  C45  1  0.42402000  0.17405000  0.61452000  1.0
  C  C46  1  0.42399000  0.32599000  0.11457000  1.0
  C  C47  1  0.57598000  0.82595000  0.38548000  1.0
  C  C48  1  0.85338000  0.70759000  0.80571000  1.0
  C  C49  1  0.14663000  0.20774000  0.69417000  1.0
  C  C50  1  0.14663000  0.29242000  0.19427000  1.0
  C  C51  1  0.85338000  0.79227000  0.30584000  1.0
  C  C52  1  0.78164000  0.77390000  0.88709000  1.0
  C  C53  1  0.21820000  0.27401000  0.61277000  1.0
  C  C54  1  0.21836000  0.22612000  0.11290000  1.0
  C  C55  1  0.78179000  0.72598000  0.38722000  1.0
  C  C56  1  0.37039000  0.53901000  0.94677000  1.0
  C  C57  1  0.62968000  0.03903000  0.55321000  1.0
  C  C58  1  0.62962000  0.46100000  0.05323000  1.0
  C  C59  1  0.37031000  0.96097000  0.44679000  1.0
  C  C60  1  0.64903000  0.60703000  0.80396000  1.0
  C  C61  1  0.35117000  0.10703000  0.69598000  1.0
  C  C62  1  0.35097000  0.39297000  0.19605000  1.0
  C  C63  1  0.64884000  0.89298000  0.30403000  1.0
  C  C64  1  0.64298000  0.76010000  0.92525000  1.0
  C  C65  1  0.35687000  0.26014000  0.57473000  1.0
  C  C66  1  0.35702000  0.23991000  0.07475000  1.0
  C  C67  1  0.64312000  0.73985000  0.42526000  1.0
  C  C68  1  0.78643000  0.62690000  0.76245000  1.0
  C  C69  1  0.21379000  0.12709000  0.73743000  1.0
  C  C70  1  0.21358000  0.37309000  0.23756000  1.0
  C  C71  1  0.78622000  0.87294000  0.26259000  1.0
  C  C72  1  0.15649000  0.63852000  0.00852000  1.0
  C  C73  1  0.84351000  0.13843000  0.49148000  1.0
  C  C74  1  0.84351000  0.36148000  0.99149000  1.0
  C  C75  1  0.15648000  0.86155000  0.50852000  1.0
  C  C76  1  0.34517000  0.76050000  0.95075000  1.0
  C  C77  1  0.65473000  0.26050000  0.54927000  1.0
  C  C78  1  0.65482000  0.23951000  0.04925000  1.0
  C  C79  1  0.34527000  0.73949000  0.45072000  1.0
  C  C80  1  0.23224000  0.52982000  0.98867000  1.0
  C  C81  1  0.76782000  0.02978000  0.51132000  1.0
  C  C82  1  0.76776000  0.47018000  0.01133000  1.0
  C  C83  1  0.23217000  0.97021000  0.48868000  1.0
  N  N84  1  0.21216000  0.75186000  0.98859000  1.0
  N  N85  1  0.78773000  0.25176000  0.51142000  1.0
  N  N86  1  0.78784000  0.24815000  0.01141000  1.0
  N  N87  1  0.21227000  0.74823000  0.48857000  1.0
  O  O88  1  0.80441000  0.96498000  0.96001000  1.0
  O  O89  1  0.19560000  0.46507000  0.54007000  1.0
  O  O90  1  0.19559000  0.03501000  0.04000000  1.0
  O  O91  1  0.80438000  0.53495000  0.45996000  1.0
  O  O92  1  0.96682000  0.81728000  0.93700000  1.0
  O  O93  1  0.03302000  0.31745000  0.56306000  1.0
  O  O94  1  0.03318000  0.18271000  0.06300000  1.0
  O  O95  1  0.96698000  0.68255000  0.43693000  1.0
  O  O96  1  0.81135000  0.47653000  0.64011000  1.0
  O  O97  1  0.18830000  0.97634000  0.85999000  1.0
  O  O98  1  0.18864000  0.52350000  0.35989000  1.0
  O  O99  1  0.81169000  0.02363000  0.14000000  1.0
  O  O100  1  0.97216000  0.62403000  0.62342000  1.0
  O  O101  1  0.02779000  0.12398000  0.87646000  1.0
  O  O102  1  0.02785000  0.37598000  0.37658000  1.0
  O  O103  1  0.97222000  0.87601000  0.12354000  1.0
