# generated using pymatgen
data_ZnH26C26(NO)4
_symmetry_space_group_name_H-M   'P 1'
_cell_length_a   9.14053000
_cell_length_b   10.74410000
_cell_length_c   12.32770000
_cell_angle_alpha   84.81070000
_cell_angle_beta   74.88680000
_cell_angle_gamma   87.73590000
_symmetry_Int_Tables_number   1
_chemical_formula_structural   ZnH26C26(NO)4
_chemical_formula_sum   'Zn2 H52 C52 N8 O8'
_cell_volume   1163.83969131
_cell_formula_units_Z   2
loop_
 _symmetry_equiv_pos_site_id
 _symmetry_equiv_pos_as_xyz
  1  'x, y, z'
loop_
 _atom_site_type_symbol
 _atom_site_label
 _atom_site_symmetry_multiplicity
 _atom_site_fract_x
 _atom_site_fract_y
 _atom_site_fract_z
 _atom_site_occupancy
  Zn  Zn0  1  0.65935000  0.43276000  0.69342000  1.0
  Zn  Zn1  1  0.34065000  0.56724000  0.30658000  1.0
  H  H2  1  0.09772000  0.32502000  0.10931000  1.0
  H  H3  1  0.90227000  0.67498000  0.89069000  1.0
  H  H4  1  0.49960000  0.92800000  0.82035000  1.0
  H  H5  1  0.50040000  0.07200000  0.17965000  1.0
  H  H6  1  0.31546000  0.08491000  0.91830000  1.0
  H  H7  1  0.68454000  0.91509000  0.08170000  1.0
  H  H8  1  0.55698000  0.79228000  0.28178000  1.0
  H  H9  1  0.44301000  0.20772000  0.71822000  1.0
  H  H10  1  0.61170000  0.89849000  0.46547000  1.0
  H  H11  1  0.38829000  0.10152000  0.53453000  1.0
  H  H12  1  0.57695000  0.79319000  0.67355000  1.0
  H  H13  1  0.42306000  0.20681000  0.32645000  1.0
  H  H14  1  0.44031000  0.67833000  0.72217000  1.0
  H  H15  1  0.55970000  0.32168000  0.27783000  1.0
  H  H16  1  0.33791000  0.42671000  0.06828000  1.0
  H  H17  1  0.66208000  0.57329000  0.93172000  1.0
  H  H18  1  0.36637000  0.57692000  0.99210000  1.0
  H  H19  1  0.63362000  0.42308000  0.00790000  1.0
  H  H20  1  0.74370000  0.93163000  0.60907000  1.0
  H  H21  1  0.25631000  0.06837000  0.39093000  1.0
  H  H22  1  0.19384000  0.61499000  0.66374000  1.0
  H  H23  1  0.80617000  0.38500000  0.33627000  1.0
  H  H24  1  0.35249000  0.51355000  0.65624000  1.0
  H  H25  1  0.64752000  0.48645000  0.34376000  1.0
  H  H26  1  0.24100000  0.50514000  0.55810000  1.0
  H  H27  1  0.75901000  0.49485000  0.44191000  1.0
  H  H28  1  0.17401000  0.83006000  0.64577000  1.0
  H  H29  1  0.82600000  0.16995000  0.35422000  1.0
  H  H30  1  0.01923000  0.68333000  0.46902000  1.0
  H  H31  1  0.98078000  0.31667000  0.53099000  1.0
  H  H32  1  0.85034000  0.73561000  0.43905000  1.0
  H  H33  1  0.14966000  0.26438000  0.56095000  1.0
  H  H34  1  0.98049000  0.49874000  0.69346000  1.0
  H  H35  1  0.01951000  0.50127000  0.30654000  1.0
  H  H36  1  0.16936000  0.34480000  0.79553000  1.0
  H  H37  1  0.83064000  0.65521000  0.20447000  1.0
  H  H38  1  0.92530000  0.07954000  0.95812000  1.0
  H  H39  1  0.07470000  0.92046000  0.04188000  1.0
  H  H40  1  0.07522000  0.17429000  0.96616000  1.0
  H  H41  1  0.92478000  0.82572000  0.03384000  1.0
  H  H42  1  0.99168000  0.97960000  0.74495000  1.0
  H  H43  1  0.00832000  0.02040000  0.25504000  1.0
  H  H44  1  0.66922000  0.14357000  0.95413000  1.0
  H  H45  1  0.33078000  0.85643000  0.04587000  1.0
  H  H46  1  0.74805000  0.05365000  0.83791000  1.0
  H  H47  1  0.25196000  0.94636000  0.16209000  1.0
  H  H48  1  0.61250000  0.17650000  0.82826000  1.0
  H  H49  1  0.38750000  0.82350000  0.17175000  1.0
  H  H50  1  0.82515000  0.33516000  0.10930000  1.0
  H  H51  1  0.17484000  0.66484000  0.89070000  1.0
  H  H52  1  0.81306000  0.15238000  0.59858000  1.0
  H  H53  1  0.18694000  0.84761000  0.40142000  1.0
  C  C54  1  0.34969000  0.86680000  0.72733000  1.0
  C  C55  1  0.65031000  0.13320000  0.27267000  1.0
  C  C56  1  0.05504000  0.40040000  0.05970000  1.0
  C  C57  1  0.94495000  0.59960000  0.94029000  1.0
  C  C58  1  0.15477000  0.49282000  0.99838000  1.0
  C  C59  1  0.84522000  0.50718000  0.00162000  1.0
  C  C60  1  0.38737000  0.93915000  0.80469000  1.0
  C  C61  1  0.61263000  0.06085000  0.19531000  1.0
  C  C62  1  0.28370000  0.02584000  0.86081000  1.0
  C  C63  1  0.71629000  0.97416000  0.13919000  1.0
  C  C64  1  0.82846000  0.66953000  0.61079000  1.0
  C  C65  1  0.17154000  0.33047000  0.38922000  1.0
  C  C66  1  0.40975000  0.42219000  0.88861000  1.0
  C  C67  1  0.59025000  0.57781000  0.11139000  1.0
  C  C68  1  0.51235000  0.76965000  0.37153000  1.0
  C  C69  1  0.48764000  0.23035000  0.62847000  1.0
  C  C70  1  0.54101000  0.82138000  0.46121000  1.0
  C  C71  1  0.45898000  0.17862000  0.53879000  1.0
  C  C72  1  0.46174000  0.76942000  0.67277000  1.0
  C  C73  1  0.53826000  0.23058000  0.32723000  1.0
  C  C74  1  0.38483000  0.66124000  0.52470000  1.0
  C  C75  1  0.61517000  0.33876000  0.47530000  1.0
  C  C76  1  0.95977000  0.87277000  0.50485000  1.0
  C  C77  1  0.04023000  0.12722000  0.49515000  1.0
  C  C78  1  0.13971000  0.04102000  0.84114000  1.0
  C  C79  1  0.86029000  0.95898000  0.15886000  1.0
  C  C80  1  0.32082000  0.48360000  0.99381000  1.0
  C  C81  1  0.67917000  0.51640000  0.00618000  1.0
  C  C82  1  0.85639000  0.96073000  0.56034000  1.0
  C  C83  1  0.14360000  0.03927000  0.43966000  1.0
  C  C84  1  0.28717000  0.56873000  0.60499000  1.0
  C  C85  1  0.71283000  0.43127000  0.39501000  1.0
  C  C86  1  0.20632000  0.88352000  0.70660000  1.0
  C  C87  1  0.79368000  0.11648000  0.29340000  1.0
  C  C88  1  0.91686000  0.74023000  0.50122000  1.0
  C  C89  1  0.08314000  0.25977000  0.49878000  1.0
  C  C90  1  0.96148000  0.40759000  0.73881000  1.0
  C  C91  1  0.03852000  0.59241000  0.26120000  1.0
  C  C92  1  0.05532000  0.33347000  0.78787000  1.0
  C  C93  1  0.94468000  0.66653000  0.21213000  1.0
  C  C94  1  0.02582000  0.12975000  0.90746000  1.0
  C  C95  1  0.97419000  0.87025000  0.09253000  1.0
  C  C96  1  0.10234000  0.96938000  0.76305000  1.0
  C  C97  1  0.89766000  0.03063000  0.23695000  1.0
  C  C98  1  0.70970000  0.14802000  0.86164000  1.0
  C  C99  1  0.29031000  0.85199000  0.13836000  1.0
  C  C100  1  0.83196000  0.24069000  0.81900000  1.0
  C  C101  1  0.16805000  0.75931000  0.18100000  1.0
  C  C102  1  0.90197000  0.40774000  0.06117000  1.0
  C  C103  1  0.09802000  0.59226000  0.93882000  1.0
  C  C104  1  0.89591000  0.08555000  0.55510000  1.0
  C  C105  1  0.10409000  0.91444000  0.44490000  1.0
  N  N106  1  0.41470000  0.67064000  0.41154000  1.0
  N  N107  1  0.58530000  0.32936000  0.58846000  1.0
  N  N108  1  0.46097000  0.75187000  0.55687000  1.0
  N  N109  1  0.53904000  0.24813000  0.44313000  1.0
  N  N110  1  0.82369000  0.34919000  0.75760000  1.0
  N  N111  1  0.17631000  0.65081000  0.24240000  1.0
  N  N112  1  0.97227000  0.22933000  0.83822000  1.0
  N  N113  1  0.02774000  0.77067000  0.16178000  1.0
  O  O114  1  0.49176000  0.49848000  0.80998000  1.0
  O  O115  1  0.50825000  0.50152000  0.19002000  1.0
  O  O116  1  0.76581000  0.57011000  0.59052000  1.0
  O  O117  1  0.23418000  0.42989000  0.40948000  1.0
  O  O118  1  0.39944000  0.30761000  0.88207000  1.0
  O  O119  1  0.60056000  0.69239000  0.11793000  1.0
  O  O120  1  0.82296000  0.70398000  0.70536000  1.0
  O  O121  1  0.17705000  0.29602000  0.29464000  1.0
