# generated using pymatgen
data_TbAgH11C15(NO6)2
_symmetry_space_group_name_H-M   'P 1'
_cell_length_a   7.53042000
_cell_length_b   8.20482000
_cell_length_c   14.20190000
_cell_angle_alpha   98.24090000
_cell_angle_beta   100.45800000
_cell_angle_gamma   94.66360000
_symmetry_Int_Tables_number   1
_chemical_formula_structural   TbAgH11C15(NO6)2
_chemical_formula_sum   'Tb2 Ag2 H22 C30 N4 O24'
_cell_volume   848.78002569
_cell_formula_units_Z   2
loop_
 _symmetry_equiv_pos_site_id
 _symmetry_equiv_pos_as_xyz
  1  'x, y, z'
loop_
 _atom_site_type_symbol
 _atom_site_label
 _atom_site_symmetry_multiplicity
 _atom_site_fract_x
 _atom_site_fract_y
 _atom_site_fract_z
 _atom_site_occupancy
  Tb  Tb0  1  0.81115000  0.29753000  0.08057000  1.0
  Tb  Tb1  1  0.18885000  0.70246000  0.91943000  1.0
  Ag  Ag2  1  0.17078000  0.40366000  0.53204000  1.0
  Ag  Ag3  1  0.82922000  0.59634000  0.46797000  1.0
  H  H4  1  0.78476000  0.55143000  0.95873000  1.0
  H  H5  1  0.21524000  0.44857000  0.04127000  1.0
  H  H6  1  0.63739000  0.62131000  0.01886000  1.0
  H  H7  1  0.36261000  0.37869000  0.98114000  1.0
  H  H8  1  0.12731000  0.11437000  0.01697000  1.0
  H  H9  1  0.87269000  0.88563000  0.98303000  1.0
  H  H10  1  0.20333000  0.18853000  0.12684000  1.0
  H  H11  1  0.79667000  0.81147000  0.87315000  1.0
  H  H12  1  0.32870000  0.28835000  0.36351000  1.0
  H  H13  1  0.67130000  0.71165000  0.63649000  1.0
  H  H14  1  0.52345000  0.70117000  0.23980000  1.0
  H  H15  1  0.47655000  0.29883000  0.76020000  1.0
  H  H16  1  0.27994000  0.76402000  0.49442000  1.0
  H  H17  1  0.72006000  0.23598000  0.50558000  1.0
  H  H18  1  0.96470000  0.53792000  0.28490000  1.0
  H  H19  1  0.03530000  0.46208000  0.71510000  1.0
  H  H20  1  0.02489000  0.99327000  0.17047000  1.0
  H  H21  1  0.97511000  0.00673000  0.82953000  1.0
  H  H22  1  0.83450000  0.96938000  0.43723000  1.0
  H  H23  1  0.16551000  0.03063000  0.56277000  1.0
  H  H24  1  0.45445000  0.08541000  0.26719000  1.0
  H  H25  1  0.54554000  0.91459000  0.73281000  1.0
  C  C26  1  0.35305000  0.42096000  0.36266000  1.0
  C  C27  1  0.64695000  0.57904000  0.63734000  1.0
  C  C28  1  0.43785000  0.48116000  0.29321000  1.0
  C  C29  1  0.56214000  0.51884000  0.70679000  1.0
  C  C30  1  0.46275000  0.65175000  0.29516000  1.0
  C  C31  1  0.53725000  0.34825000  0.70484000  1.0
  C  C32  1  0.40302000  0.75681000  0.36650000  1.0
  C  C33  1  0.59698000  0.24319000  0.63350000  1.0
  C  C34  1  0.32691000  0.68778000  0.43649000  1.0
  C  C35  1  0.67309000  0.31222000  0.56351000  1.0
  C  C36  1  0.49846000  0.36490000  0.21703000  1.0
  C  C37  1  0.50153000  0.63510000  0.78297000  1.0
  C  C38  1  0.40467000  0.93789000  0.36198000  1.0
  C  C39  1  0.59533000  0.06211000  0.63802000  1.0
  C  C40  1  0.95618000  0.67073000  0.28898000  1.0
  C  C41  1  0.04381000  0.32927000  0.71102000  1.0
  C  C42  1  0.00488000  0.75561000  0.21769000  1.0
  C  C43  1  0.99512000  0.24438000  0.78231000  1.0
  C  C44  1  0.98835000  0.92479000  0.22549000  1.0
  C  C45  1  0.01165000  0.07521000  0.77451000  1.0
  C  C46  1  0.92416000  0.00483000  0.30396000  1.0
  C  C47  1  0.07584000  0.99517000  0.69604000  1.0
  C  C48  1  0.88300000  0.91211000  0.37393000  1.0
  C  C49  1  0.11700000  0.08789000  0.62607000  1.0
  C  C50  1  0.07234000  0.66582000  0.13428000  1.0
  C  C51  1  0.92767000  0.33419000  0.86571000  1.0
  C  C52  1  0.43439000  0.06032000  0.98056000  1.0
  C  C53  1  0.56559000  0.93965000  0.01943000  1.0
  C  C54  1  0.90110000  0.18737000  0.31202000  1.0
  C  C55  1  0.09890000  0.81263000  0.68798000  1.0
  N  N56  1  0.30162000  0.52259000  0.43390000  1.0
  N  N57  1  0.69838000  0.47741000  0.56610000  1.0
  N  N58  1  0.89832000  0.74790000  0.36628000  1.0
  N  N59  1  0.10168000  0.25210000  0.63372000  1.0
  O  O60  1  0.42483000  0.21482000  0.19841000  1.0
  O  O61  1  0.57517000  0.78518000  0.80159000  1.0
  O  O62  1  0.71705000  0.53225000  0.01031000  1.0
  O  O63  1  0.28295000  0.46774000  0.98969000  1.0
  O  O64  1  0.61765000  0.42346000  0.17511000  1.0
  O  O65  1  0.38236000  0.57654000  0.82489000  1.0
  O  O66  1  0.09176000  0.17047000  0.07573000  1.0
  O  O67  1  0.90824000  0.82953000  0.92427000  1.0
  O  O68  1  0.47878000  0.97441000  0.28842000  1.0
  O  O69  1  0.52122000  0.02560000  0.71158000  1.0
  O  O70  1  0.33858000  0.03563000  0.41655000  1.0
  O  O71  1  0.66143000  0.96437000  0.58345000  1.0
  O  O72  1  0.06013000  0.50704000  0.12341000  1.0
  O  O73  1  0.93987000  0.49295000  0.87659000  1.0
  O  O74  1  0.49912000  0.20962000  0.98807000  1.0
  O  O75  1  0.50089000  0.79039000  0.01194000  1.0
  O  O76  1  0.13882000  0.75117000  0.07914000  1.0
  O  O77  1  0.86117000  0.24882000  0.92087000  1.0
  O  O78  1  0.87354000  0.26295000  0.39076000  1.0
  O  O79  1  0.12646000  0.73705000  0.60924000  1.0
  O  O80  1  0.27140000  0.99899000  0.94522000  1.0
  O  O81  1  0.72862000  0.00101000  0.05478000  1.0
  O  O82  1  0.91410000  0.25324000  0.23653000  1.0
  O  O83  1  0.08590000  0.74677000  0.76347000  1.0
