# generated using pymatgen
data_ZnH9C15(NO2)3
_symmetry_space_group_name_H-M   'P 1'
_cell_length_a   8.61638000
_cell_length_b   9.61519000
_cell_length_c   10.14452471
_cell_angle_alpha   62.29493362
_cell_angle_beta   84.84419363
_cell_angle_gamma   77.58360000
_symmetry_Int_Tables_number   1
_chemical_formula_structural   ZnH9C15(NO2)3
_chemical_formula_sum   'Zn2 H18 C30 N6 O12'
_cell_volume   726.64539109
_cell_formula_units_Z   2
loop_
 _symmetry_equiv_pos_site_id
 _symmetry_equiv_pos_as_xyz
  1  'x, y, z'
loop_
 _atom_site_type_symbol
 _atom_site_label
 _atom_site_symmetry_multiplicity
 _atom_site_fract_x
 _atom_site_fract_y
 _atom_site_fract_z
 _atom_site_occupancy
  Zn  Zn0  1  0.33870000  0.58976000  0.85455000  1.0
  Zn  Zn1  1  0.66130000  0.41024000  0.14545000  1.0
  H  H2  1  0.56554000  0.21734000  0.63217000  1.0
  H  H3  1  0.43446000  0.78266000  0.36783000  1.0
  H  H4  1  0.38954000  0.07832000  0.33965000  1.0
  H  H5  1  0.61046000  0.92168000  0.66035000  1.0
  H  H6  1  0.04329000  0.50266000  0.27366000  1.0
  H  H7  1  0.95671000  0.49734000  0.72634000  1.0
  H  H8  1  0.02314000  0.05240000  0.66219000  1.0
  H  H9  1  0.97686000  0.94760000  0.33781000  1.0
  H  H10  1  0.55871000  0.47944000  0.63846000  1.0
  H  H11  1  0.44129000  0.52056000  0.36154000  1.0
  H  H12  1  0.41892000  0.93712000  0.80993000  1.0
  H  H13  1  0.58108000  0.06288000  0.19007000  1.0
  H  H14  1  0.21332000  0.85352000  0.00344000  1.0
  H  H15  1  0.78668000  0.14648000  0.99656000  1.0
  H  H16  1  0.07316000  0.03278000  0.10676000  1.0
  H  H17  1  0.92683000  0.96722000  0.89324000  1.0
  H  H18  1  0.13547000  0.30172000  0.02444000  1.0
  H  H19  1  0.86453000  0.69828000  0.97556000  1.0
  C  C20  1  0.20887000  0.04445000  0.50640000  1.0
  C  C21  1  0.79113000  0.95554000  0.49360000  1.0
  C  C22  1  0.28441000  0.13576000  0.37652000  1.0
  C  C23  1  0.71559000  0.86424000  0.62348000  1.0
  C  C24  1  0.22670000  0.30047000  0.29292000  1.0
  C  C25  1  0.77330000  0.69953000  0.70708000  1.0
  C  C26  1  0.09102000  0.37533000  0.33850000  1.0
  C  C27  1  0.90898000  0.62467000  0.66150000  1.0
  C  C28  1  0.02275000  0.28344000  0.47292000  1.0
  C  C29  1  0.97725000  0.71656000  0.52708000  1.0
  C  C30  1  0.07911000  0.12019000  0.55790000  1.0
  C  C31  1  0.92090000  0.87980000  0.44210000  1.0
  C  C32  1  0.26968000  0.86726000  0.59282000  1.0
  C  C33  1  0.73032000  0.13274000  0.40718000  1.0
  C  C34  1  0.31367000  0.39386000  0.15638000  1.0
  C  C35  1  0.68633000  0.60614000  0.84362000  1.0
  C  C36  1  0.48884000  0.39105000  0.70936000  1.0
  C  C37  1  0.51116000  0.60895000  0.29064000  1.0
  C  C38  1  0.39409000  0.16747000  0.81047000  1.0
  C  C39  1  0.60591000  0.83253000  0.18953000  1.0
  C  C40  1  0.35891000  0.01682000  0.85541000  1.0
  C  C41  1  0.64109000  0.98318000  0.14459000  1.0
  C  C42  1  0.24388000  0.97062000  0.96436000  1.0
  C  C43  1  0.75611000  0.02938000  0.03564000  1.0
  C  C44  1  0.16503000  0.07246000  0.02441000  1.0
  C  C45  1  0.83496000  0.92754000  0.97559000  1.0
  C  C46  1  0.20029000  0.22254000  0.98003000  1.0
  C  C47  1  0.79971000  0.77746000  0.01997000  1.0
  C  C48  1  0.31910000  0.26835000  0.87375000  1.0
  C  C49  1  0.68090000  0.73165000  0.12625000  1.0
  N  N50  1  0.88982000  0.36206000  0.53056000  1.0
  N  N51  1  0.11018000  0.63794000  0.46944000  1.0
  N  N52  1  0.38300000  0.40697000  0.80848000  1.0
  N  N53  1  0.61700000  0.59303000  0.19152000  1.0
  N  N54  1  0.49924000  0.25034000  0.70695000  1.0
  N  N55  1  0.50076000  0.74966000  0.29305000  1.0
  O  O56  1  0.21434000  0.80099000  0.72605000  1.0
  O  O57  1  0.78566000  0.19901000  0.27395000  1.0
  O  O58  1  0.36819000  0.79467000  0.53565000  1.0
  O  O59  1  0.63181000  0.20532000  0.46435000  1.0
  O  O60  1  0.45919000  0.33509000  0.14787000  1.0
  O  O61  1  0.54081000  0.66491000  0.85213000  1.0
  O  O62  1  0.23644000  0.52376000  0.05457000  1.0
  O  O63  1  0.76356000  0.47624000  0.94543000  1.0
  O  O64  1  0.82905000  0.50390000  0.44821000  1.0
  O  O65  1  0.17095000  0.49610000  0.55179000  1.0
  O  O66  1  0.84623000  0.28385000  0.65985000  1.0
  O  O67  1  0.15377000  0.71616000  0.34014000  1.0
