# generated using pymatgen
data_CoH9C11N3O4
_symmetry_space_group_name_H-M   'P 1'
_cell_length_a   7.97135000
_cell_length_b   12.55220000
_cell_length_c   12.74881524
_cell_angle_alpha   110.42498590
_cell_angle_beta   107.62465875
_cell_angle_gamma   90.21750000
_symmetry_Int_Tables_number   1
_chemical_formula_structural   CoH9C11N3O4
_chemical_formula_sum   'Co4 H36 C44 N12 O16'
_cell_volume   1130.72101899
_cell_formula_units_Z   4
loop_
 _symmetry_equiv_pos_site_id
 _symmetry_equiv_pos_as_xyz
  1  'x, y, z'
loop_
 _atom_site_type_symbol
 _atom_site_label
 _atom_site_symmetry_multiplicity
 _atom_site_fract_x
 _atom_site_fract_y
 _atom_site_fract_z
 _atom_site_occupancy
  Co  Co0  1  0.99942000  0.00023000  0.99989000  1.0
  Co  Co1  1  0.00038000  0.50026000  0.99985000  1.0
  Co  Co2  1  0.81975000  0.24963000  0.00018000  1.0
  Co  Co3  1  0.17978000  0.74942000  0.99870000  1.0
  H  H4  1  0.13705000  0.58113000  0.30060000  1.0
  H  H5  1  0.83803000  0.91843000  0.70017000  1.0
  H  H6  1  0.86393000  0.41860000  0.69916000  1.0
  H  H7  1  0.16083000  0.08136000  0.29968000  1.0
  H  H8  1  0.39856000  0.86990000  0.28949000  1.0
  H  H9  1  0.10884000  0.62975000  0.70801000  1.0
  H  H10  1  0.60067000  0.13045000  0.71017000  1.0
  H  H11  1  0.89146000  0.37057000  0.29159000  1.0
  H  H12  1  0.22453000  0.95069000  0.45174000  1.0
  H  H13  1  0.77329000  0.54899000  0.54906000  1.0
  H  H14  1  0.77519000  0.04932000  0.54805000  1.0
  H  H15  1  0.22683000  0.45113000  0.45081000  1.0
  H  H16  1  0.27786000  0.03988000  0.67029000  1.0
  H  H17  1  0.60741000  0.46011000  0.33126000  1.0
  H  H18  1  0.72164000  0.95992000  0.32953000  1.0
  H  H19  1  0.39286000  0.53978000  0.66863000  1.0
  H  H20  1  0.49964000  0.73951000  0.71413000  1.0
  H  H21  1  0.78450000  0.76049000  0.28491000  1.0
  H  H22  1  0.49996000  0.26026000  0.28543000  1.0
  H  H23  1  0.21549000  0.23930000  0.71468000  1.0
  H  H24  1  0.44282000  0.65046000  0.49704000  1.0
  H  H25  1  0.94557000  0.84901000  0.50095000  1.0
  H  H26  1  0.55705000  0.34949000  0.50247000  1.0
  H  H27  1  0.05417000  0.15100000  0.49860000  1.0
  H  H28  1  0.41285000  0.88058000  0.87236000  1.0
  H  H29  1  0.54055000  0.61917000  0.12842000  1.0
  H  H30  1  0.58664000  0.11894000  0.12723000  1.0
  H  H31  1  0.45952000  0.38036000  0.87127000  1.0
  H  H32  1  0.31752000  0.00393000  0.85361000  1.0
  H  H33  1  0.46317000  0.49644000  0.14891000  1.0
  H  H34  1  0.68164000  0.99551000  0.14606000  1.0
  H  H35  1  0.53738000  0.50303000  0.85091000  1.0
  H  H36  1  0.81472000  0.79259000  0.09401000  1.0
  H  H37  1  0.72204000  0.70710000  0.90997000  1.0
  H  H38  1  0.18853000  0.20695000  0.90802000  1.0
  H  H39  1  0.27692000  0.29256000  0.09164000  1.0
  C  C40  1  0.18505000  0.64027000  0.26842000  1.0
  C  C41  1  0.91831000  0.85954000  0.73162000  1.0
  C  C42  1  0.81538000  0.35967000  0.73135000  1.0
  C  C43  1  0.08108000  0.14044000  0.26824000  1.0
  C  C44  1  0.32070000  0.78835000  0.26259000  1.0
  C  C45  1  0.05856000  0.71142000  0.73565000  1.0
  C  C46  1  0.67903000  0.21183000  0.73708000  1.0
  C  C47  1  0.94137000  0.28876000  0.26404000  1.0
  C  C48  1  0.33150000  0.79648000  0.46364000  1.0
  C  C49  1  0.86800000  0.70314000  0.53578000  1.0
  C  C50  1  0.66834000  0.20354000  0.53604000  1.0
  C  C51  1  0.13189000  0.29697000  0.46396000  1.0
  C  C52  1  0.28907000  0.90722000  0.51113000  1.0
  C  C53  1  0.77800000  0.59253000  0.48924000  1.0
  C  C54  1  0.71066000  0.09276000  0.48863000  1.0
  C  C55  1  0.22208000  0.40752000  0.51060000  1.0
  C  C56  1  0.31901000  0.95609000  0.63258000  1.0
  C  C57  1  0.68600000  0.54387000  0.36827000  1.0
  C  C58  1  0.68045000  0.04371000  0.36715000  1.0
  C  C59  1  0.31422000  0.45602000  0.63156000  1.0
  C  C60  1  0.39141000  0.89573000  0.70671000  1.0
  C  C61  1  0.68359000  0.60435000  0.29370000  1.0
  C  C62  1  0.60798000  0.10397000  0.29292000  1.0
  C  C63  1  0.31663000  0.39544000  0.70604000  1.0
  C  C64  1  0.43801000  0.78607000  0.65721000  1.0
  C  C65  1  0.77978000  0.71383000  0.34214000  1.0
  C  C66  1  0.56155000  0.21370000  0.34236000  1.0
  C  C67  1  0.22025000  0.28601000  0.65749000  1.0
  C  C68  1  0.40723000  0.73573000  0.53576000  1.0
  C  C69  1  0.87110000  0.76391000  0.46310000  1.0
  C  C70  1  0.59256000  0.26419000  0.46383000  1.0
  C  C71  1  0.12875000  0.23609000  0.53655000  1.0
  C  C72  1  0.41911000  0.94806000  0.83713000  1.0
  C  C73  1  0.58093000  0.55188000  0.16381000  1.0
  C  C74  1  0.58017000  0.05151000  0.16250000  1.0
  C  C75  1  0.41942000  0.44774000  0.83596000  1.0
  C  C76  1  0.60139000  0.01891000  0.90299000  1.0
  C  C77  1  0.69710000  0.48046000  0.09699000  1.0
  C  C78  1  0.39772000  0.98080000  0.09672000  1.0
  C  C79  1  0.30347000  0.51927000  0.90280000  1.0
  C  C80  1  0.93610000  0.85588000  0.14061000  1.0
  C  C81  1  0.79728000  0.64483000  0.86210000  1.0
  C  C82  1  0.06575000  0.14496000  0.86135000  1.0
  C  C83  1  0.20284000  0.35597000  0.13947000  1.0
  N  N84  1  0.15875000  0.62377000  0.15644000  1.0
  N  N85  1  0.00406000  0.87627000  0.84320000  1.0
  N  N86  1  0.84182000  0.37610000  0.84332000  1.0
  N  N87  1  0.99512000  0.12358000  0.15665000  1.0
  N  N88  1  0.24418000  0.71694000  0.15261000  1.0
  N  N89  1  0.09248000  0.78303000  0.84589000  1.0
  N  N90  1  0.75600000  0.28309000  0.84708000  1.0
  N  N91  1  0.90700000  0.21696000  0.15383000  1.0
  N  N92  1  0.28718000  0.74296000  0.33832000  1.0
  N  N93  1  0.94963000  0.75667000  0.66082000  1.0
  N  N94  1  0.71276000  0.25715000  0.66138000  1.0
  N  N95  1  0.05019000  0.24350000  0.33892000  1.0
  O  O96  1  0.98425000  0.90245000  0.25021000  1.0
  O  O97  1  0.73722000  0.59864000  0.75257000  1.0
  O  O98  1  0.01612000  0.09902000  0.75175000  1.0
  O  O99  1  0.26431000  0.40266000  0.24896000  1.0
  O  O100  1  0.72813000  0.96549000  0.93710000  1.0
  O  O101  1  0.78899000  0.53355000  0.06115000  1.0
  O  O102  1  0.27144000  0.03428000  0.06219000  1.0
  O  O103  1  0.21058000  0.46618000  0.93812000  1.0
  O  O104  1  0.60948000  0.12424000  0.91476000  1.0
  O  O105  1  0.69422000  0.37550000  0.08663000  1.0
  O  O106  1  0.38963000  0.87557000  0.08541000  1.0
  O  O107  1  0.30671000  0.62431000  0.91357000  1.0
  O  O108  1  0.01734000  0.87295000  0.07178000  1.0
  O  O109  1  0.94709000  0.62808000  0.92954000  1.0
  O  O110  1  0.98405000  0.12835000  0.93033000  1.0
  O  O111  1  0.05351000  0.37308000  0.07222000  1.0
