# generated using pymatgen
data_ZnH14C11(NO2)2
_symmetry_space_group_name_H-M   'P 1'
_cell_length_a   9.89837000
_cell_length_b   12.47160000
_cell_length_c   12.47150000
_cell_angle_alpha   90.00010000
_cell_angle_beta   90.00000000
_cell_angle_gamma   90.00000000
_symmetry_Int_Tables_number   1
_chemical_formula_structural   ZnH14C11(NO2)2
_chemical_formula_sum   'Zn4 H56 C44 N8 O16'
_cell_volume   1539.58810858
_cell_formula_units_Z   4
loop_
 _symmetry_equiv_pos_site_id
 _symmetry_equiv_pos_as_xyz
  1  'x, y, z'
loop_
 _atom_site_type_symbol
 _atom_site_label
 _atom_site_symmetry_multiplicity
 _atom_site_fract_x
 _atom_site_fract_y
 _atom_site_fract_z
 _atom_site_occupancy
  Zn  Zn0  1  0.03509000  0.59814000  0.99089000  1.0
  Zn  Zn1  1  0.53509000  0.40186000  0.00911000  1.0
  Zn  Zn2  1  0.78509000  0.00911000  0.59814000  1.0
  Zn  Zn3  1  0.28509000  0.99089000  0.40186000  1.0
  H  H4  1  0.15917000  0.95834000  0.57140000  1.0
  H  H5  1  0.65917000  0.04165000  0.42860000  1.0
  H  H6  1  0.90917000  0.42860000  0.95835000  1.0
  H  H7  1  0.40917000  0.57140000  0.04166000  1.0
  H  H8  1  0.95056000  0.78635000  0.85171000  1.0
  H  H9  1  0.45055000  0.21364000  0.14829000  1.0
  H  H10  1  0.70056000  0.14828000  0.78636000  1.0
  H  H11  1  0.20056000  0.85172000  0.21365000  1.0
  H  H12  1  0.02192000  0.86625000  0.67892000  1.0
  H  H13  1  0.52192000  0.13374000  0.32108000  1.0
  H  H14  1  0.77192000  0.32108000  0.86626000  1.0
  H  H15  1  0.27192000  0.67892000  0.13375000  1.0
  H  H16  1  0.36169000  0.64741000  0.67987000  1.0
  H  H17  1  0.86169000  0.35258000  0.32013000  1.0
  H  H18  1  0.11169000  0.32013000  0.64742000  1.0
  H  H19  1  0.61169000  0.67988000  0.35259000  1.0
  H  H20  1  0.27889000  0.57816000  0.85263000  1.0
  H  H21  1  0.77889000  0.42184000  0.14737000  1.0
  H  H22  1  0.02889000  0.14737000  0.57816000  1.0
  H  H23  1  0.52889000  0.85264000  0.42184000  1.0
  H  H24  1  0.17592000  0.78824000  0.49501000  1.0
  H  H25  1  0.67591000  0.21176000  0.50498000  1.0
  H  H26  1  0.92591000  0.50498000  0.78824000  1.0
  H  H27  1  0.42592000  0.49502000  0.21177000  1.0
  H  H28  1  0.34625000  0.77767000  0.53817000  1.0
  H  H29  1  0.84624000  0.22232000  0.46183000  1.0
  H  H30  1  0.09624000  0.46182000  0.77767000  1.0
  H  H31  1  0.59625000  0.53818000  0.22233000  1.0
  H  H32  1  0.39279000  0.90800000  0.68733000  1.0
  H  H33  1  0.89279000  0.09200000  0.31267000  1.0
  H  H34  1  0.14279000  0.31267000  0.90800000  1.0
  H  H35  1  0.64279000  0.68733000  0.09200000  1.0
  H  H36  1  0.36234000  0.09060000  0.76500000  1.0
  H  H37  1  0.86234000  0.90940000  0.23500000  1.0
  H  H38  1  0.11233000  0.23500000  0.09060000  1.0
  H  H39  1  0.61234000  0.76500000  0.90940000  1.0
  H  H40  1  0.20523000  0.02100000  0.75505000  1.0
  H  H41  1  0.70523000  0.97900000  0.24495000  1.0
  H  H42  1  0.95523000  0.24495000  0.02100000  1.0
  H  H43  1  0.45523000  0.75504000  0.97900000  1.0
  H  H44  1  0.24691000  0.12268000  0.65977000  1.0
  H  H45  1  0.74691000  0.87732000  0.34023000  1.0
  H  H46  1  0.99691000  0.34023000  0.12269000  1.0
  H  H47  1  0.49691000  0.65977000  0.87732000  1.0
  H  H48  1  0.96048000  0.61490000  0.36795000  1.0
  H  H49  1  0.46048000  0.38510000  0.63205000  1.0
  H  H50  1  0.71048000  0.63206000  0.61490000  1.0
  H  H51  1  0.21049000  0.36795000  0.38510000  1.0
  H  H52  1  0.84858000  0.70832000  0.30843000  1.0
  H  H53  1  0.34859000  0.29168000  0.69157000  1.0
  H  H54  1  0.59858000  0.69157000  0.70832000  1.0
  H  H55  1  0.09859000  0.30844000  0.29168000  1.0
  H  H56  1  0.02059000  0.74344000  0.32143000  1.0
  H  H57  1  0.52059000  0.25656000  0.67857000  1.0
  H  H58  1  0.77059000  0.67857000  0.74344000  1.0
  H  H59  1  0.27059000  0.32143000  0.25656000  1.0
  C  C60  1  0.04286000  0.75985000  0.81219000  1.0
  C  C61  1  0.54286000  0.24015000  0.18781000  1.0
  C  C62  1  0.79286000  0.18781000  0.75985000  1.0
  C  C63  1  0.29286000  0.81220000  0.24015000  1.0
  C  C64  1  0.08377000  0.80409000  0.71537000  1.0
  C  C65  1  0.58376000  0.19591000  0.28463000  1.0
  C  C66  1  0.83376000  0.28463000  0.80409000  1.0
  C  C67  1  0.33377000  0.71537000  0.19591000  1.0
  C  C68  1  0.20022000  0.76518000  0.66466000  1.0
  C  C69  1  0.70022000  0.23482000  0.33534000  1.0
  C  C70  1  0.95022000  0.33534000  0.76518000  1.0
  C  C71  1  0.45022000  0.66467000  0.23482000  1.0
  C  C72  1  0.27102000  0.68251000  0.71513000  1.0
  C  C73  1  0.77101000  0.31748000  0.28487000  1.0
  C  C74  1  0.02101000  0.28487000  0.68251000  1.0
  C  C75  1  0.52102000  0.71513000  0.31748000  1.0
  C  C76  1  0.22481000  0.64279000  0.81261000  1.0
  C  C77  1  0.72481000  0.35721000  0.18739000  1.0
  C  C78  1  0.97481000  0.18739000  0.64279000  1.0
  C  C79  1  0.47481000  0.81262000  0.35721000  1.0
  C  C80  1  0.24697000  0.81119000  0.55900000  1.0
  C  C81  1  0.74697000  0.18881000  0.44099000  1.0
  C  C82  1  0.99697000  0.44099000  0.81119000  1.0
  C  C83  1  0.49697000  0.55901000  0.18881000  1.0
  C  C84  1  0.35373000  0.97350000  0.63670000  1.0
  C  C85  1  0.85372000  0.02650000  0.36330000  1.0
  C  C86  1  0.10372000  0.36330000  0.97350000  1.0
  C  C87  1  0.60373000  0.63670000  0.02650000  1.0
  C  C88  1  0.28795000  0.05747000  0.70897000  1.0
  C  C89  1  0.78795000  0.94253000  0.29102000  1.0
  C  C90  1  0.03795000  0.29102000  0.05747000  1.0
  C  C91  1  0.53795000  0.70897000  0.94253000  1.0
  C  C92  1  0.47863000  0.02001000  0.57939000  1.0
  C  C93  1  0.97863000  0.97999000  0.42061000  1.0
  C  C94  1  0.22863000  0.42061000  0.02001000  1.0
  C  C95  1  0.72863000  0.57939000  0.97999000  1.0
  C  C96  1  0.97546000  0.62757000  0.19583000  1.0
  C  C97  1  0.47546000  0.37243000  0.80417000  1.0
  C  C98  1  0.72546000  0.80417000  0.62757000  1.0
  C  C99  1  0.22545000  0.19583000  0.37243000  1.0
  C  C100  1  0.95200000  0.67637000  0.30552000  1.0
  C  C101  1  0.45200000  0.32362000  0.69448000  1.0
  C  C102  1  0.70199000  0.69448000  0.67637000  1.0
  C  C103  1  0.20200000  0.30552000  0.32362000  1.0
  N  N104  1  0.25545000  0.92926000  0.55886000  1.0
  N  N105  1  0.75545000  0.07074000  0.44114000  1.0
  N  N106  1  0.00545000  0.44114000  0.92926000  1.0
  N  N107  1  0.50545000  0.55886000  0.07075000  1.0
  N  N108  1  0.11256000  0.68050000  0.86065000  1.0
  N  N109  1  0.61255000  0.31949000  0.13935000  1.0
  N  N110  1  0.86255000  0.13935000  0.68051000  1.0
  N  N111  1  0.36255000  0.86066000  0.31949000  1.0
  O  O112  1  0.57729000  0.04552000  0.63872000  1.0
  O  O113  1  0.07729000  0.95448000  0.36128000  1.0
  O  O114  1  0.32729000  0.36127000  0.04552000  1.0
  O  O115  1  0.82729000  0.63872000  0.95448000  1.0
  O  O116  1  0.47603000  0.02962000  0.47750000  1.0
  O  O117  1  0.97603000  0.97038000  0.52250000  1.0
  O  O118  1  0.22603000  0.52250000  0.02962000  1.0
  O  O119  1  0.72603000  0.47750000  0.97038000  1.0
  O  O120  1  0.02951000  0.68871000  0.12364000  1.0
  O  O121  1  0.52951000  0.31129000  0.87636000  1.0
  O  O122  1  0.77951000  0.87636000  0.68871000  1.0
  O  O123  1  0.27951000  0.12364000  0.31129000  1.0
  O  O124  1  0.94027000  0.53235000  0.17727000  1.0
  O  O125  1  0.44027000  0.46765000  0.82273000  1.0
  O  O126  1  0.69027000  0.82273000  0.53235000  1.0
  O  O127  1  0.19027000  0.17728000  0.46765000  1.0
