# generated using pymatgen
data_ZnH15C19(NO)4
_symmetry_space_group_name_H-M   'P 1'
_cell_length_a   10.91740000
_cell_length_b   12.04630000
_cell_length_c   16.29170000
_cell_angle_alpha   90.00000000
_cell_angle_beta   89.99970000
_cell_angle_gamma   92.56380000
_symmetry_Int_Tables_number   1
_chemical_formula_structural   ZnH15C19(NO)4
_chemical_formula_sum   'Zn4 H60 C76 N16 O16'
_cell_volume   2140.44645713
_cell_formula_units_Z   4
loop_
 _symmetry_equiv_pos_site_id
 _symmetry_equiv_pos_as_xyz
  1  'x, y, z'
loop_
 _atom_site_type_symbol
 _atom_site_label
 _atom_site_symmetry_multiplicity
 _atom_site_fract_x
 _atom_site_fract_y
 _atom_site_fract_z
 _atom_site_occupancy
  Zn  Zn0  1  0.85086000  0.14537000  0.69985000  1.0
  Zn  Zn1  1  0.14914000  0.35463000  0.19985000  1.0
  Zn  Zn2  1  0.14914000  0.85463000  0.30015000  1.0
  Zn  Zn3  1  0.85085000  0.64537000  0.80015000  1.0
  H  H4  1  0.65742000  0.09999000  0.85277000  1.0
  H  H5  1  0.34259000  0.40002000  0.35277000  1.0
  H  H6  1  0.34258000  0.90001000  0.14723000  1.0
  H  H7  1  0.65741000  0.59998000  0.64723000  1.0
  H  H8  1  0.45300000  0.23172000  0.86685000  1.0
  H  H9  1  0.54701000  0.26827000  0.36684000  1.0
  H  H10  1  0.54699000  0.76827000  0.13315000  1.0
  H  H11  1  0.45300000  0.73173000  0.63315000  1.0
  H  H12  1  0.66597000  0.33440000  0.66066000  1.0
  H  H13  1  0.33402000  0.16559000  0.16066000  1.0
  H  H14  1  0.33402000  0.66560000  0.33934000  1.0
  H  H15  1  0.66598000  0.83440000  0.83934000  1.0
  H  H16  1  0.35829000  0.34858000  0.72121000  1.0
  H  H17  1  0.64170000  0.15139000  0.22119000  1.0
  H  H18  1  0.64170000  0.65140000  0.27880000  1.0
  H  H19  1  0.35830000  0.84860000  0.77880000  1.0
  H  H20  1  0.48217000  0.43416000  0.68328000  1.0
  H  H21  1  0.51780000  0.06583000  0.18328000  1.0
  H  H22  1  0.51781000  0.56583000  0.31672000  1.0
  H  H23  1  0.48219000  0.93417000  0.81672000  1.0
  H  H24  1  0.62212000  0.49566000  0.83353000  1.0
  H  H25  1  0.37788000  0.00433000  0.33353000  1.0
  H  H26  1  0.37788000  0.50434000  0.16647000  1.0
  H  H27  1  0.62212000  0.99566000  0.66647000  1.0
  H  H28  1  0.59243000  0.63661000  0.94185000  1.0
  H  H29  1  0.40758000  0.86338000  0.44186000  1.0
  H  H30  1  0.40758000  0.36339000  0.05814000  1.0
  H  H31  1  0.59242000  0.13661000  0.55814000  1.0
  H  H32  1  0.38172000  0.68747000  0.98071000  1.0
  H  H33  1  0.61830000  0.81253000  0.48071000  1.0
  H  H34  1  0.61830000  0.31253000  0.01929000  1.0
  H  H35  1  0.38171000  0.18747000  0.51929000  1.0
  H  H36  1  0.23141000  0.46296000  0.79690000  1.0
  H  H37  1  0.76859000  0.03704000  0.29688000  1.0
  H  H38  1  0.76859000  0.53704000  0.20312000  1.0
  H  H39  1  0.23141000  0.96297000  0.70311000  1.0
  H  H40  1  0.14300000  0.69110000  0.90839000  1.0
  H  H41  1  0.85702000  0.80891000  0.40838000  1.0
  H  H42  1  0.85701000  0.30891000  0.09162000  1.0
  H  H43  1  0.14299000  0.19110000  0.59161000  1.0
  H  H44  1  0.09699000  0.55403000  0.88093000  1.0
  H  H45  1  0.90302000  0.94599000  0.38093000  1.0
  H  H46  1  0.90301000  0.44599000  0.11907000  1.0
  H  H47  1  0.09699000  0.05402000  0.61907000  1.0
  H  H48  1  0.11889000  0.74027000  0.05409000  1.0
  H  H49  1  0.88109000  0.75974000  0.55408000  1.0
  H  H50  1  0.88111000  0.25974000  0.94592000  1.0
  H  H51  1  0.11888000  0.24026000  0.44592000  1.0
  H  H52  1  0.11777000  0.62110000  0.20146000  1.0
  H  H53  1  0.88220000  0.87890000  0.70146000  1.0
  H  H54  1  0.88222000  0.37890000  0.79854000  1.0
  H  H55  1  0.11778000  0.12110000  0.29854000  1.0
  H  H56  1  0.17704000  0.40058000  0.00563000  1.0
  H  H57  1  0.82297000  0.09943000  0.50562000  1.0
  H  H58  1  0.82295000  0.59943000  0.99438000  1.0
  H  H59  1  0.17705000  0.90058000  0.49438000  1.0
  H  H60  1  0.05271000  0.17405000  0.92465000  1.0
  H  H61  1  0.94730000  0.32595000  0.42465000  1.0
  H  H62  1  0.94730000  0.82594000  0.07535000  1.0
  H  H63  1  0.05271000  0.67406000  0.57535000  1.0
  C  C64  1  0.62805000  0.16848000  0.81561000  1.0
  C  C65  1  0.37196000  0.33153000  0.31561000  1.0
  C  C66  1  0.37194000  0.83152000  0.18439000  1.0
  C  C67  1  0.62805000  0.66847000  0.68439000  1.0
  C  C68  1  0.52726000  0.23194000  0.82265000  1.0
  C  C69  1  0.47275000  0.26806000  0.32265000  1.0
  C  C70  1  0.47274000  0.76805000  0.17734000  1.0
  C  C71  1  0.52725000  0.73194000  0.67735000  1.0
  C  C72  1  0.63640000  0.28714000  0.71424000  1.0
  C  C73  1  0.36360000  0.21286000  0.21424000  1.0
  C  C74  1  0.36359000  0.71286000  0.28576000  1.0
  C  C75  1  0.63640000  0.78714000  0.78576000  1.0
  C  C76  1  0.44637000  0.39032000  0.73810000  1.0
  C  C77  1  0.55362000  0.10966000  0.23809000  1.0
  C  C78  1  0.55362000  0.60967000  0.26190000  1.0
  C  C79  1  0.44638000  0.89033000  0.76190000  1.0
  C  C80  1  0.42900000  0.47158000  0.80721000  1.0
  C  C81  1  0.57100000  0.02841000  0.30721000  1.0
  C  C82  1  0.57100000  0.52841000  0.19279000  1.0
  C  C83  1  0.42900000  0.97159000  0.69279000  1.0
  C  C84  1  0.52986000  0.51941000  0.84922000  1.0
  C  C85  1  0.47015000  0.98058000  0.34922000  1.0
  C  C86  1  0.47014000  0.48059000  0.15077000  1.0
  C  C87  1  0.52985000  0.01941000  0.65077000  1.0
  C  C88  1  0.51300000  0.59801000  0.91068000  1.0
  C  C89  1  0.48701000  0.90199000  0.41068000  1.0
  C  C90  1  0.48701000  0.40199000  0.08932000  1.0
  C  C91  1  0.51299000  0.09801000  0.58932000  1.0
  C  C92  1  0.39494000  0.62798000  0.93122000  1.0
  C  C93  1  0.60508000  0.87202000  0.43121000  1.0
  C  C94  1  0.60507000  0.37202000  0.06879000  1.0
  C  C95  1  0.39493000  0.12799000  0.56878000  1.0
  C  C96  1  0.29302000  0.57917000  0.89052000  1.0
  C  C97  1  0.70699000  0.92083000  0.39051000  1.0
  C  C98  1  0.70698000  0.42083000  0.10948000  1.0
  C  C99  1  0.29302000  0.07918000  0.60948000  1.0
  C  C100  1  0.31085000  0.50143000  0.82847000  1.0
  C  C101  1  0.68915000  0.99856000  0.32845000  1.0
  C  C102  1  0.68915000  0.49856000  0.17154000  1.0
  C  C103  1  0.31085000  0.00144000  0.67154000  1.0
  C  C104  1  0.16451000  0.60363000  0.91689000  1.0
  C  C105  1  0.83550000  0.89637000  0.41688000  1.0
  C  C106  1  0.83550000  0.39637000  0.08312000  1.0
  C  C107  1  0.16450000  0.10363000  0.58312000  1.0
  C  C108  1  0.12914000  0.65297000  0.06666000  1.0
  C  C109  1  0.87085000  0.84703000  0.56665000  1.0
  C  C110  1  0.87086000  0.34703000  0.93335000  1.0
  C  C111  1  0.12914000  0.15297000  0.43335000  1.0
  C  C112  1  0.12848000  0.59361000  0.13864000  1.0
  C  C113  1  0.87150000  0.90639000  0.63864000  1.0
  C  C114  1  0.87151000  0.40639000  0.86136000  1.0
  C  C115  1  0.12848000  0.09361000  0.36136000  1.0
  C  C116  1  0.15865000  0.47629000  0.03871000  1.0
  C  C117  1  0.84136000  0.02372000  0.53871000  1.0
  C  C118  1  0.84134000  0.52371000  0.96129000  1.0
  C  C119  1  0.15865000  0.97629000  0.46129000  1.0
  C  C120  1  0.90914000  0.03572000  0.83577000  1.0
  C  C121  1  0.09086000  0.46428000  0.33577000  1.0
  C  C122  1  0.09086000  0.96428000  0.16423000  1.0
  C  C123  1  0.90914000  0.53572000  0.66424000  1.0
  C  C124  1  0.96252000  0.01245000  0.91822000  1.0
  C  C125  1  0.03749000  0.48755000  0.41823000  1.0
  C  C126  1  0.03749000  0.98754000  0.08178000  1.0
  C  C127  1  0.96252000  0.51246000  0.58178000  1.0
  C  C128  1  0.93393000  0.91246000  0.96004000  1.0
  C  C129  1  0.06608000  0.58754000  0.46004000  1.0
  C  C130  1  0.06608000  0.08753000  0.03996000  1.0
  C  C131  1  0.93393000  0.41247000  0.53997000  1.0
  C  C132  1  0.02988000  0.09775000  0.95833000  1.0
  C  C133  1  0.97014000  0.40225000  0.45833000  1.0
  C  C134  1  0.97013000  0.90224000  0.04167000  1.0
  C  C135  1  0.02987000  0.59776000  0.54168000  1.0
  C  C136  1  0.87368000  0.81221000  0.91938000  1.0
  C  C137  1  0.12633000  0.68780000  0.41938000  1.0
  C  C138  1  0.12632000  0.18779000  0.08062000  1.0
  C  C139  1  0.87368000  0.31221000  0.58063000  1.0
  N  N140  1  0.69535000  0.20378000  0.74759000  1.0
  N  N141  1  0.30466000  0.29622000  0.24759000  1.0
  N  N142  1  0.30465000  0.79622000  0.25241000  1.0
  N  N143  1  0.69534000  0.70378000  0.75241000  1.0
  N  N144  1  0.53414000  0.30632000  0.75779000  1.0
  N  N145  1  0.46586000  0.19367000  0.25779000  1.0
  N  N146  1  0.46586000  0.69367000  0.24221000  1.0
  N  N147  1  0.53414000  0.80633000  0.74221000  1.0
  N  N148  1  0.14749000  0.48348000  0.12018000  1.0
  N  N149  1  0.85250000  0.01652000  0.62018000  1.0
  N  N150  1  0.85250000  0.51652000  0.87982000  1.0
  N  N151  1  0.14749000  0.98348000  0.37982000  1.0
  N  N152  1  0.14727000  0.57767000  0.00431000  1.0
  N  N153  1  0.85273000  0.92233000  0.50430000  1.0
  N  N154  1  0.85273000  0.42233000  0.99569000  1.0
  N  N155  1  0.14727000  0.07767000  0.49569000  1.0
  O  O156  1  0.96493000  0.11233000  0.79201000  1.0
  O  O157  1  0.03506000  0.38768000  0.29201000  1.0
  O  O158  1  0.03506000  0.88767000  0.20799000  1.0
  O  O159  1  0.96494000  0.61233000  0.70799000  1.0
  O  O160  1  0.80984000  0.98651000  0.81508000  1.0
  O  O161  1  0.19016000  0.51349000  0.31508000  1.0
  O  O162  1  0.19016000  0.01348000  0.18492000  1.0
  O  O163  1  0.80984000  0.48651000  0.68492000  1.0
  O  O164  1  0.77784000  0.76763000  0.94952000  1.0
  O  O165  1  0.22216000  0.73238000  0.44952000  1.0
  O  O166  1  0.22215000  0.23238000  0.05048000  1.0
  O  O167  1  0.77785000  0.26763000  0.55049000  1.0
  O  O168  1  0.93334000  0.77500000  0.85711000  1.0
  O  O169  1  0.06666000  0.72500000  0.35711000  1.0
  O  O170  1  0.06666000  0.22499000  0.14290000  1.0
  O  O171  1  0.93336000  0.27501000  0.64290000  1.0
