# generated using pymatgen
data_Zn2H13C27N8Cl
_symmetry_space_group_name_H-M   'P 1'
_cell_length_a   18.50490000
_cell_length_b   18.50780000
_cell_length_c   18.55870000
_cell_angle_alpha   111.35500000
_cell_angle_beta   111.41800000
_cell_angle_gamma   100.24400000
_symmetry_Int_Tables_number   1
_chemical_formula_structural   Zn2H13C27N8Cl
_chemical_formula_sum   'Zn4 H26 C54 N16 Cl2'
_cell_volume   5144.59758168
_cell_formula_units_Z   2
loop_
 _symmetry_equiv_pos_site_id
 _symmetry_equiv_pos_as_xyz
  1  'x, y, z'
loop_
 _atom_site_type_symbol
 _atom_site_label
 _atom_site_symmetry_multiplicity
 _atom_site_fract_x
 _atom_site_fract_y
 _atom_site_fract_z
 _atom_site_occupancy
  Zn  Zn0  1  0.60128000  0.48539000  0.13744000  1.0
  Zn  Zn1  1  0.48540000  0.60136000  0.13747000  1.0
  Zn  Zn2  1  0.39093000  0.50585000  0.92192000  1.0
  Zn  Zn3  1  0.50580000  0.39093000  0.92191000  1.0
  H  H4  1  0.78453000  0.45919000  0.17111000  1.0
  H  H5  1  0.86422000  0.01591000  0.38377000  1.0
  H  H6  1  0.01598000  0.86435000  0.38471000  1.0
  H  H7  1  0.87448000  0.93710000  0.47088000  1.0
  H  H8  1  0.93632000  0.87464000  0.47095000  1.0
  H  H9  1  0.98911000  0.05112000  0.59132000  1.0
  H  H10  1  0.05120000  0.98876000  0.59107000  1.0
  H  H11  1  0.45913000  0.78442000  0.17103000  1.0
  H  H12  1  0.33757000  0.65761000  0.88740000  1.0
  H  H13  1  0.65746000  0.33758000  0.88747000  1.0
  H  H14  1  0.63519000  0.48243000  0.87567000  1.0
  H  H15  1  0.48245000  0.63525000  0.87563000  1.0
  H  H16  1  0.61418000  0.76679000  0.17535000  1.0
  H  H17  1  0.76693000  0.61424000  0.17543000  1.0
  H  H18  1  0.65796000  0.50540000  0.34007000  1.0
  H  H19  1  0.50544000  0.65793000  0.33999000  1.0
  H  H20  1  0.21702000  0.36942000  0.73928000  1.0
  H  H21  1  0.36950000  0.21722000  0.73938000  1.0
  H  H22  1  0.37778000  0.22436000  0.88662000  1.0
  H  H23  1  0.22433000  0.37775000  0.88658000  1.0
  H  H24  1  0.34567000  0.50606000  0.17066000  1.0
  H  H25  1  0.50606000  0.34555000  0.17071000  1.0
  H  H26  1  0.03311000  0.11793000  0.43763000  1.0
  H  H27  1  0.91615000  0.00692000  0.31943000  1.0
  H  H28  1  0.11770000  0.03311000  0.43744000  1.0
  H  H29  1  0.00697000  0.91560000  0.31965000  1.0
  C  C30  1  0.74056000  0.43092000  0.10199000  1.0
  C  C31  1  0.48071000  0.32916000  0.10175000  1.0
  C  C32  1  0.72275000  0.72270000  0.19625000  1.0
  C  C33  1  0.61859000  0.54050000  0.32546000  1.0
  C  C34  1  0.54055000  0.61856000  0.32544000  1.0
  C  C35  1  0.26662000  0.34456000  0.75141000  1.0
  C  C36  1  0.34456000  0.26675000  0.75145000  1.0
  C  C37  1  0.32922000  0.48068000  0.10170000  1.0
  C  C38  1  0.58660000  0.58654000  0.37714000  1.0
  C  C39  1  0.26178000  0.26185000  0.71061000  1.0
  C  C40  1  0.42851000  0.25099000  0.02789000  1.0
  C  C41  1  0.25101000  0.42845000  0.02784000  1.0
  C  C42  1  0.43086000  0.74051000  0.10192000  1.0
  C  C43  1  0.92112000  0.00946000  0.38120000  1.0
  C  C44  1  0.00951000  0.92103000  0.38154000  1.0
  C  C45  1  0.08468000  0.99777000  0.45947000  1.0
  C  C46  1  0.99770000  0.08463000  0.45939000  1.0
  C  C47  1  0.19076000  0.19083000  0.64564000  1.0
  C  C48  1  0.92795000  0.92800000  0.38302000  1.0
  C  C49  1  0.05703000  0.05701000  0.51946000  1.0
  C  C50  1  0.36863000  0.67558000  0.95678000  1.0
  C  C51  1  0.67552000  0.36866000  0.95686000  1.0
  C  C52  1  0.00857000  0.00849000  0.54998000  1.0
  C  C53  1  0.93272000  0.93297000  0.47012000  1.0
  C  C54  1  0.12923000  0.12921000  0.59105000  1.0
  C  C55  1  0.85634000  0.85637000  0.30895000  1.0
  C  C56  1  0.79504000  0.79500000  0.25218000  1.0
  C  C57  1  0.39058000  0.82832000  0.02764000  1.0
  C  C58  1  0.41516000  0.26697000  0.95611000  1.0
  C  C59  1  0.82835000  0.39061000  0.02776000  1.0
  C  C60  1  0.38762000  0.89363000  0.02600000  1.0
  C  C61  1  0.89364000  0.38760000  0.02606000  1.0
  C  C62  1  0.38655000  0.96533000  0.02469000  1.0
  C  C63  1  0.96532000  0.38650000  0.02468000  1.0
  C  C64  1  0.26695000  0.41513000  0.95607000  1.0
  C  C65  1  0.38809000  0.03221000  0.02416000  1.0
  C  C66  1  0.03220000  0.38801000  0.02413000  1.0
  C  C67  1  0.39451000  0.10568000  0.02469000  1.0
  C  C68  1  0.10568000  0.39442000  0.02464000  1.0
  C  C69  1  0.59224000  0.51396000  0.88315000  1.0
  C  C70  1  0.51395000  0.59227000  0.88313000  1.0
  C  C71  1  0.40548000  0.17384000  0.02603000  1.0
  C  C72  1  0.17383000  0.40538000  0.02595000  1.0
  C  C73  1  0.59704000  0.59695000  0.45929000  1.0
  C  C74  1  0.60448000  0.60443000  0.53059000  1.0
  C  C75  1  0.60958000  0.60955000  0.60634000  1.0
  C  C76  1  0.61073000  0.61072000  0.67385000  1.0
  C  C77  1  0.60617000  0.60616000  0.74261000  1.0
  C  C78  1  0.59590000  0.59591000  0.80063000  1.0
  C  C79  1  0.63930000  0.71735000  0.16818000  1.0
  C  C80  1  0.71744000  0.63930000  0.16823000  1.0
  C  C81  1  0.75431000  0.39583000  0.02893000  1.0
  C  C82  1  0.39578000  0.75429000  0.02883000  1.0
  C  C83  1  0.57291000  0.57293000  0.85540000  1.0
  N  N84  1  0.66084000  0.42492000  0.07523000  1.0
  N  N85  1  0.49875000  0.54675000  0.92178000  1.0
  N  N86  1  0.54673000  0.49876000  0.92180000  1.0
  N  N87  1  0.58936000  0.63726000  0.12903000  1.0
  N  N88  1  0.63732000  0.58936000  0.12906000  1.0
  N  N89  1  0.59370000  0.54520000  0.25026000  1.0
  N  N90  1  0.54521000  0.59371000  0.25025000  1.0
  N  N91  1  0.42487000  0.66083000  0.07518000  1.0
  N  N92  1  0.34555000  0.39411000  0.81179000  1.0
  N  N93  1  0.39409000  0.34564000  0.81180000  1.0
  N  N94  1  0.45779000  0.34732000  0.98570000  1.0
  N  N95  1  0.34732000  0.45782000  0.98568000  1.0
  N  N96  1  0.38549000  0.49790000  0.07494000  1.0
  N  N97  1  0.49787000  0.38545000  0.07498000  1.0
  N  N98  1  0.38618000  0.62049000  0.98495000  1.0
  N  N99  1  0.62044000  0.38620000  0.98500000  1.0
  Cl  Cl100  1  0.16179000  0.96698000  0.52157000  1.0
  Cl  Cl101  1  0.96650000  0.16126000  0.52134000  1.0
