# generated using pymatgen
data_Zn4H26C49O16
_symmetry_space_group_name_H-M   'P 1'
_cell_length_a   15.55490000
_cell_length_b   15.80940000
_cell_length_c   19.42000000
_cell_angle_alpha   83.14110000
_cell_angle_beta   79.25700000
_cell_angle_gamma   67.00320000
_symmetry_Int_Tables_number   1
_chemical_formula_structural   Zn4H26C49O16
_chemical_formula_sum   'Zn4 H26 C49 O16'
_cell_volume   4313.31945295
_cell_formula_units_Z   1
loop_
 _symmetry_equiv_pos_site_id
 _symmetry_equiv_pos_as_xyz
  1  'x, y, z'
loop_
 _atom_site_type_symbol
 _atom_site_label
 _atom_site_symmetry_multiplicity
 _atom_site_fract_x
 _atom_site_fract_y
 _atom_site_fract_z
 _atom_site_occupancy
  Zn  Zn0  1  0.42254000  0.60219000  0.43448000  1.0
  Zn  Zn1  1  0.42725000  0.44454000  0.56072000  1.0
  Zn  Zn2  1  0.55346000  0.56767000  0.54486000  1.0
  Zn  Zn3  1  0.60448000  0.40864000  0.44098000  1.0
  H  H4  1  0.42460000  0.61429000  0.22216000  1.0
  H  H5  1  0.61668000  0.76065000  0.51921000  1.0
  H  H6  1  0.81980000  0.73649000  0.47767000  1.0
  H  H7  1  0.94579000  0.78281000  0.49770000  1.0
  H  H8  1  0.16359000  0.45582000  0.51738000  1.0
  H  H9  1  0.88432000  0.28847000  0.47991000  1.0
  H  H10  1  0.11628000  0.35916000  0.50578000  1.0
  H  H11  1  0.05400000  0.24196000  0.49284000  1.0
  H  H12  1  0.75620000  0.61726000  0.47616000  1.0
  H  H13  1  0.48468000  0.63961000  0.75013000  1.0
  H  H14  1  0.47798000  0.57643000  0.98920000  1.0
  H  H15  1  0.48973000  0.63743000  0.87775000  1.0
  H  H16  1  0.59776000  0.31041000  0.11715000  1.0
  H  H17  1  0.60742000  0.32971000  0.24057000  1.0
  H  H18  1  0.51945000  0.36935000  0.01299000  1.0
  H  H19  1  0.41602000  0.59669000  0.09883000  1.0
  H  H20  1  0.18449000  0.74610000  0.53540000  1.0
  H  H21  1  0.44668000  0.37441000  0.72996000  1.0
  H  H22  1  0.45739000  0.31573000  0.88418000  1.0
  H  H23  1  0.71762000  0.13105000  0.54795000  1.0
  H  H24  1  0.71959000  0.82886000  0.55106000  1.0
  H  H25  1  0.75912000  0.96111000  0.55901000  1.0
  H  H26  1  0.44187000  0.17335000  0.50721000  1.0
  H  H27  1  0.31135000  0.88133000  0.44188000  1.0
  H  H28  1  0.35941000  0.11908000  0.48188000  1.0
  H  H29  1  0.25733000  0.05159000  0.44637000  1.0
  C  C30  1  0.55128000  0.26186000  0.52038000  1.0
  C  C31  1  0.50415000  0.43947000  0.02607000  1.0
  C  C32  1  0.48621000  0.50826000  0.97536000  1.0
  C  C33  1  0.46432000  0.75199000  0.47703000  1.0
  C  C34  1  0.47014000  0.50868000  0.75714000  1.0
  C  C35  1  0.69012000  0.00785000  0.54643000  1.0
  C  C36  1  0.57629000  0.16058000  0.52730000  1.0
  C  C37  1  0.35604000  0.91149000  0.45804000  1.0
  C  C38  1  0.32607000  0.00702000  0.46045000  1.0
  C  C39  1  0.38370000  0.04459000  0.48067000  1.0
  C  C40  1  0.47314000  0.98868000  0.49911000  1.0
  C  C41  1  0.50798000  0.45248000  0.09830000  1.0
  C  C42  1  0.50352000  0.89054000  0.49847000  1.0
  C  C43  1  0.53531000  0.02903000  0.51703000  1.0
  C  C44  1  0.62601000  0.97008000  0.53374000  1.0
  C  C45  1  0.25130000  0.56902000  0.51207000  1.0
  C  C46  1  0.65167000  0.87307000  0.53541000  1.0
  C  C47  1  0.59431000  0.83485000  0.51788000  1.0
  C  C48  1  0.51123000  0.12482000  0.51710000  1.0
  C  C49  1  0.66731000  0.10158000  0.54105000  1.0
  C  C50  1  0.44258000  0.85301000  0.47737000  1.0
  C  C51  1  0.99304000  0.71051000  0.50036000  1.0
  C  C52  1  0.56029000  0.37734000  0.14004000  1.0
  C  C53  1  0.14755000  0.59602000  0.51330000  1.0
  C  C54  1  0.91242000  0.34018000  0.48540000  1.0
  C  C55  1  0.00760000  0.31449000  0.49256000  1.0
  C  C56  1  0.04233000  0.38082000  0.49977000  1.0
  C  C57  1  0.74942000  0.45442000  0.48668000  1.0
  C  C58  1  0.98423000  0.47548000  0.49839000  1.0
  C  C59  1  0.88710000  0.50197000  0.49115000  1.0
  C  C60  1  0.02018000  0.54649000  0.50292000  1.0
  C  C61  1  0.95903000  0.64104000  0.49631000  1.0
  C  C62  1  0.86399000  0.66410000  0.48551000  1.0
  C  C63  1  0.56594000  0.38769000  0.20891000  1.0
  C  C64  1  0.82904000  0.59773000  0.48404000  1.0
  C  C65  1  0.11407000  0.52671000  0.51240000  1.0
  C  C66  1  0.08596000  0.69002000  0.50825000  1.0
  C  C67  1  0.85217000  0.43215000  0.48674000  1.0
  C  C68  1  0.47029000  0.50941000  0.68155000  1.0
  C  C69  1  0.51964000  0.48484000  0.31319000  1.0
  C  C70  1  0.51714000  0.47334000  0.23889000  1.0
  C  C71  1  0.46356000  0.54840000  0.19823000  1.0
  C  C72  1  0.45955000  0.53824000  0.12914000  1.0
  C  C73  1  0.11548000  0.76649000  0.51660000  1.0
  C  C74  1  0.47068000  0.43091000  0.87396000  1.0
  C  C75  1  0.46346000  0.43422000  0.80233000  1.0
  C  C76  1  0.48014000  0.58201000  0.78536000  1.0
  C  C77  1  0.48331000  0.58004000  0.85597000  1.0
  C  C78  1  0.48031000  0.50414000  0.90228000  1.0
  O  O79  1  0.49996000  0.50473000  0.49499000  1.0
  O  O80  1  0.45048000  0.44587000  0.65862000  1.0
  O  O81  1  0.57587000  0.41662000  0.34615000  1.0
  O  O82  1  0.49033000  0.57164000  0.64224000  1.0
  O  O83  1  0.46508000  0.56240000  0.33846000  1.0
  O  O84  1  0.06725000  0.84798000  0.50592000  1.0
  O  O85  1  0.45200000  0.36096000  0.78104000  1.0
  O  O86  1  0.46680000  0.35548000  0.91471000  1.0
  O  O87  1  0.28997000  0.61510000  0.46799000  1.0
  O  O88  1  0.72822000  0.41465000  0.44283000  1.0
  O  O89  1  0.46591000  0.31372000  0.54240000  1.0
  O  O90  1  0.52455000  0.69695000  0.51465000  1.0
  O  O91  1  0.61756000  0.28935000  0.49226000  1.0
  O  O92  1  0.41919000  0.72697000  0.44005000  1.0
  O  O93  1  0.29197000  0.50141000  0.55296000  1.0
  O  O94  1  0.69158000  0.50979000  0.53242000  1.0
