# generated using pymatgen
data_ZnH14C16N6O5
_symmetry_space_group_name_H-M   'P 1'
_cell_length_a   8.11933000
_cell_length_b   10.19480000
_cell_length_c   10.19480000
_cell_angle_alpha   99.31900000
_cell_angle_beta   91.57400000
_cell_angle_gamma   91.57390000
_symmetry_Int_Tables_number   1
_chemical_formula_structural   ZnH14C16N6O5
_chemical_formula_sum   'Zn2 H28 C32 N12 O10'
_cell_volume   831.98664390
_cell_formula_units_Z   2
loop_
 _symmetry_equiv_pos_site_id
 _symmetry_equiv_pos_as_xyz
  1  'x, y, z'
loop_
 _atom_site_type_symbol
 _atom_site_label
 _atom_site_symmetry_multiplicity
 _atom_site_fract_x
 _atom_site_fract_y
 _atom_site_fract_z
 _atom_site_occupancy
  Zn  Zn0  1  0.25000000  0.36889000  0.63111000  1.0
  Zn  Zn1  1  0.75000000  0.63111000  0.36889000  1.0
  H  H2  1  0.31924000  0.48903000  0.42345000  1.0
  H  H3  1  0.18076000  0.57655000  0.51097000  1.0
  H  H4  1  0.68076000  0.51097000  0.57655000  1.0
  H  H5  1  0.81924000  0.42345000  0.48903000  1.0
  H  H6  1  0.64522000  0.48245000  0.98957000  1.0
  H  H7  1  0.85478000  0.01043000  0.51755000  1.0
  H  H8  1  0.35478000  0.51755000  0.01043000  1.0
  H  H9  1  0.14522000  0.98957000  0.48245000  1.0
  H  H10  1  0.67526000  0.32665000  0.88716000  1.0
  H  H11  1  0.82474000  0.11284000  0.67335000  1.0
  H  H12  1  0.32474000  0.67335000  0.11284000  1.0
  H  H13  1  0.17526000  0.88716000  0.32665000  1.0
  H  H14  1  0.28710000  0.69243000  0.78214000  1.0
  H  H15  1  0.21290000  0.21786000  0.30757000  1.0
  H  H16  1  0.71290000  0.30757000  0.21786000  1.0
  H  H17  1  0.78711000  0.78214000  0.69243000  1.0
  H  H18  1  0.22670000  0.89430000  0.94466000  1.0
  H  H19  1  0.27330000  0.05534000  0.10570000  1.0
  H  H20  1  0.77330000  0.10570000  0.05534000  1.0
  H  H21  1  0.72670000  0.94466000  0.89430000  1.0
  H  H22  1  0.97623000  0.90458000  0.07859000  1.0
  H  H23  1  0.52377000  0.92141000  0.09541000  1.0
  H  H24  1  0.02378000  0.09542000  0.92141000  1.0
  H  H25  1  0.47623000  0.07859000  0.90459000  1.0
  H  H26  1  0.76695000  0.71581000  0.04862000  1.0
  H  H27  1  0.73304000  0.95138000  0.28419000  1.0
  H  H28  1  0.23305000  0.28419000  0.95138000  1.0
  H  H29  1  0.26695000  0.04862000  0.71582000  1.0
  C  C30  1  0.53461000  0.46128000  0.79002000  1.0
  C  C31  1  0.96539000  0.20998000  0.53872000  1.0
  C  C32  1  0.46539000  0.53872000  0.20998000  1.0
  C  C33  1  0.03461000  0.79002000  0.46128000  1.0
  C  C34  1  0.67127000  0.43402000  0.88829000  1.0
  C  C35  1  0.82873000  0.11172000  0.56598000  1.0
  C  C36  1  0.32873000  0.56598000  0.11171000  1.0
  C  C37  1  0.17127000  0.88829000  0.43402000  1.0
  C  C38  1  0.91221000  0.60113000  0.89645000  1.0
  C  C39  1  0.58779000  0.10355000  0.39887000  1.0
  C  C40  1  0.08779000  0.39887000  0.10355000  1.0
  C  C41  1  0.41221000  0.89645000  0.60113000  1.0
  C  C42  1  0.05893000  0.59232000  0.82422000  1.0
  C  C43  1  0.44107000  0.17578000  0.40768000  1.0
  C  C44  1  0.94107000  0.40768000  0.17578000  1.0
  C  C45  1  0.55893000  0.82422000  0.59232000  1.0
  C  C46  1  0.17522000  0.69837000  0.83913000  1.0
  C  C47  1  0.32478000  0.16087000  0.30162000  1.0
  C  C48  1  0.82478000  0.30163000  0.16087000  1.0
  C  C49  1  0.67522000  0.83913000  0.69838000  1.0
  C  C50  1  0.13969000  0.80966000  0.93019000  1.0
  C  C51  1  0.36031000  0.06981000  0.19034000  1.0
  C  C52  1  0.86031000  0.19034000  0.06981000  1.0
  C  C53  1  0.63969000  0.93019000  0.80966000  1.0
  C  C54  1  0.99494000  0.81607000  0.00538000  1.0
  C  C55  1  0.50506000  0.99462000  0.18393000  1.0
  C  C56  1  0.00506000  0.18393000  0.99462000  1.0
  C  C57  1  0.49495000  0.00539000  0.81607000  1.0
  C  C58  1  0.87732000  0.71277000  0.98986000  1.0
  C  C59  1  0.62269000  0.01014000  0.28723000  1.0
  C  C60  1  0.12268000  0.28723000  0.01014000  1.0
  C  C61  1  0.37732000  0.98986000  0.71277000  1.0
  N  N62  1  0.83234000  0.48068000  0.85557000  1.0
  N  N63  1  0.66766000  0.14443000  0.51932000  1.0
  N  N64  1  0.16766000  0.51932000  0.14443000  1.0
  N  N65  1  0.33234000  0.85558000  0.48068000  1.0
  N  N66  1  0.92053000  0.40335000  0.76600000  1.0
  N  N67  1  0.57947000  0.23400000  0.59665000  1.0
  N  N68  1  0.07947000  0.59665000  0.23400000  1.0
  N  N69  1  0.42053000  0.76600000  0.40335000  1.0
  N  N70  1  0.05659000  0.46838000  0.74674000  1.0
  N  N71  1  0.44341000  0.25326000  0.53162000  1.0
  N  N72  1  0.94341000  0.53162000  0.25325000  1.0
  N  N73  1  0.55659000  0.74674000  0.46838000  1.0
  O  O74  1  0.56227000  0.53766000  0.70845000  1.0
  O  O75  1  0.93773000  0.29155000  0.46233000  1.0
  O  O76  1  0.43773000  0.46234000  0.29155000  1.0
  O  O77  1  0.06227000  0.70845000  0.53767000  1.0
  O  O78  1  0.25000000  0.49687000  0.50313000  1.0
  O  O79  1  0.75000000  0.50313000  0.49687000  1.0
  O  O80  1  0.39659000  0.40041000  0.80332000  1.0
  O  O81  1  0.10341000  0.19668000  0.59959000  1.0
  O  O82  1  0.60341000  0.59959000  0.19668000  1.0
  O  O83  1  0.89660000  0.80332000  0.40041000  1.0
