# generated using pymatgen
data_MgH7C7NO6
_symmetry_space_group_name_H-M   'P 1'
_cell_length_a   7.21882000
_cell_length_b   7.85420000
_cell_length_c   7.85426000
_cell_angle_alpha   99.83280000
_cell_angle_beta   100.84500000
_cell_angle_gamma   100.84400000
_symmetry_Int_Tables_number   1
_chemical_formula_structural   MgH7C7NO6
_chemical_formula_sum   'Mg2 H14 C14 N2 O12'
_cell_volume   419.63107258
_cell_formula_units_Z   2
loop_
 _symmetry_equiv_pos_site_id
 _symmetry_equiv_pos_as_xyz
  1  'x, y, z'
loop_
 _atom_site_type_symbol
 _atom_site_label
 _atom_site_symmetry_multiplicity
 _atom_site_fract_x
 _atom_site_fract_y
 _atom_site_fract_z
 _atom_site_occupancy
  Mg  Mg0  1  0.75000000  0.34676000  0.65323000  1.0
  Mg  Mg1  1  0.25000000  0.65324000  0.34677000  1.0
  H  H2  1  0.39639000  0.15717000  0.60965000  1.0
  H  H3  1  0.10361000  0.39035000  0.84283000  1.0
  H  H4  1  0.60361000  0.84283000  0.39035000  1.0
  H  H5  1  0.89639000  0.60965000  0.15717000  1.0
  H  H6  1  0.37853000  0.31920000  0.51452000  1.0
  H  H7  1  0.12147000  0.48548000  0.68080000  1.0
  H  H8  1  0.62147000  0.68080000  0.48548000  1.0
  H  H9  1  0.87853000  0.51452000  0.31920000  1.0
  H  H10  1  0.75000000  0.83266000  0.16734000  1.0
  H  H11  1  0.25000000  0.16734000  0.83266000  1.0
  H  H12  1  0.78763000  0.95306000  0.65779000  1.0
  H  H13  1  0.71237000  0.34220000  0.04693000  1.0
  H  H14  1  0.21237000  0.04694000  0.34220000  1.0
  H  H15  1  0.28763000  0.65780000  0.95306000  1.0
  C  C16  1  0.75000000  0.92335000  0.07664000  1.0
  C  C17  1  0.25000000  0.07665000  0.92336000  1.0
  C  C18  1  0.76081000  0.86577000  0.90114000  1.0
  C  C19  1  0.73920000  0.09885000  0.13422000  1.0
  C  C20  1  0.23919000  0.13422000  0.09886000  1.0
  C  C21  1  0.26081000  0.90115000  0.86578000  1.0
  C  C22  1  0.76708000  0.98876000  0.79169000  1.0
  C  C23  1  0.73292000  0.20831000  0.01124000  1.0
  C  C24  1  0.23292000  0.01124000  0.20830000  1.0
  C  C25  1  0.26708000  0.79169000  0.98876000  1.0
  C  C26  1  0.76576000  0.67716000  0.83192000  1.0
  C  C27  1  0.73425000  0.16809000  0.32283000  1.0
  C  C28  1  0.23424000  0.32284000  0.16808000  1.0
  C  C29  1  0.26575000  0.83192000  0.67717000  1.0
  N  N30  1  0.75000000  0.15634000  0.84365000  1.0
  N  N31  1  0.25000000  0.84366000  0.15635000  1.0
  O  O32  1  0.78905000  0.57486000  0.93871000  1.0
  O  O33  1  0.71095000  0.06128000  0.42514000  1.0
  O  O34  1  0.21095000  0.42515000  0.06129000  1.0
  O  O35  1  0.28905000  0.93872000  0.57486000  1.0
  O  O36  1  0.45750000  0.28343000  0.61506000  1.0
  O  O37  1  0.04251000  0.38494000  0.71657000  1.0
  O  O38  1  0.54251000  0.71657000  0.38494000  1.0
  O  O39  1  0.95749000  0.61506000  0.28343000  1.0
  O  O40  1  0.74471000  0.62092000  0.66482000  1.0
  O  O41  1  0.75529000  0.33518000  0.37907000  1.0
  O  O42  1  0.25528000  0.37908000  0.33519000  1.0
  O  O43  1  0.24471000  0.66482000  0.62093000  1.0
