# generated using pymatgen
data_CoH13C18N3O4
_symmetry_space_group_name_H-M   'P 1'
_cell_length_a   11.34990000
_cell_length_b   17.66190000
_cell_length_c   17.84000000
_cell_angle_alpha   90.00000000
_cell_angle_beta   90.00000000
_cell_angle_gamma   99.47380000
_symmetry_Int_Tables_number   1
_chemical_formula_structural   CoH13C18N3O4
_chemical_formula_sum   'Co4 H52 C72 N12 O16'
_cell_volume   3527.44447278
_cell_formula_units_Z   4
loop_
 _symmetry_equiv_pos_site_id
 _symmetry_equiv_pos_as_xyz
  1  'x, y, z'
loop_
 _atom_site_type_symbol
 _atom_site_label
 _atom_site_symmetry_multiplicity
 _atom_site_fract_x
 _atom_site_fract_y
 _atom_site_fract_z
 _atom_site_occupancy
  Co  Co0  1  0.96526000  0.07272000  0.92017000  1.0
  Co  Co1  1  0.03474000  0.42728000  0.42017000  1.0
  Co  Co2  1  0.03474000  0.92728000  0.07983000  1.0
  Co  Co3  1  0.96526000  0.57271000  0.57983000  1.0
  H  H4  1  0.01203000  0.77767000  0.98741000  1.0
  H  H5  1  0.00799000  0.68594000  0.95184000  1.0
  H  H6  1  0.95387000  0.92261000  0.76655000  1.0
  H  H7  1  0.00383000  0.65480000  0.82304000  1.0
  H  H8  1  0.95668000  0.82751000  0.66159000  1.0
  H  H9  1  0.52500000  0.97275000  0.84960000  1.0
  H  H10  1  0.74468000  0.97681000  0.85271000  1.0
  H  H11  1  0.79409000  0.16499000  0.99340000  1.0
  H  H12  1  0.57885000  0.17244000  0.99442000  1.0
  H  H13  1  0.35717000  0.99623000  0.82621000  1.0
  H  H14  1  0.14166000  0.00235000  0.82868000  1.0
  H  H15  1  0.18264000  0.15731000  0.00427000  1.0
  H  H16  1  0.39841000  0.15566000  0.01258000  1.0
  H  H17  1  0.98797000  0.72233000  0.48741000  1.0
  H  H18  1  0.99199000  0.81406000  0.45184000  1.0
  H  H19  1  0.04614000  0.57739000  0.26655000  1.0
  H  H20  1  0.99615000  0.84520000  0.32305000  1.0
  H  H21  1  0.04333000  0.67249000  0.16159000  1.0
  H  H22  1  0.47499000  0.52726000  0.34961000  1.0
  H  H23  1  0.25532000  0.52320000  0.35272000  1.0
  H  H24  1  0.20591000  0.33501000  0.49339000  1.0
  H  H25  1  0.42114000  0.32756000  0.49442000  1.0
  H  H26  1  0.64284000  0.50377000  0.32622000  1.0
  H  H27  1  0.85834000  0.49765000  0.32868000  1.0
  H  H28  1  0.81736000  0.34269000  0.50427000  1.0
  H  H29  1  0.60159000  0.34434000  0.51259000  1.0
  H  H30  1  0.98797000  0.22233000  0.01258000  1.0
  H  H31  1  0.99199000  0.31406000  0.04817000  1.0
  H  H32  1  0.04614000  0.07738000  0.23346000  1.0
  H  H33  1  0.99616000  0.34519000  0.17696000  1.0
  H  H34  1  0.04331000  0.17248000  0.33842000  1.0
  H  H35  1  0.47499000  0.02726000  0.15039000  1.0
  H  H36  1  0.25532000  0.02320000  0.14729000  1.0
  H  H37  1  0.20591000  0.83502000  0.00660000  1.0
  H  H38  1  0.42114000  0.82758000  0.00558000  1.0
  H  H39  1  0.64284000  0.00378000  0.17378000  1.0
  H  H40  1  0.85834000  0.99766000  0.17132000  1.0
  H  H41  1  0.81736000  0.84269000  0.99573000  1.0
  H  H42  1  0.60160000  0.84435000  0.98741000  1.0
  H  H43  1  0.01203000  0.27766000  0.51258000  1.0
  H  H44  1  0.00800000  0.18594000  0.54817000  1.0
  H  H45  1  0.95386000  0.42262000  0.73345000  1.0
  H  H46  1  0.00384000  0.15480000  0.67696000  1.0
  H  H47  1  0.95668000  0.32752000  0.83842000  1.0
  H  H48  1  0.52501000  0.47274000  0.65039000  1.0
  H  H49  1  0.74468000  0.47680000  0.64729000  1.0
  H  H50  1  0.79409000  0.66498000  0.50661000  1.0
  H  H51  1  0.57886000  0.67243000  0.50558000  1.0
  H  H52  1  0.35717000  0.49622000  0.67378000  1.0
  H  H53  1  0.14166000  0.50234000  0.67132000  1.0
  H  H54  1  0.18264000  0.65731000  0.49573000  1.0
  H  H55  1  0.39841000  0.65566000  0.48742000  1.0
  C  C56  1  0.98343000  0.84378000  0.85306000  1.0
  C  C57  1  0.99906000  0.76725000  0.87109000  1.0
  C  C58  1  0.99488000  0.71429000  0.81143000  1.0
  C  C59  1  0.98076000  0.73584000  0.73741000  1.0
  C  C60  1  0.96745000  0.81168000  0.71986000  1.0
  C  C61  1  0.96678000  0.86379000  0.77774000  1.0
  C  C62  1  0.98458000  0.90393000  0.91071000  1.0
  C  C63  1  0.97873000  0.67755000  0.67679000  1.0
  C  C64  1  0.52961000  0.07288000  0.92172000  1.0
  C  C65  1  0.58027000  0.01753000  0.88183000  1.0
  C  C66  1  0.70295000  0.01879000  0.88335000  1.0
  C  C67  1  0.73108000  0.12381000  0.96181000  1.0
  C  C68  1  0.60961000  0.12685000  0.96252000  1.0
  C  C69  1  0.40006000  0.07479000  0.92029000  1.0
  C  C70  1  0.32334000  0.03194000  0.86819000  1.0
  C  C71  1  0.20200000  0.03517000  0.86882000  1.0
  C  C72  1  0.22451000  0.12117000  0.96659000  1.0
  C  C73  1  0.34641000  0.12055000  0.97013000  1.0
  C  C74  1  0.01657000  0.65622000  0.35306000  1.0
  C  C75  1  0.00093000  0.73275000  0.37110000  1.0
  C  C76  1  0.00512000  0.78571000  0.31143000  1.0
  C  C77  1  0.01923000  0.76416000  0.23742000  1.0
  C  C78  1  0.03255000  0.68832000  0.21986000  1.0
  C  C79  1  0.03322000  0.63621000  0.27775000  1.0
  C  C80  1  0.01542000  0.59607000  0.41072000  1.0
  C  C81  1  0.02127000  0.82245000  0.17680000  1.0
  C  C82  1  0.47039000  0.42712000  0.42172000  1.0
  C  C83  1  0.41973000  0.48248000  0.38184000  1.0
  C  C84  1  0.29705000  0.48122000  0.38335000  1.0
  C  C85  1  0.26892000  0.37618000  0.46181000  1.0
  C  C86  1  0.39040000  0.37315000  0.46252000  1.0
  C  C87  1  0.59993000  0.42521000  0.42029000  1.0
  C  C88  1  0.67666000  0.46806000  0.36819000  1.0
  C  C89  1  0.79800000  0.46483000  0.36882000  1.0
  C  C90  1  0.77549000  0.37883000  0.46659000  1.0
  C  C91  1  0.65358000  0.37945000  0.47013000  1.0
  C  C92  1  0.01658000  0.15622000  0.14693000  1.0
  C  C93  1  0.00093000  0.23275000  0.12891000  1.0
  C  C94  1  0.00512000  0.28570000  0.18857000  1.0
  C  C95  1  0.01923000  0.26416000  0.26259000  1.0
  C  C96  1  0.03254000  0.18831000  0.28014000  1.0
  C  C97  1  0.03323000  0.13621000  0.22225000  1.0
  C  C98  1  0.01542000  0.09608000  0.08928000  1.0
  C  C99  1  0.02127000  0.32245000  0.32321000  1.0
  C  C100  1  0.47039000  0.92713000  0.07827000  1.0
  C  C101  1  0.41974000  0.98248000  0.11817000  1.0
  C  C102  1  0.29705000  0.98123000  0.11665000  1.0
  C  C103  1  0.26893000  0.87619000  0.03818000  1.0
  C  C104  1  0.39040000  0.87316000  0.03748000  1.0
  C  C105  1  0.59993000  0.92522000  0.07971000  1.0
  C  C106  1  0.67665000  0.96807000  0.13181000  1.0
  C  C107  1  0.79799000  0.96484000  0.13118000  1.0
  C  C108  1  0.77548000  0.87883000  0.03341000  1.0
  C  C109  1  0.65357000  0.87946000  0.02987000  1.0
  C  C110  1  0.98342000  0.34378000  0.64693000  1.0
  C  C111  1  0.99906000  0.26725000  0.62890000  1.0
  C  C112  1  0.99488000  0.21430000  0.68857000  1.0
  C  C113  1  0.98077000  0.23584000  0.76259000  1.0
  C  C114  1  0.96746000  0.31169000  0.78014000  1.0
  C  C115  1  0.96678000  0.36379000  0.72225000  1.0
  C  C116  1  0.98458000  0.40393000  0.58928000  1.0
  C  C117  1  0.97874000  0.17755000  0.82321000  1.0
  C  C118  1  0.52961000  0.57288000  0.57828000  1.0
  C  C119  1  0.58027000  0.51752000  0.61817000  1.0
  C  C120  1  0.70295000  0.51877000  0.61665000  1.0
  C  C121  1  0.73107000  0.62381000  0.53819000  1.0
  C  C122  1  0.60960000  0.62684000  0.53748000  1.0
  C  C123  1  0.40007000  0.57478000  0.57971000  1.0
  C  C124  1  0.32335000  0.53193000  0.63181000  1.0
  C  C125  1  0.20200000  0.53516000  0.63118000  1.0
  C  C126  1  0.22451000  0.62117000  0.53341000  1.0
  C  C127  1  0.34642000  0.62055000  0.52987000  1.0
  N  N128  1  0.01756000  0.74308000  0.94245000  1.0
  N  N129  1  0.77838000  0.07082000  0.92273000  1.0
  N  N130  1  0.15140000  0.07826000  0.91781000  1.0
  N  N131  1  0.98243000  0.75691000  0.44246000  1.0
  N  N132  1  0.22162000  0.42918000  0.42273000  1.0
  N  N133  1  0.84860000  0.42173000  0.41781000  1.0
  N  N134  1  0.98243000  0.25691000  0.05755000  1.0
  N  N135  1  0.22163000  0.92918000  0.07727000  1.0
  N  N136  1  0.84859000  0.92174000  0.08219000  1.0
  N  N137  1  0.01756000  0.24309000  0.55754000  1.0
  N  N138  1  0.77838000  0.57082000  0.57727000  1.0
  N  N139  1  0.15141000  0.57826000  0.58219000  1.0
  O  O140  1  0.93623000  0.96248000  0.89486000  1.0
  O  O141  1  0.03397000  0.89443000  0.97367000  1.0
  O  O142  1  0.96799000  0.60632000  0.69395000  1.0
  O  O143  1  0.98655000  0.69819000  0.60804000  1.0
  O  O144  1  0.06377000  0.53753000  0.39485000  1.0
  O  O145  1  0.96605000  0.60556000  0.47367000  1.0
  O  O146  1  0.03206000  0.89367000  0.19396000  1.0
  O  O147  1  0.01340000  0.80180000  0.10805000  1.0
  O  O148  1  0.06379000  0.03754000  0.10516000  1.0
  O  O149  1  0.96604000  0.10556000  0.02632000  1.0
  O  O150  1  0.03205000  0.39367000  0.30605000  1.0
  O  O151  1  0.01341000  0.30181000  0.39196000  1.0
  O  O152  1  0.93621000  0.46247000  0.60514000  1.0
  O  O153  1  0.03397000  0.39444000  0.52633000  1.0
  O  O154  1  0.96798000  0.10633000  0.80606000  1.0
  O  O155  1  0.98657000  0.19819000  0.89197000  1.0
