# generated using pymatgen
data_ZnH21C31N5O7
_symmetry_space_group_name_H-M   'P 1'
_cell_length_a   10.28740000
_cell_length_b   10.65230000
_cell_length_c   13.64990000
_cell_angle_alpha   90.00000000
_cell_angle_beta   109.20800000
_cell_angle_gamma   90.00000000
_symmetry_Int_Tables_number   1
_chemical_formula_structural   ZnH21C31N5O7
_chemical_formula_sum   'Zn2 H42 C62 N10 O14'
_cell_volume   1412.54559666
_cell_formula_units_Z   2
loop_
 _symmetry_equiv_pos_site_id
 _symmetry_equiv_pos_as_xyz
  1  'x, y, z'
loop_
 _atom_site_type_symbol
 _atom_site_label
 _atom_site_symmetry_multiplicity
 _atom_site_fract_x
 _atom_site_fract_y
 _atom_site_fract_z
 _atom_site_occupancy
  Zn  Zn0  1  0.54061000  0.62023000  0.66849000  1.0
  Zn  Zn1  1  0.04060000  0.37976000  0.66850000  1.0
  H  H2  1  0.03812000  0.71866000  0.65036000  1.0
  H  H3  1  0.53812000  0.28132000  0.65034000  1.0
  H  H4  1  0.43690000  0.26038000  0.40813000  1.0
  H  H5  1  0.93689000  0.73962000  0.40812000  1.0
  H  H6  1  0.69314000  0.04459000  0.34606000  1.0
  H  H7  1  0.19312000  0.95542000  0.34605000  1.0
  H  H8  1  0.25708000  0.15729000  0.25875000  1.0
  H  H9  1  0.75707000  0.84270000  0.25874000  1.0
  H  H10  1  0.96861000  0.44756000  0.26515000  1.0
  H  H11  1  0.46859000  0.55243000  0.26515000  1.0
  H  H12  1  0.14750000  0.54711000  0.41644000  1.0
  H  H13  1  0.64749000  0.45289000  0.41644000  1.0
  H  H14  1  0.74006000  0.20228000  0.10418000  1.0
  H  H15  1  0.24005000  0.79771000  0.10418000  1.0
  H  H16  1  0.58417000  0.30809000  0.94399000  1.0
  H  H17  1  0.08418000  0.69189000  0.94400000  1.0
  H  H18  1  0.92926000  0.50838000  0.91050000  1.0
  H  H19  1  0.42926000  0.49162000  0.91051000  1.0
  H  H20  1  0.08620000  0.40503000  0.07114000  1.0
  H  H21  1  0.58621000  0.59498000  0.07115000  1.0
  H  H22  1  0.25096000  0.66628000  0.63507000  1.0
  H  H23  1  0.75097000  0.33370000  0.63505000  1.0
  H  H24  1  0.60765000  0.80383000  0.85011000  1.0
  H  H25  1  0.10765000  0.19620000  0.85011000  1.0
  H  H26  1  0.47379000  0.95488000  0.92242000  1.0
  H  H27  1  0.97377000  0.04514000  0.92242000  1.0
  H  H28  1  0.83363000  0.71184000  0.70809000  1.0
  H  H29  1  0.33363000  0.28816000  0.70808000  1.0
  H  H30  1  0.46009000  0.77616000  0.47741000  1.0
  H  H31  1  0.96008000  0.22384000  0.47740000  1.0
  H  H32  1  0.80551000  0.01827000  0.49595000  1.0
  H  H33  1  0.30550000  0.98172000  0.49595000  1.0
  H  H34  1  0.37174000  0.96295000  0.15952000  1.0
  H  H35  1  0.87171000  0.03706000  0.15952000  1.0
  H  H36  1  0.25056000  0.09755000  0.00525000  1.0
  H  H37  1  0.75054000  0.90245000  0.00524000  1.0
  H  H38  1  0.33658000  0.31702000  0.99749000  1.0
  H  H39  1  0.83657000  0.68299000  0.99750000  1.0
  H  H40  1  0.64749000  0.27269000  0.27960000  1.0
  H  H41  1  0.14748000  0.72731000  0.27960000  1.0
  H  H42  1  0.21661000  0.96236000  0.84114000  1.0
  H  H43  1  0.71660000  0.03764000  0.84112000  1.0
  C  C44  1  0.41015000  0.46683000  0.51146000  1.0
  C  C45  1  0.91015000  0.53317000  0.51146000  1.0
  C  C46  1  0.30340000  0.41037000  0.42029000  1.0
  C  C47  1  0.80340000  0.58963000  0.42028000  1.0
  C  C48  1  0.33410000  0.30048000  0.37595000  1.0
  C  C49  1  0.83411000  0.69952000  0.37595000  1.0
  C  C50  1  0.23495000  0.24328000  0.29319000  1.0
  C  C51  1  0.73495000  0.75672000  0.29319000  1.0
  C  C52  1  0.10404000  0.29637000  0.25494000  1.0
  C  C53  1  0.60404000  0.70363000  0.25495000  1.0
  C  C54  1  0.07134000  0.40721000  0.29673000  1.0
  C  C55  1  0.57133000  0.59279000  0.29673000  1.0
  C  C56  1  0.17152000  0.46349000  0.37969000  1.0
  C  C57  1  0.67152000  0.53652000  0.37969000  1.0
  C  C58  1  0.92095000  0.29648000  0.09442000  1.0
  C  C59  1  0.42095000  0.70352000  0.09442000  1.0
  C  C60  1  0.78062000  0.26800000  0.06030000  1.0
  C  C61  1  0.28062000  0.73198000  0.06030000  1.0
  C  C62  1  0.69428000  0.32757000  0.97228000  1.0
  C  C63  1  0.19429000  0.67242000  0.97229000  1.0
  C  C64  1  0.74782000  0.41529000  0.91931000  1.0
  C  C65  1  0.24781000  0.58471000  0.91930000  1.0
  C  C66  1  0.65459000  0.47862000  0.82538000  1.0
  C  C67  1  0.15458000  0.52138000  0.82538000  1.0
  C  C68  1  0.88911000  0.44259000  0.95468000  1.0
  C  C69  1  0.38911000  0.55742000  0.95468000  1.0
  C  C70  1  0.97640000  0.38369000  0.04259000  1.0
  C  C71  1  0.47641000  0.61632000  0.04259000  1.0
  C  C72  1  0.29678000  0.73251000  0.69793000  1.0
  C  C73  1  0.79678000  0.26748000  0.69791000  1.0
  C  C74  1  0.49574000  0.80938000  0.81919000  1.0
  C  C75  1  0.99573000  0.19062000  0.81919000  1.0
  C  C76  1  0.42081000  0.89317000  0.85790000  1.0
  C  C77  1  0.92081000  0.10684000  0.85789000  1.0
  C  C78  1  0.21455000  0.81421000  0.73222000  1.0
  C  C79  1  0.71455000  0.18580000  0.73221000  1.0
  C  C80  1  0.98484000  0.90421000  0.65626000  1.0
  C  C81  1  0.48483000  0.09578000  0.65626000  1.0
  C  C82  1  0.83713000  0.86876000  0.60566000  1.0
  C  C83  1  0.33712000  0.13124000  0.60566000  1.0
  C  C84  1  0.77626000  0.76970000  0.64176000  1.0
  C  C85  1  0.27625000  0.23030000  0.64175000  1.0
  C  C86  1  0.56672000  0.80570000  0.51301000  1.0
  C  C87  1  0.06671000  0.19430000  0.51300000  1.0
  C  C88  1  0.62007000  0.90538000  0.47137000  1.0
  C  C89  1  0.12006000  0.09461000  0.47137000  1.0
  C  C90  1  0.75693000  0.93939000  0.52129000  1.0
  C  C91  1  0.25692000  0.06061000  0.52129000  1.0
  C  C92  1  0.52558000  0.96878000  0.37692000  1.0
  C  C93  1  0.02556000  0.03123000  0.37692000  1.0
  C  C94  1  0.51677000  0.10883000  0.23166000  1.0
  C  C95  1  0.01676000  0.89117000  0.23165000  1.0
  C  C96  1  0.40462000  0.05844000  0.15303000  1.0
  C  C97  1  0.90460000  0.94156000  0.15303000  1.0
  C  C98  1  0.33895000  0.13357000  0.06764000  1.0
  C  C99  1  0.83892000  0.86642000  0.06765000  1.0
  C  C100  1  0.38693000  0.25547000  0.06321000  1.0
  C  C101  1  0.88690000  0.74453000  0.06322000  1.0
  C  C102  1  0.55905000  0.23147000  0.21967000  1.0
  C  C103  1  0.05904000  0.76854000  0.21967000  1.0
  C  C104  1  0.27826000  0.89756000  0.81322000  1.0
  C  C105  1  0.77826000  0.10245000  0.81321000  1.0
  N  N106  1  0.43419000  0.73195000  0.73988000  1.0
  N  N107  1  0.93418000  0.26805000  0.73987000  1.0
  N  N108  1  0.07198000  0.80432000  0.68513000  1.0
  N  N109  1  0.57198000  0.19567000  0.68512000  1.0
  N  N110  1  0.64209000  0.74162000  0.59692000  1.0
  N  N111  1  0.14209000  0.25838000  0.59691000  1.0
  N  N112  1  0.58795000  0.04014000  0.32211000  1.0
  N  N113  1  0.08793000  0.95986000  0.32210000  1.0
  N  N114  1  0.49597000  0.30361000  0.13754000  1.0
  N  N115  1  0.99595000  0.69639000  0.13754000  1.0
  O  O116  1  0.38323000  0.57575000  0.54196000  1.0
  O  O117  1  0.88324000  0.42426000  0.54197000  1.0
  O  O118  1  0.52095000  0.40856000  0.55574000  1.0
  O  O119  1  0.02095000  0.59145000  0.55573000  1.0
  O  O120  1  0.53155000  0.44323000  0.78469000  1.0
  O  O121  1  0.03154000  0.55676000  0.78469000  1.0
  O  O122  1  0.70563000  0.57132000  0.78793000  1.0
  O  O123  1  0.20563000  0.42867000  0.78793000  1.0
  O  O124  1  0.00525000  0.22991000  0.17880000  1.0
  O  O125  1  0.50525000  0.77009000  0.17880000  1.0
  O  O126  1  0.02131000  0.01559000  0.66804000  1.0
  O  O127  1  0.52130000  0.98440000  0.66804000  1.0
  O  O128  1  0.39835000  0.95574000  0.35149000  1.0
  O  O129  1  0.89834000  0.04426000  0.35149000  1.0
