# generated using pymatgen
data_KFeH18C15(NO5)2
_symmetry_space_group_name_H-M   'P 1'
_cell_length_a   7.56182000
_cell_length_b   9.20223000
_cell_length_c   13.34850000
_cell_angle_alpha   75.79170000
_cell_angle_beta   81.22260000
_cell_angle_gamma   78.78300000
_symmetry_Int_Tables_number   1
_chemical_formula_structural   KFeH18C15(NO5)2
_chemical_formula_sum   'K2 Fe2 H36 C30 N4 O20'
_cell_volume   877.86264239
_cell_formula_units_Z   2
loop_
 _symmetry_equiv_pos_site_id
 _symmetry_equiv_pos_as_xyz
  1  'x, y, z'
loop_
 _atom_site_type_symbol
 _atom_site_label
 _atom_site_symmetry_multiplicity
 _atom_site_fract_x
 _atom_site_fract_y
 _atom_site_fract_z
 _atom_site_occupancy
  K  K0  1  0.38284000  0.70414000  0.89636000  1.0
  K  K1  1  0.61715000  0.29587000  0.10364000  1.0
  Fe  Fe2  1  0.74520000  0.30034000  0.76810000  1.0
  Fe  Fe3  1  0.25480000  0.69966000  0.23190000  1.0
  H  H4  1  0.09498000  0.93349000  0.76986000  1.0
  H  H5  1  0.90503000  0.06651000  0.23015000  1.0
  H  H6  1  0.06310000  0.06719000  0.84925000  1.0
  H  H7  1  0.93690000  0.93281000  0.15076000  1.0
  H  H8  1  0.68750000  0.01409000  0.67082000  1.0
  H  H9  1  0.31252000  0.98590000  0.32917000  1.0
  H  H10  1  0.92191000  0.97981000  0.63172000  1.0
  H  H11  1  0.07811000  0.02020000  0.36827000  1.0
  H  H12  1  0.07635000  0.49704000  0.83270000  1.0
  H  H13  1  0.92364000  0.50296000  0.16730000  1.0
  H  H14  1  0.19354000  0.31436000  0.82593000  1.0
  H  H15  1  0.80646000  0.68564000  0.17407000  1.0
  H  H16  1  0.31656000  0.95793000  0.64026000  1.0
  H  H17  1  0.68345000  0.04206000  0.35975000  1.0
  H  H18  1  0.43816000  0.39265000  0.46130000  1.0
  H  H19  1  0.56184000  0.60735000  0.53870000  1.0
  H  H20  1  0.19279000  0.52066000  0.56541000  1.0
  H  H21  1  0.80721000  0.47934000  0.43460000  1.0
  H  H22  1  0.50420000  0.10979000  0.49703000  1.0
  H  H23  1  0.49580000  0.89020000  0.50298000  1.0
  H  H24  1  0.89698000  0.56143000  0.59957000  1.0
  H  H25  1  0.10303000  0.43857000  0.40043000  1.0
  H  H26  1  0.01170000  0.62600000  0.68356000  1.0
  H  H27  1  0.98830000  0.37399000  0.31644000  1.0
  H  H28  1  0.78827000  0.98991000  0.92348000  1.0
  H  H29  1  0.21173000  0.01009000  0.07652000  1.0
  H  H30  1  0.74939000  0.87764000  0.83930000  1.0
  H  H31  1  0.25061000  0.12236000  0.16069000  1.0
  H  H32  1  0.60390000  0.66833000  0.07561000  1.0
  H  H33  1  0.39610000  0.33167000  0.92439000  1.0
  H  H34  1  0.78285000  0.64368000  0.00136000  1.0
  H  H35  1  0.21715000  0.35632000  0.99864000  1.0
  H  H36  1  0.26707000  0.70637000  0.63611000  1.0
  H  H37  1  0.73292000  0.29364000  0.36388000  1.0
  H  H38  1  0.39727000  0.60217000  0.71659000  1.0
  H  H39  1  0.60272000  0.39785000  0.28340000  1.0
  C  C40  1  0.04448000  0.05332000  0.77237000  1.0
  C  C41  1  0.95552000  0.94668000  0.22764000  1.0
  C  C42  1  0.11461000  0.31285000  0.66335000  1.0
  C  C43  1  0.88540000  0.68714000  0.33665000  1.0
  C  C44  1  0.94414000  0.31332000  0.92465000  1.0
  C  C45  1  0.05585000  0.68667000  0.07536000  1.0
  C  C46  1  0.81296000  0.06199000  0.66063000  1.0
  C  C47  1  0.18705000  0.93802000  0.33936000  1.0
  C  C48  1  0.14906000  0.15260000  0.68555000  1.0
  C  C49  1  0.85095000  0.84740000  0.31445000  1.0
  C  C50  1  0.78658000  0.21150000  0.58232000  1.0
  C  C51  1  0.21342000  0.78850000  0.41767000  1.0
  C  C52  1  0.05766000  0.38337000  0.82866000  1.0
  C  C53  1  0.94234000  0.61663000  0.17134000  1.0
  C  C54  1  0.28931000  0.08190000  0.62353000  1.0
  C  C55  1  0.71070000  0.91809000  0.37647000  1.0
  C  C56  1  0.35772000  0.32395000  0.52280000  1.0
  C  C57  1  0.64228000  0.67604000  0.47721000  1.0
  C  C58  1  0.21753000  0.39712000  0.58234000  1.0
  C  C59  1  0.78247000  0.60288000  0.41766000  1.0
  C  C60  1  0.39354000  0.16613000  0.54319000  1.0
  C  C61  1  0.60646000  0.83387000  0.45682000  1.0
  C  C62  1  0.91396000  0.55393000  0.68095000  1.0
  C  C63  1  0.08603000  0.44607000  0.31905000  1.0
  C  C64  1  0.72897000  0.61027000  0.73202000  1.0
  C  C65  1  0.27103000  0.38973000  0.26798000  1.0
  C  C66  1  0.54175000  0.07372000  0.85450000  1.0
  C  C67  1  0.45825000  0.92628000  0.14550000  1.0
  C  C68  1  0.73876000  0.99379000  0.84952000  1.0
  C  C69  1  0.26124000  0.00622000  0.15048000  1.0
  N  N70  1  0.84591000  0.08562000  0.76262000  1.0
  N  N71  1  0.15410000  0.91438000  0.23738000  1.0
  N  N72  1  0.97778000  0.39196000  0.73045000  1.0
  N  N73  1  0.02222000  0.60803000  0.26956000  1.0
  O  O74  1  0.52214000  0.22202000  0.81857000  1.0
  O  O75  1  0.47786000  0.77798000  0.18142000  1.0
  O  O76  1  0.80229000  0.26442000  0.90921000  1.0
  O  O77  1  0.19771000  0.73557000  0.09080000  1.0
  O  O78  1  0.73324000  0.33087000  0.62240000  1.0
  O  O79  1  0.26677000  0.66913000  0.37759000  1.0
  O  O80  1  0.80852000  0.21615000  0.48745000  1.0
  O  O81  1  0.19148000  0.78386000  0.51254000  1.0
  O  O82  1  0.98969000  0.30080000  0.01286000  1.0
  O  O83  1  0.01030000  0.69920000  0.98715000  1.0
  O  O84  1  0.41270000  0.00519000  0.89118000  1.0
  O  O85  1  0.58730000  0.99481000  0.10882000  1.0
  O  O86  1  0.62594000  0.50583000  0.77027000  1.0
  O  O87  1  0.37406000  0.49417000  0.22973000  1.0
  O  O88  1  0.67795000  0.74630000  0.73295000  1.0
  O  O89  1  0.32204000  0.25369000  0.26705000  1.0
  O  O90  1  0.66070000  0.61469000  0.02056000  1.0
  O  O91  1  0.33930000  0.38531000  0.97944000  1.0
  O  O92  1  0.28251000  0.67369000  0.71086000  1.0
  O  O93  1  0.71749000  0.32633000  0.28913000  1.0
