# generated using pymatgen
data_ZnH20C22(NO2)2
_symmetry_space_group_name_H-M   'P 1'
_cell_length_a   6.96479000
_cell_length_b   9.36704000
_cell_length_c   16.24740000
_cell_angle_alpha   90.65330000
_cell_angle_beta   102.37500000
_cell_angle_gamma   90.61420000
_symmetry_Int_Tables_number   1
_chemical_formula_structural   ZnH20C22(NO2)2
_chemical_formula_sum   'Zn2 H40 C44 N4 O8'
_cell_volume   1035.18287287
_cell_formula_units_Z   2
loop_
 _symmetry_equiv_pos_site_id
 _symmetry_equiv_pos_as_xyz
  1  'x, y, z'
loop_
 _atom_site_type_symbol
 _atom_site_label
 _atom_site_symmetry_multiplicity
 _atom_site_fract_x
 _atom_site_fract_y
 _atom_site_fract_z
 _atom_site_occupancy
  Zn  Zn0  1  0.88258000  0.77295000  0.19345000  1.0
  Zn  Zn1  1  0.11743000  0.22704000  0.80655000  1.0
  H  H2  1  0.25576000  0.10181000  0.40574000  1.0
  H  H3  1  0.74422000  0.89820000  0.59426000  1.0
  H  H4  1  0.03194000  0.17438000  0.34829000  1.0
  H  H5  1  0.96804000  0.82562000  0.65171000  1.0
  H  H6  1  0.55908000  0.11820000  0.35207000  1.0
  H  H7  1  0.44090000  0.88181000  0.64794000  1.0
  H  H8  1  0.74569000  0.25079000  0.26193000  1.0
  H  H9  1  0.25430000  0.74921000  0.73808000  1.0
  H  H10  1  0.57318000  0.40624000  0.14868000  1.0
  H  H11  1  0.42682000  0.59375000  0.85131000  1.0
  H  H12  1  0.02042000  0.29182000  0.21044000  1.0
  H  H13  1  0.97955000  0.70817000  0.78955000  1.0
  H  H14  1  0.28539000  0.51225000  0.07508000  1.0
  H  H15  1  0.71461000  0.48775000  0.92492000  1.0
  H  H16  1  0.10337000  0.37601000  0.04699000  1.0
  H  H17  1  0.89662000  0.62399000  0.95300000  1.0
  H  H18  1  0.64206000  0.01953000  0.17645000  1.0
  H  H19  1  0.35795000  0.98047000  0.82354000  1.0
  H  H20  1  0.30333000  0.08859000  0.11018000  1.0
  H  H21  1  0.69668000  0.91142000  0.88982000  1.0
  H  H22  1  0.26102000  0.70271000  0.95720000  1.0
  H  H23  1  0.73900000  0.29729000  0.04279000  1.0
  H  H24  1  0.60036000  0.64573000  0.03566000  1.0
  H  H25  1  0.39964000  0.35427000  0.96434000  1.0
  H  H26  1  0.03742000  0.94522000  0.91494000  1.0
  H  H27  1  0.96258000  0.05478000  0.08504000  1.0
  H  H28  1  0.95237000  0.83956000  0.98854000  1.0
  H  H29  1  0.04764000  0.16044000  0.01144000  1.0
  H  H30  1  0.48583000  0.75916000  0.23964000  1.0
  H  H31  1  0.51418000  0.24085000  0.76037000  1.0
  H  H32  1  0.33464000  0.64210000  0.34412000  1.0
  H  H33  1  0.66537000  0.35795000  0.65591000  1.0
  H  H34  1  0.88666000  0.42906000  0.43568000  1.0
  H  H35  1  0.11334000  0.57094000  0.56432000  1.0
  H  H36  1  0.02205000  0.56501000  0.32851000  1.0
  H  H37  1  0.97794000  0.43495000  0.67148000  1.0
  H  H38  1  0.59736000  0.35603000  0.48886000  1.0
  H  H39  1  0.40266000  0.64399000  0.51117000  1.0
  H  H40  1  0.36143000  0.40708000  0.43380000  1.0
  H  H41  1  0.63859000  0.59295000  0.56622000  1.0
  C  C42  1  0.09781000  0.96701000  0.30559000  1.0
  C  C43  1  0.90220000  0.03299000  0.69442000  1.0
  C  C44  1  0.16469000  0.11576000  0.34245000  1.0
  C  C45  1  0.83529000  0.88424000  0.65755000  1.0
  C  C46  1  0.27697000  0.19749000  0.28809000  1.0
  C  C47  1  0.72301000  0.80250000  0.71191000  1.0
  C  C48  1  0.48189000  0.18564000  0.30149000  1.0
  C  C49  1  0.51809000  0.81437000  0.69851000  1.0
  C  C50  1  0.58635000  0.26005000  0.25102000  1.0
  C  C51  1  0.41363000  0.73994000  0.74898000  1.0
  C  C52  1  0.48887000  0.34678000  0.18653000  1.0
  C  C53  1  0.51112000  0.65319000  0.81347000  1.0
  C  C54  1  0.28391000  0.35809000  0.17125000  1.0
  C  C55  1  0.71608000  0.64190000  0.82875000  1.0
  C  C56  1  0.18012000  0.28336000  0.22241000  1.0
  C  C57  1  0.81987000  0.71663000  0.77759000  1.0
  C  C58  1  0.17813000  0.44676000  0.09870000  1.0
  C  C59  1  0.82186000  0.55323000  0.90129000  1.0
  C  C60  1  0.02406000  0.54289000  0.12306000  1.0
  C  C61  1  0.97594000  0.45711000  0.87694000  1.0
  C  C62  1  0.55155000  0.95246000  0.12773000  1.0
  C  C63  1  0.44844000  0.04754000  0.87227000  1.0
  C  C64  1  0.36173000  0.99058000  0.08932000  1.0
  C  C65  1  0.63826000  0.00941000  0.91067000  1.0
  C  C66  1  0.25073000  0.90200000  0.02661000  1.0
  C  C67  1  0.74928000  0.09799000  0.97339000  1.0
  C  C68  1  0.34006000  0.77725000  0.00523000  1.0
  C  C69  1  0.65995000  0.22276000  0.99477000  1.0
  C  C70  1  0.52856000  0.74428000  0.04771000  1.0
  C  C71  1  0.47145000  0.25572000  0.95228000  1.0
  C  C72  1  0.04333000  0.93449000  0.98305000  1.0
  C  C73  1  0.95668000  0.06551000  0.01692000  1.0
  C  C74  1  0.57239000  0.68716000  0.28474000  1.0
  C  C75  1  0.42762000  0.31286000  0.71527000  1.0
  C  C76  1  0.48683000  0.61814000  0.34321000  1.0
  C  C77  1  0.51317000  0.38189000  0.65680000  1.0
  C  C78  1  0.59763000  0.52291000  0.39925000  1.0
  C  C79  1  0.40238000  0.47711000  0.60076000  1.0
  C  C80  1  0.79399000  0.50336000  0.39409000  1.0
  C  C81  1  0.20601000  0.49664000  0.60592000  1.0
  C  C82  1  0.87022000  0.57734000  0.33450000  1.0
  C  C83  1  0.12978000  0.42264000  0.66550000  1.0
  C  C84  1  0.50874000  0.44840000  0.46361000  1.0
  C  C85  1  0.49129000  0.55163000  0.53641000  1.0
  N  N86  1  0.63400000  0.83047000  0.10854000  1.0
  N  N87  1  0.36600000  0.16953000  0.89145000  1.0
  N  N88  1  0.76126000  0.66782000  0.28028000  1.0
  N  N89  1  0.23875000  0.33217000  0.71972000  1.0
  O  O90  1  0.16121000  0.85713000  0.34409000  1.0
  O  O91  1  0.83881000  0.14287000  0.65592000  1.0
  O  O92  1  0.97295000  0.96854000  0.23338000  1.0
  O  O93  1  0.02705000  0.03145000  0.76663000  1.0
  O  O94  1  0.84827000  0.50208000  0.11164000  1.0
  O  O95  1  0.15172000  0.49791000  0.88837000  1.0
  O  O96  1  0.08951000  0.66531000  0.15649000  1.0
  O  O97  1  0.91049000  0.33469000  0.84350000  1.0
