# generated using pymatgen
data_ZnH9C15NO5
_symmetry_space_group_name_H-M   'P 1'
_cell_length_a   9.72259000
_cell_length_b   11.06980000
_cell_length_c   16.11180000
_cell_angle_alpha   95.19390000
_cell_angle_beta   91.89480000
_cell_angle_gamma   90.20790000
_symmetry_Int_Tables_number   1
_chemical_formula_structural   ZnH9C15NO5
_chemical_formula_sum   'Zn2 H18 C30 N2 O10'
_cell_volume   1725.96428270
_cell_formula_units_Z   2
loop_
 _symmetry_equiv_pos_site_id
 _symmetry_equiv_pos_as_xyz
  1  'x, y, z'
loop_
 _atom_site_type_symbol
 _atom_site_label
 _atom_site_symmetry_multiplicity
 _atom_site_fract_x
 _atom_site_fract_y
 _atom_site_fract_z
 _atom_site_occupancy
  Zn  Zn0  1  0.63216000  0.50775000  0.51121000  1.0
  Zn  Zn1  1  0.34668000  0.50332000  0.50382000  1.0
  H  H2  1  0.35546000  0.33310000  0.93726000  1.0
  H  H3  1  0.81161000  0.88784000  0.45659000  1.0
  H  H4  1  0.82648000  0.11728000  0.47836000  1.0
  H  H5  1  0.10945000  0.58891000  0.39392000  1.0
  H  H6  1  0.85008000  0.59185000  0.39851000  1.0
  H  H7  1  0.87735000  0.45663000  0.69977000  1.0
  H  H8  1  0.86912000  0.31188000  0.63992000  1.0
  H  H9  1  0.14011000  0.45219000  0.69388000  1.0
  H  H10  1  0.12818000  0.30746000  0.63482000  1.0
  H  H11  1  0.59109000  0.31321000  0.04380000  1.0
  H  H12  1  0.25069000  0.51451000  0.05430000  1.0
  H  H13  1  0.38485000  0.69478000  0.97071000  1.0
  H  H14  1  0.62121000  0.67493000  0.07680000  1.0
  H  H15  1  0.72556000  0.49292000  0.95993000  1.0
  H  H16  1  0.27149000  0.11978000  0.49253000  1.0
  H  H17  1  0.26554000  0.89472000  0.49017000  1.0
  H  H18  1  0.81697000  0.04782000  0.63869000  1.0
  H  H19  1  0.75176000  0.80458000  0.58886000  1.0
  C  C20  1  0.49116000  0.27131000  0.50724000  1.0
  C  C21  1  0.48901000  0.50924000  0.92227000  1.0
  C  C22  1  0.56229000  0.59908000  0.04496000  1.0
  C  C23  1  0.48738000  0.49919000  0.09213000  1.0
  C  C24  1  0.43060000  0.61003000  0.98786000  1.0
  C  C25  1  0.35602000  0.50998000  0.03253000  1.0
  C  C26  1  0.48816000  0.51484000  0.83489000  1.0
  C  C27  1  0.48848000  0.49443000  0.17963000  1.0
  C  C28  1  0.61186000  0.06823000  0.51032000  1.0
  C  C29  1  0.49158000  0.13616000  0.50489000  1.0
  C  C30  1  0.36729000  0.06942000  0.49650000  1.0
  C  C31  1  0.49108000  0.52173000  0.67015000  1.0
  C  C32  1  0.36385000  0.94292000  0.49452000  1.0
  C  C33  1  0.48553000  0.87524000  0.49963000  1.0
  C  C34  1  0.60759000  0.94213000  0.50526000  1.0
  C  C35  1  0.76200000  0.92839000  0.51305000  1.0
  C  C36  1  0.76859000  0.07310000  0.52478000  1.0
  C  C37  1  0.06616000  0.46055000  0.56407000  1.0
  C  C38  1  0.05589000  0.55242000  0.44459000  1.0
  C  C39  1  0.91282000  0.55496000  0.44739000  1.0
  C  C40  1  0.92281000  0.46359000  0.56724000  1.0
  C  C41  1  0.91969000  0.40144000  0.64672000  1.0
  C  C42  1  0.48569000  0.74154000  0.50429000  1.0
  C  C43  1  0.08319000  0.39839000  0.64332000  1.0
  C  C44  1  0.48836000  0.49296000  0.34483000  1.0
  C  C45  1  0.54562000  0.39802000  0.02658000  1.0
  C  C46  1  0.41411000  0.40896000  0.96934000  1.0
  C  C47  1  0.48848000  0.51989000  0.75959000  1.0
  C  C48  1  0.48910000  0.49207000  0.25516000  1.0
  C  C49  1  0.62031000  0.49791000  0.98184000  1.0
  N  N50  1  0.13599000  0.50423000  0.50392000  1.0
  N  N51  1  0.84302000  0.51016000  0.50990000  1.0
  O  O52  1  0.60559000  0.32291000  0.49629000  1.0
  O  O53  1  0.37625000  0.32425000  0.51914000  1.0
  O  O54  1  0.60754000  0.50283000  0.63725000  1.0
  O  O55  1  0.37744000  0.54114000  0.63205000  1.0
  O  O56  1  0.60020000  0.69501000  0.52672000  1.0
  O  O57  1  0.37394000  0.68367000  0.48683000  1.0
  O  O58  1  0.60217000  0.51872000  0.38446000  1.0
  O  O59  1  0.37431000  0.46899000  0.37668000  1.0
  O  O60  1  0.81880000  0.11795000  0.60543000  1.0
  O  O61  1  0.81225000  0.87524000  0.58541000  1.0
