# generated using pymatgen
data_Zn2H20C26N8O
_symmetry_space_group_name_H-M   'P 1'
_cell_length_a   14.88210000
_cell_length_b   14.94550000
_cell_length_c   22.96840000
_cell_angle_alpha   90.00210000
_cell_angle_beta   90.01190000
_cell_angle_gamma   79.55200000
_symmetry_Int_Tables_number   1
_chemical_formula_structural   Zn2H20C26N8O
_chemical_formula_sum   'Zn8 H80 C104 N32 O4'
_cell_volume   5023.93938113
_cell_formula_units_Z   4
loop_
 _symmetry_equiv_pos_site_id
 _symmetry_equiv_pos_as_xyz
  1  'x, y, z'
loop_
 _atom_site_type_symbol
 _atom_site_label
 _atom_site_symmetry_multiplicity
 _atom_site_fract_x
 _atom_site_fract_y
 _atom_site_fract_z
 _atom_site_occupancy
  Zn  Zn0  1  0.58120000  0.55191000  0.06972000  1.0
  Zn  Zn1  1  0.58114000  0.55198000  0.93043000  1.0
  Zn  Zn2  1  0.06896000  0.06806000  0.56958000  1.0
  Zn  Zn3  1  0.06890000  0.06809000  0.43024000  1.0
  Zn  Zn4  1  0.42988000  0.41540000  0.92897000  1.0
  Zn  Zn5  1  0.42990000  0.41535000  0.07116000  1.0
  Zn  Zn6  1  0.92560000  0.92392000  0.42960000  1.0
  Zn  Zn7  1  0.92566000  0.92392000  0.57034000  1.0
  H  H8  1  0.28547000  0.90570000  0.94530000  1.0
  H  H9  1  0.37076000  0.05660000  0.09374000  1.0
  H  H10  1  0.85354000  0.56984000  0.40627000  1.0
  H  H11  1  0.85432000  0.56955000  0.59373000  1.0
  H  H12  1  0.42623000  0.75956000  0.74294000  1.0
  H  H13  1  0.42630000  0.75952000  0.25715000  1.0
  H  H14  1  0.97425000  0.19530000  0.19260000  1.0
  H  H15  1  0.97406000  0.19594000  0.80710000  1.0
  H  H16  1  0.87981000  0.28139000  0.11657000  1.0
  H  H17  1  0.87968000  0.28183000  0.88322000  1.0
  H  H18  1  0.32859000  0.85227000  0.67137000  1.0
  H  H19  1  0.28548000  0.90582000  0.05481000  1.0
  H  H20  1  0.32862000  0.85229000  0.32865000  1.0
  H  H21  1  0.66762000  0.12581000  0.14915000  1.0
  H  H22  1  0.66752000  0.12622000  0.85057000  1.0
  H  H23  1  0.20954000  0.62011000  0.62409000  1.0
  H  H24  1  0.20948000  0.62019000  0.37589000  1.0
  H  H25  1  0.30475000  0.52827000  0.69761000  1.0
  H  H26  1  0.30473000  0.52830000  0.30245000  1.0
  H  H27  1  0.76210000  0.03903000  0.22352000  1.0
  H  H28  1  0.76193000  0.03962000  0.77611000  1.0
  H  H29  1  0.93136000  0.64532000  0.90621000  1.0
  H  H30  1  0.76742000  0.41979000  0.44528000  1.0
  H  H31  1  0.93138000  0.64550000  0.09391000  1.0
  H  H32  1  0.42280000  0.15364000  0.40617000  1.0
  H  H33  1  0.42291000  0.15265000  0.59386000  1.0
  H  H34  1  0.09742000  0.63158000  0.90618000  1.0
  H  H35  1  0.09744000  0.63176000  0.09396000  1.0
  H  H36  1  0.58904000  0.13660000  0.40614000  1.0
  H  H37  1  0.58913000  0.13561000  0.59390000  1.0
  H  H38  1  0.25262000  0.56948000  0.09446000  1.0
  H  H39  1  0.25256000  0.56939000  0.90572000  1.0
  H  H40  1  0.74532000  0.07551000  0.59438000  1.0
  H  H41  1  0.76729000  0.42001000  0.55453000  1.0
  H  H42  1  0.74514000  0.07549000  0.40558000  1.0
  H  H43  1  0.44375000  0.74236000  0.90582000  1.0
  H  H44  1  0.44380000  0.74242000  0.09433000  1.0
  H  H45  1  0.92760000  0.25590000  0.40566000  1.0
  H  H46  1  0.92753000  0.25570000  0.59422000  1.0
  H  H47  1  0.78251000  0.61813000  0.09437000  1.0
  H  H48  1  0.78236000  0.61826000  0.90578000  1.0
  H  H49  1  0.27117000  0.13251000  0.59422000  1.0
  H  H50  1  0.27124000  0.13254000  0.40566000  1.0
  H  H51  1  0.37714000  0.21215000  0.90593000  1.0
  H  H52  1  0.26674000  0.06449000  0.94479000  1.0
  H  H53  1  0.37724000  0.21209000  0.09411000  1.0
  H  H54  1  0.86665000  0.72337000  0.40586000  1.0
  H  H55  1  0.86659000  0.72339000  0.59410000  1.0
  H  H56  1  0.56767000  0.22403000  0.08912000  1.0
  H  H57  1  0.56767000  0.22418000  0.91072000  1.0
  H  H58  1  0.06949000  0.73902000  0.59731000  1.0
  H  H59  1  0.06951000  0.73905000  0.40269000  1.0
  H  H60  1  0.76603000  0.40390000  0.91531000  1.0
  H  H61  1  0.76612000  0.40365000  0.08473000  1.0
  H  H62  1  0.25631000  0.93023000  0.40979000  1.0
  H  H63  1  0.26691000  0.06458000  0.05540000  1.0
  H  H64  1  0.25638000  0.93011000  0.59015000  1.0
  H  H65  1  0.38851000  0.89978000  0.90629000  1.0
  H  H66  1  0.38855000  0.89981000  0.09383000  1.0
  H  H67  1  0.87046000  0.41309000  0.40619000  1.0
  H  H68  1  0.87027000  0.41287000  0.59378000  1.0
  H  H69  1  0.61682000  0.64140000  0.15914000  1.0
  H  H70  1  0.61677000  0.64148000  0.84097000  1.0
  H  H71  1  0.09395000  0.16437000  0.65865000  1.0
  H  H72  1  0.09397000  0.16399000  0.34116000  1.0
  H  H73  1  0.53855000  0.89036000  0.96178000  1.0
  H  H74  1  0.75003000  0.57855000  0.44501000  1.0
  H  H75  1  0.53853000  0.89047000  0.03837000  1.0
  H  H76  1  0.02091000  0.40191000  0.46178000  1.0
  H  H77  1  0.02074000  0.40215000  0.53838000  1.0
  H  H78  1  0.51926000  0.04922000  0.96161000  1.0
  H  H79  1  0.51939000  0.04933000  0.03829000  1.0
  H  H80  1  0.00282000  0.56074000  0.46143000  1.0
  H  H81  1  0.00313000  0.56095000  0.53814000  1.0
  H  H82  1  0.32977000  0.48295000  0.79783000  1.0
  H  H83  1  0.32994000  0.48280000  0.20234000  1.0
  H  H84  1  0.83874000  0.96572000  0.29414000  1.0
  H  H85  1  0.75043000  0.57871000  0.55532000  1.0
  H  H86  1  0.83873000  0.96613000  0.70568000  1.0
  H  H87  1  0.37044000  0.05659000  0.90632000  1.0
  C  C88  1  0.49499000  0.60075000  0.19037000  1.0
  C  C89  1  0.70686000  0.37080000  0.08239000  1.0
  C  C90  1  0.86867000  0.73809000  0.54786000  1.0
  C  C91  1  0.56337000  0.65882000  0.19419000  1.0
  C  C92  1  0.56334000  0.65884000  0.80588000  1.0
  C  C93  1  0.05211000  0.16516000  0.69967000  1.0
  C  C94  1  0.05225000  0.16465000  0.30008000  1.0
  C  C95  1  0.19927000  0.89412000  0.41156000  1.0
  C  C96  1  0.19931000  0.89404000  0.58839000  1.0
  C  C97  1  0.82308000  0.62871000  0.00007000  1.0
  C  C98  1  0.31280000  0.14103000  0.49996000  1.0
  C  C99  1  0.37638000  0.16914000  0.00001000  1.0
  C  C100  1  0.86297000  0.68123000  0.49998000  1.0
  C  C101  1  0.69812000  0.28116000  0.09688000  1.0
  C  C102  1  0.69808000  0.28139000  0.90302000  1.0
  C  C103  1  0.19387000  0.80524000  0.60670000  1.0
  C  C104  1  0.49493000  0.60080000  0.80973000  1.0
  C  C105  1  0.19384000  0.80531000  0.39326000  1.0
  C  C106  1  0.35210000  0.92770000  0.94581000  1.0
  C  C107  1  0.35215000  0.92775000  0.05430000  1.0
  C  C108  1  0.83436000  0.44116000  0.44577000  1.0
  C  C109  1  0.83434000  0.44114000  0.55418000  1.0
  C  C110  1  0.33956000  0.03314000  0.94571000  1.0
  C  C111  1  0.33971000  0.03318000  0.05439000  1.0
  C  C112  1  0.82269000  0.54658000  0.44573000  1.0
  C  C113  1  0.82302000  0.54655000  0.55435000  1.0
  C  C114  1  0.49957000  0.91979000  0.00005000  1.0
  C  C115  1  0.98984000  0.10081000  0.69575000  1.0
  C  C116  1  0.98214000  0.43179000  0.50001000  1.0
  C  C117  1  0.40593000  0.88773000  0.00006000  1.0
  C  C118  1  0.88800000  0.40073000  0.49998000  1.0
  C  C119  1  0.38399000  0.06749000  0.00002000  1.0
  C  C120  1  0.86781000  0.58010000  0.49999000  1.0
  C  C121  1  0.38792000  0.51550000  0.80680000  1.0
  C  C122  1  0.38805000  0.51538000  0.19334000  1.0
  C  C123  1  0.89100000  0.00600000  0.30305000  1.0
  C  C124  1  0.89099000  0.00639000  0.69676000  1.0
  C  C125  1  0.48685000  0.02441000  0.99999000  1.0
  C  C126  1  0.98990000  0.10038000  0.30403000  1.0
  C  C127  1  0.97041000  0.53613000  0.49988000  1.0
  C  C128  1  0.37805000  0.72894000  0.71749000  1.0
  C  C129  1  0.37810000  0.72892000  0.28258000  1.0
  C  C130  1  0.90739000  0.17924000  0.18267000  1.0
  C  C131  1  0.90722000  0.17983000  0.81704000  1.0
  C  C132  1  0.85324000  0.22823000  0.13996000  1.0
  C  C133  1  0.85310000  0.22871000  0.85980000  1.0
  C  C134  1  0.32376000  0.78069000  0.67618000  1.0
  C  C135  1  0.32379000  0.78071000  0.32386000  1.0
  C  C136  1  0.76370000  0.21453000  0.12897000  1.0
  C  C137  1  0.60551000  0.27940000  0.08524000  1.0
  C  C138  1  0.76361000  0.21491000  0.87081000  1.0
  C  C139  1  0.25932000  0.74461000  0.64290000  1.0
  C  C140  1  0.25931000  0.74466000  0.35711000  1.0
  C  C141  1  0.73538000  0.14100000  0.15764000  1.0
  C  C142  1  0.73527000  0.14144000  0.84209000  1.0
  C  C143  1  0.25583000  0.65181000  0.65070000  1.0
  C  C144  1  0.25582000  0.65185000  0.34931000  1.0
  C  C145  1  0.30973000  0.59982000  0.69239000  1.0
  C  C146  1  0.30974000  0.59984000  0.30766000  1.0
  C  C147  1  0.78922000  0.09180000  0.20012000  1.0
  C  C148  1  0.60550000  0.27954000  0.91468000  1.0
  C  C149  1  0.78907000  0.09234000  0.79956000  1.0
  C  C150  1  0.37023000  0.63788000  0.72796000  1.0
  C  C151  1  0.37027000  0.63786000  0.27212000  1.0
  C  C152  1  0.87439000  0.11326000  0.21616000  1.0
  C  C153  1  0.87420000  0.11387000  0.78352000  1.0
  C  C154  1  0.96723000  0.64238000  0.94780000  1.0
  C  C155  1  0.96724000  0.64248000  0.05233000  1.0
  C  C156  1  0.45868000  0.14967000  0.44779000  1.0
  C  C157  1  0.45873000  0.14916000  0.55224000  1.0
  C  C158  1  0.06168000  0.63478000  0.94780000  1.0
  C  C159  1  0.10437000  0.79621000  0.59126000  1.0
  C  C160  1  0.06169000  0.63488000  0.05234000  1.0
  C  C161  1  0.55337000  0.14017000  0.44779000  1.0
  C  C162  1  0.55342000  0.13965000  0.55224000  1.0
  C  C163  1  0.11196000  0.62502000  0.00007000  1.0
  C  C164  1  0.60387000  0.12969000  0.50001000  1.0
  C  C165  1  0.26681000  0.56169000  0.04819000  1.0
  C  C166  1  0.26678000  0.56161000  0.95200000  1.0
  C  C167  1  0.75957000  0.06810000  0.54809000  1.0
  C  C168  1  0.75949000  0.06810000  0.45187000  1.0
  C  C169  1  0.91821000  0.64096000  0.00006000  1.0
  C  C170  1  0.10435000  0.79627000  0.40871000  1.0
  C  C171  1  0.40917000  0.14950000  0.50000000  1.0
  C  C172  1  0.45053000  0.72753000  0.95207000  1.0
  C  C173  1  0.45056000  0.72756000  0.04808000  1.0
  C  C174  1  0.93454000  0.24105000  0.45191000  1.0
  C  C175  1  0.93449000  0.24094000  0.54796000  1.0
  C  C176  1  0.41704000  0.58715000  0.22305000  1.0
  C  C177  1  0.41697000  0.58719000  0.77705000  1.0
  C  C178  1  0.91916000  0.07461000  0.73051000  1.0
  C  C179  1  0.91930000  0.07406000  0.26922000  1.0
  C  C180  1  0.21065000  0.59158000  0.00009000  1.0
  C  C181  1  0.70680000  0.37098000  0.91762000  1.0
  C  C182  1  0.70280000  0.09679000  0.49999000  1.0
  C  C183  1  0.42734000  0.78526000  0.00007000  1.0
  C  C184  1  0.90973000  0.29828000  0.49996000  1.0
  C  C185  1  0.76825000  0.61535000  0.04808000  1.0
  C  C186  1  0.76819000  0.61539000  0.95207000  1.0
  C  C187  1  0.25684000  0.13015000  0.54791000  1.0
  C  C188  1  0.25687000  0.13017000  0.45196000  1.0
  C  C189  1  0.37868000  0.22701000  0.95218000  1.0
  C  C190  1  0.37871000  0.22699000  0.04785000  1.0
  C  C191  1  0.86870000  0.73807000  0.45211000  1.0
  N  N192  1  0.50790000  0.54042000  0.14520000  1.0
  N  N193  1  0.34817000  0.51589000  0.97050000  1.0
  N  N194  1  0.84178000  0.02434000  0.52956000  1.0
  N  N195  1  0.84174000  0.02435000  0.47036000  1.0
  N  N196  1  0.48618000  0.64258000  0.97053000  1.0
  N  N197  1  0.48620000  0.64260000  0.02965000  1.0
  N  N198  1  0.97257000  0.15675000  0.47035000  1.0
  N  N199  1  0.97253000  0.15668000  0.52947000  1.0
  N  N200  1  0.68803000  0.59576000  0.02995000  1.0
  N  N201  1  0.68799000  0.59579000  0.97021000  1.0
  N  N202  1  0.17520000  0.11406000  0.52979000  1.0
  N  N203  1  0.50779000  0.54055000  0.85496000  1.0
  N  N204  1  0.17522000  0.11407000  0.47003000  1.0
  N  N205  1  0.38246000  0.31233000  0.97014000  1.0
  N  N206  1  0.38248000  0.31231000  0.02992000  1.0
  N  N207  1  0.87743000  0.82205000  0.47012000  1.0
  N  N208  1  0.87741000  0.82206000  0.52985000  1.0
  N  N209  1  0.56317000  0.36191000  0.06682000  1.0
  N  N210  1  0.56316000  0.36197000  0.93324000  1.0
  N  N211  1  0.06028000  0.87434000  0.56726000  1.0
  N  N212  1  0.06026000  0.87439000  0.43270000  1.0
  N  N213  1  0.62555000  0.41808000  0.93506000  1.0
  N  N214  1  0.99867000  0.05090000  0.64552000  1.0
  N  N215  1  0.62558000  0.41800000  0.06506000  1.0
  N  N216  1  0.11884000  0.93445000  0.43457000  1.0
  N  N217  1  0.11888000  0.93438000  0.56539000  1.0
  N  N218  1  0.99858000  0.05068000  0.35433000  1.0
  N  N219  1  0.44254000  0.48901000  0.85327000  1.0
  N  N220  1  0.44269000  0.48883000  0.14691000  1.0
  N  N221  1  0.93874000  0.99336000  0.35336000  1.0
  N  N222  1  0.93885000  0.99357000  0.64651000  1.0
  N  N223  1  0.34820000  0.51593000  0.02969000  1.0
  O  O224  1  0.56883000  0.72020000  0.22876000  1.0
  O  O225  1  0.56883000  0.72014000  0.77127000  1.0
  O  O226  1  0.06393000  0.21632000  0.73964000  1.0
  O  O227  1  0.06423000  0.21562000  0.26005000  1.0
