# generated using pymatgen
data_AgH5C9N4O
_symmetry_space_group_name_H-M   'P 1'
_cell_length_a   6.27528000
_cell_length_b   8.37999000
_cell_length_c   10.21364485
_cell_angle_alpha   86.38966931
_cell_angle_beta   72.10319402
_cell_angle_gamma   78.16040000
_symmetry_Int_Tables_number   1
_chemical_formula_structural   AgH5C9N4O
_chemical_formula_sum   'Ag2 H10 C18 N8 O2'
_cell_volume   500.23963941
_cell_formula_units_Z   2
loop_
 _symmetry_equiv_pos_site_id
 _symmetry_equiv_pos_as_xyz
  1  'x, y, z'
loop_
 _atom_site_type_symbol
 _atom_site_label
 _atom_site_symmetry_multiplicity
 _atom_site_fract_x
 _atom_site_fract_y
 _atom_site_fract_z
 _atom_site_occupancy
  Ag  Ag0  1  0.13261000  0.83206000  0.08383000  1.0
  Ag  Ag1  1  0.21621000  0.33240000  0.91656000  1.0
  H  H2  1  0.36687000  0.09433000  0.43780000  1.0
  H  H3  1  0.80422000  0.59422000  0.56240000  1.0
  H  H4  1  0.13894000  0.17824000  0.37055000  1.0
  H  H5  1  0.50906000  0.67872000  0.62945000  1.0
  H  H6  1  0.85483000  0.20419000  0.60841000  1.0
  H  H7  1  0.46335000  0.70413000  0.39165000  1.0
  H  H8  1  0.06649000  0.13350000  0.69077000  1.0
  H  H9  1  0.75737000  0.63328000  0.30918000  1.0
  H  H10  1  0.88909000  0.33108000  0.73339000  1.0
  H  H11  1  0.62262000  0.83093000  0.26661000  1.0
  C  C12  1  0.54012000  0.19171000  0.16647000  1.0
  C  C13  1  0.70614000  0.69223000  0.83358000  1.0
  C  C14  1  0.43339000  0.29570000  0.29795000  1.0
  C  C15  1  0.73120000  0.79599000  0.70196000  1.0
  C  C16  1  0.73825000  0.22536000  0.07359000  1.0
  C  C17  1  0.81130000  0.72582000  0.92653000  1.0
  C  C18  1  0.43056000  0.07571000  0.14047000  1.0
  C  C19  1  0.57064000  0.57618000  0.85967000  1.0
  C  C20  1  0.31123000  0.45621000  0.26363000  1.0
  C  C21  1  0.57492000  0.95661000  0.73607000  1.0
  C  C22  1  0.61822000  0.32461000  0.34867000  1.0
  C  C23  1  0.96680000  0.82480000  0.65122000  1.0
  C  C24  1  0.26887000  0.20922000  0.41089000  1.0
  C  C25  1  0.67957000  0.70932000  0.58916000  1.0
  C  C26  1  0.14906000  0.31333000  0.53845000  1.0
  C  C27  1  0.68785000  0.81320000  0.46145000  1.0
  C  C28  1  0.97767000  0.24312000  0.65027000  1.0
  C  C29  1  0.62818000  0.74294000  0.34971000  1.0
  N  N30  1  0.90646000  0.26305000  0.00239000  1.0
  N  N31  1  0.90837000  0.76325000  0.99778000  1.0
  N  N32  1  0.33432000  0.97615000  0.12355000  1.0
  N  N33  1  0.45761000  0.47651000  0.87658000  1.0
  N  N34  1  0.22088000  0.57776000  0.22584000  1.0
  N  N35  1  0.44718000  0.07838000  0.77371000  1.0
  N  N36  1  0.77182000  0.34490000  0.38223000  1.0
  N  N37  1  0.15411000  0.84481000  0.61781000  1.0
  O  O38  1  0.19390000  0.44821000  0.54639000  1.0
  O  O39  1  0.74097000  0.94796000  0.45338000  1.0
