# generated using pymatgen
data_NaCaH6C6NO6
_symmetry_space_group_name_H-M   'P 1'
_cell_length_a   9.65793000
_cell_length_b   9.65794000
_cell_length_c   9.65792000
_cell_angle_alpha   90.00030000
_cell_angle_beta   90.00030000
_cell_angle_gamma   89.99990000
_symmetry_Int_Tables_number   1
_chemical_formula_structural   NaCaH6C6NO6
_chemical_formula_sum   'Na4 Ca4 H24 C24 N4 O24'
_cell_volume   900.84933026
_cell_formula_units_Z   4
loop_
 _symmetry_equiv_pos_site_id
 _symmetry_equiv_pos_as_xyz
  1  'x, y, z'
loop_
 _atom_site_type_symbol
 _atom_site_label
 _atom_site_symmetry_multiplicity
 _atom_site_fract_x
 _atom_site_fract_y
 _atom_site_fract_z
 _atom_site_occupancy
  Na  Na0  1  0.17087000  0.82912000  0.67088000  1.0
  Na  Na1  1  0.82912000  0.67088000  0.17088000  1.0
  Na  Na2  1  0.67088000  0.17087000  0.82912000  1.0
  Na  Na3  1  0.32912000  0.32912000  0.32912000  1.0
  Ca  Ca4  1  0.83708000  0.83708000  0.83708000  1.0
  Ca  Ca5  1  0.66292000  0.33708000  0.16292000  1.0
  Ca  Ca6  1  0.33708000  0.16292000  0.66292000  1.0
  Ca  Ca7  1  0.16292000  0.66292000  0.33708000  1.0
  H  H8  1  0.00281000  0.33479000  0.69526000  1.0
  H  H9  1  0.33479000  0.69526000  0.00282000  1.0
  H  H10  1  0.69526000  0.00281000  0.33479000  1.0
  H  H11  1  0.49719000  0.83479000  0.30474000  1.0
  H  H12  1  0.16521000  0.19526000  0.99718000  1.0
  H  H13  1  0.80474000  0.50281000  0.66521000  1.0
  H  H14  1  0.50282000  0.66521000  0.80474000  1.0
  H  H15  1  0.83479000  0.30474000  0.49719000  1.0
  H  H16  1  0.19526000  0.99718000  0.16521000  1.0
  H  H17  1  0.99718000  0.16521000  0.19526000  1.0
  H  H18  1  0.66521000  0.80474000  0.50282000  1.0
  H  H19  1  0.30474000  0.49718000  0.83479000  1.0
  H  H20  1  0.95991000  0.31968000  0.87314000  1.0
  H  H21  1  0.31968000  0.87314000  0.95991000  1.0
  H  H22  1  0.87314000  0.95991000  0.31968000  1.0
  H  H23  1  0.54009000  0.81968000  0.12686000  1.0
  H  H24  1  0.18032000  0.37314000  0.04009000  1.0
  H  H25  1  0.62686000  0.45991000  0.68032000  1.0
  H  H26  1  0.45991000  0.68032000  0.62686000  1.0
  H  H27  1  0.81968000  0.12686000  0.54009000  1.0
  H  H28  1  0.37314000  0.04009000  0.18032000  1.0
  H  H29  1  0.04009000  0.18032000  0.37314000  1.0
  H  H30  1  0.68032000  0.62686000  0.45991000  1.0
  H  H31  1  0.12686000  0.54009000  0.81968000  1.0
  C  C32  1  0.03362000  0.28460000  0.79301000  1.0
  C  C33  1  0.28459000  0.79301000  0.03362000  1.0
  C  C34  1  0.79301000  0.03362000  0.28460000  1.0
  C  C35  1  0.46638000  0.78460000  0.20699000  1.0
  C  C36  1  0.21540000  0.29301000  0.96638000  1.0
  C  C37  1  0.70699000  0.53362000  0.71541000  1.0
  C  C38  1  0.53362000  0.71540000  0.70699000  1.0
  C  C39  1  0.78460000  0.20699000  0.46638000  1.0
  C  C40  1  0.29301000  0.96638000  0.21540000  1.0
  C  C41  1  0.96638000  0.21541000  0.29301000  1.0
  C  C42  1  0.71541000  0.70699000  0.53362000  1.0
  C  C43  1  0.20699000  0.46638000  0.78460000  1.0
  C  C44  1  0.01712000  0.12822000  0.76903000  1.0
  C  C45  1  0.12821000  0.76903000  0.01712000  1.0
  C  C46  1  0.76903000  0.01713000  0.12822000  1.0
  C  C47  1  0.48288000  0.62822000  0.23097000  1.0
  C  C48  1  0.37178000  0.26904000  0.98287000  1.0
  C  C49  1  0.73097000  0.51713000  0.87178000  1.0
  C  C50  1  0.51713000  0.87178000  0.73097000  1.0
  C  C51  1  0.62822000  0.23097000  0.48287000  1.0
  C  C52  1  0.26904000  0.98288000  0.37178000  1.0
  C  C53  1  0.98287000  0.37178000  0.26903000  1.0
  C  C54  1  0.87178000  0.73097000  0.51713000  1.0
  C  C55  1  0.23097000  0.48287000  0.62822000  1.0
  N  N56  1  0.17714000  0.32286000  0.82286000  1.0
  N  N57  1  0.32286000  0.82286000  0.17714000  1.0
  N  N58  1  0.82286000  0.17714000  0.32286000  1.0
  N  N59  1  0.67714000  0.67714000  0.67714000  1.0
  O  O60  1  0.89830000  0.07613000  0.78988000  1.0
  O  O61  1  0.07613000  0.78987000  0.89829000  1.0
  O  O62  1  0.78988000  0.89830000  0.07613000  1.0
  O  O63  1  0.60170000  0.57613000  0.21013000  1.0
  O  O64  1  0.42387000  0.28987000  0.10170000  1.0
  O  O65  1  0.71013000  0.39830000  0.92387000  1.0
  O  O66  1  0.39830000  0.92387000  0.71013000  1.0
  O  O67  1  0.57613000  0.21012000  0.60170000  1.0
  O  O68  1  0.28988000  0.10170000  0.42387000  1.0
  O  O69  1  0.10170000  0.42387000  0.28987000  1.0
  O  O70  1  0.92387000  0.71012000  0.39830000  1.0
  O  O71  1  0.21012000  0.60170000  0.57613000  1.0
  O  O72  1  0.12224000  0.06238000  0.72621000  1.0
  O  O73  1  0.06238000  0.72621000  0.12224000  1.0
  O  O74  1  0.72621000  0.12224000  0.06238000  1.0
  O  O75  1  0.37776000  0.56238000  0.27379000  1.0
  O  O76  1  0.43762000  0.22621000  0.87776000  1.0
  O  O77  1  0.77379000  0.62224000  0.93762000  1.0
  O  O78  1  0.62224000  0.93762000  0.77379000  1.0
  O  O79  1  0.56238000  0.27379000  0.37776000  1.0
  O  O80  1  0.22621000  0.87776000  0.43762000  1.0
  O  O81  1  0.87776000  0.43762000  0.22621000  1.0
  O  O82  1  0.93762000  0.77379000  0.62224000  1.0
  O  O83  1  0.27379000  0.37776000  0.56238000  1.0
