# generated using pymatgen
data_CuH12C14(NO3)2
_symmetry_space_group_name_H-M   'P 1'
_cell_length_a   7.02588000
_cell_length_b   7.38316000
_cell_length_c   7.43679000
_cell_angle_alpha   93.61130000
_cell_angle_beta   107.38500000
_cell_angle_gamma   110.62100000
_symmetry_Int_Tables_number   1
_chemical_formula_structural   CuH12C14(NO3)2
_chemical_formula_sum   'Cu1 H12 C14 N2 O6'
_cell_volume   338.39450687
_cell_formula_units_Z   1
loop_
 _symmetry_equiv_pos_site_id
 _symmetry_equiv_pos_as_xyz
  1  'x, y, z'
loop_
 _atom_site_type_symbol
 _atom_site_label
 _atom_site_symmetry_multiplicity
 _atom_site_fract_x
 _atom_site_fract_y
 _atom_site_fract_z
 _atom_site_occupancy
  Cu  Cu0  1  0.99999000  0.50001000  0.00001000  1.0
  H  H1  1  0.75409000  0.82872000  0.11041000  1.0
  H  H2  1  0.24589000  0.17124000  0.88961000  1.0
  H  H3  1  0.68488000  0.02064000  0.19387000  1.0
  H  H4  1  0.31516000  0.97934000  0.80611000  1.0
  H  H5  1  0.69558000  0.07409000  0.50254000  1.0
  H  H6  1  0.30437000  0.92588000  0.49746000  1.0
  H  H7  1  0.75121000  0.56799000  0.28302000  1.0
  H  H8  1  0.24878000  0.43197000  0.71698000  1.0
  H  H9  1  0.86711000  0.48907000  0.60557000  1.0
  H  H10  1  0.13290000  0.51095000  0.39445000  1.0
  H  H11  1  0.80309000  0.01216000  0.83443000  1.0
  H  H12  1  0.19684000  0.98782000  0.16556000  1.0
  C  C13  1  0.41623000  0.74293000  0.07140000  1.0
  C  C14  1  0.58377000  0.25708000  0.92859000  1.0
  C  C15  1  0.65595000  0.86353000  0.18681000  1.0
  C  C16  1  0.34407000  0.13647000  0.81319000  1.0
  C  C17  1  0.73385000  0.94647000  0.53409000  1.0
  C  C18  1  0.26614000  0.05354000  0.46588000  1.0
  C  C19  1  0.76969000  0.66350000  0.41049000  1.0
  C  C20  1  0.23036000  0.33652000  0.58953000  1.0
  C  C21  1  0.83185000  0.62037000  0.59000000  1.0
  C  C22  1  0.16819000  0.37966000  0.41000000  1.0
  C  C23  1  0.84720000  0.74382000  0.75380000  1.0
  C  C24  1  0.15282000  0.25619000  0.24622000  1.0
  C  C25  1  0.79152000  0.90949000  0.71652000  1.0
  C  C26  1  0.20847000  0.09051000  0.28348000  1.0
  N  N27  1  0.72381000  0.82610000  0.38199000  1.0
  N  N28  1  0.27622000  0.17391000  0.61801000  1.0
  O  O29  1  0.29000000  0.68847000  0.16996000  1.0
  O  O30  1  0.70997000  0.31152000  0.83001000  1.0
  O  O31  1  0.35953000  0.70882000  0.89237000  1.0
  O  O32  1  0.64050000  0.29122000  0.10763000  1.0
  O  O33  1  0.91108000  0.71639000  0.92836000  1.0
  O  O34  1  0.08887000  0.28364000  0.07161000  1.0
