# generated using pymatgen
data_CuH6C3S3Cl2
_symmetry_space_group_name_H-M   'P 1'
_cell_length_a   4.14715000
_cell_length_b   6.75632000
_cell_length_c   14.03360000
_cell_angle_alpha   90.00950000
_cell_angle_beta   90.01630000
_cell_angle_gamma   82.65060000
_symmetry_Int_Tables_number   1
_chemical_formula_structural   CuH6C3S3Cl2
_chemical_formula_sum   'Cu2 H12 C6 S6 Cl4'
_cell_volume   389.98360759
_cell_formula_units_Z   2
loop_
 _symmetry_equiv_pos_site_id
 _symmetry_equiv_pos_as_xyz
  1  'x, y, z'
loop_
 _atom_site_type_symbol
 _atom_site_label
 _atom_site_symmetry_multiplicity
 _atom_site_fract_x
 _atom_site_fract_y
 _atom_site_fract_z
 _atom_site_occupancy
  Cu  Cu0  1  0.00000000  0.50000000  0.50000000  1.0
  Cu  Cu1  1  0.99999000  0.50000000  1.00000000  1.0
  H  H2  1  0.02028000  0.64515000  0.75001000  1.0
  H  H3  1  0.97972000  0.35485000  0.25000000  1.0
  H  H4  1  0.73240000  0.46623000  0.74998000  1.0
  H  H5  1  0.26759000  0.53378000  0.25003000  1.0
  H  H6  1  0.15278000  0.05093000  0.58661000  1.0
  H  H7  1  0.84719000  0.94910000  0.08669000  1.0
  H  H8  1  0.84722000  0.94908000  0.41338000  1.0
  H  H9  1  0.15280000  0.05088000  0.91331000  1.0
  H  H10  1  0.80422000  0.14000000  0.65752000  1.0
  H  H11  1  0.19577000  0.85999000  0.15764000  1.0
  H  H12  1  0.19576000  0.86000000  0.34248000  1.0
  H  H13  1  0.80423000  0.14000000  0.84236000  1.0
  C  C14  1  0.99029000  0.48577000  0.75000000  1.0
  C  C15  1  0.00971000  0.51423000  0.25000000  1.0
  C  C16  1  0.07013000  0.12585000  0.65319000  1.0
  C  C17  1  0.92985000  0.87418000  0.15326000  1.0
  C  C18  1  0.92989000  0.87415000  0.34681000  1.0
  C  C19  1  0.07015000  0.12582000  0.84674000  1.0
  S  S20  1  0.20009000  0.37312000  0.64701000  1.0
  S  S21  1  0.79989000  0.62690000  0.14700000  1.0
  S  S22  1  0.79991000  0.62687000  0.35299000  1.0
  S  S23  1  0.20011000  0.37311000  0.85299000  1.0
  S  S24  1  0.25679000  0.97885000  0.74996000  1.0
  S  S25  1  0.74320000  0.02115000  0.25004000  1.0
  Cl  Cl26  1  0.63261000  0.73341000  0.56045000  1.0
  Cl  Cl27  1  0.36731000  0.26657000  0.06049000  1.0
  Cl  Cl28  1  0.36740000  0.26660000  0.43955000  1.0
  Cl  Cl29  1  0.63267000  0.73342000  0.93951000  1.0
