# generated using pymatgen
data_CdH12C10(SN3)2
_symmetry_space_group_name_H-M   'P 1'
_cell_length_a   6.88958000
_cell_length_b   10.03740000
_cell_length_c   10.03740000
_cell_angle_alpha   87.23090000
_cell_angle_beta   89.99960000
_cell_angle_gamma   89.99960000
_symmetry_Int_Tables_number   1
_chemical_formula_structural   CdH12C10(SN3)2
_chemical_formula_sum   'Cd2 H24 C20 S4 N12'
_cell_volume   693.31054329
_cell_formula_units_Z   2
loop_
 _symmetry_equiv_pos_site_id
 _symmetry_equiv_pos_as_xyz
  1  'x, y, z'
loop_
 _atom_site_type_symbol
 _atom_site_label
 _atom_site_symmetry_multiplicity
 _atom_site_fract_x
 _atom_site_fract_y
 _atom_site_fract_z
 _atom_site_occupancy
  Cd  Cd0  1  0.56096000  0.15157000  0.15157000  1.0
  Cd  Cd1  1  0.06097000  0.84843000  0.84843000  1.0
  H  H2  1  0.19488000  0.52925000  0.82766000  1.0
  H  H3  1  0.69489000  0.47076000  0.17235000  1.0
  H  H4  1  0.69489000  0.17235000  0.47075000  1.0
  H  H5  1  0.19488000  0.82766000  0.52925000  1.0
  H  H6  1  0.18505000  0.36465000  0.05991000  1.0
  H  H7  1  0.68505000  0.63536000  0.94010000  1.0
  H  H8  1  0.68505000  0.94010000  0.63535000  1.0
  H  H9  1  0.18505000  0.05991000  0.36464000  1.0
  H  H10  1  0.87609000  0.31918000  0.92814000  1.0
  H  H11  1  0.37610000  0.68082000  0.07185000  1.0
  H  H12  1  0.37610000  0.07185000  0.68082000  1.0
  H  H13  1  0.87609000  0.92814000  0.31918000  1.0
  H  H14  1  0.81823000  0.33885000  0.75534000  1.0
  H  H15  1  0.31824000  0.66115000  0.24466000  1.0
  H  H16  1  0.31824000  0.24466000  0.66115000  1.0
  H  H17  1  0.81823000  0.75534000  0.33885000  1.0
  H  H18  1  0.77117000  0.18449000  0.84561000  1.0
  H  H19  1  0.27117000  0.81551000  0.15439000  1.0
  H  H20  1  0.27117000  0.15439000  0.81551000  1.0
  H  H21  1  0.77117000  0.84561000  0.18449000  1.0
  H  H22  1  0.52763000  0.47996000  0.72313000  1.0
  H  H23  1  0.02764000  0.52004000  0.27688000  1.0
  H  H24  1  0.02764000  0.27688000  0.52004000  1.0
  H  H25  1  0.52763000  0.72313000  0.47996000  1.0
  C  C26  1  0.52486000  0.91462000  0.91463000  1.0
  C  C27  1  0.02487000  0.08537000  0.08537000  1.0
  C  C28  1  0.38051000  0.37174000  0.37175000  1.0
  C  C29  1  0.88051000  0.62825000  0.62826000  1.0
  C  C30  1  0.57499000  0.34203000  0.88505000  1.0
  C  C31  1  0.07500000  0.65797000  0.11495000  1.0
  C  C32  1  0.07500000  0.11495000  0.65797000  1.0
  C  C33  1  0.57499000  0.88505000  0.34203000  1.0
  C  C34  1  0.29979000  0.45921000  0.87090000  1.0
  C  C35  1  0.79978000  0.54079000  0.12911000  1.0
  C  C36  1  0.79979000  0.12911000  0.54079000  1.0
  C  C37  1  0.29978000  0.87090000  0.45921000  1.0
  C  C38  1  0.29700000  0.37736000  0.98448000  1.0
  C  C39  1  0.79700000  0.62264000  0.01552000  1.0
  C  C40  1  0.79700000  0.01553000  0.62264000  1.0
  C  C41  1  0.29700000  0.98448000  0.37736000  1.0
  C  C42  1  0.77107000  0.29342000  0.85129000  1.0
  C  C43  1  0.27107000  0.70658000  0.14871000  1.0
  C  C44  1  0.27107000  0.14871000  0.70658000  1.0
  C  C45  1  0.77106000  0.85129000  0.29342000  1.0
  S  S46  1  0.43910000  0.80947000  0.80947000  1.0
  S  S47  1  0.93910000  0.19052000  0.19052000  1.0
  S  S48  1  0.22640000  0.45683000  0.45683000  1.0
  S  S49  1  0.72639000  0.54317000  0.54317000  1.0
  N  N50  1  0.59088000  0.98964000  0.98964000  1.0
  N  N51  1  0.09089000  0.01036000  0.01036000  1.0
  N  N52  1  0.49621000  0.31124000  0.31124000  1.0
  N  N53  1  0.99620000  0.68876000  0.68876000  1.0
  N  N54  1  0.46800000  0.30455000  0.99202000  1.0
  N  N55  1  0.96801000  0.69545000  0.00798000  1.0
  N  N56  1  0.96800000  0.00798000  0.69545000  1.0
  N  N57  1  0.46800000  0.99202000  0.30455000  1.0
  N  N58  1  0.47567000  0.43558000  0.81068000  1.0
  N  N59  1  0.97568000  0.56442000  0.18932000  1.0
  N  N60  1  0.97568000  0.18932000  0.56442000  1.0
  N  N61  1  0.47567000  0.81068000  0.43558000  1.0
