# generated using pymatgen
data_GdH8C8NO9
_symmetry_space_group_name_H-M   'P 1'
_cell_length_a   7.30827000
_cell_length_b   8.94000000
_cell_length_c   9.97499785
_cell_angle_alpha   114.40636543
_cell_angle_beta   105.99397734
_cell_angle_gamma   94.26910000
_symmetry_Int_Tables_number   1
_chemical_formula_structural   GdH8C8NO9
_chemical_formula_sum   'Gd2 H16 C16 N2 O18'
_cell_volume   557.15838175
_cell_formula_units_Z   2
loop_
 _symmetry_equiv_pos_site_id
 _symmetry_equiv_pos_as_xyz
  1  'x, y, z'
loop_
 _atom_site_type_symbol
 _atom_site_label
 _atom_site_symmetry_multiplicity
 _atom_site_fract_x
 _atom_site_fract_y
 _atom_site_fract_z
 _atom_site_occupancy
  Gd  Gd0  1  0.76579000  0.70620000  0.85916000  1.0
  Gd  Gd1  1  0.23421000  0.29380000  0.14084000  1.0
  H  H2  1  0.33359000  0.37143000  0.77091000  1.0
  H  H3  1  0.66643000  0.62857000  0.22909000  1.0
  H  H4  1  0.12669000  0.31173000  0.49986000  1.0
  H  H5  1  0.87334000  0.68828000  0.50015000  1.0
  H  H6  1  0.19339000  0.79677000  0.33843000  1.0
  H  H7  1  0.80661000  0.20324000  0.66157000  1.0
  H  H8  1  0.39087000  0.86685000  0.59425000  1.0
  H  H9  1  0.60913000  0.13315000  0.40575000  1.0
  H  H10  1  0.32147000  0.65811000  0.82613000  1.0
  H  H11  1  0.67851000  0.34189000  0.17387000  1.0
  H  H12  1  0.46298000  0.69696000  0.99013000  1.0
  H  H13  1  0.53702000  0.30304000  0.00987000  1.0
  H  H14  1  0.61172000  0.02775000  0.89664000  1.0
  H  H15  1  0.38829000  0.97226000  0.10337000  1.0
  H  H16  1  0.80609000  0.06079000  0.04121000  1.0
  H  H17  1  0.19391000  0.93921000  0.95879000  1.0
  C  C18  1  0.38194000  0.11962000  0.70012000  1.0
  C  C19  1  0.61805000  0.88038000  0.29987000  1.0
  C  C20  1  0.29936000  0.24767000  0.67160000  1.0
  C  C21  1  0.70065000  0.75233000  0.32840000  1.0
  C  C22  1  0.18748000  0.21368000  0.52328000  1.0
  C  C23  1  0.81252000  0.78632000  0.47672000  1.0
  C  C24  1  0.14642000  0.05070000  0.39612000  1.0
  C  C25  1  0.85358000  0.94930000  0.60388000  1.0
  C  C26  1  0.21871000  0.92589000  0.42723000  1.0
  C  C27  1  0.78129000  0.07411000  0.57277000  1.0
  C  C28  1  0.03563000  0.01694000  0.23393000  1.0
  C  C29  1  0.96435000  0.98305000  0.76606000  1.0
  C  C30  1  0.91319000  0.47824000  0.02430000  1.0
  C  C31  1  0.08680000  0.52176000  0.97569000  1.0
  C  C32  1  0.45003000  0.57433000  0.50293000  1.0
  C  C33  1  0.54998000  0.42567000  0.49708000  1.0
  N  N34  1  0.33148000  0.96098000  0.57359000  1.0
  N  N35  1  0.66852000  0.03902000  0.42641000  1.0
  O  O36  1  0.96438000  0.86657000  0.13060000  1.0
  O  O37  1  0.03562000  0.13343000  0.86941000  1.0
  O  O38  1  0.45143000  0.64864000  0.87717000  1.0
  O  O39  1  0.54856000  0.35136000  0.12283000  1.0
  O  O40  1  0.01879000  0.14656000  0.20793000  1.0
  O  O41  1  0.98121000  0.85344000  0.79207000  1.0
  O  O42  1  0.69725000  0.97347000  0.95153000  1.0
  O  O43  1  0.30275000  0.02653000  0.04847000  1.0
  O  O44  1  0.49662000  0.14251000  0.83090000  1.0
  O  O45  1  0.50337000  0.85749000  0.16910000  1.0
  O  O46  1  0.75789000  0.52190000  0.97556000  1.0
  O  O47  1  0.24211000  0.47809000  0.02443000  1.0
  O  O48  1  0.51291000  0.70870000  0.63112000  1.0
  O  O49  1  0.48709000  0.29128000  0.36887000  1.0
  O  O50  1  0.31490000  0.55120000  0.38092000  1.0
  O  O51  1  0.68510000  0.44879000  0.61908000  1.0
  O  O52  1  0.94175000  0.40237000  0.10896000  1.0
  O  O53  1  0.05824000  0.59763000  0.89104000  1.0
