# generated using pymatgen
data_ZnH6C15S2Br3NO10
_symmetry_space_group_name_H-M   'P 1'
_cell_length_a   9.44242000
_cell_length_b   10.89270000
_cell_length_c   16.04170000
_cell_angle_alpha   88.38200000
_cell_angle_beta   89.12640000
_cell_angle_gamma   86.91260000
_symmetry_Int_Tables_number   1
_chemical_formula_structural   ZnH6C15S2Br3NO10
_chemical_formula_sum   'Zn2 H12 C30 S4 Br6 N2 O20'
_cell_volume   1646.73672474
_cell_formula_units_Z   2
loop_
 _symmetry_equiv_pos_site_id
 _symmetry_equiv_pos_as_xyz
  1  'x, y, z'
loop_
 _atom_site_type_symbol
 _atom_site_label
 _atom_site_symmetry_multiplicity
 _atom_site_fract_x
 _atom_site_fract_y
 _atom_site_fract_z
 _atom_site_occupancy
  Zn  Zn0  1  0.35283000  0.50232000  0.49516000  1.0
  Zn  Zn1  1  0.64742000  0.49752000  0.50585000  1.0
  H  H2  1  0.38486000  0.08599000  0.37477000  1.0
  H  H3  1  0.61652000  0.91361000  0.62690000  1.0
  H  H4  1  0.08582000  0.61170000  0.37948000  1.0
  H  H5  1  0.91418000  0.38769000  0.62283000  1.0
  H  H6  1  0.88912000  0.70541000  0.50579000  1.0
  H  H7  1  0.11108000  0.29391000  0.49663000  1.0
  H  H8  1  0.09968000  0.59204000  0.62120000  1.0
  H  H9  1  0.90052000  0.40717000  0.38115000  1.0
  H  H10  1  0.96952000  0.41811000  0.94642000  1.0
  H  H11  1  0.03575000  0.57527000  0.05487000  1.0
  H  H12  1  0.23612000  0.98350000  0.70751000  1.0
  H  H13  1  0.76623000  0.01580000  0.29500000  1.0
  C  C14  1  0.48282000  0.73846000  0.51020000  1.0
  C  C15  1  0.51831000  0.26109000  0.49116000  1.0
  C  C16  1  0.43563000  0.04700000  0.43096000  1.0
  C  C17  1  0.56566000  0.95258000  0.57073000  1.0
  C  C18  1  0.51515000  0.12378000  0.49513000  1.0
  C  C19  1  0.48620000  0.87575000  0.50666000  1.0
  C  C20  1  0.44005000  0.05226000  0.56896000  1.0
  C  C21  1  0.56121000  0.94734000  0.43269000  1.0
  C  C22  1  0.94550000  0.61532000  0.50412000  1.0
  C  C23  1  0.05468000  0.38400000  0.49821000  1.0
  C  C24  1  0.04088000  0.56258000  0.43304000  1.0
  C  C25  1  0.95922000  0.43679000  0.56927000  1.0
  C  C26  1  0.04810000  0.55218000  0.56865000  1.0
  C  C27  1  0.95212000  0.44715000  0.43365000  1.0
  C  C28  1  0.48774000  0.48158000  0.66269000  1.0
  C  C29  1  0.51306000  0.51700000  0.33818000  1.0
  C  C30  1  0.47509000  0.61413000  0.02603000  1.0
  C  C31  1  0.53013000  0.37992000  0.97490000  1.0
  C  C32  1  0.59352000  0.57288000  0.96134000  1.0
  C  C33  1  0.41178000  0.42105000  0.03966000  1.0
  C  C34  1  0.47798000  0.48307000  0.75261000  1.0
  C  C35  1  0.52458000  0.51362000  0.24834000  1.0
  C  C36  1  0.36545000  0.53417000  0.98187000  1.0
  C  C37  1  0.63976000  0.45980000  0.01917000  1.0
  C  C38  1  0.48419000  0.49358000  0.91529000  1.0
  C  C39  1  0.52098000  0.50048000  0.08572000  1.0
  C  C40  1  0.47328000  0.48861000  0.82811000  1.0
  C  C41  1  0.53116000  0.50643000  0.17293000  1.0
  C  C42  1  0.36145000  0.97613000  0.50382000  1.0
  C  C43  1  0.63988000  0.02340000  0.49789000  1.0
  S  S44  1  0.81472000  0.40968000  0.04765000  1.0
  S  S45  1  0.19035000  0.58401000  0.95355000  1.0
  S  S46  1  0.36730000  0.12343000  0.65884000  1.0
  S  S47  1  0.63406000  0.87595000  0.34293000  1.0
  Br  Br48  1  0.71757000  0.67912000  0.90534000  1.0
  Br  Br49  1  0.28808000  0.31443000  0.09555000  1.0
  Br  Br50  1  0.44299000  0.77582000  0.06359000  1.0
  Br  Br51  1  0.56239000  0.21829000  0.93725000  1.0
  Br  Br52  1  0.16445000  0.94504000  0.50857000  1.0
  Br  Br53  1  0.83695000  0.05432000  0.49353000  1.0
  N  N54  1  0.14207000  0.49956000  0.49746000  1.0
  N  N55  1  0.85812000  0.49980000  0.50480000  1.0
  O  O56  1  0.36474000  0.69147000  0.50163000  1.0
  O  O57  1  0.63713000  0.30854000  0.49419000  1.0
  O  O58  1  0.60371000  0.68348000  0.51996000  1.0
  O  O59  1  0.39631000  0.31564000  0.48642000  1.0
  O  O60  1  0.37163000  0.49172000  0.62343000  1.0
  O  O61  1  0.62858000  0.51494000  0.37797000  1.0
  O  O62  1  0.61245000  0.47247000  0.63174000  1.0
  O  O63  1  0.38785000  0.51950000  0.36850000  1.0
  O  O64  1  0.88529000  0.51559000  0.07749000  1.0
  O  O65  1  0.80373000  0.30344000  0.10145000  1.0
  O  O66  1  0.88117000  0.37218000  0.96114000  1.0
  O  O67  1  0.20094000  0.69039000  0.89984000  1.0
  O  O68  1  0.11996000  0.47800000  0.92370000  1.0
  O  O69  1  0.12414000  0.62118000  0.04017000  1.0
  O  O70  1  0.48036000  0.18081000  0.69863000  1.0
  O  O71  1  0.23458000  0.18827000  0.63949000  1.0
  O  O72  1  0.33495000  0.00319000  0.71593000  1.0
  O  O73  1  0.76610000  0.81046000  0.36294000  1.0
  O  O74  1  0.52097000  0.81917000  0.30275000  1.0
  O  O75  1  0.66770000  0.99584000  0.28583000  1.0
