# generated using pymatgen
data_Tb4H36C57(O11F6)3
_symmetry_space_group_name_H-M   'P 1'
_cell_length_a   7.92275000
_cell_length_b   21.38300000
_cell_length_c   23.00500000
_cell_angle_alpha   82.10290000
_cell_angle_beta   82.76410000
_cell_angle_gamma   79.56440000
_symmetry_Int_Tables_number   1
_chemical_formula_structural   Tb4H36C57(O11F6)3
_chemical_formula_sum   'Tb8 H72 C114 O66 F36'
_cell_volume   3776.02316148
_cell_formula_units_Z   2
loop_
 _symmetry_equiv_pos_site_id
 _symmetry_equiv_pos_as_xyz
  1  'x, y, z'
loop_
 _atom_site_type_symbol
 _atom_site_label
 _atom_site_symmetry_multiplicity
 _atom_site_fract_x
 _atom_site_fract_y
 _atom_site_fract_z
 _atom_site_occupancy
  Tb  Tb0  1  0.72927000  0.09538000  0.53479000  1.0
  Tb  Tb1  1  0.96905000  0.24657000  0.59591000  1.0
  Tb  Tb2  1  0.68028000  0.57981000  0.21319000  1.0
  Tb  Tb3  1  0.12060000  0.52662000  0.06759000  1.0
  Tb  Tb4  1  0.27073000  0.90462000  0.46521000  1.0
  Tb  Tb5  1  0.03094000  0.75343000  0.40409000  1.0
  Tb  Tb6  1  0.31971000  0.42019000  0.78681000  1.0
  Tb  Tb7  1  0.87940000  0.47339000  0.93241000  1.0
  H  H8  1  0.40832000  0.03149000  0.55498000  1.0
  H  H9  1  0.36456000  0.10255000  0.57512000  1.0
  H  H10  1  0.89126000  0.95660000  0.57391000  1.0
  H  H11  1  0.69469000  0.95463000  0.56881000  1.0
  H  H12  1  0.33062000  0.26215000  0.54136000  1.0
  H  H13  1  0.32542000  0.26495000  0.61218000  1.0
  H  H14  1  0.96690000  0.36946000  0.63779000  1.0
  H  H15  1  0.11550000  0.36396000  0.58552000  1.0
  H  H16  1  0.59632000  0.31610000  0.61106000  1.0
  H  H17  1  0.71389000  0.36491000  0.57539000  1.0
  H  H18  1  0.29070000  0.60225000  0.24763000  1.0
  H  H19  1  0.31558000  0.57469000  0.18758000  1.0
  H  H20  1  0.98566000  0.57965000  0.27729000  1.0
  H  H21  1  0.01124000  0.52000000  0.24266000  1.0
  H  H22  1  0.49643000  0.50337000  0.30448000  1.0
  H  H23  1  0.67341000  0.49728000  0.32934000  1.0
  H  H24  1  0.44108000  0.57164000  0.09714000  1.0
  H  H25  1  0.50020000  0.53209000  0.04483000  1.0
  H  H26  1  0.11006000  0.23670000  0.37945000  1.0
  H  H27  1  0.71057000  0.25458000  0.26348000  1.0
  H  H28  1  0.49362000  0.25457000  0.35040000  1.0
  H  H29  1  0.91843000  0.35888000  0.25464000  1.0
  H  H30  1  0.96766000  0.28572000  0.05769000  1.0
  H  H31  1  0.06007000  0.20850000  0.14138000  1.0
  H  H32  1  0.85484000  0.90387000  0.28486000  1.0
  H  H33  1  0.58786000  0.09615000  0.24026000  1.0
  H  H34  1  0.65003000  0.12506000  0.33404000  1.0
  H  H35  1  0.46417000  0.93318000  0.29094000  1.0
  H  H36  1  0.74124000  0.75027000  0.18356000  1.0
  H  H37  1  0.79568000  0.85857000  0.14350000  1.0
  H  H38  1  0.83289000  0.29026000  0.93447000  1.0
  H  H39  1  0.72940000  0.13317000  0.85211000  1.0
  H  H40  1  0.83122000  0.18605000  0.75535000  1.0
  H  H41  1  0.48120000  0.26914000  0.91112000  1.0
  H  H42  1  0.49206000  0.30983000  0.11722000  1.0
  H  H43  1  0.66339000  0.21055000  0.08259000  1.0
  H  H44  1  0.59168000  0.96851000  0.44502000  1.0
  H  H45  1  0.63545000  0.89745000  0.42488000  1.0
  H  H46  1  0.10874000  0.04340000  0.42609000  1.0
  H  H47  1  0.30531000  0.04537000  0.43120000  1.0
  H  H48  1  0.66938000  0.73785000  0.45864000  1.0
  H  H49  1  0.67458000  0.73506000  0.38782000  1.0
  H  H50  1  0.03310000  0.63054000  0.36221000  1.0
  H  H51  1  0.88450000  0.63604000  0.41449000  1.0
  H  H52  1  0.40368000  0.68390000  0.38894000  1.0
  H  H53  1  0.28610000  0.63509000  0.42461000  1.0
  H  H54  1  0.70930000  0.39775000  0.75237000  1.0
  H  H55  1  0.68441000  0.42531000  0.81242000  1.0
  H  H56  1  0.01433000  0.42035000  0.72271000  1.0
  H  H57  1  0.98875000  0.48000000  0.75734000  1.0
  H  H58  1  0.50356000  0.49663000  0.69552000  1.0
  H  H59  1  0.32658000  0.50272000  0.67066000  1.0
  H  H60  1  0.55892000  0.42836000  0.90286000  1.0
  H  H61  1  0.49980000  0.46791000  0.95518000  1.0
  H  H62  1  0.88995000  0.76329000  0.62054000  1.0
  H  H63  1  0.28942000  0.74543000  0.73652000  1.0
  H  H64  1  0.50638000  0.74543000  0.64960000  1.0
  H  H65  1  0.08157000  0.64112000  0.74537000  1.0
  H  H66  1  0.03233000  0.71429000  0.94231000  1.0
  H  H67  1  0.93992000  0.79151000  0.85862000  1.0
  H  H68  1  0.14516000  0.09613000  0.71514000  1.0
  H  H69  1  0.41212000  0.90384000  0.75974000  1.0
  H  H70  1  0.34995000  0.87494000  0.66596000  1.0
  H  H71  1  0.53582000  0.06682000  0.70905000  1.0
  H  H72  1  0.25877000  0.24973000  0.81644000  1.0
  H  H73  1  0.20433000  0.14143000  0.85650000  1.0
  H  H74  1  0.16714000  0.70973000  0.06553000  1.0
  H  H75  1  0.27061000  0.86682000  0.14790000  1.0
  H  H76  1  0.16878000  0.81395000  0.24465000  1.0
  H  H77  1  0.51881000  0.73086000  0.08888000  1.0
  H  H78  1  0.50792000  0.69017000  0.88278000  1.0
  H  H79  1  0.33660000  0.78945000  0.91741000  1.0
  C  C80  1  0.54452000  0.23042000  0.46522000  1.0
  C  C81  1  0.67907000  0.23931000  0.41355000  1.0
  C  C82  1  0.85377000  0.23682000  0.42065000  1.0
  C  C83  1  0.97654000  0.23923000  0.37135000  1.0
  C  C84  1  0.92841000  0.24274000  0.31440000  1.0
  C  C85  1  0.75226000  0.24951000  0.30749000  1.0
  C  C86  1  0.62961000  0.24891000  0.35638000  1.0
  C  C87  1  0.90936000  0.23276000  0.48078000  1.0
  C  C88  1  0.05843000  0.23397000  0.25938000  1.0
  C  C89  1  0.99811000  0.27826000  0.20475000  1.0
  C  C90  1  0.93439000  0.34269000  0.21109000  1.0
  C  C91  1  0.89308000  0.38740000  0.16254000  1.0
  C  C92  1  0.90576000  0.36635000  0.10666000  1.0
  C  C93  1  0.96034000  0.30140000  0.10106000  1.0
  C  C94  1  0.01086000  0.25787000  0.14884000  1.0
  C  C95  1  0.83343000  0.45528000  0.17563000  1.0
  C  C96  1  0.87515000  0.40905000  0.05081000  1.0
  C  C97  1  0.23896000  0.24849000  0.26778000  1.0
  C  C98  1  0.08087000  0.16174000  0.24990000  1.0
  C  C99  1  0.78790000  0.04821000  0.42329000  1.0
  C  C100  1  0.78874000  0.03166000  0.36209000  1.0
  C  C101  1  0.84687000  0.96918000  0.34753000  1.0
  C  C102  1  0.81184000  0.95313000  0.29408000  1.0
  C  C103  1  0.71581000  0.99744000  0.25528000  1.0
  C  C104  1  0.66144000  0.05999000  0.26952000  1.0
  C  C105  1  0.69770000  0.07674000  0.32255000  1.0
  C  C106  1  0.92922000  0.91763000  0.39092000  1.0
  C  C107  1  0.67494000  0.97364000  0.19923000  1.0
  C  C108  1  0.63838000  0.90459000  0.21507000  1.0
  C  C109  1  0.52582000  0.89388000  0.26612000  1.0
  C  C110  1  0.49111000  0.83307000  0.28788000  1.0
  C  C111  1  0.57389000  0.77999000  0.25906000  1.0
  C  C112  1  0.67834000  0.79111000  0.20629000  1.0
  C  C113  1  0.71056000  0.85263000  0.18413000  1.0
  C  C114  1  0.35579000  0.82920000  0.33931000  1.0
  C  C115  1  0.56897000  0.71232000  0.28689000  1.0
  C  C116  1  0.83369000  0.97993000  0.15303000  1.0
  C  C117  1  0.51108000  0.01417000  0.17348000  1.0
  C  C118  1  0.94078000  0.29766000  0.72888000  1.0
  C  C119  1  0.88976000  0.26692000  0.78953000  1.0
  C  C120  1  0.88994000  0.29589000  0.84084000  1.0
  C  C121  1  0.83298000  0.26622000  0.89567000  1.0
  C  C122  1  0.77457000  0.20727000  0.90112000  1.0
  C  C123  1  0.77475000  0.17851000  0.85012000  1.0
  C  C124  1  0.83292000  0.20801000  0.79518000  1.0
  C  C125  1  0.96195000  0.35612000  0.84007000  1.0
  C  C126  1  0.70949000  0.17966000  0.96380000  1.0
  C  C127  1  0.58952000  0.23380000  0.99342000  1.0
  C  C128  1  0.48412000  0.27722000  0.95663000  1.0
  C  C129  1  0.38929000  0.33320000  0.97584000  1.0
  C  C130  1  0.39632000  0.34565000  0.03384000  1.0
  C  C131  1  0.48915000  0.29979000  0.07221000  1.0
  C  C132  1  0.58634000  0.24413000  0.05232000  1.0
  C  C133  1  0.28754000  0.37800000  0.93172000  1.0
  C  C134  1  0.32275000  0.41023000  0.05119000  1.0
  C  C135  1  0.87248000  0.15273000  0.99671000  1.0
  C  C136  1  0.60386000  0.12467000  0.96431000  1.0
  C  C137  1  0.45551000  0.76957000  0.53478000  1.0
  C  C138  1  0.32093000  0.76070000  0.58645000  1.0
  C  C139  1  0.14624000  0.76318000  0.57935000  1.0
  C  C140  1  0.02346000  0.76077000  0.62865000  1.0
  C  C141  1  0.07160000  0.75725000  0.68560000  1.0
  C  C142  1  0.24774000  0.75049000  0.69250000  1.0
  C  C143  1  0.37039000  0.75109000  0.64362000  1.0
  C  C144  1  0.09065000  0.76724000  0.51922000  1.0
  C  C145  1  0.94156000  0.76603000  0.74061000  1.0
  C  C146  1  0.00188000  0.72175000  0.79524000  1.0
  C  C147  1  0.06561000  0.65731000  0.78891000  1.0
  C  C148  1  0.10692000  0.61260000  0.83746000  1.0
  C  C149  1  0.09424000  0.63365000  0.89334000  1.0
  C  C150  1  0.03966000  0.69860000  0.89894000  1.0
  C  C151  1  0.98913000  0.74214000  0.85116000  1.0
  C  C152  1  0.16657000  0.54473000  0.82437000  1.0
  C  C153  1  0.12485000  0.59095000  0.94919000  1.0
  C  C154  1  0.76103000  0.75150000  0.73221000  1.0
  C  C155  1  0.91912000  0.83826000  0.75009000  1.0
  C  C156  1  0.21210000  0.95179000  0.57671000  1.0
  C  C157  1  0.21126000  0.96833000  0.63791000  1.0
  C  C158  1  0.15313000  0.03082000  0.65247000  1.0
  C  C159  1  0.18817000  0.04687000  0.70591000  1.0
  C  C160  1  0.28419000  0.00256000  0.74472000  1.0
  C  C161  1  0.33856000  0.94000000  0.73048000  1.0
  C  C162  1  0.30229000  0.92326000  0.67745000  1.0
  C  C163  1  0.07079000  0.08238000  0.60907000  1.0
  C  C164  1  0.32505000  0.02636000  0.80077000  1.0
  C  C165  1  0.36161000  0.09541000  0.78493000  1.0
  C  C166  1  0.47418000  0.10612000  0.73388000  1.0
  C  C167  1  0.50889000  0.16693000  0.71211000  1.0
  C  C168  1  0.42612000  0.22001000  0.74094000  1.0
  C  C169  1  0.32167000  0.20889000  0.79370000  1.0
  C  C170  1  0.28944000  0.14736000  0.81587000  1.0
  C  C171  1  0.64421000  0.17080000  0.66069000  1.0
  C  C172  1  0.43104000  0.28768000  0.71311000  1.0
  C  C173  1  0.16630000  0.02008000  0.84697000  1.0
  C  C174  1  0.48891000  0.98583000  0.82652000  1.0
  C  C175  1  0.05922000  0.70234000  0.27112000  1.0
  C  C176  1  0.11024000  0.73308000  0.21048000  1.0
  C  C177  1  0.11008000  0.70411000  0.15917000  1.0
  C  C178  1  0.16704000  0.73377000  0.10433000  1.0
  C  C179  1  0.22545000  0.79272000  0.09889000  1.0
  C  C180  1  0.22526000  0.82148000  0.14988000  1.0
  C  C181  1  0.16709000  0.79198000  0.20482000  1.0
  C  C182  1  0.03805000  0.64387000  0.15993000  1.0
  C  C183  1  0.29052000  0.82034000  0.03621000  1.0
  C  C184  1  0.41049000  0.76620000  0.00658000  1.0
  C  C185  1  0.51590000  0.72278000  0.04337000  1.0
  C  C186  1  0.61072000  0.66680000  0.02416000  1.0
  C  C187  1  0.60368000  0.65435000  0.96616000  1.0
  C  C188  1  0.51084000  0.70021000  0.92779000  1.0
  C  C189  1  0.41366000  0.75587000  0.94768000  1.0
  C  C190  1  0.71247000  0.62200000  0.06828000  1.0
  C  C191  1  0.67724000  0.58977000  0.94881000  1.0
  C  C192  1  0.12752000  0.84727000  0.00330000  1.0
  C  C193  1  0.39614000  0.87533000  0.03570000  1.0
  O  O194  1  0.53991000  0.17201000  0.48714000  1.0
  O  O195  1  0.45697000  0.06693000  0.56749000  1.0
  O  O196  1  0.44477000  0.27850000  0.48189000  1.0
  O  O197  1  0.77310000  0.98237000  0.57559000  1.0
  O  O198  1  0.84452000  0.19554000  0.52352000  1.0
  O  O199  1  0.25947000  0.25530000  0.58134000  1.0
  O  O200  1  0.01537000  0.26710000  0.49050000  1.0
  O  O201  1  0.99151000  0.36505000  0.59484000  1.0
  O  O202  1  0.69508000  0.46736000  0.20969000  1.0
  O  O203  1  0.70377000  0.31988000  0.58378000  1.0
  O  O204  1  0.92399000  0.49959000  0.15698000  1.0
  O  O205  1  0.37638000  0.57418000  0.22271000  1.0
  O  O206  1  0.93451000  0.46199000  0.04148000  1.0
  O  O207  1  0.92920000  0.54335000  0.27085000  1.0
  O  O208  1  0.80292000  0.39125000  0.01137000  1.0
  O  O209  1  0.57937000  0.52831000  0.31360000  1.0
  O  O210  1  0.89409000  0.08014000  0.43790000  1.0
  O  O211  1  0.41138000  0.53651000  0.07927000  1.0
  O  O212  1  0.66308000  0.03283000  0.46032000  1.0
  O  O213  1  0.99932000  0.93443000  0.43173000  1.0
  O  O214  1  0.91583000  0.86020000  0.38560000  1.0
  O  O215  1  0.34425000  0.86912000  0.37627000  1.0
  O  O216  1  0.25467000  0.78922000  0.34078000  1.0
  O  O217  1  0.57572000  0.69956000  0.34213000  1.0
  O  O218  1  0.56610000  0.67006000  0.25283000  1.0
  O  O219  1  0.01479000  0.26137000  0.69108000  1.0
  O  O220  1  0.90231000  0.35921000  0.71689000  1.0
  O  O221  1  0.11945000  0.35449000  0.82128000  1.0
  O  O222  1  0.86162000  0.40426000  0.85964000  1.0
  O  O223  1  0.37466000  0.39317000  0.88193000  1.0
  O  O224  1  0.12848000  0.39497000  0.94358000  1.0
  O  O225  1  0.33042000  0.45801000  0.01064000  1.0
  O  O226  1  0.25197000  0.41849000  0.10279000  1.0
  O  O227  1  0.46010000  0.82799000  0.51286000  1.0
  O  O228  1  0.54303000  0.93306000  0.43251000  1.0
  O  O229  1  0.55523000  0.72150000  0.51811000  1.0
  O  O230  1  0.22690000  0.01764000  0.42441000  1.0
  O  O231  1  0.15548000  0.80446000  0.47648000  1.0
  O  O232  1  0.74053000  0.74470000  0.41866000  1.0
  O  O233  1  0.98465000  0.73290000  0.50949000  1.0
  O  O234  1  0.00850000  0.63495000  0.40516000  1.0
  O  O235  1  0.30492000  0.53265000  0.79032000  1.0
  O  O236  1  0.29623000  0.68012000  0.41622000  1.0
  O  O237  1  0.07600000  0.50041000  0.84302000  1.0
  O  O238  1  0.62362000  0.42582000  0.77729000  1.0
  O  O239  1  0.06549000  0.53801000  0.95852000  1.0
  O  O240  1  0.07080000  0.45665000  0.72915000  1.0
  O  O241  1  0.19708000  0.60875000  0.98863000  1.0
  O  O242  1  0.42062000  0.47169000  0.68640000  1.0
  O  O243  1  0.10590000  0.91986000  0.56210000  1.0
  O  O244  1  0.58862000  0.46349000  0.92073000  1.0
  O  O245  1  0.33692000  0.96717000  0.53968000  1.0
  O  O246  1  0.00070000  0.06558000  0.56827000  1.0
  O  O247  1  0.08417000  0.13980000  0.61440000  1.0
  O  O248  1  0.65574000  0.13088000  0.62373000  1.0
  O  O249  1  0.74534000  0.21078000  0.65922000  1.0
  O  O250  1  0.42429000  0.30044000  0.65787000  1.0
  O  O251  1  0.43390000  0.32994000  0.74717000  1.0
  O  O252  1  0.98521000  0.73863000  0.30892000  1.0
  O  O253  1  0.09769000  0.64079000  0.28312000  1.0
  O  O254  1  0.88054000  0.64552000  0.17872000  1.0
  O  O255  1  0.13838000  0.59574000  0.14036000  1.0
  O  O256  1  0.62534000  0.60683000  0.11806000  1.0
  O  O257  1  0.87152000  0.60503000  0.05642000  1.0
  O  O258  1  0.66958000  0.54199000  0.98935000  1.0
  O  O259  1  0.74803000  0.58151000  0.89721000  1.0
  F  F260  1  0.32554000  0.20246000  0.30594000  1.0
  F  F261  1  0.34400000  0.25209000  0.21640000  1.0
  F  F262  1  0.22528000  0.30545000  0.28974000  1.0
  F  F263  1  0.10744000  0.12218000  0.30046000  1.0
  F  F264  1  0.21663000  0.14462000  0.20941000  1.0
  F  F265  1  0.93697000  0.14907000  0.23027000  1.0
  F  F266  1  0.97293000  0.93607000  0.16882000  1.0
  F  F267  1  0.88097000  0.03843000  0.14962000  1.0
  F  F268  1  0.80546000  0.97122000  0.09794000  1.0
  F  F269  1  0.46214000  0.98615000  0.13030000  1.0
  F  F270  1  0.53378000  0.07457000  0.14982000  1.0
  F  F271  1  0.37548000  0.01999000  0.21619000  1.0
  F  F272  1  0.98988000  0.11322000  0.96465000  1.0
  F  F273  1  0.83632000  0.11952000  0.05014000  1.0
  F  F274  1  0.95373000  0.20110000  0.00629000  1.0
  F  F275  1  0.52714000  0.10847000  0.01911000  1.0
  F  F276  1  0.70179000  0.07051000  0.94593000  1.0
  F  F277  1  0.47508000  0.14373000  0.92829000  1.0
  F  F278  1  0.67447000  0.79753000  0.69405000  1.0
  F  F279  1  0.65597000  0.74791000  0.78359000  1.0
  F  F280  1  0.77473000  0.69454000  0.71026000  1.0
  F  F281  1  0.89255000  0.87782000  0.69953000  1.0
  F  F282  1  0.78335000  0.85538000  0.79058000  1.0
  F  F283  1  0.06302000  0.85093000  0.76973000  1.0
  F  F284  1  0.02706000  0.06393000  0.83117000  1.0
  F  F285  1  0.11903000  0.96157000  0.85038000  1.0
  F  F286  1  0.19453000  0.02879000  0.90206000  1.0
  F  F287  1  0.53784000  0.01385000  0.86970000  1.0
  F  F288  1  0.46621000  0.92543000  0.85018000  1.0
  F  F289  1  0.62451000  0.98001000  0.78382000  1.0
  F  F290  1  0.01010000  0.88677000  0.03537000  1.0
  F  F291  1  0.16368000  0.88050000  0.94987000  1.0
  F  F292  1  0.04629000  0.79889000  0.99371000  1.0
  F  F293  1  0.47285000  0.89153000  0.98089000  1.0
  F  F294  1  0.29820000  0.92949000  0.05408000  1.0
  F  F295  1  0.52493000  0.85627000  0.07172000  1.0
