# generated using pymatgen
data_CdH16C10S4(NO2)2
_symmetry_space_group_name_H-M   'P 1'
_cell_length_a   5.85690000
_cell_length_b   8.43389000
_cell_length_c   9.40221332
_cell_angle_alpha   64.36865685
_cell_angle_beta   79.66827635
_cell_angle_gamma   83.49090000
_symmetry_Int_Tables_number   1
_chemical_formula_structural   CdH16C10S4(NO2)2
_chemical_formula_sum   'Cd1 H16 C10 S4 N2 O4'
_cell_volume   411.60893112
_cell_formula_units_Z   1
loop_
 _symmetry_equiv_pos_site_id
 _symmetry_equiv_pos_as_xyz
  1  'x, y, z'
loop_
 _atom_site_type_symbol
 _atom_site_label
 _atom_site_symmetry_multiplicity
 _atom_site_fract_x
 _atom_site_fract_y
 _atom_site_fract_z
 _atom_site_occupancy
  Cd  Cd0  1  0.49999000  0.50000000  0.50000000  1.0
  H  H1  1  0.89188000  0.06179000  0.81716000  1.0
  H  H2  1  0.10813000  0.93821000  0.18284000  1.0
  H  H3  1  0.00341000  0.18596000  0.61057000  1.0
  H  H4  1  0.99659000  0.81404000  0.38943000  1.0
  H  H5  1  0.17350000  0.90834000  0.59104000  1.0
  H  H6  1  0.82651000  0.09166000  0.40896000  1.0
  H  H7  1  0.89215000  0.84986000  0.69840000  1.0
  H  H8  1  0.10786000  0.15014000  0.30160000  1.0
  H  H9  1  0.04725000  0.73231000  0.95662000  1.0
  H  H10  1  0.95276000  0.26769000  0.04338000  1.0
  H  H11  1  0.22481000  0.63740000  0.83666000  1.0
  H  H12  1  0.77519000  0.36260000  0.16335000  1.0
  H  H13  1  0.53206000  0.83803000  0.76726000  1.0
  H  H14  1  0.46795000  0.16197000  0.23275000  1.0
  H  H15  1  0.43361000  0.80716000  0.96924000  1.0
  H  H16  1  0.56639000  0.19283000  0.03077000  1.0
  C  C17  1  0.02875000  0.06727000  0.71886000  1.0
  C  C18  1  0.97126000  0.93272000  0.28115000  1.0
  C  C19  1  0.05939000  0.89354000  0.70218000  1.0
  C  C20  1  0.94062000  0.10646000  0.29782000  1.0
  C  C21  1  0.17113000  0.76129000  0.84681000  1.0
  C  C22  1  0.82888000  0.23872000  0.15319000  1.0
  C  C23  1  0.38211000  0.84924000  0.85140000  1.0
  C  C24  1  0.61789000  0.15075000  0.14861000  1.0
  C  C25  1  0.05350000  0.47992000  0.32746000  1.0
  C  C26  1  0.94648000  0.52008000  0.67253000  1.0
  S  S27  1  0.29909000  0.08069000  0.77951000  1.0
  S  S28  1  0.70091000  0.91931000  0.22049000  1.0
  S  S29  1  0.32604000  0.50266000  0.25026000  1.0
  S  S30  1  0.67392000  0.49734000  0.74974000  1.0
  N  N31  1  0.85533000  0.46014000  0.38270000  1.0
  N  N32  1  0.14466000  0.53987000  0.61728000  1.0
  O  O33  1  0.26133000  0.13950000  0.90675000  1.0
  O  O34  1  0.73868000  0.86050000  0.09325000  1.0
  O  O35  1  0.46590000  0.17722000  0.63701000  1.0
  O  O36  1  0.53411000  0.82278000  0.36298000  1.0
