# generated using pymatgen
data_AlH12C21(NO2)3
_symmetry_space_group_name_H-M   'P 1'
_cell_length_a   3.98650000
_cell_length_b   27.87667135
_cell_length_c   27.87640000
_cell_angle_alpha   59.99896601
_cell_angle_beta   90.00040000
_cell_angle_gamma   89.99880003
_symmetry_Int_Tables_number   1
_chemical_formula_structural   AlH12C21(NO2)3
_chemical_formula_sum   'Al2 H24 C42 N6 O12'
_cell_volume   2682.84435286
_cell_formula_units_Z   2
loop_
 _symmetry_equiv_pos_site_id
 _symmetry_equiv_pos_as_xyz
  1  'x, y, z'
loop_
 _atom_site_type_symbol
 _atom_site_label
 _atom_site_symmetry_multiplicity
 _atom_site_fract_x
 _atom_site_fract_y
 _atom_site_fract_z
 _atom_site_occupancy
  Al  Al0  1  0.99658000  0.50000000  0.00000000  1.0
  Al  Al1  1  0.99663000  0.16666000  0.66668000  1.0
  H  H2  1  0.79348000  0.30319000  0.50930000  1.0
  H  H3  1  0.77709000  0.35066000  0.40516000  1.0
  H  H4  1  0.23321000  0.21258000  0.41559000  1.0
  H  H5  1  0.21284000  0.16838000  0.51965000  1.0
  H  H6  1  0.23315000  0.45409000  0.25108000  1.0
  H  H7  1  0.77706000  0.31600000  0.26152000  1.0
  H  H8  1  0.79344000  0.36347000  0.15738000  1.0
  H  H9  1  0.21283000  0.49829000  0.14702000  1.0
  H  H10  1  0.79351000  0.18751000  0.80320000  1.0
  H  H11  1  0.77714000  0.24419000  0.85066000  1.0
  H  H12  1  0.23324000  0.37184000  0.71257000  1.0
  H  H13  1  0.21288000  0.31198000  0.66838000  1.0
  H  H14  1  0.23324000  0.29483000  0.95409000  1.0
  H  H15  1  0.77710000  0.42249000  0.81600000  1.0
  H  H16  1  0.79344000  0.47916000  0.86347000  1.0
  H  H17  1  0.21285000  0.35469000  0.99829000  1.0
  H  H18  1  0.79349000  0.00929000  0.68751000  1.0
  H  H19  1  0.77716000  0.90515000  0.74419000  1.0
  H  H20  1  0.23329000  0.91558000  0.87184000  1.0
  H  H21  1  0.21288000  0.01964000  0.81198000  1.0
  H  H22  1  0.23325000  0.75108000  0.79483000  1.0
  H  H23  1  0.77713000  0.76151000  0.92249000  1.0
  H  H24  1  0.79342000  0.65737000  0.97916000  1.0
  H  H25  1  0.21285000  0.64702000  0.85470000  1.0
  C  C26  1  0.49773000  0.58505000  0.95438000  1.0
  C  C27  1  0.49773000  0.46057000  0.08506000  1.0
  C  C28  1  0.49772000  0.45437000  0.96057000  1.0
  C  C29  1  0.49776000  0.20609000  0.58162000  1.0
  C  C30  1  0.49778000  0.21230000  0.70610000  1.0
  C  C31  1  0.49778000  0.08161000  0.71230000  1.0
  C  C32  1  0.49992000  0.23351000  0.52017000  1.0
  C  C33  1  0.66273000  0.28463000  0.48823000  1.0
  C  C34  1  0.65522000  0.31081000  0.43084000  1.0
  C  C35  1  0.49824000  0.28443000  0.40502000  1.0
  C  C36  1  0.34985000  0.23210000  0.43689000  1.0
  C  C37  1  0.34063000  0.20768000  0.49418000  1.0
  C  C38  1  0.34982000  0.43457000  0.22977000  1.0
  C  C39  1  0.49819000  0.38224000  0.26165000  1.0
  C  C40  1  0.65518000  0.35585000  0.23584000  1.0
  C  C41  1  0.66273000  0.38203000  0.17844000  1.0
  C  C42  1  0.49992000  0.43315000  0.14650000  1.0
  C  C43  1  0.34056000  0.45900000  0.17248000  1.0
  C  C44  1  0.49997000  0.24632000  0.73352000  1.0
  C  C45  1  0.66277000  0.22714000  0.78463000  1.0
  C  C46  1  0.65528000  0.25835000  0.81082000  1.0
  C  C47  1  0.49827000  0.31056000  0.78443000  1.0
  C  C48  1  0.34989000  0.33101000  0.73210000  1.0
  C  C49  1  0.34066000  0.29814000  0.70768000  1.0
  C  C50  1  0.34985000  0.33566000  0.93457000  1.0
  C  C51  1  0.49825000  0.35611000  0.88224000  1.0
  C  C52  1  0.65522000  0.40832000  0.85585000  1.0
  C  C53  1  0.66271000  0.43953000  0.88204000  1.0
  C  C54  1  0.49990000  0.42034000  0.93316000  1.0
  C  C55  1  0.34062000  0.36853000  0.95899000  1.0
  C  C56  1  0.49996000  0.02016000  0.74633000  1.0
  C  C57  1  0.66277000  0.98823000  0.72714000  1.0
  C  C58  1  0.65527000  0.93083000  0.75836000  1.0
  C  C59  1  0.49831000  0.90501000  0.81056000  1.0
  C  C60  1  0.34991000  0.93689000  0.83101000  1.0
  C  C61  1  0.34068000  0.99418000  0.79814000  1.0
  C  C62  1  0.34990000  0.72977000  0.83566000  1.0
  C  C63  1  0.49828000  0.76165000  0.85611000  1.0
  C  C64  1  0.65522000  0.73583000  0.90832000  1.0
  C  C65  1  0.66275000  0.67843000  0.93954000  1.0
  C  C66  1  0.49991000  0.64650000  0.92035000  1.0
  C  C67  1  0.34061000  0.67248000  0.86853000  1.0
  N  N68  1  0.48705000  0.30712000  0.34705000  1.0
  N  N69  1  0.48703000  0.35955000  0.31962000  1.0
  N  N70  1  0.48709000  0.34583000  0.80712000  1.0
  N  N71  1  0.48710000  0.32084000  0.85955000  1.0
  N  N72  1  0.48716000  0.84705000  0.84583000  1.0
  N  N73  1  0.48713000  0.81961000  0.82084000  1.0
  O  O74  1  0.26164000  0.44544000  0.99504000  1.0
  O  O75  1  0.26163000  0.55952000  0.94544000  1.0
  O  O76  1  0.26166000  0.49503000  0.05952000  1.0
  O  O77  1  0.73118000  0.49008000  0.94817000  1.0
  O  O78  1  0.73123000  0.44816000  0.06176000  1.0
  O  O79  1  0.73120000  0.56174000  0.99009000  1.0
  O  O80  1  0.26171000  0.10714000  0.72123000  1.0
  O  O81  1  0.26167000  0.17163000  0.60715000  1.0
  O  O82  1  0.26171000  0.22122000  0.67163000  1.0
  O  O83  1  0.73126000  0.10492000  0.67659000  1.0
  O  O84  1  0.73128000  0.17659000  0.71850000  1.0
  O  O85  1  0.73124000  0.21849000  0.60492000  1.0
