# generated using pymatgen
data_TmH7(C3O4)2
_symmetry_space_group_name_H-M   'P 1'
_cell_length_a   8.01450000
_cell_length_b   9.43729000
_cell_length_c   12.23280000
_cell_angle_alpha   91.31560000
_cell_angle_beta   90.00000000
_cell_angle_gamma   90.00000000
_symmetry_Int_Tables_number   1
_chemical_formula_structural   TmH7(C3O4)2
_chemical_formula_sum   'Tm4 H28 C24 O32'
_cell_volume   924.98589882
_cell_formula_units_Z   4
loop_
 _symmetry_equiv_pos_site_id
 _symmetry_equiv_pos_as_xyz
  1  'x, y, z'
loop_
 _atom_site_type_symbol
 _atom_site_label
 _atom_site_symmetry_multiplicity
 _atom_site_fract_x
 _atom_site_fract_y
 _atom_site_fract_z
 _atom_site_occupancy
  Tm  Tm0  1  0.44255000  0.30748000  0.58321000  1.0
  Tm  Tm1  1  0.94255000  0.19252000  0.91679000  1.0
  Tm  Tm2  1  0.55745000  0.69252000  0.41679000  1.0
  Tm  Tm3  1  0.05745000  0.80748000  0.08321000  1.0
  H  H4  1  0.19203000  0.67065000  0.79233000  1.0
  H  H5  1  0.69202000  0.82935000  0.70766000  1.0
  H  H6  1  0.80797000  0.32935000  0.20767000  1.0
  H  H7  1  0.30797000  0.17065000  0.29234000  1.0
  H  H8  1  0.33629000  0.93585000  0.68212000  1.0
  H  H9  1  0.83629000  0.56415000  0.81788000  1.0
  H  H10  1  0.66371000  0.06415000  0.31788000  1.0
  H  H11  1  0.16371000  0.43585000  0.18212000  1.0
  H  H12  1  0.69440000  0.81686000  0.21912000  1.0
  H  H13  1  0.19440000  0.68314000  0.28088000  1.0
  H  H14  1  0.30560000  0.18314000  0.78088000  1.0
  H  H15  1  0.80560000  0.31686000  0.71912000  1.0
  H  H16  1  0.51806000  0.75194000  0.18321000  1.0
  H  H17  1  0.01806000  0.74806000  0.31679000  1.0
  H  H18  1  0.48193000  0.24807000  0.81679000  1.0
  H  H19  1  0.98193000  0.25193000  0.68321000  1.0
  H  H20  1  0.35995000  0.96312000  0.42362000  1.0
  H  H21  1  0.85995000  0.53688000  0.07638000  1.0
  H  H22  1  0.64005000  0.03688000  0.57638000  1.0
  H  H23  1  0.14005000  0.46312000  0.92362000  1.0
  H  H24  1  0.29321000  0.87568000  0.32127000  1.0
  H  H25  1  0.79320000  0.62432000  0.17873000  1.0
  H  H26  1  0.70680000  0.12432000  0.67873000  1.0
  H  H27  1  0.20679000  0.37568000  0.82128000  1.0
  H  H28  1  0.10969000  0.86460000  0.49762000  1.0
  H  H29  1  0.60969000  0.63540000  0.00238000  1.0
  H  H30  1  0.89031000  0.13540000  0.50238000  1.0
  H  H31  1  0.39031000  0.36460000  0.99762000  1.0
  C  C32  1  0.32069000  0.65172000  0.63346000  1.0
  C  C33  1  0.82069000  0.84829000  0.86654000  1.0
  C  C34  1  0.67931000  0.34829000  0.36654000  1.0
  C  C35  1  0.17931000  0.15171000  0.13346000  1.0
  C  C36  1  0.25412000  0.73252000  0.73000000  1.0
  C  C37  1  0.75411000  0.76748000  0.77000000  1.0
  C  C38  1  0.74588000  0.26748000  0.27000000  1.0
  C  C39  1  0.24588000  0.23252000  0.23000000  1.0
  C  C40  1  0.27490000  0.87295000  0.74429000  1.0
  C  C41  1  0.77489000  0.62705000  0.75571000  1.0
  C  C42  1  0.72510000  0.12705000  0.25571000  1.0
  C  C43  1  0.22510000  0.37295000  0.24429000  1.0
  C  C44  1  0.20148000  0.94946000  0.84009000  1.0
  C  C45  1  0.70148000  0.55054000  0.65991000  1.0
  C  C46  1  0.79852000  0.05054000  0.15991000  1.0
  C  C47  1  0.29852000  0.44946000  0.34009000  1.0
  C  C48  1  0.84231000  0.85534000  0.45910000  1.0
  C  C49  1  0.34231000  0.64466000  0.04089000  1.0
  C  C50  1  0.15770000  0.14466000  0.54089000  1.0
  C  C51  1  0.65769000  0.35534000  0.95911000  1.0
  C  C52  1  0.99737000  0.92965000  0.49169000  1.0
  C  C53  1  0.49737000  0.57035000  0.00831000  1.0
  C  C54  1  0.00263000  0.07035000  0.50831000  1.0
  C  C55  1  0.50263000  0.42965000  0.99169000  1.0
  O  O56  1  0.33698000  0.51898000  0.64510000  1.0
  O  O57  1  0.83697000  0.98103000  0.85489000  1.0
  O  O58  1  0.66303000  0.48102000  0.35490000  1.0
  O  O59  1  0.16302000  0.01897000  0.14510000  1.0
  O  O60  1  0.36048000  0.71977000  0.54842000  1.0
  O  O61  1  0.86048000  0.78023000  0.95158000  1.0
  O  O62  1  0.63952000  0.28023000  0.45158000  1.0
  O  O63  1  0.13952000  0.21977000  0.04842000  1.0
  O  O64  1  0.33611000  0.58108000  0.32672000  1.0
  O  O65  1  0.83610000  0.91892000  0.17329000  1.0
  O  O66  1  0.66389000  0.41892000  0.67328000  1.0
  O  O67  1  0.16390000  0.08108000  0.82672000  1.0
  O  O68  1  0.67152000  0.61481000  0.57315000  1.0
  O  O69  1  0.17152000  0.88519000  0.92685000  1.0
  O  O70  1  0.32848000  0.38519000  0.42685000  1.0
  O  O71  1  0.82848000  0.11481000  0.07315000  1.0
  O  O72  1  0.61457000  0.73735000  0.23386000  1.0
  O  O73  1  0.11457000  0.76265000  0.26614000  1.0
  O  O74  1  0.38543000  0.26265000  0.76614000  1.0
  O  O75  1  0.88543000  0.23735000  0.73386000  1.0
  O  O76  1  0.39457000  0.89396000  0.36530000  1.0
  O  O77  1  0.89457000  0.60604000  0.13470000  1.0
  O  O78  1  0.60543000  0.10604000  0.63470000  1.0
  O  O79  1  0.10543000  0.39396000  0.86530000  1.0
  O  O80  1  0.85497000  0.74095000  0.40146000  1.0
  O  O81  1  0.35497000  0.75905000  0.09853000  1.0
  O  O82  1  0.14502000  0.25905000  0.59853000  1.0
  O  O83  1  0.64502000  0.24095000  0.90147000  1.0
  O  O84  1  0.69751000  0.90201000  0.48585000  1.0
  O  O85  1  0.19751000  0.59799000  0.01415000  1.0
  O  O86  1  0.30249000  0.09799000  0.51415000  1.0
  O  O87  1  0.80249000  0.40201000  0.98585000  1.0
