# generated using pymatgen
data_AgH7C16(NO)4
_symmetry_space_group_name_H-M   'P 1'
_cell_length_a   7.59642000
_cell_length_b   9.48689000
_cell_length_c   10.38680000
_cell_angle_alpha   63.52950000
_cell_angle_beta   80.33590000
_cell_angle_gamma   89.41130000
_symmetry_Int_Tables_number   1
_chemical_formula_structural   AgH7C16(NO)4
_chemical_formula_sum   'Ag2 H14 C32 N8 O8'
_cell_volume   658.78674246
_cell_formula_units_Z   2
loop_
 _symmetry_equiv_pos_site_id
 _symmetry_equiv_pos_as_xyz
  1  'x, y, z'
loop_
 _atom_site_type_symbol
 _atom_site_label
 _atom_site_symmetry_multiplicity
 _atom_site_fract_x
 _atom_site_fract_y
 _atom_site_fract_z
 _atom_site_occupancy
  Ag  Ag0  1  0.45424000  0.31978000  0.38657000  1.0
  Ag  Ag1  1  0.54576000  0.68023000  0.61343000  1.0
  H  H2  1  0.95327000  0.77458000  0.37860000  1.0
  H  H3  1  0.04673000  0.22541000  0.62140000  1.0
  H  H4  1  0.57813000  0.00282000  0.37486000  1.0
  H  H5  1  0.42187000  0.99718000  0.62515000  1.0
  H  H6  1  0.76950000  0.91360000  0.21077000  1.0
  H  H7  1  0.23049000  0.08640000  0.78923000  1.0
  H  H8  1  0.92523000  0.12082000  0.96077000  1.0
  H  H9  1  0.07477000  0.87918000  0.03923000  1.0
  H  H10  1  0.80727000  0.88983000  0.78680000  1.0
  H  H11  1  0.19273000  0.11017000  0.21320000  1.0
  H  H12  1  0.61748000  0.95149000  0.97410000  1.0
  H  H13  1  0.38253000  0.04851000  0.02589000  1.0
  H  H14  1  0.47158000  0.72459000  0.21459000  1.0
  H  H15  1  0.52844000  0.27541000  0.78542000  1.0
  C  C16  1  0.64784000  0.08877000  0.26795000  1.0
  C  C17  1  0.35215000  0.91123000  0.73206000  1.0
  C  C18  1  0.75568000  0.03933000  0.17445000  1.0
  C  C19  1  0.24432000  0.96067000  0.82555000  1.0
  C  C20  1  0.84083000  0.15180000  0.03871000  1.0
  C  C21  1  0.15917000  0.84821000  0.96130000  1.0
  C  C22  1  0.81779000  0.31229000  0.99861000  1.0
  C  C23  1  0.18221000  0.68771000  0.00139000  1.0
  C  C24  1  0.70587000  0.35248000  0.09916000  1.0
  C  C25  1  0.29413000  0.64752000  0.90084000  1.0
  C  C26  1  0.68121000  0.51863000  0.06157000  1.0
  C  C27  1  0.31879000  0.48137000  0.93843000  1.0
  C  C28  1  0.76749000  0.63793000  0.92467000  1.0
  C  C29  1  0.23251000  0.36207000  0.07533000  1.0
  C  C30  1  0.74296000  0.79663000  0.89207000  1.0
  C  C31  1  0.25704000  0.20337000  0.10793000  1.0
  C  C32  1  0.63729000  0.82980000  0.99565000  1.0
  C  C33  1  0.36271000  0.17021000  0.00435000  1.0
  C  C34  1  0.55629000  0.70474000  0.12917000  1.0
  C  C35  1  0.44372000  0.29526000  0.87083000  1.0
  C  C36  1  0.90800000  0.43571000  0.85903000  1.0
  C  C37  1  0.09200000  0.56429000  0.14097000  1.0
  C  C38  1  0.88134000  0.59614000  0.82241000  1.0
  C  C39  1  0.11867000  0.40386000  0.17759000  1.0
  C  C40  1  0.10168000  0.51190000  0.64071000  1.0
  C  C41  1  0.89831000  0.48810000  0.35928000  1.0
  C  C42  1  0.07081000  0.67281000  0.60282000  1.0
  C  C43  1  0.92919000  0.32719000  0.39718000  1.0
  C  C44  1  0.23311000  0.47204000  0.53789000  1.0
  C  C45  1  0.76689000  0.52796000  0.46210000  1.0
  C  C46  1  0.15478000  0.81046000  0.45908000  1.0
  C  C47  1  0.84521000  0.18953000  0.54091000  1.0
  N  N48  1  0.62217000  0.24045000  0.23130000  1.0
  N  N49  1  0.37783000  0.75955000  0.76870000  1.0
  N  N50  1  0.57732000  0.55374000  0.16079000  1.0
  N  N51  1  0.42269000  0.44626000  0.83921000  1.0
  N  N52  1  0.01928000  0.39616000  0.76668000  1.0
  N  N53  1  0.98071000  0.60384000  0.23332000  1.0
  N  N54  1  0.96256000  0.71320000  0.69326000  1.0
  N  N55  1  0.03745000  0.28680000  0.30674000  1.0
  O  O56  1  0.33554000  0.58286000  0.43862000  1.0
  O  O57  1  0.66445000  0.41714000  0.56137000  1.0
  O  O58  1  0.23109000  0.32679000  0.55865000  1.0
  O  O59  1  0.76891000  0.67320000  0.44136000  1.0
  O  O60  1  0.28624000  0.89111000  0.44916000  1.0
  O  O61  1  0.71376000  0.10890000  0.55083000  1.0
  O  O62  1  0.06884000  0.84588000  0.34828000  1.0
  O  O63  1  0.93116000  0.15411000  0.65172000  1.0
