# generated using pymatgen
data_ZnCdH10(C7N3)2
_symmetry_space_group_name_H-M   'P 1'
_cell_length_a   8.35675000
_cell_length_b   8.35669000
_cell_length_c   13.92020000
_cell_angle_alpha   90.00030000
_cell_angle_beta   90.00010000
_cell_angle_gamma   69.32300000
_symmetry_Int_Tables_number   1
_chemical_formula_structural   ZnCdH10(C7N3)2
_chemical_formula_sum   'Zn2 Cd2 H20 C28 N12'
_cell_volume   909.49605896
_cell_formula_units_Z   2
loop_
 _symmetry_equiv_pos_site_id
 _symmetry_equiv_pos_as_xyz
  1  'x, y, z'
loop_
 _atom_site_type_symbol
 _atom_site_label
 _atom_site_symmetry_multiplicity
 _atom_site_fract_x
 _atom_site_fract_y
 _atom_site_fract_z
 _atom_site_occupancy
  Zn  Zn0  1  0.50000000  0.50000000  0.75000000  1.0
  Zn  Zn1  1  0.50000000  0.50000000  0.25000000  1.0
  Cd  Cd2  1  0.00000000  0.50000000  0.50000000  1.0
  Cd  Cd3  1  0.50000000  0.00000000  1.00000000  1.0
  H  H4  1  0.83695000  0.80659000  0.64845000  1.0
  H  H5  1  0.16305000  0.19341000  0.64845000  1.0
  H  H6  1  0.80659000  0.83695000  0.85155000  1.0
  H  H7  1  0.19341000  0.16305000  0.85155000  1.0
  H  H8  1  0.16305000  0.19341000  0.35155000  1.0
  H  H9  1  0.83695000  0.80659000  0.35155000  1.0
  H  H10  1  0.19341000  0.16305000  0.14845000  1.0
  H  H11  1  0.80659000  0.83695000  0.14845000  1.0
  H  H12  1  0.58059000  0.28262000  0.50000000  1.0
  H  H13  1  0.41942000  0.71738000  0.50000000  1.0
  H  H14  1  0.28261000  0.58058000  0.00000000  1.0
  H  H15  1  0.71739000  0.41941000  0.00000000  1.0
  H  H16  1  0.66723000  0.12083000  0.65540000  1.0
  H  H17  1  0.33277000  0.87918000  0.65539000  1.0
  H  H18  1  0.12082000  0.66722000  0.84460000  1.0
  H  H19  1  0.87918000  0.33277000  0.84461000  1.0
  H  H20  1  0.33278000  0.87917000  0.34460000  1.0
  H  H21  1  0.66723000  0.12082000  0.34461000  1.0
  H  H22  1  0.87917000  0.33277000  0.15540000  1.0
  H  H23  1  0.12083000  0.66722000  0.15540000  1.0
  C  C24  1  0.70454000  0.46961000  0.66832000  1.0
  C  C25  1  0.29545000  0.53039000  0.66832000  1.0
  C  C26  1  0.46960000  0.70454000  0.83169000  1.0
  C  C27  1  0.53039000  0.29545000  0.83169000  1.0
  C  C28  1  0.29545000  0.53040000  0.33168000  1.0
  C  C29  1  0.70454000  0.46961000  0.33168000  1.0
  C  C30  1  0.53040000  0.29546000  0.16832000  1.0
  C  C31  1  0.46960000  0.70454000  0.16831000  1.0
  C  C32  1  0.79610000  0.88230000  0.58310000  1.0
  C  C33  1  0.20390000  0.11770000  0.58310000  1.0
  C  C34  1  0.88230000  0.79610000  0.91690000  1.0
  C  C35  1  0.11770000  0.20390000  0.91690000  1.0
  C  C36  1  0.20391000  0.11770000  0.41690000  1.0
  C  C37  1  0.79610000  0.88230000  0.41690000  1.0
  C  C38  1  0.11770000  0.20391000  0.08310000  1.0
  C  C39  1  0.88230000  0.79609000  0.08310000  1.0
  C  C40  1  0.65370000  0.14582000  0.50000000  1.0
  C  C41  1  0.34630000  0.85417000  0.50000000  1.0
  C  C42  1  0.14583000  0.65371000  0.00000000  1.0
  C  C43  1  0.85417000  0.34629000  0.00000000  1.0
  C  C44  1  0.70182000  0.05678000  0.58631000  1.0
  C  C45  1  0.29819000  0.94322000  0.58631000  1.0
  C  C46  1  0.05679000  0.70181000  0.91370000  1.0
  C  C47  1  0.94321000  0.29819000  0.91369000  1.0
  C  C48  1  0.29818000  0.94322000  0.41369000  1.0
  C  C49  1  0.70181000  0.05678000  0.41369000  1.0
  C  C50  1  0.94321000  0.29820000  0.08631000  1.0
  C  C51  1  0.05678000  0.70180000  0.08631000  1.0
  N  N52  1  0.82179000  0.46083000  0.62017000  1.0
  N  N53  1  0.17821000  0.53918000  0.62016000  1.0
  N  N54  1  0.46082000  0.82179000  0.87984000  1.0
  N  N55  1  0.53918000  0.17822000  0.87983000  1.0
  N  N56  1  0.17821000  0.53918000  0.37984000  1.0
  N  N57  1  0.82179000  0.46083000  0.37984000  1.0
  N  N58  1  0.53918000  0.17822000  0.12017000  1.0
  N  N59  1  0.46082000  0.82179000  0.12017000  1.0
  N  N60  1  0.84223000  0.79652000  0.50000000  1.0
  N  N61  1  0.15778000  0.20347000  0.50000000  1.0
  N  N62  1  0.79652000  0.84223000  0.00000000  1.0
  N  N63  1  0.20348000  0.15777000  1.00000000  1.0
