# generated using pymatgen
data_CdSi2H36C32(BrN2)2
_symmetry_space_group_name_H-M   'P 1'
_cell_length_a   8.69085000
_cell_length_b   10.55740000
_cell_length_c   12.58920000
_cell_angle_alpha   76.70000000
_cell_angle_beta   87.86460000
_cell_angle_gamma   66.44180000
_symmetry_Int_Tables_number   1
_chemical_formula_structural   CdSi2H36C32(BrN2)2
_chemical_formula_sum   'Cd1 Si2 H36 C32 Br2 N4'
_cell_volume   1028.48553361
_cell_formula_units_Z   1
loop_
 _symmetry_equiv_pos_site_id
 _symmetry_equiv_pos_as_xyz
  1  'x, y, z'
loop_
 _atom_site_type_symbol
 _atom_site_label
 _atom_site_symmetry_multiplicity
 _atom_site_fract_x
 _atom_site_fract_y
 _atom_site_fract_z
 _atom_site_occupancy
  Cd  Cd0  1  0.00000000  0.00000000  0.00000000  1.0
  Si  Si1  1  0.71379000  0.69215000  0.64844000  1.0
  Si  Si2  1  0.28621000  0.30785000  0.35156000  1.0
  H  H3  1  0.70373000  0.32531000  0.98410000  1.0
  H  H4  1  0.29627000  0.67469000  0.01590000  1.0
  H  H5  1  0.60425000  0.57253000  0.86560000  1.0
  H  H6  1  0.39575000  0.42747000  0.13440000  1.0
  H  H7  1  0.96129000  0.39655000  0.63413000  1.0
  H  H8  1  0.03870000  0.60345000  0.36587000  1.0
  H  H9  1  0.04984000  0.16109000  0.76503000  1.0
  H  H10  1  0.95016000  0.83891000  0.23497000  1.0
  H  H11  1  0.14599000  0.78865000  0.83430000  1.0
  H  H12  1  0.85401000  0.21136000  0.16569000  1.0
  H  H13  1  0.05616000  0.66740000  0.71573000  1.0
  H  H14  1  0.94384000  0.33260000  0.28427000  1.0
  H  H15  1  0.54058000  0.93235000  0.76404000  1.0
  H  H16  1  0.45942000  0.06765000  0.23596000  1.0
  H  H17  1  0.65416000  0.03339000  0.88558000  1.0
  H  H18  1  0.34584000  0.96661000  0.11442000  1.0
  H  H19  1  0.42193000  0.78752000  0.70053000  1.0
  H  H20  1  0.57807000  0.21249000  0.29947000  1.0
  H  H21  1  0.44258000  0.88640000  0.57029000  1.0
  H  H22  1  0.55743000  0.11360000  0.42971000  1.0
  H  H23  1  0.43099000  0.58875000  0.61529000  1.0
  H  H24  1  0.56900000  0.41125000  0.38471000  1.0
  H  H25  1  0.34502000  0.83451000  0.40907000  1.0
  H  H26  1  0.65498000  0.16549000  0.59093000  1.0
  H  H27  1  0.32296000  0.66308000  0.42506000  1.0
  H  H28  1  0.67704000  0.33692000  0.57494000  1.0
  H  H29  1  0.96475000  0.62477000  0.54233000  1.0
  H  H30  1  0.03525000  0.37523000  0.45767000  1.0
  H  H31  1  0.79248000  0.61612000  0.47641000  1.0
  H  H32  1  0.20752000  0.38388000  0.52360000  1.0
  H  H33  1  0.67445000  0.87388000  0.39527000  1.0
  H  H34  1  0.32555000  0.12612000  0.60473000  1.0
  H  H35  1  0.00885000  0.85433000  0.48896000  1.0
  H  H36  1  0.99115000  0.14567000  0.51105000  1.0
  H  H37  1  0.85316000  0.00355000  0.38691000  1.0
  H  H38  1  0.14684000  0.99645000  0.61309000  1.0
  C  C39  1  0.75835000  0.34836000  0.90618000  1.0
  C  C40  1  0.24164000  0.65163000  0.09382000  1.0
  C  C41  1  0.70264000  0.48473000  0.83871000  1.0
  C  C42  1  0.29736000  0.51527000  0.16129000  1.0
  C  C43  1  0.77523000  0.50759000  0.73825000  1.0
  C  C44  1  0.22476000  0.49241000  0.26175000  1.0
  C  C45  1  0.90016000  0.38822000  0.71098000  1.0
  C  C46  1  0.09983000  0.61178000  0.28902000  1.0
  C  C47  1  0.95027000  0.25523000  0.78326000  1.0
  C  C48  1  0.04973000  0.74477000  0.21673000  1.0
  C  C49  1  0.01308000  0.81480000  0.81670000  1.0
  C  C50  1  0.98692000  0.18520000  0.18330000  1.0
  C  C51  1  0.96088000  0.74994000  0.74956000  1.0
  C  C52  1  0.03912000  0.25006000  0.25044000  1.0
  C  C53  1  0.78824000  0.78988000  0.72786000  1.0
  C  C54  1  0.21176000  0.21012000  0.27214000  1.0
  C  C55  1  0.67648000  0.89691000  0.77499000  1.0
  C  C56  1  0.32352000  0.10309000  0.22501000  1.0
  C  C57  1  0.73846000  0.95491000  0.84335000  1.0
  C  C58  1  0.26154000  0.04509000  0.15665000  1.0
  C  C59  1  0.47826000  0.77789000  0.62105000  1.0
  C  C60  1  0.52174000  0.22211000  0.37895000  1.0
  C  C61  1  0.41934000  0.69266000  0.56585000  1.0
  C  C62  1  0.58067000  0.30734000  0.43415000  1.0
  C  C63  1  0.35995000  0.73171000  0.46146000  1.0
  C  C64  1  0.64005000  0.26829000  0.53854000  1.0
  C  C65  1  0.82938000  0.68141000  0.51837000  1.0
  C  C66  1  0.17062000  0.31859000  0.48163000  1.0
  C  C67  1  0.79203000  0.82564000  0.44634000  1.0
  C  C68  1  0.20797000  0.17436000  0.55366000  1.0
  C  C69  1  0.88910000  0.89822000  0.44109000  1.0
  C  C70  1  0.11090000  0.10178000  0.55891000  1.0
  Br  Br71  1  0.69786000  0.06788000  0.09936000  1.0
  Br  Br72  1  0.30215000  0.93212000  0.90064000  1.0
  N  N73  1  0.88156000  0.23581000  0.87962000  1.0
  N  N74  1  0.11844000  0.76418000  0.12038000  1.0
  N  N75  1  0.90379000  0.91433000  0.86420000  1.0
  N  N76  1  0.09621000  0.08567000  0.13580000  1.0
