# generated using pymatgen
data_Sn2H12C14N2O11
_symmetry_space_group_name_H-M   'P 1'
_cell_length_a   5.24005000
_cell_length_b   11.31460000
_cell_length_c   15.07320000
_cell_angle_alpha   89.99840000
_cell_angle_beta   98.60000000
_cell_angle_gamma   89.99780000
_symmetry_Int_Tables_number   1
_chemical_formula_structural   Sn2H12C14N2O11
_chemical_formula_sum   'Sn4 H24 C28 N4 O22'
_cell_volume   883.62785221
_cell_formula_units_Z   2
loop_
 _symmetry_equiv_pos_site_id
 _symmetry_equiv_pos_as_xyz
  1  'x, y, z'
loop_
 _atom_site_type_symbol
 _atom_site_label
 _atom_site_symmetry_multiplicity
 _atom_site_fract_x
 _atom_site_fract_y
 _atom_site_fract_z
 _atom_site_occupancy
  Sn  Sn0  1  0.06111000  0.76710000  0.89179000  1.0
  Sn  Sn1  1  0.93892000  0.26712000  0.10821000  1.0
  Sn  Sn2  1  0.45255000  0.78305000  0.66929000  1.0
  Sn  Sn3  1  0.54751000  0.28306000  0.33070000  1.0
  H  H4  1  0.11058000  0.02528000  0.48336000  1.0
  H  H5  1  0.88939000  0.52524000  0.51664000  1.0
  H  H6  1  0.26730000  0.54698000  0.08998000  1.0
  H  H7  1  0.73268000  0.04696000  0.91003000  1.0
  H  H8  1  0.49656000  0.51719000  0.65304000  1.0
  H  H9  1  0.50346000  0.01719000  0.34695000  1.0
  H  H10  1  0.79789000  0.50624000  0.66039000  1.0
  H  H11  1  0.20214000  0.00624000  0.33962000  1.0
  H  H12  1  0.94420000  0.05416000  0.84011000  1.0
  H  H13  1  0.05576000  0.55419000  0.15989000  1.0
  H  H14  1  0.72481000  0.88741000  0.80361000  1.0
  H  H15  1  0.27517000  0.38743000  0.19639000  1.0
  H  H16  1  0.38374000  0.26684000  0.69049000  1.0
  H  H17  1  0.61620000  0.76686000  0.30953000  1.0
  H  H18  1  0.69909000  0.32516000  0.58729000  1.0
  H  H19  1  0.30082000  0.82515000  0.41273000  1.0
  H  H20  1  0.93739000  0.17162000  0.51858000  1.0
  H  H21  1  0.06255000  0.67158000  0.48143000  1.0
  H  H22  1  0.99344000  0.31185000  0.77715000  1.0
  H  H23  1  0.00659000  0.81186000  0.22284000  1.0
  H  H24  1  0.64888000  0.25210000  0.86949000  1.0
  H  H25  1  0.35115000  0.75210000  0.13050000  1.0
  H  H26  1  0.47455000  0.40222000  0.96422000  1.0
  H  H27  1  0.52546000  0.90223000  0.03577000  1.0
  C  C28  1  0.26939000  0.03838000  0.73611000  1.0
  C  C29  1  0.73060000  0.53841000  0.26390000  1.0
  C  C30  1  0.45716000  0.08056000  0.67526000  1.0
  C  C31  1  0.54280000  0.58057000  0.32475000  1.0
  C  C32  1  0.49247000  0.20086000  0.65900000  1.0
  C  C33  1  0.50748000  0.70087000  0.34101000  1.0
  C  C34  1  0.66666667  0.23272000  0.60206000  1.0
  C  C35  1  0.33333333  0.73271000  0.39795000  1.0
  C  C36  1  0.80111000  0.14497000  0.56305000  1.0
  C  C37  1  0.19885000  0.64495000  0.43695000  1.0
  C  C38  1  0.75303000  0.02694000  0.58207000  1.0
  C  C39  1  0.24693000  0.52692000  0.41793000  1.0
  C  C40  1  0.88108000  0.92383000  0.54474000  1.0
  C  C41  1  0.11893000  0.42380000  0.45526000  1.0
  C  C42  1  0.18226000  0.54023000  0.76494000  1.0
  C  C43  1  0.81778000  0.04024000  0.23506000  1.0
  C  C44  1  0.99614000  0.49246000  0.82362000  1.0
  C  C45  1  0.00389000  0.99247000  0.17638000  1.0
  C  C46  1  0.91113000  0.37535000  0.81921000  1.0
  C  C47  1  0.08890000  0.87536000  0.18078000  1.0
  C  C48  1  0.72193000  0.34230000  0.87039000  1.0
  C  C49  1  0.27809000  0.84231000  0.12960000  1.0
  C  C50  1  0.62484000  0.42584000  0.92467000  1.0
  C  C51  1  0.37519000  0.92586000  0.07532000  1.0
  C  C52  1  0.72389000  0.54060000  0.92710000  1.0
  C  C53  1  0.27613000  0.04062000  0.07290000  1.0
  C  C54  1  0.62560000  0.63898000  0.98085000  1.0
  C  C55  1  0.37442000  0.13901000  0.01915000  1.0
  N  N56  1  0.58336000  0.99675000  0.63679000  1.0
  N  N57  1  0.41664000  0.49675000  0.36321000  1.0
  N  N58  1  0.90596000  0.57130000  0.87782000  1.0
  N  N59  1  0.09407000  0.07132000  0.12218000  1.0
  O  O60  1  0.23557000  0.92604000  0.74066000  1.0
  O  O61  1  0.76444000  0.42608000  0.25934000  1.0
  O  O62  1  0.15684000  0.11518000  0.77605000  1.0
  O  O63  1  0.84312000  0.61522000  0.22395000  1.0
  O  O64  1  0.07037000  0.94281000  0.49575000  1.0
  O  O65  1  0.92963000  0.44277000  0.50424000  1.0
  O  O66  1  0.82374000  0.82073000  0.55851000  1.0
  O  O67  1  0.17629000  0.32072000  0.44149000  1.0
  O  O68  1  0.25950000  0.64666000  0.78106000  1.0
  O  O69  1  0.74055000  0.14668000  0.21894000  1.0
  O  O70  1  0.24050000  0.47499000  0.70302000  1.0
  O  O71  1  0.75953000  0.97499000  0.29697000  1.0
  O  O72  1  0.42407000  0.62042000  0.01484000  1.0
  O  O73  1  0.57597000  0.12045000  0.98516000  1.0
  O  O74  1  0.74741000  0.73738000  0.98409000  1.0
  O  O75  1  0.25261000  0.23741000  0.01591000  1.0
  O  O76  1  0.64921000  0.54477000  0.62553000  1.0
  O  O77  1  0.35083000  0.04477000  0.37447000  1.0
  O  O78  1  0.82097000  0.00286000  0.86690000  1.0
  O  O79  1  0.17898000  0.50288000  0.13310000  1.0
  O  O80  1  0.73593000  0.80304000  0.78345000  1.0
  O  O81  1  0.26408000  0.30306000  0.21654000  1.0
