# generated using pymatgen
data_AlH11C12O5
_symmetry_space_group_name_H-M   'P 1'
_cell_length_a   6.73410000
_cell_length_b   18.07550000
_cell_length_c   20.63740000
_cell_angle_alpha   72.59490000
_cell_angle_beta   87.68930000
_cell_angle_gamma   87.43420000
_symmetry_Int_Tables_number   1
_chemical_formula_structural   AlH11C12O5
_chemical_formula_sum   'Al4 H44 C48 O20'
_cell_volume   2393.65502927
_cell_formula_units_Z   4
loop_
 _symmetry_equiv_pos_site_id
 _symmetry_equiv_pos_as_xyz
  1  'x, y, z'
loop_
 _atom_site_type_symbol
 _atom_site_label
 _atom_site_symmetry_multiplicity
 _atom_site_fract_x
 _atom_site_fract_y
 _atom_site_fract_z
 _atom_site_occupancy
  Al  Al0  1  0.12881000  0.49877000  0.49859000  1.0
  Al  Al1  1  0.62863000  0.49926000  0.49978000  1.0
  Al  Al2  1  0.61390000  0.00015000  0.00066000  1.0
  Al  Al3  1  0.11412000  0.99930000  0.99925000  1.0
  H  H4  1  0.61131000  0.78042000  0.67805000  1.0
  H  H5  1  0.21628000  0.19681000  0.35131000  1.0
  H  H6  1  0.55850000  0.82133000  0.77346000  1.0
  H  H7  1  0.07309000  0.15893000  0.26603000  1.0
  H  H8  1  0.11059000  0.85241000  0.73265000  1.0
  H  H9  1  0.63134000  0.15781000  0.23155000  1.0
  H  H10  1  0.87140000  0.88408000  0.70154000  1.0
  H  H11  1  0.44472000  0.11846000  0.29332000  1.0
  H  H12  1  0.92921000  0.80886000  0.62742000  1.0
  H  H13  1  0.57405000  0.20059000  0.35066000  1.0
  H  H14  1  0.15084000  0.72716000  0.81972000  1.0
  H  H15  1  0.55791000  0.28764000  0.15053000  1.0
  H  H16  1  0.59606000  0.72814000  0.83108000  1.0
  H  H17  1  0.03160000  0.25441000  0.21263000  1.0
  H  H18  1  0.10484000  0.63280000  0.76555000  1.0
  H  H19  1  0.50968000  0.38284000  0.20605000  1.0
  H  H20  1  0.63052000  0.55969000  0.77594000  1.0
  H  H21  1  0.53606000  0.60278000  0.83865000  1.0
  H  H22  1  0.37283000  0.56330000  0.79372000  1.0
  H  H23  1  0.34725000  0.70340000  0.74341000  1.0
  H  H24  1  0.46815000  0.66264000  0.68431000  1.0
  H  H25  1  0.03408000  0.41258000  0.27353000  1.0
  H  H26  1  0.90097000  0.35981000  0.23029000  1.0
  H  H27  1  0.78788000  0.38559000  0.29998000  1.0
  H  H28  1  0.88458000  0.24936000  0.34648000  1.0
  H  H29  1  0.04701000  0.30294000  0.37729000  1.0
  H  H30  1  0.14093000  0.76161000  0.67130000  1.0
  H  H31  1  0.68637000  0.26003000  0.27511000  1.0
  H  H32  1  0.09198000  0.55676000  0.90255000  1.0
  H  H33  1  0.24408000  0.62097000  0.92706000  1.0
  H  H34  1  0.05200000  0.57253000  0.98293000  1.0
  H  H35  1  0.94903000  0.71090000  0.92774000  1.0
  H  H36  1  0.79363000  0.64790000  0.90402000  1.0
  H  H37  1  0.34136000  0.45215000  0.08693000  1.0
  H  H38  1  0.51692000  0.40534000  0.04439000  1.0
  H  H39  1  0.27552000  0.43191000  0.01186000  1.0
  H  H40  1  0.29530000  0.28993000  0.06944000  1.0
  H  H41  1  0.12537000  0.33528000  0.11403000  1.0
  H  H42  1  0.86998000  0.61009000  0.80467000  1.0
  H  H43  1  0.24828000  0.38147000  0.20453000  1.0
  H  H44  1  0.36555000  0.59650000  0.49790000  1.0
  H  H45  1  0.88779000  0.39914000  0.50724000  1.0
  H  H46  1  0.37842000  0.90378000  0.99758000  1.0
  H  H47  1  0.85510000  0.09498000  0.00377000  1.0
  C  C48  1  0.40071000  0.42156000  0.42191000  1.0
  C  C49  1  0.86108000  0.57682000  0.57629000  1.0
  C  C50  1  0.37580000  0.39284000  0.60330000  1.0
  C  C51  1  0.87989000  0.60498000  0.39537000  1.0
  C  C52  1  0.87672000  0.66666667  0.33208000  1.0
  C  C53  1  0.37501000  0.33162000  0.66692000  1.0
  C  C54  1  0.87284000  0.71980000  0.27896000  1.0
  C  C55  1  0.37222000  0.27891000  0.72035000  1.0
  C  C56  1  0.86911000  0.77838000  0.22032000  1.0
  C  C57  1  0.36950000  0.22069000  0.77928000  1.0
  C  C58  1  0.86589000  0.83148000  0.16718000  1.0
  C  C59  1  0.36711000  0.16785000  0.83259000  1.0
  C  C60  1  0.65424000  0.76848000  0.78371000  1.0
  C  C61  1  0.13913000  0.21623000  0.24711000  1.0
  C  C62  1  0.96489000  0.83214000  0.72448000  1.0
  C  C63  1  0.49913000  0.17296000  0.25851000  1.0
  C  C64  1  0.98507000  0.77892000  0.67820000  1.0
  C  C65  1  0.54987000  0.23053000  0.29665000  1.0
  C  C66  1  0.85874000  0.62088000  0.62402000  1.0
  C  C67  1  0.40826000  0.37737000  0.37417000  1.0
  C  C68  1  0.86996000  0.78793000  0.79453000  1.0
  C  C69  1  0.33525000  0.21006000  0.20661000  1.0
  C  C70  1  0.64910000  0.73316000  0.72427000  1.0
  C  C71  1  0.18175000  0.24731000  0.30719000  1.0
  C  C72  1  0.86420000  0.70501000  0.71022000  1.0
  C  C73  1  0.37919000  0.29245000  0.28958000  1.0
  C  C74  1  0.96316000  0.65853000  0.77772000  1.0
  C  C75  1  0.38362000  0.34424000  0.21439000  1.0
  C  C76  1  0.99391000  0.71071000  0.82356000  1.0
  C  C77  1  0.40034000  0.29362000  0.16569000  1.0
  C  C78  1  0.86406000  0.65872000  0.66368000  1.0
  C  C79  1  0.40211000  0.33895000  0.33499000  1.0
  C  C80  1  0.87516000  0.83598000  0.83941000  1.0
  C  C81  1  0.32115000  0.16274000  0.16150000  1.0
  C  C82  1  0.88395000  0.87667000  0.87658000  1.0
  C  C83  1  0.32926000  0.12250000  0.12358000  1.0
  C  C84  1  0.36578000  0.10623000  0.89608000  1.0
  C  C85  1  0.86370000  0.89316000  0.10377000  1.0
  C  C86  1  0.34198000  0.07716000  0.07696000  1.0
  C  C87  1  0.88126000  0.92223000  0.92301000  1.0
  C  C88  1  0.48615000  0.67388000  0.73329000  1.0
  C  C89  1  0.50917000  0.59605000  0.78853000  1.0
  C  C90  1  0.00527000  0.29044000  0.33077000  1.0
  C  C91  1  0.92858000  0.36605000  0.28063000  1.0
  C  C92  1  0.94644000  0.66893000  0.89863000  1.0
  C  C93  1  0.09122000  0.60103000  0.92931000  1.0
  C  C94  1  0.28455000  0.32983000  0.10069000  1.0
  C  C95  1  0.35858000  0.40916000  0.05888000  1.0
  O  O96  1  0.54586000  0.41497000  0.57735000  1.0
  O  O97  1  0.05069000  0.57910000  0.41761000  1.0
  O  O98  1  0.22725000  0.43637000  0.44319000  1.0
  O  O99  1  0.69421000  0.55752000  0.56034000  1.0
  O  O100  1  0.20593000  0.41769000  0.57948000  1.0
  O  O101  1  0.71093000  0.58356000  0.42275000  1.0
  O  O102  1  0.03236000  0.56184000  0.55362000  1.0
  O  O103  1  0.56524000  0.44098000  0.43933000  1.0
  O  O104  1  0.37399000  0.54471000  0.49317000  1.0
  O  O105  1  0.88281000  0.45327000  0.50567000  1.0
  O  O106  1  0.17840000  0.05816000  0.05843000  1.0
  O  O107  1  0.70960000  0.93901000  0.94413000  1.0
  O  O108  1  0.53522000  0.08243000  0.92075000  1.0
  O  O109  1  0.03317000  0.91514000  0.07727000  1.0
  O  O110  1  0.51648000  0.06092000  0.05755000  1.0
  O  O111  1  0.04798000  0.94076000  0.93971000  1.0
  O  O112  1  0.69304000  0.91819000  0.08084000  1.0
  O  O113  1  0.19549000  0.08308000  0.92085000  1.0
  O  O114  1  0.36917000  0.95395000  0.00567000  1.0
  O  O115  1  0.85981000  0.04556000  0.99427000  1.0
