# generated using pymatgen
data_MnH8(C3N2)4
_symmetry_space_group_name_H-M   'P 1'
_cell_length_a   6.67756000
_cell_length_b   8.34542000
_cell_length_c   11.38290000
_cell_angle_alpha   71.36900000
_cell_angle_beta   87.01300000
_cell_angle_gamma   89.65990000
_symmetry_Int_Tables_number   1
_chemical_formula_structural   MnH8(C3N2)4
_chemical_formula_sum   'Mn2 H16 C24 N16'
_cell_volume   600.23834040
_cell_formula_units_Z   2
loop_
 _symmetry_equiv_pos_site_id
 _symmetry_equiv_pos_as_xyz
  1  'x, y, z'
loop_
 _atom_site_type_symbol
 _atom_site_label
 _atom_site_symmetry_multiplicity
 _atom_site_fract_x
 _atom_site_fract_y
 _atom_site_fract_z
 _atom_site_occupancy
  Mn  Mn0  1  0.30077000  0.79455000  0.01966000  1.0
  Mn  Mn1  1  0.79492000  0.20729000  0.98128000  1.0
  H  H2  1  0.86928000  0.70633000  0.94303000  1.0
  H  H3  1  0.35916000  0.27663000  0.09810000  1.0
  H  H4  1  0.74480000  0.68935000  0.74595000  1.0
  H  H5  1  0.25022000  0.30844000  0.30212000  1.0
  H  H6  1  0.95887000  0.81427000  0.54578000  1.0
  H  H7  1  0.47703000  0.19273000  0.48340000  1.0
  H  H8  1  0.27372000  0.96700000  0.55611000  1.0
  H  H9  1  0.78668000  0.04315000  0.45021000  1.0
  H  H10  1  0.84445000  0.26238000  0.52024000  1.0
  H  H11  1  0.36267000  0.75956000  0.46568000  1.0
  H  H12  1  0.17017000  0.42609000  0.46035000  1.0
  H  H13  1  0.68929000  0.59966000  0.50069000  1.0
  H  H14  1  0.37130000  0.46715000  0.62983000  1.0
  H  H15  1  0.86599000  0.54358000  0.31502000  1.0
  H  H16  1  0.22860000  0.36071000  0.84839000  1.0
  H  H17  1  0.70770000  0.63157000  0.11487000  1.0
  C  C18  1  0.95751000  0.75839000  0.85631000  1.0
  C  C19  1  0.45106000  0.23040000  0.17811000  1.0
  C  C20  1  0.88759000  0.75165000  0.74504000  1.0
  C  C21  1  0.39039000  0.24547000  0.29286000  1.0
  C  C22  1  0.00369000  0.82159000  0.63467000  1.0
  C  C23  1  0.51414000  0.18175000  0.39187000  1.0
  C  C24  1  0.18112000  0.90450000  0.63964000  1.0
  C  C25  1  0.68959000  0.09947000  0.37423000  1.0
  C  C26  1  0.24235000  0.90730000  0.75438000  1.0
  C  C27  1  0.74088000  0.08900000  0.25633000  1.0
  C  C28  1  0.42052000  0.99005000  0.77210000  1.0
  C  C29  1  0.92040000  0.00510000  0.22867000  1.0
  C  C30  1  0.68728000  0.12540000  0.75977000  1.0
  C  C31  1  0.18809000  0.87192000  0.24076000  1.0
  C  C32  1  0.86953000  0.22607000  0.71501000  1.0
  C  C33  1  0.36811000  0.77736000  0.27363000  1.0
  C  C34  1  0.93482000  0.28696000  0.58952000  1.0
  C  C35  1  0.44528000  0.72740000  0.39148000  1.0
  C  C36  1  0.11550000  0.37661000  0.55727000  1.0
  C  C37  1  0.62456000  0.63966000  0.41000000  1.0
  C  C38  1  0.22687000  0.40202000  0.65040000  1.0
  C  C39  1  0.72187000  0.60628000  0.30864000  1.0
  C  C40  1  0.14958000  0.34130000  0.77263000  1.0
  C  C41  1  0.63552000  0.65734000  0.19444000  1.0
  N  N42  1  0.46085000  0.97705000  0.89145000  1.0
  N  N43  1  0.96600000  0.00174000  0.11167000  1.0
  N  N44  1  0.63451000  0.06393000  0.88324000  1.0
  N  N45  1  0.14032000  0.91601000  0.11897000  1.0
  N  N46  1  0.55812000  0.08193000  0.68773000  1.0
  N  N47  1  0.05490000  0.92592000  0.31183000  1.0
  N  N48  1  0.13630000  0.82825000  0.86415000  1.0
  N  N49  1  0.62420000  0.15783000  0.15903000  1.0
  N  N50  1  0.97476000  0.25679000  0.80418000  1.0
  N  N51  1  0.45973000  0.74057000  0.17467000  1.0
  N  N52  1  0.45792000  0.62990000  0.96709000  1.0
  N  N53  1  0.00804000  0.37507000  0.02546000  1.0
  N  N54  1  0.52128000  0.52439000  0.92755000  1.0
  N  N55  1  0.04975000  0.46811000  0.07987000  1.0
  N  N56  1  0.59138000  0.41712000  0.89033000  1.0
  N  N57  1  0.09381000  0.56196000  0.13433000  1.0
