# generated using pymatgen
data_Al3H18C37O14
_symmetry_space_group_name_H-M   'P 1'
_cell_length_a   12.11810000
_cell_length_b   12.20080000
_cell_length_c   27.00190000
_cell_angle_alpha   82.46770000
_cell_angle_beta   82.89110000
_cell_angle_gamma   64.02470000
_symmetry_Int_Tables_number   1
_chemical_formula_structural   Al3H18C37O14
_chemical_formula_sum   'Al6 H36 C74 O28'
_cell_volume   3548.11972040
_cell_formula_units_Z   2
loop_
 _symmetry_equiv_pos_site_id
 _symmetry_equiv_pos_as_xyz
  1  'x, y, z'
loop_
 _atom_site_type_symbol
 _atom_site_label
 _atom_site_symmetry_multiplicity
 _atom_site_fract_x
 _atom_site_fract_y
 _atom_site_fract_z
 _atom_site_occupancy
  Al  Al0  1  0.39996000  0.40512000  0.51100000  1.0
  Al  Al1  1  0.65822000  0.42408000  0.49527000  1.0
  Al  Al2  1  0.42522000  0.65811000  0.49626000  1.0
  Al  Al3  1  0.93552000  0.93338000  0.97703000  1.0
  Al  Al4  1  0.91738000  0.67635000  0.99457000  1.0
  Al  Al5  1  0.68116000  0.90738000  0.99324000  1.0
  H  H6  1  0.60351000  0.34691000  0.19350000  1.0
  H  H7  1  0.72032000  0.86827000  0.66022000  1.0
  H  H8  1  0.55769000  0.92564000  0.66991000  1.0
  H  H9  1  0.69115000  0.46809000  0.79401000  1.0
  H  H10  1  0.85877000  0.49099000  0.71483000  1.0
  H  H11  1  0.92820000  0.70630000  0.71978000  1.0
  H  H12  1  0.85095000  0.79050000  0.77258000  1.0
  H  H13  1  0.94211000  0.62962000  0.78097000  1.0
  H  H14  1  0.07971000  0.89873000  0.26944000  1.0
  H  H15  1  0.47287000  0.52792000  0.23116000  1.0
  H  H16  1  0.44281000  0.62430000  0.27990000  1.0
  H  H17  1  0.80517000  0.25482000  0.25482000  1.0
  H  H18  1  0.42987000  0.48411000  0.29345000  1.0
  H  H19  1  0.27516000  0.37515000  0.24898000  1.0
  H  H20  1  0.17766000  0.43552000  0.19856000  1.0
  H  H21  1  0.32993000  0.42290000  0.18963000  1.0
  H  H22  1  0.97781000  0.53715000  0.28122000  1.0
  H  H23  1  0.08653000  0.48830000  0.32760000  1.0
  H  H24  1  0.95480000  0.63049000  0.33050000  1.0
  H  H25  1  0.94195000  0.79799000  0.22892000  1.0
  H  H26  1  0.47141000  0.02287000  0.27345000  1.0
  H  H27  1  0.44651000  0.09385000  0.21122000  1.0
  H  H28  1  0.48095000  0.82925000  0.77638000  1.0
  H  H29  1  0.57117000  0.94794000  0.22196000  1.0
  H  H30  1  0.77275000  0.85041000  0.28841000  1.0
  H  H31  1  0.83473000  0.91181000  0.32810000  1.0
  H  H32  1  0.67929000  0.93335000  0.33917000  1.0
  H  H33  1  0.46046000  0.28611000  0.27455000  1.0
  H  H34  1  0.49175000  0.62208000  0.73537000  1.0
  H  H35  1  0.34023000  0.84031000  0.21085000  1.0
  H  H36  1  0.36352000  0.74832000  0.16097000  1.0
  H  H37  1  0.23143000  0.89026000  0.16457000  1.0
  H  H38  1  0.88555000  0.02093000  0.21924000  1.0
  H  H39  1  0.64151000  0.95092000  0.71329000  1.0
  H  H40  1  0.30930000  0.28164000  0.49359000  1.0
  H  H41  1  0.06395000  0.02103000  0.99207000  1.0
  C  C42  1  0.61763000  0.27982000  0.43621000  1.0
  C  C43  1  0.14660000  0.69046000  0.19575000  1.0
  C  C44  1  0.09463000  0.63053000  0.27323000  1.0
  C  C45  1  0.61347000  0.61947000  0.41664000  1.0
  C  C46  1  0.17164000  0.68701000  0.29565000  1.0
  C  C47  1  0.20378000  0.57077000  0.23278000  1.0
  C  C48  1  0.28108000  0.62669000  0.25412000  1.0
  C  C49  1  0.12838000  0.69424000  0.14489000  1.0
  C  C50  1  0.19364000  0.67657000  0.34651000  1.0
  C  C51  1  0.71181000  0.04528000  0.27607000  1.0
  C  C52  1  0.59845000  0.09799000  0.24280000  1.0
  C  C53  1  0.66803000  0.66737000  0.26815000  1.0
  C  C54  1  0.69643000  0.09025000  0.10325000  1.0
  C  C55  1  0.64579000  0.22679000  0.38928000  1.0
  C  C56  1  0.79111000  0.08024000  0.23208000  1.0
  C  C57  1  0.27675000  0.62134000  0.43669000  1.0
  C  C58  1  0.67934000  0.13144000  0.19779000  1.0
  C  C59  1  0.74663000  0.20971000  0.25079000  1.0
  C  C60  1  0.66656000  0.17713000  0.29577000  1.0
  C  C61  1  0.63416000  0.26170000  0.21788000  1.0
  C  C62  1  0.55484000  0.22744000  0.26159000  1.0
  C  C63  1  0.68687000  0.11004000  0.14707000  1.0
  C  C64  1  0.65545000  0.65705000  0.31838000  1.0
  C  C65  1  0.65739000  0.20173000  0.34610000  1.0
  C  C66  1  0.65714000  0.76766000  0.71908000  1.0
  C  C67  1  0.56467000  0.75377000  0.76248000  1.0
  C  C68  1  0.69984000  0.68449000  0.88953000  1.0
  C  C69  1  0.61198000  0.28257000  0.57697000  1.0
  C  C70  1  0.64768000  0.63732000  0.60060000  1.0
  C  C71  1  0.76926000  0.68077000  0.75053000  1.0
  C  C72  1  0.67462000  0.66859000  0.79565000  1.0
  C  C73  1  0.77454000  0.56588000  0.72877000  1.0
  C  C74  1  0.66457000  0.65070000  0.69563000  1.0
  C  C75  1  0.64155000  0.64604000  0.36429000  1.0
  C  C76  1  0.68169000  0.55313000  0.77197000  1.0
  C  C77  1  0.57084000  0.63903000  0.74050000  1.0
  C  C78  1  0.68600000  0.67650000  0.84627000  1.0
  C  C79  1  0.65590000  0.64350000  0.64472000  1.0
  C  C80  1  0.11407000  0.68928000  0.86310000  1.0
  C  C81  1  0.62430000  0.61341000  0.55371000  1.0
  C  C82  1  0.14567000  0.67466000  0.81859000  1.0
  C  C83  1  0.17528000  0.66149000  0.76955000  1.0
  C  C84  1  0.19626000  0.65252000  0.72400000  1.0
  C  C85  1  0.21842000  0.64318000  0.67452000  1.0
  C  C86  1  0.11493000  0.80531000  0.25856000  1.0
  C  C87  1  0.23967000  0.63459000  0.62921000  1.0
  C  C88  1  0.69457000  0.10135000  0.86159000  1.0
  C  C89  1  0.68565000  0.12674000  0.81635000  1.0
  C  C90  1  0.67646000  0.15277000  0.76685000  1.0
  C  C91  1  0.66838000  0.17493000  0.72118000  1.0
  C  C92  1  0.65639000  0.20205000  0.67188000  1.0
  C  C93  1  0.28558000  0.61284000  0.57801000  1.0
  C  C94  1  0.64301000  0.22956000  0.62697000  1.0
  C  C95  1  0.06164000  0.71915000  0.05317000  1.0
  C  C96  1  0.72086000  0.72046000  0.07287000  1.0
  C  C97  1  0.22359000  0.74683000  0.21814000  1.0
  C  C98  1  0.72594000  0.04666000  0.05427000  1.0
  C  C99  1  0.05811000  0.72255000  0.91233000  1.0
  C  C100  1  0.72679000  0.70906000  0.93566000  1.0
  C  C101  1  0.71977000  0.05149000  0.91234000  1.0
  C  C102  1  0.69627000  0.69472000  0.12564000  1.0
  C  C103  1  0.68627000  0.68451000  0.17163000  1.0
  C  C104  1  0.67638000  0.67498000  0.22188000  1.0
  C  C105  1  0.29350000  0.80967000  0.18707000  1.0
  C  C106  1  0.64360000  0.88418000  0.68905000  1.0
  C  C107  1  0.87813000  0.70329000  0.75643000  1.0
  C  C108  1  0.10929000  0.69788000  0.10123000  1.0
  C  C109  1  0.41354000  0.56212000  0.26518000  1.0
  C  C110  1  0.24930000  0.44439000  0.21683000  1.0
  C  C111  1  0.02477000  0.56822000  0.30469000  1.0
  C  C112  1  0.51763000  0.03731000  0.23716000  1.0
  C  C113  1  0.75191000  0.92907000  0.30963000  1.0
  C  C114  1  0.22151000  0.65798000  0.38976000  1.0
  C  C115  1  0.03864000  0.74961000  0.23715000  1.0
  O  O116  1  0.30544000  0.51226000  0.45485000  1.0
  O  O117  1  0.64412000  0.82179000  0.05277000  1.0
  O  O118  1  0.64201000  0.03058000  0.03496000  1.0
  O  O119  1  0.51460000  0.29878000  0.45947000  1.0
  O  O120  1  0.81980000  0.03851000  0.92711000  1.0
  O  O121  1  0.02771000  0.83148000  0.92109000  1.0
  O  O122  1  0.04014000  0.63938000  0.94220000  1.0
  O  O123  1  0.83021000  0.63526000  0.95329000  1.0
  O  O124  1  0.64899000  0.80636000  0.95558000  1.0
  O  O125  1  0.63907000  0.01969000  0.93739000  1.0
  O  O126  1  0.84359000  0.83768000  0.98865000  1.0
  O  O127  1  0.69903000  0.51144000  0.53620000  1.0
  O  O128  1  0.69940000  0.30885000  0.44991000  1.0
  O  O129  1  0.69078000  0.52074000  0.43796000  1.0
  O  O130  1  0.51048000  0.69406000  0.43602000  1.0
  O  O131  1  0.29748000  0.70189000  0.45591000  1.0
  O  O132  1  0.29647000  0.51531000  0.56246000  1.0
  O  O133  1  0.50436000  0.30870000  0.56633000  1.0
  O  O134  1  0.69571000  0.30280000  0.54839000  1.0
  O  O135  1  0.52717000  0.69181000  0.53295000  1.0
  O  O136  1  0.31650000  0.69431000  0.55332000  1.0
  O  O137  1  0.49589000  0.49668000  0.50061000  1.0
  O  O138  1  0.83314000  0.02291000  0.03449000  1.0
  O  O139  1  0.04729000  0.81778000  0.02710000  1.0
  O  O140  1  0.03168000  0.63688000  0.04114000  1.0
  O  O141  1  0.81971000  0.64383000  0.05186000  1.0
  O  O142  1  0.31206000  0.32174000  0.52168000  1.0
  O  O143  1  0.01780000  0.02219000  0.96511000  1.0
