# generated using pymatgen
data_CoH4C12NO3F4
_symmetry_space_group_name_H-M   'P 1'
_cell_length_a   6.40548000
_cell_length_b   8.99564000
_cell_length_c   25.97470000
_cell_angle_alpha   89.99910000
_cell_angle_beta   89.79550000
_cell_angle_gamma   89.99930000
_symmetry_Int_Tables_number   1
_chemical_formula_structural   CoH4C12NO3F4
_chemical_formula_sum   'Co4 H16 C48 N4 O12 F16'
_cell_volume   1496.68883993
_cell_formula_units_Z   4
loop_
 _symmetry_equiv_pos_site_id
 _symmetry_equiv_pos_as_xyz
  1  'x, y, z'
loop_
 _atom_site_type_symbol
 _atom_site_label
 _atom_site_symmetry_multiplicity
 _atom_site_fract_x
 _atom_site_fract_y
 _atom_site_fract_z
 _atom_site_occupancy
  Co  Co0  1  0.99343000  0.00885000  0.28442000  1.0
  Co  Co1  1  0.50655000  0.00886000  0.21559000  1.0
  Co  Co2  1  0.00656000  0.99114000  0.71557000  1.0
  Co  Co3  1  0.49344000  0.99114000  0.78443000  1.0
  H  H4  1  0.25296000  0.85913000  0.36613000  1.0
  H  H5  1  0.27243000  0.85737000  0.46092000  1.0
  H  H6  1  0.76724000  0.13196000  0.13254000  1.0
  H  H7  1  0.77787000  0.13843000  0.03791000  1.0
  H  H8  1  0.24707000  0.85907000  0.13386000  1.0
  H  H9  1  0.22762000  0.85730000  0.03907000  1.0
  H  H10  1  0.73276000  0.13200000  0.36745000  1.0
  H  H11  1  0.72214000  0.13847000  0.46208000  1.0
  H  H12  1  0.74704000  0.14093000  0.63384000  1.0
  H  H13  1  0.72754000  0.14269000  0.53905000  1.0
  H  H14  1  0.23277000  0.86802000  0.86747000  1.0
  H  H15  1  0.22218000  0.86154000  0.96210000  1.0
  H  H16  1  0.75300000  0.14089000  0.86615000  1.0
  H  H17  1  0.77250000  0.14261000  0.96093000  1.0
  H  H18  1  0.26719000  0.86802000  0.63251000  1.0
  H  H19  1  0.27782000  0.86155000  0.53789000  1.0
  C  C20  1  0.24466000  0.49310000  0.20425000  1.0
  C  C21  1  0.23838000  0.33857000  0.20421000  1.0
  C  C22  1  0.14063000  0.92092000  0.38927000  1.0
  C  C23  1  0.14820000  0.92041000  0.44261000  1.0
  C  C24  1  0.74081000  0.51334000  0.29594000  1.0
  C  C25  1  0.73319000  0.66732000  0.29590000  1.0
  C  C26  1  0.65237000  0.07100000  0.11007000  1.0
  C  C27  1  0.65531000  0.07443000  0.05671000  1.0
  C  C28  1  0.25531000  0.49311000  0.29575000  1.0
  C  C29  1  0.26156000  0.33857000  0.29580000  1.0
  C  C30  1  0.35941000  0.92087000  0.11072000  1.0
  C  C31  1  0.35184000  0.92036000  0.05738000  1.0
  C  C32  1  0.75915000  0.51336000  0.20406000  1.0
  C  C33  1  0.76681000  0.66734000  0.20412000  1.0
  C  C34  1  0.84763000  0.07105000  0.38992000  1.0
  C  C35  1  0.84471000  0.07446000  0.44328000  1.0
  C  C36  1  0.75533000  0.50689000  0.79576000  1.0
  C  C37  1  0.76160000  0.66142000  0.79580000  1.0
  C  C38  1  0.85937000  0.07912000  0.61071000  1.0
  C  C39  1  0.85178000  0.07962000  0.55736000  1.0
  C  C40  1  0.25917000  0.48666000  0.70406000  1.0
  C  C41  1  0.26680000  0.33268000  0.70411000  1.0
  C  C42  1  0.34766000  0.92896000  0.88994000  1.0
  C  C43  1  0.34475000  0.92553000  0.94329000  1.0
  C  C44  1  0.74467000  0.50690000  0.70425000  1.0
  C  C45  1  0.73842000  0.66143000  0.70421000  1.0
  C  C46  1  0.64066000  0.07909000  0.88928000  1.0
  C  C47  1  0.64825000  0.07957000  0.94263000  1.0
  C  C48  1  0.24081000  0.48666000  0.79594000  1.0
  C  C49  1  0.23317000  0.33268000  0.79590000  1.0
  C  C50  1  0.15232000  0.92897000  0.61005000  1.0
  C  C51  1  0.15526000  0.92555000  0.55670000  1.0
  C  C52  1  0.99828000  0.99873000  0.47155000  1.0
  C  C53  1  0.50177000  0.99867000  0.02844000  1.0
  C  C54  1  0.00172000  0.00130000  0.52842000  1.0
  C  C55  1  0.49832000  0.00127000  0.97157000  1.0
  C  C56  1  0.24998000  0.74355000  0.25000000  1.0
  C  C57  1  0.24997000  0.57620000  0.25000000  1.0
  C  C58  1  0.24995000  0.25537000  0.25001000  1.0
  C  C59  1  0.74999000  0.26629000  0.25001000  1.0
  C  C60  1  0.75001000  0.43114000  0.25000000  1.0
  C  C61  1  0.75002000  0.74947000  0.25001000  1.0
  C  C62  1  0.74998000  0.25644000  0.75000000  1.0
  C  C63  1  0.74997000  0.42381000  0.75000000  1.0
  C  C64  1  0.75000000  0.74463000  0.75001000  1.0
  C  C65  1  0.25001000  0.73372000  0.75000000  1.0
  C  C66  1  0.25002000  0.56886000  0.75000000  1.0
  C  C67  1  0.25000000  0.25054000  0.75001000  1.0
  N  N68  1  0.99318000  0.99552000  0.36287000  1.0
  N  N69  1  0.50683000  0.99549000  0.13713000  1.0
  N  N70  1  0.00679000  0.00450000  0.63711000  1.0
  N  N71  1  0.49321000  0.00449000  0.86288000  1.0
  O  O72  1  0.15110000  0.80789000  0.28616000  1.0
  O  O73  1  0.66098000  0.20031000  0.21265000  1.0
  O  O74  1  0.34886000  0.80791000  0.21385000  1.0
  O  O75  1  0.83904000  0.20035000  0.28737000  1.0
  O  O76  1  0.84883000  0.19208000  0.71385000  1.0
  O  O77  1  0.33901000  0.79968000  0.78736000  1.0
  O  O78  1  0.65112000  0.19210000  0.78616000  1.0
  O  O79  1  0.16104000  0.79971000  0.71263000  1.0
  O  O80  1  0.24997000  0.10553000  0.25001000  1.0
  O  O81  1  0.74999000  0.89809000  0.25001000  1.0
  O  O82  1  0.75003000  0.89447000  0.75000000  1.0
  O  O83  1  0.24999000  0.10191000  0.75000000  1.0
  F  F84  1  0.23398000  0.56214000  0.15795000  1.0
  F  F85  1  0.22276000  0.26495000  0.15878000  1.0
  F  F86  1  0.72595000  0.44367000  0.34204000  1.0
  F  F87  1  0.70980000  0.74097000  0.34106000  1.0
  F  F88  1  0.26607000  0.56216000  0.34205000  1.0
  F  F89  1  0.27720000  0.26496000  0.34123000  1.0
  F  F90  1  0.77394000  0.44372000  0.15797000  1.0
  F  F91  1  0.79022000  0.74103000  0.15896000  1.0
  F  F92  1  0.76607000  0.43784000  0.84205000  1.0
  F  F93  1  0.77729000  0.73505000  0.84123000  1.0
  F  F94  1  0.27399000  0.55629000  0.65796000  1.0
  F  F95  1  0.29019000  0.25899000  0.65896000  1.0
  F  F96  1  0.73397000  0.43788000  0.65795000  1.0
  F  F97  1  0.72281000  0.73507000  0.65878000  1.0
  F  F98  1  0.22597000  0.55632000  0.84204000  1.0
  F  F99  1  0.20975000  0.25900000  0.84105000  1.0
