# generated using pymatgen
data_Cd3H32C38S6(NO)10
_symmetry_space_group_name_H-M   'P 1'
_cell_length_a   10.59650000
_cell_length_b   11.36990000
_cell_length_c   11.36990000
_cell_angle_alpha   98.78730000
_cell_angle_beta   107.99500000
_cell_angle_gamma   107.99500000
_symmetry_Int_Tables_number   1
_chemical_formula_structural   Cd3H32C38S6(NO)10
_chemical_formula_sum   'Cd3 H32 C38 S6 N10 O10'
_cell_volume   1191.55783295
_cell_formula_units_Z   1
loop_
 _symmetry_equiv_pos_site_id
 _symmetry_equiv_pos_as_xyz
  1  'x, y, z'
loop_
 _atom_site_type_symbol
 _atom_site_label
 _atom_site_symmetry_multiplicity
 _atom_site_fract_x
 _atom_site_fract_y
 _atom_site_fract_z
 _atom_site_occupancy
  Cd  Cd0  1  0.00000000  0.00000000  0.00000000  1.0
  Cd  Cd1  1  0.03487000  0.39282000  0.39282000  1.0
  Cd  Cd2  1  0.96513000  0.60718000  0.60718000  1.0
  H  H3  1  0.75223000  0.89831000  0.62227000  1.0
  H  H4  1  0.24777000  0.37773000  0.10169000  1.0
  H  H5  1  0.24777000  0.10169000  0.37774000  1.0
  H  H6  1  0.75223000  0.62226000  0.89831000  1.0
  H  H7  1  0.75531000  0.10511000  0.35276000  1.0
  H  H8  1  0.24469000  0.64724000  0.89489000  1.0
  H  H9  1  0.24468000  0.89488000  0.64724000  1.0
  H  H10  1  0.75531000  0.35276000  0.10512000  1.0
  H  H11  1  0.49221000  0.76293000  0.50692000  1.0
  H  H12  1  0.50779000  0.49308000  0.23707000  1.0
  H  H13  1  0.50779000  0.23707000  0.49309000  1.0
  H  H14  1  0.49221000  0.50691000  0.76293000  1.0
  H  H15  1  0.49006000  0.98027000  0.22339000  1.0
  H  H16  1  0.50994000  0.77661000  0.01973000  1.0
  H  H17  1  0.50994000  0.01972000  0.77661000  1.0
  H  H18  1  0.49006000  0.22339000  0.98028000  1.0
  H  H19  1  0.27036000  0.80925000  0.18851000  1.0
  H  H20  1  0.72964000  0.81149000  0.19075000  1.0
  H  H21  1  0.72964000  0.19075000  0.81149000  1.0
  H  H22  1  0.27036000  0.18851000  0.80925000  1.0
  H  H23  1  0.27244000  0.65476000  0.39020000  1.0
  H  H24  1  0.72757000  0.60980000  0.34525000  1.0
  H  H25  1  0.72756000  0.34525000  0.60981000  1.0
  H  H26  1  0.27244000  0.39019000  0.65475000  1.0
  H  H27  1  0.87103000  0.05438000  0.54362000  1.0
  H  H28  1  0.12897000  0.45638000  0.94562000  1.0
  H  H29  1  0.12897000  0.94563000  0.45638000  1.0
  H  H30  1  0.87103000  0.54362000  0.05437000  1.0
  H  H31  1  0.01958000  0.78689000  0.12164000  1.0
  H  H32  1  0.98042000  0.87836000  0.21311000  1.0
  H  H33  1  0.98042000  0.21311000  0.87836000  1.0
  H  H34  1  0.01958000  0.12164000  0.78689000  1.0
  C  C35  1  0.68782000  0.90985000  0.53279000  1.0
  C  C36  1  0.31218000  0.46721000  0.09015000  1.0
  C  C37  1  0.31217000  0.09015000  0.46722000  1.0
  C  C38  1  0.68782000  0.53278000  0.90985000  1.0
  C  C39  1  0.68947000  0.02812000  0.37992000  1.0
  C  C40  1  0.31053000  0.62008000  0.97188000  1.0
  C  C41  1  0.31053000  0.97188000  0.62008000  1.0
  C  C42  1  0.68947000  0.37992000  0.02812000  1.0
  C  C43  1  0.54371000  0.83641000  0.46714000  1.0
  C  C44  1  0.45629000  0.53286000  0.16359000  1.0
  C  C45  1  0.45629000  0.16359000  0.53286000  1.0
  C  C46  1  0.54371000  0.46714000  0.83641000  1.0
  C  C47  1  0.54441000  0.95810000  0.31055000  1.0
  C  C48  1  0.45559000  0.68945000  0.04190000  1.0
  C  C49  1  0.45559000  0.04190000  0.68945000  1.0
  C  C50  1  0.54441000  0.31055000  0.95810000  1.0
  C  C51  1  0.46828000  0.85921000  0.35276000  1.0
  C  C52  1  0.53172000  0.64724000  0.14079000  1.0
  C  C53  1  0.53172000  0.14079000  0.64724000  1.0
  C  C54  1  0.46828000  0.35276000  0.85921000  1.0
  C  C55  1  0.31690000  0.78354000  0.27620000  1.0
  C  C56  1  0.68310000  0.72380000  0.21646000  1.0
  C  C57  1  0.68310000  0.21646000  0.72380000  1.0
  C  C58  1  0.31690000  0.27620000  0.78354000  1.0
  C  C59  1  0.23299000  0.68483000  0.30404000  1.0
  C  C60  1  0.76701000  0.69596000  0.31517000  1.0
  C  C61  1  0.76701000  0.31517000  0.69596000  1.0
  C  C62  1  0.23299000  0.30404000  0.68483000  1.0
  C  C63  1  0.08110000  0.60794000  0.21766000  1.0
  C  C64  1  0.91890000  0.78234000  0.39206000  1.0
  C  C65  1  0.91891000  0.39206000  0.78234000  1.0
  C  C66  1  0.08110000  0.21766000  0.60794000  1.0
  C  C67  1  0.28858000  0.63724000  0.63724000  1.0
  C  C68  1  0.71141000  0.36276000  0.36276000  1.0
  C  C69  1  0.81783000  0.13276000  0.13276000  1.0
  C  C70  1  0.18218000  0.86724000  0.86724000  1.0
  C  C71  1  0.20587000  0.26558000  0.26558000  1.0
  C  C72  1  0.79413000  0.73442000  0.73443000  1.0
  S  S73  1  0.45315000  0.72465000  0.72465000  1.0
  S  S74  1  0.54684000  0.27535000  0.27535000  1.0
  S  S75  1  0.28739000  0.39093000  0.39093000  1.0
  S  S76  1  0.71261000  0.60907000  0.60907000  1.0
  S  S77  1  0.74347000  0.00772000  0.00772000  1.0
  S  S78  1  0.25653000  0.99228000  0.99228000  1.0
  N  N79  1  0.16555000  0.57218000  0.57218000  1.0
  N  N80  1  0.83444000  0.42782000  0.42782000  1.0
  N  N81  1  0.14849000  0.17485000  0.17485000  1.0
  N  N82  1  0.85151000  0.82515000  0.82515000  1.0
  N  N83  1  0.87046000  0.22331000  0.22331000  1.0
  N  N84  1  0.12954000  0.77670000  0.77669000  1.0
  N  N85  1  0.75695000  0.00203000  0.48800000  1.0
  N  N86  1  0.24305000  0.51200000  0.99797000  1.0
  N  N87  1  0.24305000  0.99797000  0.51200000  1.0
  N  N88  1  0.75695000  0.48800000  0.00203000  1.0
  O  O89  1  0.02761000  0.64019000  0.11561000  1.0
  O  O90  1  0.97239000  0.88439000  0.35980000  1.0
  O  O91  1  0.97240000  0.35980000  0.88439000  1.0
  O  O92  1  0.02761000  0.11561000  0.64019000  1.0
  O  O93  1  0.00867000  0.51225000  0.24509000  1.0
  O  O94  1  0.99133000  0.75491000  0.48775000  1.0
  O  O95  1  0.99133000  0.48775000  0.75491000  1.0
  O  O96  1  0.00867000  0.24509000  0.51225000  1.0
  O  O97  1  0.00000000  0.86706000  0.13294000  1.0
  O  O98  1  0.00000000  0.13294000  0.86706000  1.0
