# generated using pymatgen
data_CoH7C12(NO2)2
_symmetry_space_group_name_H-M   'P 1'
_cell_length_a   6.95779000
_cell_length_b   13.17710000
_cell_length_c   17.55120000
_cell_angle_alpha   89.94980000
_cell_angle_beta   89.99690000
_cell_angle_gamma   89.99960000
_symmetry_Int_Tables_number   1
_chemical_formula_structural   CoH7C12(NO2)2
_chemical_formula_sum   'Co4 H28 C48 N8 O16'
_cell_volume   1609.15473056
_cell_formula_units_Z   4
loop_
 _symmetry_equiv_pos_site_id
 _symmetry_equiv_pos_as_xyz
  1  'x, y, z'
loop_
 _atom_site_type_symbol
 _atom_site_label
 _atom_site_symmetry_multiplicity
 _atom_site_fract_x
 _atom_site_fract_y
 _atom_site_fract_z
 _atom_site_occupancy
  Co  Co0  1  0.50032000  0.04022000  0.11742000  1.0
  Co  Co1  1  0.50030000  0.95976000  0.88258000  1.0
  Co  Co2  1  0.49987000  0.54136000  0.38267000  1.0
  Co  Co3  1  0.49988000  0.45863000  0.61733000  1.0
  H  H4  1  0.50230000  0.23426000  0.82386000  1.0
  H  H5  1  0.50232000  0.76575000  0.17619000  1.0
  H  H6  1  0.49951000  0.73482000  0.67686000  1.0
  H  H7  1  0.49948000  0.26516000  0.32307000  1.0
  H  H8  1  0.49447000  0.55301000  0.86985000  1.0
  H  H9  1  0.49449000  0.44701000  0.13024000  1.0
  H  H10  1  0.50057000  0.05343000  0.63001000  1.0
  H  H11  1  0.50058000  0.94658000  0.36996000  1.0
  H  H12  1  0.50018000  0.33627000  0.05602000  1.0
  H  H13  1  0.50019000  0.66372000  0.94403000  1.0
  H  H14  1  0.50296000  0.83617000  0.44442000  1.0
  H  H15  1  0.50296000  0.16386000  0.55553000  1.0
  H  H16  1  0.81784000  0.88632000  0.14262000  1.0
  H  H17  1  0.81784000  0.11368000  0.85742000  1.0
  H  H18  1  0.18452000  0.38840000  0.35672000  1.0
  H  H19  1  0.18451000  0.61161000  0.64321000  1.0
  H  H20  1  0.18281000  0.11368000  0.85752000  1.0
  H  H21  1  0.18284000  0.88632000  0.14252000  1.0
  H  H22  1  0.81934000  0.61330000  0.64250000  1.0
  H  H23  1  0.81935000  0.38671000  0.35744000  1.0
  H  H24  1  0.81719000  0.19511000  0.09706000  1.0
  H  H25  1  0.81719000  0.80489000  0.90297000  1.0
  H  H26  1  0.18062000  0.69651000  0.40433000  1.0
  H  H27  1  0.18062000  0.30350000  0.59561000  1.0
  H  H28  1  0.18322000  0.80489000  0.90314000  1.0
  H  H29  1  0.18324000  0.19512000  0.09689000  1.0
  H  H30  1  0.81467000  0.30467000  0.59677000  1.0
  H  H31  1  0.81466000  0.69535000  0.40317000  1.0
  C  C32  1  0.50069000  0.16909000  0.97227000  1.0
  C  C33  1  0.50069000  0.83088000  0.02775000  1.0
  C  C34  1  0.50035000  0.66916000  0.52880000  1.0
  C  C35  1  0.50035000  0.33086000  0.47113000  1.0
  C  C36  1  0.50028000  0.27598000  0.94353000  1.0
  C  C37  1  0.50029000  0.72400000  0.05652000  1.0
  C  C38  1  0.50135000  0.77622000  0.55708000  1.0
  C  C39  1  0.50134000  0.22378000  0.44286000  1.0
  C  C40  1  0.50075000  0.29595000  0.86523000  1.0
  C  C41  1  0.50077000  0.70405000  0.13483000  1.0
  C  C42  1  0.50044000  0.79640000  0.63531000  1.0
  C  C43  1  0.50040000  0.20360000  0.36463000  1.0
  C  C44  1  0.49880000  0.39676000  0.84028000  1.0
  C  C45  1  0.49881000  0.60325000  0.15977000  1.0
  C  C46  1  0.50048000  0.89725000  0.65999000  1.0
  C  C47  1  0.50046000  0.10274000  0.33999000  1.0
  C  C48  1  0.49674000  0.47632000  0.89301000  1.0
  C  C49  1  0.49675000  0.52368000  0.10706000  1.0
  C  C50  1  0.50091000  0.97667000  0.60706000  1.0
  C  C51  1  0.50089000  0.02332000  0.39292000  1.0
  C  C52  1  0.49779000  0.45781000  0.97195000  1.0
  C  C53  1  0.49779000  0.54217000  0.02813000  1.0
  C  C54  1  0.50167000  0.95793000  0.52819000  1.0
  C  C55  1  0.50166000  0.04209000  0.47178000  1.0
  C  C56  1  0.49939000  0.35613000  0.99584000  1.0
  C  C57  1  0.49940000  0.64384000  0.00421000  1.0
  C  C58  1  0.50219000  0.85620000  0.50455000  1.0
  C  C59  1  0.50218000  0.14382000  0.49539000  1.0
  C  C60  1  0.49884000  0.41994000  0.75703000  1.0
  C  C61  1  0.49887000  0.58008000  0.24303000  1.0
  C  C62  1  0.50006000  0.92035000  0.74317000  1.0
  C  C63  1  0.50005000  0.07962000  0.25683000  1.0
  C  C64  1  0.90050000  0.95508000  0.13183000  1.0
  C  C65  1  0.90049000  0.04491000  0.86820000  1.0
  C  C66  1  0.10069000  0.45659000  0.36796000  1.0
  C  C67  1  0.10069000  0.54342000  0.63200000  1.0
  C  C68  1  0.10014000  0.04491000  0.86828000  1.0
  C  C69  1  0.10016000  0.95509000  0.13174000  1.0
  C  C70  1  0.90105000  0.54422000  0.63180000  1.0
  C  C71  1  0.90106000  0.45579000  0.36816000  1.0
  C  C72  1  0.90041000  0.12624000  0.10668000  1.0
  C  C73  1  0.90040000  0.87376000  0.89334000  1.0
  C  C74  1  0.09850000  0.62743000  0.39404000  1.0
  C  C75  1  0.09851000  0.37257000  0.60591000  1.0
  C  C76  1  0.10010000  0.87376000  0.89345000  1.0
  C  C77  1  0.10012000  0.12624000  0.10657000  1.0
  C  C78  1  0.89883000  0.37314000  0.60633000  1.0
  C  C79  1  0.89882000  0.62687000  0.39363000  1.0
  N  N80  1  0.79944000  0.04038000  0.11825000  1.0
  N  N81  1  0.79944000  0.95961000  0.88176000  1.0
  N  N82  1  0.20050000  0.54206000  0.38213000  1.0
  N  N83  1  0.20052000  0.45794000  0.61784000  1.0
  N  N84  1  0.20113000  0.95962000  0.88195000  1.0
  N  N85  1  0.20117000  0.04038000  0.11806000  1.0
  N  N86  1  0.79897000  0.45932000  0.61805000  1.0
  N  N87  1  0.79897000  0.54068000  0.38193000  1.0
  O  O88  1  0.50074000  0.15634000  0.04419000  1.0
  O  O89  1  0.50070000  0.84365000  0.95583000  1.0
  O  O90  1  0.50358000  0.65596000  0.45691000  1.0
  O  O91  1  0.50366000  0.34408000  0.54304000  1.0
  O  O92  1  0.50076000  0.09801000  0.92339000  1.0
  O  O93  1  0.50082000  0.90197000  0.07663000  1.0
  O  O94  1  0.49552000  0.59869000  0.57821000  1.0
  O  O95  1  0.49548000  0.40130000  0.42173000  1.0
  O  O96  1  0.50993000  0.34785000  0.70846000  1.0
  O  O97  1  0.50989000  0.65216000  0.29158000  1.0
  O  O98  1  0.50059000  0.84811000  0.79180000  1.0
  O  O99  1  0.50056000  0.15186000  0.20819000  1.0
  O  O100  1  0.48801000  0.51197000  0.73399000  1.0
  O  O101  1  0.48809000  0.48808000  0.26607000  1.0
  O  O102  1  0.49939000  0.01256000  0.76619000  1.0
  O  O103  1  0.49940000  0.98741000  0.23383000  1.0
