# generated using pymatgen
data_ZnH20C29(NO4)2
_symmetry_space_group_name_H-M   'P 1'
_cell_length_a   9.59588000
_cell_length_b   11.57820000
_cell_length_c   13.19020000
_cell_angle_alpha   112.50100000
_cell_angle_beta   96.80990000
_cell_angle_gamma   97.11580000
_symmetry_Int_Tables_number   1
_chemical_formula_structural   ZnH20C29(NO4)2
_chemical_formula_sum   'Zn2 H40 C58 N4 O16'
_cell_volume   1321.27735259
_cell_formula_units_Z   2
loop_
 _symmetry_equiv_pos_site_id
 _symmetry_equiv_pos_as_xyz
  1  'x, y, z'
loop_
 _atom_site_type_symbol
 _atom_site_label
 _atom_site_symmetry_multiplicity
 _atom_site_fract_x
 _atom_site_fract_y
 _atom_site_fract_z
 _atom_site_occupancy
  Zn  Zn0  1  0.95582000  0.89765000  0.74648000  1.0
  Zn  Zn1  1  0.04418000  0.10235000  0.25352000  1.0
  H  H2  1  0.70195000  0.70820000  0.40912000  1.0
  H  H3  1  0.29805000  0.29180000  0.59087000  1.0
  H  H4  1  0.25833000  0.53286000  0.27915000  1.0
  H  H5  1  0.74167000  0.46714000  0.72085000  1.0
  H  H6  1  0.42818000  0.65762000  0.62894000  1.0
  H  H7  1  0.57182000  0.34238000  0.37106000  1.0
  H  H8  1  0.62540000  0.61226000  0.21524000  1.0
  H  H9  1  0.37460000  0.38774000  0.78476000  1.0
  H  H10  1  0.46613000  0.49935000  0.15755000  1.0
  H  H11  1  0.53387000  0.50065000  0.84245000  1.0
  H  H12  1  0.58541000  0.64386000  0.03852000  1.0
  H  H13  1  0.41459000  0.35614000  0.96147000  1.0
  H  H14  1  0.29798000  0.89598000  0.02225000  1.0
  H  H15  1  0.70202000  0.10403000  0.97775000  1.0
  H  H16  1  0.29616000  0.74455000  0.27210000  1.0
  H  H17  1  0.70384000  0.25545000  0.72790000  1.0
  H  H18  1  0.27339000  0.94812000  0.82474000  1.0
  H  H19  1  0.72661000  0.05188000  0.17526000  1.0
  H  H20  1  0.48898000  0.97741000  0.74672000  1.0
  H  H21  1  0.51102000  0.02259000  0.25328000  1.0
  H  H22  1  0.21097000  0.94692000  0.44856000  1.0
  H  H23  1  0.78903000  0.05308000  0.55144000  1.0
  H  H24  1  0.00654000  0.91644000  0.53969000  1.0
  H  H25  1  0.99346000  0.08357000  0.46031000  1.0
  H  H26  1  0.59914000  0.98999000  0.59612000  1.0
  H  H27  1  0.40086000  0.01001000  0.40388000  1.0
  H  H28  1  0.87143000  0.86435000  0.94148000  1.0
  H  H29  1  0.12857000  0.13565000  0.05852000  1.0
  H  H30  1  0.88146000  0.70706000  0.02579000  1.0
  H  H31  1  0.11855000  0.29294000  0.97421000  1.0
  H  H32  1  0.17599000  0.54646000  0.80904000  1.0
  H  H33  1  0.82401000  0.45353000  0.19096000  1.0
  H  H34  1  0.15658000  0.71329000  0.73642000  1.0
  H  H35  1  0.84342000  0.28671000  0.26358000  1.0
  H  H36  1  0.11035000  0.44638000  0.92726000  1.0
  H  H37  1  0.88965000  0.55361000  0.07274000  1.0
  H  H38  1  0.07716000  0.51069000  0.57571000  1.0
  H  H39  1  0.92284000  0.48931000  0.42429000  1.0
  H  H40  1  0.62128000  0.72455000  0.81416000  1.0
  H  H41  1  0.37872000  0.27545000  0.18584000  1.0
  C  C42  1  0.57690000  0.68852000  0.52800000  1.0
  C  C43  1  0.42310000  0.31148000  0.47200000  1.0
  C  C44  1  0.59583000  0.67529000  0.42063000  1.0
  C  C45  1  0.40417000  0.32471000  0.57937000  1.0
  C  C46  1  0.48322000  0.61898000  0.32935000  1.0
  C  C47  1  0.51678000  0.38102000  0.67065000  1.0
  C  C48  1  0.34862000  0.57857000  0.34814000  1.0
  C  C49  1  0.65138000  0.42143000  0.65186000  1.0
  C  C50  1  0.32782000  0.59352000  0.45573000  1.0
  C  C51  1  0.67218000  0.40648000  0.54427000  1.0
  C  C52  1  0.44263000  0.64704000  0.54547000  1.0
  C  C53  1  0.55737000  0.35296000  0.45453000  1.0
  C  C54  1  0.50943000  0.59942000  0.21374000  1.0
  C  C55  1  0.49057000  0.40058000  0.78626000  1.0
  C  C56  1  0.44840000  0.68362000  0.16220000  1.0
  C  C57  1  0.55160000  0.31638000  0.83780000  1.0
  C  C58  1  0.50052000  0.69421000  0.07041000  1.0
  C  C59  1  0.49948000  0.30579000  0.92959000  1.0
  C  C60  1  0.44570000  0.76909000  0.01898000  1.0
  C  C61  1  0.55429000  0.23091000  0.98102000  1.0
  C  C62  1  0.33862000  0.83572000  0.06041000  1.0
  C  C63  1  0.66138000  0.16428000  0.93959000  1.0
  C  C64  1  0.28506000  0.82538000  0.15083000  1.0
  C  C65  1  0.71494000  0.17462000  0.84917000  1.0
  C  C66  1  0.33973000  0.74929000  0.20088000  1.0
  C  C67  1  0.66027000  0.25071000  0.79912000  1.0
  C  C68  1  0.70004000  0.74622000  0.62393000  1.0
  C  C69  1  0.29996000  0.25378000  0.37607000  1.0
  C  C70  1  0.18368000  0.55135000  0.47315000  1.0
  C  C71  1  0.81632000  0.44865000  0.52685000  1.0
  C  C72  1  0.49416000  0.78028000  0.91918000  1.0
  C  C73  1  0.50584000  0.21972000  0.08082000  1.0
  C  C74  1  0.17364000  0.89968000  0.19862000  1.0
  C  C75  1  0.82635000  0.10033000  0.80138000  1.0
  C  C76  1  0.26393000  0.95104000  0.74271000  1.0
  C  C77  1  0.73607000  0.04896000  0.25729000  1.0
  C  C78  1  0.38487000  0.96766000  0.69829000  1.0
  C  C79  1  0.61513000  0.03234000  0.30171000  1.0
  C  C80  1  0.37108000  0.97014000  0.59191000  1.0
  C  C81  1  0.62892000  0.02986000  0.40809000  1.0
  C  C82  1  0.23157000  0.95161000  0.53338000  1.0
  C  C83  1  0.76843000  0.04839000  0.46662000  1.0
  C  C84  1  0.11608000  0.93348000  0.58272000  1.0
  C  C85  1  0.88392000  0.06652000  0.41728000  1.0
  C  C86  1  0.49897000  0.99013000  0.54721000  1.0
  C  C87  1  0.50103000  0.00987000  0.45279000  1.0
  C  C88  1  0.93780000  0.79226000  0.91547000  1.0
  C  C89  1  0.06220000  0.20774000  0.08453000  1.0
  C  C90  1  0.94326000  0.70300000  0.96087000  1.0
  C  C91  1  0.05674000  0.29700000  0.03913000  1.0
  C  C92  1  0.02809000  0.60973000  0.92267000  1.0
  C  C93  1  0.97191000  0.39027000  0.07732000  1.0
  C  C94  1  0.10757000  0.61550000  0.84140000  1.0
  C  C95  1  0.89243000  0.38450000  0.15860000  1.0
  C  C96  1  0.09691000  0.70813000  0.80019000  1.0
  C  C97  1  0.90308000  0.29187000  0.19981000  1.0
  C  C98  1  0.03717000  0.50982000  0.96278000  1.0
  C  C99  1  0.96283000  0.49017000  0.03722000  1.0
  N  N100  1  0.13127000  0.93403000  0.68622000  1.0
  N  N101  1  0.86873000  0.06598000  0.31378000  1.0
  N  N102  1  0.01179000  0.79415000  0.83505000  1.0
  N  N103  1  0.98821000  0.20585000  0.16495000  1.0
  O  O104  1  0.81512000  0.79922000  0.60521000  1.0
  O  O105  1  0.18489000  0.20078000  0.39479000  1.0
  O  O106  1  0.68916000  0.74216000  0.71665000  1.0
  O  O107  1  0.31084000  0.25784000  0.28335000  1.0
  O  O108  1  0.18080000  0.53967000  0.56917000  1.0
  O  O109  1  0.81920000  0.46033000  0.43082000  1.0
  O  O110  1  0.07393000  0.52922000  0.40267000  1.0
  O  O111  1  0.92607000  0.47078000  0.59733000  1.0
  O  O112  1  0.59644000  0.71370000  0.88333000  1.0
  O  O113  1  0.40356000  0.28630000  0.11667000  1.0
  O  O114  1  0.44258000  0.84329000  0.87259000  1.0
  O  O115  1  0.55741000  0.15671000  0.12740000  1.0
  O  O116  1  0.12629000  0.89034000  0.28015000  1.0
  O  O117  1  0.87371000  0.10966000  0.71985000  1.0
  O  O118  1  0.13552000  0.97419000  0.15176000  1.0
  O  O119  1  0.86448000  0.02581000  0.84824000  1.0
