# generated using pymatgen
data_CaH14C7O6
_symmetry_space_group_name_H-M   'P 1'
_cell_length_a   6.46295000
_cell_length_b   6.83872000
_cell_length_c   12.43100000
_cell_angle_alpha   88.02250000
_cell_angle_beta   81.65960000
_cell_angle_gamma   70.79230000
_symmetry_Int_Tables_number   1
_chemical_formula_structural   CaH14C7O6
_chemical_formula_sum   'Ca2 H28 C14 O12'
_cell_volume   513.30484069
_cell_formula_units_Z   2
loop_
 _symmetry_equiv_pos_site_id
 _symmetry_equiv_pos_as_xyz
  1  'x, y, z'
loop_
 _atom_site_type_symbol
 _atom_site_label
 _atom_site_symmetry_multiplicity
 _atom_site_fract_x
 _atom_site_fract_y
 _atom_site_fract_z
 _atom_site_occupancy
  Ca  Ca0  1  0.06258000  0.22416000  0.07502000  1.0
  Ca  Ca1  1  0.93742000  0.77584000  0.92497000  1.0
  H  H2  1  0.61011000  0.77132000  0.30097000  1.0
  H  H3  1  0.38989000  0.22868000  0.69903000  1.0
  H  H4  1  0.70381000  0.98696000  0.28010000  1.0
  H  H5  1  0.29619000  0.01305000  0.71990000  1.0
  H  H6  1  0.57067000  0.94536000  0.41147000  1.0
  H  H7  1  0.42933000  0.05464000  0.58853000  1.0
  H  H8  1  0.20558000  0.13975000  0.45316000  1.0
  H  H9  1  0.79442000  0.86026000  0.54684000  1.0
  H  H10  1  0.61811000  0.34401000  0.43610000  1.0
  H  H11  1  0.38189000  0.65599000  0.56389000  1.0
  H  H12  1  0.76945000  0.50394000  0.46745000  1.0
  H  H13  1  0.23054000  0.49606000  0.53255000  1.0
  H  H14  1  0.82408000  0.25443000  0.52524000  1.0
  H  H15  1  0.17592000  0.74556000  0.47476000  1.0
  H  H16  1  0.67443000  0.35687000  0.75912000  1.0
  H  H17  1  0.32557000  0.64312000  0.24088000  1.0
  H  H18  1  0.91879000  0.16485000  0.69828000  1.0
  H  H19  1  0.08122000  0.83514000  0.30172000  1.0
  H  H20  1  0.90146000  0.43381000  0.70182000  1.0
  H  H21  1  0.09854000  0.56618000  0.29818000  1.0
  H  H22  1  0.38964000  0.36926000  0.93171000  1.0
  H  H23  1  0.61035000  0.63074000  0.06829000  1.0
  H  H24  1  0.49141000  0.12500000  0.90534000  1.0
  H  H25  1  0.50858000  0.87500000  0.09467000  1.0
  H  H26  1  0.64227000  0.32964000  0.17825000  1.0
  H  H27  1  0.35773000  0.67036000  0.82175000  1.0
  H  H28  1  0.56096000  0.29569000  0.06540000  1.0
  H  H29  1  0.43904000  0.70431000  0.93460000  1.0
  C  C30  1  0.57126000  0.93508000  0.32366000  1.0
  C  C31  1  0.42874000  0.06492000  0.67634000  1.0
  C  C32  1  0.35263000  0.06079000  0.28850000  1.0
  C  C33  1  0.64738000  0.93922000  0.71150000  1.0
  C  C34  1  0.17317000  0.15640000  0.36915000  1.0
  C  C35  1  0.82683000  0.84360000  0.63085000  1.0
  C  C36  1  0.95082000  0.25874000  0.35291000  1.0
  C  C37  1  0.04918000  0.74127000  0.64709000  1.0
  C  C38  1  0.78118000  0.34277000  0.45178000  1.0
  C  C39  1  0.21881000  0.65723000  0.54823000  1.0
  C  C40  1  0.93558000  0.28089000  0.85526000  1.0
  C  C41  1  0.06442000  0.71910000  0.14474000  1.0
  C  C42  1  0.85614000  0.30912000  0.74586000  1.0
  C  C43  1  0.14386000  0.69088000  0.25414000  1.0
  O  O44  1  0.34453000  0.06708000  0.18588000  1.0
  O  O45  1  0.65547000  0.93292000  0.81413000  1.0
  O  O46  1  0.88252000  0.28654000  0.26078000  1.0
  O  O47  1  0.11749000  0.71346000  0.73922000  1.0
  O  O48  1  0.94178000  0.43790000  0.90451000  1.0
  O  O49  1  0.05822000  0.56209000  0.09548000  1.0
  O  O50  1  0.99266000  0.10235000  0.89859000  1.0
  O  O51  1  0.00733000  0.89764000  0.10141000  1.0
  O  O52  1  0.41460000  0.23038000  0.96460000  1.0
  O  O53  1  0.58539000  0.76962000  0.03540000  1.0
  O  O54  1  0.64647000  0.36529000  0.10101000  1.0
  O  O55  1  0.35353000  0.63470000  0.89898000  1.0
