# generated using pymatgen
data_H14PbC13(IN)2
_symmetry_space_group_name_H-M   'P 1'
_cell_length_a   4.52999000
_cell_length_b   11.51610000
_cell_length_c   15.27700000
_cell_angle_alpha   89.99470000
_cell_angle_beta   89.99990000
_cell_angle_gamma   83.83650000
_symmetry_Int_Tables_number   1
_chemical_formula_structural   H14PbC13(IN)2
_chemical_formula_sum   'H28 Pb2 C26 I4 N4'
_cell_volume   792.36092759
_cell_formula_units_Z   2
loop_
 _symmetry_equiv_pos_site_id
 _symmetry_equiv_pos_as_xyz
  1  'x, y, z'
loop_
 _atom_site_type_symbol
 _atom_site_label
 _atom_site_symmetry_multiplicity
 _atom_site_fract_x
 _atom_site_fract_y
 _atom_site_fract_z
 _atom_site_occupancy
  H  H0  1  0.07141000  0.06364000  0.56808000  1.0
  H  H1  1  0.92912000  0.93642000  0.06796000  1.0
  H  H2  1  0.92869000  0.93633000  0.43183000  1.0
  H  H3  1  0.07058000  0.06363000  0.93211000  1.0
  H  H4  1  0.31281000  0.09902000  0.42489000  1.0
  H  H5  1  0.68740000  0.90108000  0.92482000  1.0
  H  H6  1  0.68642000  0.90095000  0.57487000  1.0
  H  H7  1  0.31219000  0.09902000  0.07527000  1.0
  H  H8  1  0.86172000  0.44847000  0.42995000  1.0
  H  H9  1  0.13768000  0.55150000  0.92995000  1.0
  H  H10  1  0.13787000  0.55155000  0.57006000  1.0
  H  H11  1  0.86188000  0.44860000  0.07004000  1.0
  H  H12  1  0.63491000  0.39819000  0.57294000  1.0
  H  H13  1  0.36491000  0.60176000  0.07288000  1.0
  H  H14  1  0.36566000  0.60185000  0.42724000  1.0
  H  H15  1  0.63443000  0.39823000  0.92716000  1.0
  H  H16  1  0.48463000  0.25549000  0.33103000  1.0
  H  H17  1  0.51512000  0.74450000  0.83099000  1.0
  H  H18  1  0.51499000  0.74451000  0.66895000  1.0
  H  H19  1  0.48457000  0.25559000  0.16898000  1.0
  H  H20  1  0.29713000  0.39912000  0.33146000  1.0
  H  H21  1  0.70270000  0.60090000  0.83145000  1.0
  H  H22  1  0.70256000  0.60090000  0.66849000  1.0
  H  H23  1  0.29691000  0.39919000  0.16859000  1.0
  H  H24  1  0.05900000  0.18388000  0.25000000  1.0
  H  H25  1  0.94082000  0.81612000  0.74995000  1.0
  H  H26  1  0.87384000  0.32781000  0.25003000  1.0
  H  H27  1  0.12578000  0.67214000  0.74994000  1.0
  Pb  Pb28  1  0.79563000  0.20843000  0.75011000  1.0
  Pb  Pb29  1  0.20729000  0.79121000  0.24989000  1.0
  C  C30  1  0.02662000  0.14748000  0.53461000  1.0
  C  C31  1  0.97375000  0.85258000  0.03449000  1.0
  C  C32  1  0.97344000  0.85252000  0.46534000  1.0
  C  C33  1  0.02590000  0.14747000  0.96558000  1.0
  C  C34  1  0.16244000  0.16787000  0.45527000  1.0
  C  C35  1  0.83771000  0.83220000  0.95519000  1.0
  C  C36  1  0.83715000  0.83213000  0.54461000  1.0
  C  C37  1  0.16189000  0.16788000  0.04487000  1.0
  C  C38  1  0.11116000  0.27818000  0.41597000  1.0
  C  C39  1  0.88870000  0.72187000  0.91591000  1.0
  C  C40  1  0.88847000  0.72186000  0.58398000  1.0
  C  C41  1  0.11089000  0.27824000  0.08410000  1.0
  C  C42  1  0.91262000  0.36165000  0.45834000  1.0
  C  C43  1  0.08706000  0.63835000  0.95830000  1.0
  C  C44  1  0.08718000  0.63839000  0.54168000  1.0
  C  C45  1  0.91246000  0.36173000  0.04171000  1.0
  C  C46  1  0.78543000  0.33409000  0.53751000  1.0
  C  C47  1  0.21451000  0.66590000  0.03743000  1.0
  C  C48  1  0.21487000  0.66595000  0.46258000  1.0
  C  C49  1  0.78497000  0.33413000  0.96259000  1.0
  C  C50  1  0.26438000  0.30581000  0.33265000  1.0
  C  C51  1  0.73541000  0.69421000  0.83260000  1.0
  C  C52  1  0.73528000  0.69422000  0.66732000  1.0
  C  C53  1  0.26428000  0.30588000  0.16739000  1.0
  C  C54  1  0.09344000  0.27697000  0.25002000  1.0
  C  C55  1  0.90625000  0.72304000  0.74995000  1.0
  I  I56  1  0.36461000  0.00700000  0.75028000  1.0
  I  I57  1  0.63779000  0.99269000  0.24978000  1.0
  I  I58  1  0.25996000  0.40844000  0.75009000  1.0
  I  I59  1  0.74260000  0.59117000  0.24983000  1.0
  N  N60  1  0.84282000  0.22909000  0.57603000  1.0
  N  N61  1  0.15750000  0.77093000  0.07591000  1.0
  N  N62  1  0.15770000  0.77095000  0.42404000  1.0
  N  N63  1  0.84212000  0.22909000  0.92414000  1.0
