# generated using pymatgen
data_CuPH9C8(NO)4
_symmetry_space_group_name_H-M   'P 1'
_cell_length_a   7.35232000
_cell_length_b   7.65110000
_cell_length_c   10.67820000
_cell_angle_alpha   93.40040000
_cell_angle_beta   108.43300000
_cell_angle_gamma   90.51250000
_symmetry_Int_Tables_number   1
_chemical_formula_structural   CuPH9C8(NO)4
_chemical_formula_sum   'Cu2 P2 H18 C16 N8 O8'
_cell_volume   568.61900933
_cell_formula_units_Z   2
loop_
 _symmetry_equiv_pos_site_id
 _symmetry_equiv_pos_as_xyz
  1  'x, y, z'
loop_
 _atom_site_type_symbol
 _atom_site_label
 _atom_site_symmetry_multiplicity
 _atom_site_fract_x
 _atom_site_fract_y
 _atom_site_fract_z
 _atom_site_occupancy
  Cu  Cu0  1  0.00000000  0.50000000  0.00000000  1.0
  Cu  Cu1  1  0.50000000  0.50000000  0.00000000  1.0
  P  P2  1  0.25037000  0.15132000  0.99627000  1.0
  P  P3  1  0.74963000  0.84869000  0.00374000  1.0
  H  H4  1  0.06242000  0.05843000  0.80203000  1.0
  H  H5  1  0.93758000  0.94158000  0.19797000  1.0
  H  H6  1  0.23067000  0.71816000  0.84353000  1.0
  H  H7  1  0.76933000  0.28184000  0.15646000  1.0
  H  H8  1  0.23607000  0.53913000  0.76537000  1.0
  H  H9  1  0.76393000  0.46088000  0.23462000  1.0
  H  H10  1  0.18679000  0.92501000  0.11720000  1.0
  H  H11  1  0.81320000  0.07499000  0.88279000  1.0
  H  H12  1  0.42463000  0.92069000  0.11322000  1.0
  H  H13  1  0.57536000  0.07931000  0.88677000  1.0
  H  H14  1  0.11468000  0.22117000  0.25425000  1.0
  H  H15  1  0.88531000  0.77882000  0.74575000  1.0
  H  H16  1  0.67463000  0.01698000  0.30361000  1.0
  H  H17  1  0.32536000  0.98302000  0.69639000  1.0
  H  H18  1  0.22975000  0.35818000  0.48180000  1.0
  H  H19  1  0.77026000  0.64182000  0.51820000  1.0
  H  H20  1  0.79283000  0.16176000  0.53057000  1.0
  H  H21  1  0.20718000  0.83824000  0.46942000  1.0
  C  C22  1  0.31530000  0.00747000  0.13010000  1.0
  C  C23  1  0.68470000  0.99253000  0.86990000  1.0
  C  C24  1  0.38562000  0.10394000  0.26429000  1.0
  C  C25  1  0.61437000  0.89606000  0.73572000  1.0
  C  C26  1  0.26215000  0.20274000  0.31549000  1.0
  C  C27  1  0.73785000  0.79725000  0.68451000  1.0
  C  C28  1  0.57793000  0.09338000  0.34259000  1.0
  C  C29  1  0.42206000  0.90662000  0.65741000  1.0
  C  C30  1  0.32719000  0.28244000  0.44297000  1.0
  C  C31  1  0.67281000  0.71756000  0.55703000  1.0
  C  C32  1  0.64420000  0.17417000  0.46946000  1.0
  C  C33  1  0.35581000  0.82582000  0.53054000  1.0
  C  C34  1  0.51850000  0.26710000  0.52207000  1.0
  C  C35  1  0.48151000  0.73289000  0.47792000  1.0
  C  C36  1  0.58548000  0.34138000  0.65831000  1.0
  C  C37  1  0.41453000  0.65862000  0.34170000  1.0
  N  N38  1  0.76928000  0.42417000  0.84966000  1.0
  N  N39  1  0.23073000  0.57583000  0.15034000  1.0
  N  N40  1  0.58974000  0.45322000  0.84552000  1.0
  N  N41  1  0.41026000  0.54678000  0.15448000  1.0
  N  N42  1  0.77217000  0.35270000  0.73431000  1.0
  N  N43  1  0.22784000  0.64730000  0.26569000  1.0
  N  N44  1  0.47017000  0.40331000  0.72669000  1.0
  N  N45  1  0.52983000  0.59668000  0.27331000  1.0
  O  O46  1  0.07947000  0.25791000  0.00188000  1.0
  O  O47  1  0.92054000  0.74210000  0.99813000  1.0
  O  O48  1  0.17589000  0.01411000  0.86663000  1.0
  O  O49  1  0.82410000  0.98590000  0.13337000  1.0
  O  O50  1  0.42911000  0.24800000  0.99072000  1.0
  O  O51  1  0.57089000  0.75200000  0.00928000  1.0
  O  O52  1  0.19032000  0.59470000  0.83474000  1.0
  O  O53  1  0.80968000  0.40530000  0.16525000  1.0
