# generated using pymatgen
data_Pr2H20C28N2O17
_symmetry_space_group_name_H-M   'P 1'
_cell_length_a   10.22210000
_cell_length_b   12.45410000
_cell_length_c   13.29050000
_cell_angle_alpha   72.31280000
_cell_angle_beta   73.54800000
_cell_angle_gamma   69.66160000
_symmetry_Int_Tables_number   1
_chemical_formula_structural   Pr2H20C28N2O17
_chemical_formula_sum   'Pr4 H40 C56 N4 O34'
_cell_volume   1481.31958118
_cell_formula_units_Z   2
loop_
 _symmetry_equiv_pos_site_id
 _symmetry_equiv_pos_as_xyz
  1  'x, y, z'
loop_
 _atom_site_type_symbol
 _atom_site_label
 _atom_site_symmetry_multiplicity
 _atom_site_fract_x
 _atom_site_fract_y
 _atom_site_fract_z
 _atom_site_occupancy
  Pr  Pr0  1  0.68457000  0.71854000  0.54118000  1.0
  Pr  Pr1  1  0.31543000  0.28146000  0.45882000  1.0
  Pr  Pr2  1  0.30879000  0.78695000  0.40521000  1.0
  Pr  Pr3  1  0.69122000  0.21305000  0.59479000  1.0
  H  H4  1  0.78034000  0.50181000  0.43256000  1.0
  H  H5  1  0.21966000  0.49819000  0.56744000  1.0
  H  H6  1  0.62513000  0.57204000  0.41890000  1.0
  H  H7  1  0.37487000  0.42796000  0.58110000  1.0
  H  H8  1  0.80752000  0.52772000  0.72613000  1.0
  H  H9  1  0.19248000  0.47228000  0.27387000  1.0
  H  H10  1  0.79793000  0.45678000  0.64590000  1.0
  H  H11  1  0.20208000  0.54322000  0.35410000  1.0
  H  H12  1  0.23303000  0.02409000  0.47370000  1.0
  H  H13  1  0.76697000  0.97591000  0.52630000  1.0
  H  H14  1  0.36324000  0.94219000  0.52820000  1.0
  H  H15  1  0.63676000  0.05781000  0.47180000  1.0
  H  H16  1  0.46173000  0.24552000  0.08894000  1.0
  H  H17  1  0.53827000  0.75448000  0.91106000  1.0
  H  H18  1  0.59413000  0.16370000  0.92414000  1.0
  H  H19  1  0.40587000  0.83630000  0.07586000  1.0
  H  H20  1  0.75517000  0.95848000  0.94904000  1.0
  H  H21  1  0.24483000  0.04152000  0.05096000  1.0
  H  H22  1  0.12817000  0.68370000  0.20178000  1.0
  H  H23  1  0.87183000  0.31630000  0.79822000  1.0
  H  H24  1  0.94600000  0.87726000  0.17037000  1.0
  H  H25  1  0.05401000  0.12274000  0.82963000  1.0
  H  H26  1  0.67999000  0.73708000  0.09558000  1.0
  H  H27  1  0.32001000  0.26292000  0.90442000  1.0
  H  H28  1  0.85302000  0.53710000  0.11894000  1.0
  H  H29  1  0.14698000  0.46290000  0.88106000  1.0
  H  H30  1  0.50645000  0.36362000  0.92971000  1.0
  H  H31  1  0.49355000  0.63638000  0.07030000  1.0
  H  H32  1  0.33815000  0.48787000  0.05703000  1.0
  H  H33  1  0.66184000  0.51213000  0.94297000  1.0
  H  H34  1  0.16316000  0.67382000  0.98400000  1.0
  H  H35  1  0.83684000  0.32618000  0.01600000  1.0
  H  H36  1  0.05610000  0.05042000  0.69632000  1.0
  H  H37  1  0.94390000  0.94958000  0.30368000  1.0
  H  H38  1  0.25357000  0.87295000  0.73808000  1.0
  H  H39  1  0.74644000  0.12705000  0.26192000  1.0
  H  H40  1  0.98920000  0.65432000  0.82103000  1.0
  H  H41  1  0.01080000  0.34568000  0.17897000  1.0
  H  H42  1  0.78013000  0.82369000  0.78649000  1.0
  H  H43  1  0.21987000  0.17631000  0.21351000  1.0
  C  C44  1  0.63702000  0.88659000  0.32336000  1.0
  C  C45  1  0.36299000  0.11341000  0.67664000  1.0
  C  C46  1  0.46727000  0.14711000  0.29253000  1.0
  C  C47  1  0.53273000  0.85289000  0.70747000  1.0
  C  C48  1  0.62612000  0.96961000  0.21456000  1.0
  C  C49  1  0.37388000  0.03039000  0.78543000  1.0
  C  C50  1  0.54051000  0.08709000  0.20047000  1.0
  C  C51  1  0.45949000  0.91291000  0.79953000  1.0
  C  C52  1  0.52931000  0.15506000  0.09590000  1.0
  C  C53  1  0.47069000  0.84494000  0.90410000  1.0
  C  C54  1  0.60254000  0.10978000  0.00519000  1.0
  C  C55  1  0.39746000  0.89022000  0.99481000  1.0
  C  C56  1  0.69277000  0.99502000  0.01857000  1.0
  C  C57  1  0.30723000  0.00498000  0.98143000  1.0
  C  C58  1  0.70462000  0.92725000  0.12219000  1.0
  C  C59  1  0.29538000  0.07275000  0.87781000  1.0
  C  C60  1  0.03057000  0.69064000  0.17923000  1.0
  C  C61  1  0.96943000  0.30936000  0.82076000  1.0
  C  C62  1  0.93190000  0.79773000  0.16259000  1.0
  C  C63  1  0.06810000  0.20227000  0.83741000  1.0
  C  C64  1  0.78111000  0.71843000  0.11857000  1.0
  C  C65  1  0.21888000  0.28157000  0.88143000  1.0
  C  C66  1  0.87668000  0.60932000  0.13300000  1.0
  C  C67  1  0.12332000  0.39068000  0.86700000  1.0
  C  C68  1  0.00552000  0.58725000  0.16985000  1.0
  C  C69  1  0.99448000  0.41274000  0.83015000  1.0
  C  C70  1  0.97148000  0.80217000  0.50403000  1.0
  C  C71  1  0.02853000  0.19783000  0.49597000  1.0
  C  C72  1  0.02308000  0.69658000  0.44957000  1.0
  C  C73  1  0.97693000  0.30342000  0.55043000  1.0
  C  C74  1  0.34428000  0.64265000  0.62946000  1.0
  C  C75  1  0.65572000  0.35735000  0.37054000  1.0
  C  C76  1  0.52080000  0.39411000  0.72196000  1.0
  C  C77  1  0.47920000  0.60589000  0.27804000  1.0
  C  C78  1  0.34099000  0.59057000  0.74771000  1.0
  C  C79  1  0.65901000  0.40943000  0.25229000  1.0
  C  C80  1  0.43331000  0.48177000  0.78961000  1.0
  C  C81  1  0.56669000  0.51823000  0.21039000  1.0
  C  C82  1  0.43240000  0.44731000  0.90033000  1.0
  C  C83  1  0.56760000  0.55269000  0.09967000  1.0
  C  C84  1  0.33926000  0.51622000  0.97084000  1.0
  C  C85  1  0.66074000  0.48378000  0.02916000  1.0
  C  C86  1  0.24144000  0.62014000  0.93057000  1.0
  C  C87  1  0.75856000  0.37986000  0.06943000  1.0
  C  C88  1  0.24154000  0.65564000  0.82044000  1.0
  C  C89  1  0.75846000  0.34436000  0.17956000  1.0
  C  C90  1  0.03435000  0.96568000  0.72802000  1.0
  C  C91  1  0.96565000  0.03431000  0.27198000  1.0
  C  C92  1  0.14615000  0.86801000  0.74937000  1.0
  C  C93  1  0.85385000  0.13199000  0.25063000  1.0
  C  C94  1  0.99681000  0.74421000  0.79791000  1.0
  C  C95  1  0.00319000  0.25578000  0.20209000  1.0
  C  C96  1  0.88153000  0.83905000  0.77825000  1.0
  C  C97  1  0.11847000  0.16095000  0.22175000  1.0
  C  C98  1  0.89424000  0.95624000  0.74274000  1.0
  C  C99  1  0.10576000  0.04376000  0.25726000  1.0
  N  N100  1  0.80633000  0.81219000  0.13498000  1.0
  N  N101  1  0.19367000  0.18781000  0.86502000  1.0
  N  N102  1  0.12837000  0.75803000  0.78519000  1.0
  N  N103  1  0.87163000  0.24197000  0.21481000  1.0
  O  O104  1  0.73984000  0.87175000  0.36564000  1.0
  O  O105  1  0.26016000  0.12825000  0.63436000  1.0
  O  O106  1  0.54626000  0.82795000  0.36571000  1.0
  O  O107  1  0.45374000  0.17205000  0.63429000  1.0
  O  O108  1  0.49094000  0.09567000  0.38772000  1.0
  O  O109  1  0.50906000  0.90433000  0.61228000  1.0
  O  O110  1  0.38592000  0.25151000  0.27088000  1.0
  O  O111  1  0.61408000  0.74849000  0.72912000  1.0
  O  O112  1  0.09120000  0.48473000  0.19074000  1.0
  O  O113  1  0.90880000  0.51527000  0.80926000  1.0
  O  O114  1  0.05707000  0.85919000  0.49150000  1.0
  O  O115  1  0.94294000  0.14082000  0.50850000  1.0
  O  O116  1  0.84291000  0.82489000  0.55575000  1.0
  O  O117  1  0.15709000  0.17511000  0.44425000  1.0
  O  O118  1  0.15028000  0.67576000  0.39486000  1.0
  O  O119  1  0.84972000  0.32424000  0.60514000  1.0
  O  O120  1  0.93706000  0.64022000  0.46112000  1.0
  O  O121  1  0.06295000  0.35978000  0.53887000  1.0
  O  O122  1  0.44174000  0.69231000  0.57594000  1.0
  O  O123  1  0.55826000  0.30769000  0.42406000  1.0
  O  O124  1  0.24468000  0.64717000  0.58858000  1.0
  O  O125  1  0.75532000  0.35283000  0.41142000  1.0
  O  O126  1  0.58919000  0.29240000  0.76768000  1.0
  O  O127  1  0.41081000  0.70760000  0.23232000  1.0
  O  O128  1  0.51978000  0.42061000  0.62099000  1.0
  O  O129  1  0.48022000  0.57939000  0.37901000  1.0
  O  O130  1  0.78615000  0.04636000  0.72592000  1.0
  O  O131  1  0.21385000  0.95364000  0.27408000  1.0
  O  O132  1  0.71194000  0.57927000  0.43307000  1.0
  O  O133  1  0.28806000  0.42073000  0.56693000  1.0
  O  O134  1  0.75471000  0.53164000  0.67065000  1.0
  O  O135  1  0.24529000  0.46836000  0.32935000  1.0
  O  O136  1  0.28680000  0.94046000  0.49817000  1.0
  O  O137  1  0.71319000  0.05955000  0.50183000  1.0
