# generated using pymatgen
data_UCdH12C16(NO5)2
_symmetry_space_group_name_H-M   'P 1'
_cell_length_a   7.57363000
_cell_length_b   11.66130000
_cell_length_c   11.66110000
_cell_angle_alpha   96.11860000
_cell_angle_beta   105.92400000
_cell_angle_gamma   105.92500000
_symmetry_Int_Tables_number   1
_chemical_formula_structural   UCdH12C16(NO5)2
_chemical_formula_sum   'U2 Cd2 H24 C32 N4 O20'
_cell_volume   933.76010002
_cell_formula_units_Z   2
loop_
 _symmetry_equiv_pos_site_id
 _symmetry_equiv_pos_as_xyz
  1  'x, y, z'
loop_
 _atom_site_type_symbol
 _atom_site_label
 _atom_site_symmetry_multiplicity
 _atom_site_fract_x
 _atom_site_fract_y
 _atom_site_fract_z
 _atom_site_occupancy
  U  U0  1  0.22020000  0.12650000  0.78150000  1.0
  U  U1  1  0.72018000  0.78148000  0.12649000  1.0
  Cd  Cd2  1  0.79392000  0.29100000  0.81486000  1.0
  Cd  Cd3  1  0.29390000  0.81485000  0.29100000  1.0
  H  H4  1  0.29512000  0.48963000  0.69255000  1.0
  H  H5  1  0.79510000  0.69255000  0.48963000  1.0
  H  H6  1  0.42680000  0.58091000  0.83730000  1.0
  H  H7  1  0.92675000  0.83731000  0.58090000  1.0
  H  H8  1  0.57158000  0.86674000  0.65822000  1.0
  H  H9  1  0.07158000  0.65822000  0.86674000  1.0
  H  H10  1  0.60666000  0.85298000  0.81136000  1.0
  H  H11  1  0.10666000  0.81136000  0.85298000  1.0
  H  H12  1  0.85274000  0.13188000  0.01626000  1.0
  H  H13  1  0.35275000  0.01625000  0.13187000  1.0
  H  H14  1  0.85458000  0.12815000  0.22588000  1.0
  H  H15  1  0.35459000  0.22588000  0.12814000  1.0
  H  H16  1  0.74330000  0.47551000  0.23613000  1.0
  H  H17  1  0.24329000  0.23613000  0.47550000  1.0
  H  H18  1  0.75427000  0.46596000  0.02770000  1.0
  H  H19  1  0.25427000  0.02771000  0.46595000  1.0
  H  H20  1  0.86346000  0.49721000  0.43499000  1.0
  H  H21  1  0.36347000  0.43499000  0.49720000  1.0
  H  H22  1  0.83783000  0.48258000  0.64268000  1.0
  H  H23  1  0.33785000  0.64268000  0.48258000  1.0
  H  H24  1  0.71273000  0.10823000  0.57182000  1.0
  H  H25  1  0.21273000  0.57182000  0.10823000  1.0
  H  H26  1  0.73104000  0.10543000  0.36418000  1.0
  H  H27  1  0.23104000  0.36418000  0.10543000  1.0
  C  C28  1  0.19161000  0.42307000  0.82978000  1.0
  C  C29  1  0.69159000  0.82976000  0.42306000  1.0
  C  C30  1  0.36014000  0.48611000  0.78884000  1.0
  C  C31  1  0.86011000  0.78884000  0.48610000  1.0
  C  C32  1  0.51350000  0.42491000  0.79332000  1.0
  C  C33  1  0.01348000  0.79332000  0.42490000  1.0
  C  C34  1  0.82965000  0.99078000  0.77910000  1.0
  C  C35  1  0.32965000  0.77910000  0.99077000  1.0
  C  C36  1  0.61906000  0.91973000  0.75178000  1.0
  C  C37  1  0.11906000  0.75177000  0.91973000  1.0
  C  C38  1  0.47993000  0.98968000  0.75489000  1.0
  C  C39  1  0.97994000  0.75488000  0.98968000  1.0
  C  C40  1  0.82966000  0.20646000  0.06852000  1.0
  C  C41  1  0.32965000  0.06852000  0.20645000  1.0
  C  C42  1  0.82994000  0.20551000  0.18742000  1.0
  C  C43  1  0.32995000  0.18742000  0.20551000  1.0
  C  C44  1  0.80108000  0.30269000  0.25334000  1.0
  C  C45  1  0.30109000  0.25334000  0.30269000  1.0
  C  C46  1  0.77200000  0.39768000  0.19380000  1.0
  C  C47  1  0.27200000  0.19379000  0.39768000  1.0
  C  C48  1  0.77523000  0.39250000  0.07474000  1.0
  C  C49  1  0.27523000  0.07474000  0.39249000  1.0
  C  C50  1  0.79708000  0.30173000  0.37936000  1.0
  C  C51  1  0.29710000  0.37936000  0.30173000  1.0
  C  C52  1  0.82797000  0.40868000  0.46082000  1.0
  C  C53  1  0.32797000  0.46082000  0.40868000  1.0
  C  C54  1  0.81594000  0.40199000  0.57687000  1.0
  C  C55  1  0.31594000  0.57687000  0.40199000  1.0
  C  C56  1  0.74682000  0.19282000  0.53864000  1.0
  C  C57  1  0.24682000  0.53864000  0.19282000  1.0
  C  C58  1  0.75778000  0.19227000  0.42166000  1.0
  C  C59  1  0.25779000  0.42166000  0.19227000  1.0
  N  N60  1  0.80408000  0.29870000  0.01293000  1.0
  N  N61  1  0.30408000  0.01293000  0.29869000  1.0
  N  N62  1  0.77534000  0.29565000  0.61514000  1.0
  N  N63  1  0.27533000  0.61514000  0.29565000  1.0
  O  O64  1  0.13621000  0.30590000  0.81641000  1.0
  O  O65  1  0.63620000  0.81641000  0.30589000  1.0
  O  O66  1  0.09888000  0.48311000  0.86899000  1.0
  O  O67  1  0.59884000  0.86896000  0.48310000  1.0
  O  O68  1  0.46639000  0.30789000  0.78508000  1.0
  O  O69  1  0.96638000  0.78508000  0.30789000  1.0
  O  O70  1  0.68250000  0.48667000  0.80367000  1.0
  O  O71  1  0.18247000  0.80367000  0.48667000  1.0
  O  O72  1  0.94612000  0.93699000  0.75850000  1.0
  O  O73  1  0.44613000  0.75849000  0.93699000  1.0
  O  O74  1  0.89932000  0.10615000  0.82176000  1.0
  O  O75  1  0.39930000  0.82175000  0.10614000  1.0
  O  O76  1  0.51474000  0.09980000  0.73661000  1.0
  O  O77  1  0.01475000  0.73661000  0.09980000  1.0
  O  O78  1  0.31995000  0.94019000  0.77174000  1.0
  O  O79  1  0.81995000  0.77173000  0.94019000  1.0
  O  O80  1  0.10997000  0.10872000  0.61847000  1.0
  O  O81  1  0.60997000  0.61846000  0.10873000  1.0
  O  O82  1  0.33219000  0.14342000  0.94393000  1.0
  O  O83  1  0.83218000  0.94392000  0.14341000  1.0
