# generated using pymatgen
data_LaH35C20O9
_symmetry_space_group_name_H-M   'P 1'
_cell_length_a   8.48316000
_cell_length_b   8.88579000
_cell_length_c   15.30550000
_cell_angle_alpha   97.02810000
_cell_angle_beta   99.31390000
_cell_angle_gamma   98.13670000
_symmetry_Int_Tables_number   1
_chemical_formula_structural   LaH35C20O9
_chemical_formula_sum   'La2 H70 C40 O18'
_cell_volume   1114.52065588
_cell_formula_units_Z   2
loop_
 _symmetry_equiv_pos_site_id
 _symmetry_equiv_pos_as_xyz
  1  'x, y, z'
loop_
 _atom_site_type_symbol
 _atom_site_label
 _atom_site_symmetry_multiplicity
 _atom_site_fract_x
 _atom_site_fract_y
 _atom_site_fract_z
 _atom_site_occupancy
  La  La0  1  0.25317000  0.51623000  0.99992000  1.0
  La  La1  1  0.74683000  0.48377000  0.00009000  1.0
  H  H2  1  0.22261000  0.93455000  0.01294000  1.0
  H  H3  1  0.77738000  0.06544000  0.98706000  1.0
  H  H4  1  0.15073000  0.14677000  0.97683000  1.0
  H  H5  1  0.84927000  0.85323000  0.02317000  1.0
  H  H6  1  0.30912000  0.18615000  0.04658000  1.0
  H  H7  1  0.69088000  0.81385000  0.95342000  1.0
  H  H8  1  0.71190000  0.42137000  0.22504000  1.0
  H  H9  1  0.28810000  0.57862000  0.77497000  1.0
  H  H10  1  0.54419000  0.31557000  0.25913000  1.0
  H  H11  1  0.45581000  0.68442000  0.74087000  1.0
  H  H12  1  0.47902000  0.56613000  0.33148000  1.0
  H  H13  1  0.52098000  0.43387000  0.66852000  1.0
  H  H14  1  0.65866000  0.66348000  0.30545000  1.0
  H  H15  1  0.34133000  0.33652000  0.69455000  1.0
  H  H16  1  0.64317000  0.40730000  0.42302000  1.0
  H  H17  1  0.35683000  0.59270000  0.57698000  1.0
  H  H18  1  0.82212000  0.50317000  0.39671000  1.0
  H  H19  1  0.17788000  0.49683000  0.60329000  1.0
  H  H20  1  0.59003000  0.66017000  0.49718000  1.0
  H  H21  1  0.40996000  0.33983000  0.50282000  1.0
  H  H22  1  0.77089000  0.75347000  0.47143000  1.0
  H  H23  1  0.22911000  0.24652000  0.52857000  1.0
  H  H24  1  0.74779000  0.50049000  0.59089000  1.0
  H  H25  1  0.25221000  0.49951000  0.40910000  1.0
  H  H26  1  0.92824000  0.58567000  0.56124000  1.0
  H  H27  1  0.07176000  0.41433000  0.43876000  1.0
  H  H28  1  0.71202000  0.75644000  0.66666667  1.0
  H  H29  1  0.28798000  0.24356000  0.33340000  1.0
  H  H30  1  0.88707000  0.84485000  0.63247000  1.0
  H  H31  1  0.11292000  0.15514000  0.36753000  1.0
  H  H32  1  0.87639000  0.60017000  0.75774000  1.0
  H  H33  1  0.12360000  0.39982000  0.24226000  1.0
  H  H34  1  0.05193000  0.67695000  0.71942000  1.0
  H  H35  1  0.94806000  0.32304000  0.28058000  1.0
  H  H36  1  0.85569000  0.85744000  0.83473000  1.0
  H  H37  1  0.14431000  0.14255000  0.16527000  1.0
  H  H38  1  0.01793000  0.94475000  0.79046000  1.0
  H  H39  1  0.98208000  0.05525000  0.20955000  1.0
  H  H40  1  0.64279000  0.08438000  0.16114000  1.0
  H  H41  1  0.35721000  0.91563000  0.83886000  1.0
  H  H42  1  0.68781000  0.89526000  0.17099000  1.0
  H  H43  1  0.31218000  0.10474000  0.82901000  1.0
  H  H44  1  0.46354000  0.06029000  0.27435000  1.0
  H  H45  1  0.53646000  0.93971000  0.72565000  1.0
  H  H46  1  0.50372000  0.87309000  0.28424000  1.0
  H  H47  1  0.49628000  0.12691000  0.71576000  1.0
  H  H48  1  0.79758000  0.97655000  0.33980000  1.0
  H  H49  1  0.20242000  0.02345000  0.66020000  1.0
  H  H50  1  0.76216000  0.16436000  0.32794000  1.0
  H  H51  1  0.23784000  0.83564000  0.67206000  1.0
  H  H52  1  0.61184000  0.96212000  0.45204000  1.0
  H  H53  1  0.38817000  0.03788000  0.54796000  1.0
  H  H54  1  0.57405000  0.14839000  0.43945000  1.0
  H  H55  1  0.42596000  0.85161000  0.56055000  1.0
  H  H56  1  0.86993000  0.25374000  0.49615000  1.0
  H  H57  1  0.13008000  0.74627000  0.50384000  1.0
  H  H58  1  0.90732000  0.06690000  0.50891000  1.0
  H  H59  1  0.09269000  0.93310000  0.49109000  1.0
  H  H60  1  0.67610000  0.23433000  0.60467000  1.0
  H  H61  1  0.32391000  0.76568000  0.39533000  1.0
  H  H62  1  0.71602000  0.04895000  0.61797000  1.0
  H  H63  1  0.28399000  0.95106000  0.38203000  1.0
  H  H64  1  0.97099000  0.34303000  0.66496000  1.0
  H  H65  1  0.02902000  0.65698000  0.33504000  1.0
  H  H66  1  0.00926000  0.15809000  0.68041000  1.0
  H  H67  1  0.99074000  0.84192000  0.31959000  1.0
  H  H68  1  0.76439000  0.32073000  0.76952000  1.0
  H  H69  1  0.23561000  0.67927000  0.23048000  1.0
  H  H70  1  0.81542000  0.14172000  0.78863000  1.0
  H  H71  1  0.18458000  0.85828000  0.21136000  1.0
  C  C72  1  0.47876000  0.45214000  0.16022000  1.0
  C  C73  1  0.52124000  0.54786000  0.83979000  1.0
  C  C74  1  0.59208000  0.42817000  0.24198000  1.0
  C  C75  1  0.40792000  0.57182000  0.75802000  1.0
  C  C76  1  0.60240000  0.55320000  0.32159000  1.0
  C  C77  1  0.39760000  0.44680000  0.67841000  1.0
  C  C78  1  0.69934000  0.51829000  0.40737000  1.0
  C  C79  1  0.30066000  0.48171000  0.59263000  1.0
  C  C80  1  0.71268000  0.64327000  0.48705000  1.0
  C  C81  1  0.28732000  0.35672000  0.51296000  1.0
  C  C82  1  0.80813000  0.60798000  0.57321000  1.0
  C  C83  1  0.19186000  0.39202000  0.42679000  1.0
  C  C84  1  0.83133000  0.73685000  0.65187000  1.0
  C  C85  1  0.16867000  0.26314000  0.34813000  1.0
  C  C86  1  0.93593000  0.70303000  0.73559000  1.0
  C  C87  1  0.06407000  0.29696000  0.26440000  1.0
  C  C88  1  0.96843000  0.83647000  0.81186000  1.0
  C  C89  1  0.03157000  0.16352000  0.18813000  1.0
  C  C90  1  0.08445000  0.81439000  0.89290000  1.0
  C  C91  1  0.91555000  0.18559000  0.10709000  1.0
  C  C92  1  0.44701000  0.90142000  0.10599000  1.0
  C  C93  1  0.55299000  0.09858000  0.89401000  1.0
  C  C94  1  0.59600000  0.97010000  0.17572000  1.0
  C  C95  1  0.40400000  0.02991000  0.82428000  1.0
  C  C96  1  0.55703000  0.98630000  0.27074000  1.0
  C  C97  1  0.44297000  0.01370000  0.72926000  1.0
  C  C98  1  0.70598000  0.05286000  0.34279000  1.0
  C  C99  1  0.29402000  0.94714000  0.65721000  1.0
  C  C100  1  0.66742000  0.07374000  0.43724000  1.0
  C  C101  1  0.33258000  0.92626000  0.56276000  1.0
  C  C102  1  0.81408000  0.14170000  0.51052000  1.0
  C  C103  1  0.18593000  0.85831000  0.48948000  1.0
  C  C104  1  0.77125000  0.16141000  0.60407000  1.0
  C  C105  1  0.22876000  0.83859000  0.39593000  1.0
  C  C106  1  0.91455000  0.23123000  0.67903000  1.0
  C  C107  1  0.08546000  0.76877000  0.32097000  1.0
  C  C108  1  0.86383000  0.25333000  0.77048000  1.0
  C  C109  1  0.13618000  0.74667000  0.22952000  1.0
  C  C110  1  0.99650000  0.33142000  0.84747000  1.0
  C  C111  1  0.00350000  0.66858000  0.15253000  1.0
  O  O112  1  0.52411000  0.43910000  0.08331000  1.0
  O  O113  1  0.47589000  0.56090000  0.91669000  1.0
  O  O114  1  0.33927000  0.48202000  0.16618000  1.0
  O  O115  1  0.66073000  0.51798000  0.83382000  1.0
  O  O116  1  0.14125000  0.69312000  0.89792000  1.0
  O  O117  1  0.85875000  0.30688000  0.10207000  1.0
  O  O118  1  0.12111000  0.93306000  0.95623000  1.0
  O  O119  1  0.87889000  0.06693000  0.04377000  1.0
  O  O120  1  0.42246000  0.75964000  0.07678000  1.0
  O  O121  1  0.57753000  0.24037000  0.92322000  1.0
  O  O122  1  0.34824000  0.99251000  0.08140000  1.0
  O  O123  1  0.65175000  0.00750000  0.91860000  1.0
  O  O124  1  0.14372000  0.34787000  0.84044000  1.0
  O  O125  1  0.85628000  0.65212000  0.15957000  1.0
  O  O126  1  0.95508000  0.38089000  0.92284000  1.0
  O  O127  1  0.04492000  0.61911000  0.07717000  1.0
  O  O128  1  0.22416000  0.23423000  0.01466000  1.0
  O  O129  1  0.77585000  0.76577000  0.98534000  1.0
