# generated using pymatgen
data_ScH5C7(NO4)2
_symmetry_space_group_name_H-M   'P 1'
_cell_length_a   10.24710000
_cell_length_b   13.83720000
_cell_length_c   13.83710000
_cell_angle_alpha   114.11300000
_cell_angle_beta   104.29000000
_cell_angle_gamma   104.29200000
_symmetry_Int_Tables_number   1
_chemical_formula_structural   ScH5C7(NO4)2
_chemical_formula_sum   'Sc6 H30 C42 N12 O48'
_cell_volume   1595.66077424
_cell_formula_units_Z   6
loop_
 _symmetry_equiv_pos_site_id
 _symmetry_equiv_pos_as_xyz
  1  'x, y, z'
loop_
 _atom_site_type_symbol
 _atom_site_label
 _atom_site_symmetry_multiplicity
 _atom_site_fract_x
 _atom_site_fract_y
 _atom_site_fract_z
 _atom_site_occupancy
  Sc  Sc0  1  0.84713000  0.65548000  0.52361000  1.0
  Sc  Sc1  1  0.19161000  0.86812000  0.34454000  1.0
  Sc  Sc2  1  0.32349000  0.47641000  0.13188000  1.0
  Sc  Sc3  1  0.15287000  0.34452000  0.47639000  1.0
  Sc  Sc4  1  0.80839000  0.13188000  0.65546000  1.0
  Sc  Sc5  1  0.67651000  0.52359000  0.86812000  1.0
  H  H6  1  0.80098000  0.82074000  0.75831000  1.0
  H  H7  1  0.98021000  0.93759000  0.17925000  1.0
  H  H8  1  0.04264000  0.24168000  0.06246000  1.0
  H  H9  1  0.19902000  0.17926000  0.24169000  1.0
  H  H10  1  0.01979000  0.06241000  0.82075000  1.0
  H  H11  1  0.95736000  0.75832000  0.93754000  1.0
  H  H12  1  0.59352000  0.83973000  0.81916000  1.0
  H  H13  1  0.75374000  0.97942000  0.16024000  1.0
  H  H14  1  0.77434000  0.18081000  0.02057000  1.0
  H  H15  1  0.40648000  0.16027000  0.18084000  1.0
  H  H16  1  0.24626000  0.02058000  0.83976000  1.0
  H  H17  1  0.22566000  0.81919000  0.97943000  1.0
  H  H18  1  0.33632000  0.71917000  0.67272000  1.0
  H  H19  1  0.61711000  0.95357000  0.28082000  1.0
  H  H20  1  0.66354000  0.32724000  0.04645000  1.0
  H  H21  1  0.66368000  0.28083000  0.32728000  1.0
  H  H22  1  0.38289000  0.04643000  0.71918000  1.0
  H  H23  1  0.33646000  0.67276000  0.95355000  1.0
  H  H24  1  0.00122000  0.57853000  0.38929000  1.0
  H  H25  1  0.42266000  0.81075000  0.42145000  1.0
  H  H26  1  0.61188000  0.61070000  0.18924000  1.0
  H  H27  1  0.99877000  0.42147000  0.61071000  1.0
  H  H28  1  0.57734000  0.18925000  0.57855000  1.0
  H  H29  1  0.38812000  0.38930000  0.81076000  1.0
  H  H30  1  0.84368000  0.56261000  0.31063000  1.0
  H  H31  1  0.28104000  0.74799000  0.43737000  1.0
  H  H32  1  0.53303000  0.68938000  0.25201000  1.0
  H  H33  1  0.15632000  0.43739000  0.68937000  1.0
  H  H34  1  0.71896000  0.25201000  0.56263000  1.0
  H  H35  1  0.46697000  0.31062000  0.74799000  1.0
  C  C36  1  0.68772000  0.77076000  0.69688000  1.0
  C  C37  1  0.91693000  0.92612000  0.22922000  1.0
  C  C38  1  0.99081000  0.30311000  0.07389000  1.0
  C  C39  1  0.31228000  0.22924000  0.30312000  1.0
  C  C40  1  0.08307000  0.07388000  0.77078000  1.0
  C  C41  1  0.00919000  0.69689000  0.92611000  1.0
  C  C42  1  0.40526000  0.64003000  0.53484000  1.0
  C  C43  1  0.76518000  0.89482000  0.35996000  1.0
  C  C44  1  0.87035000  0.46511000  0.10519000  1.0
  C  C45  1  0.59474000  0.35997000  0.46516000  1.0
  C  C46  1  0.23482000  0.10517000  0.64004000  1.0
  C  C47  1  0.12966000  0.53489000  0.89482000  1.0
  C  C48  1  0.57167000  0.78065000  0.73032000  1.0
  C  C49  1  0.79098000  0.94966000  0.21932000  1.0
  C  C50  1  0.84131000  0.26966000  0.05033000  1.0
  C  C51  1  0.42833000  0.21935000  0.26968000  1.0
  C  C52  1  0.20902000  0.05034000  0.78068000  1.0
  C  C53  1  0.15869000  0.73034000  0.94967000  1.0
  C  C54  1  0.42909000  0.71391000  0.64902000  1.0
  C  C55  1  0.71512000  0.93511000  0.28607000  1.0
  C  C56  1  0.78000000  0.35095000  0.06491000  1.0
  C  C57  1  0.57091000  0.28609000  0.35098000  1.0
  C  C58  1  0.28488000  0.06489000  0.71393000  1.0
  C  C59  1  0.22000000  0.64906000  0.93510000  1.0
  C  C60  1  0.52731000  0.63587000  0.50815000  1.0
  C  C61  1  0.89141000  0.87230000  0.36412000  1.0
  C  C62  1  0.01909000  0.49181000  0.12766000  1.0
  C  C63  1  0.47269000  0.36413000  0.49185000  1.0
  C  C64  1  0.10859000  0.12770000  0.63588000  1.0
  C  C65  1  0.98091000  0.50819000  0.87234000  1.0
  C  C66  1  0.51845000  0.56427000  0.38941000  1.0
  C  C67  1  0.95408000  0.82515000  0.43574000  1.0
  C  C68  1  0.12894000  0.61058000  0.17485000  1.0
  C  C69  1  0.48155000  0.43573000  0.61059000  1.0
  C  C70  1  0.04592000  0.17485000  0.56426000  1.0
  C  C71  1  0.87107000  0.38942000  0.82515000  1.0
  C  C72  1  0.24896000  0.57015000  0.44876000  1.0
  C  C73  1  0.67881000  0.87861000  0.42988000  1.0
  C  C74  1  0.80021000  0.55126000  0.12139000  1.0
  C  C75  1  0.75104000  0.42985000  0.55124000  1.0
  C  C76  1  0.32119000  0.12139000  0.57012000  1.0
  C  C77  1  0.19979000  0.44874000  0.87861000  1.0
  N  N78  1  0.66605000  0.69933000  0.58844000  1.0
  N  N79  1  0.96670000  0.88913000  0.30067000  1.0
  N  N80  1  0.07757000  0.41154000  0.11087000  1.0
  N  N81  1  0.33395000  0.30067000  0.41156000  1.0
  N  N82  1  0.03330000  0.11087000  0.69933000  1.0
  N  N83  1  0.92243000  0.58846000  0.88913000  1.0
  N  N84  1  0.10261000  0.77202000  0.70651000  1.0
  N  N85  1  0.33058000  0.93451000  0.22801000  1.0
  N  N86  1  0.39605000  0.29348000  0.06552000  1.0
  N  N87  1  0.89738000  0.22798000  0.29349000  1.0
  N  N88  1  0.66942000  0.06549000  0.77199000  1.0
  N  N89  1  0.60395000  0.70652000  0.93448000  1.0
  O  O90  1  0.63739000  0.56046000  0.38009000  1.0
  O  O91  1  0.07683000  0.81963000  0.43957000  1.0
  O  O92  1  0.25722000  0.61994000  0.18039000  1.0
  O  O93  1  0.36261000  0.43954000  0.61991000  1.0
  O  O94  1  0.92317000  0.18037000  0.56043000  1.0
  O  O95  1  0.74278000  0.38006000  0.81961000  1.0
  O  O96  1  0.98376000  0.78714000  0.71064000  1.0
  O  O97  1  0.19664000  0.92360000  0.21296000  1.0
  O  O98  1  0.27304000  0.28939000  0.07647000  1.0
  O  O99  1  0.01624000  0.21286000  0.28936000  1.0
  O  O100  1  0.80336000  0.07640000  0.78704000  1.0
  O  O101  1  0.72696000  0.71061000  0.92353000  1.0
  O  O102  1  0.08873000  0.69825000  0.60662000  1.0
  O  O103  1  0.39043000  0.90830000  0.30173000  1.0
  O  O104  1  0.48217000  0.39338000  0.09173000  1.0
  O  O105  1  0.91127000  0.30175000  0.39338000  1.0
  O  O106  1  0.60956000  0.09170000  0.69827000  1.0
  O  O107  1  0.51783000  0.60662000  0.90827000  1.0
  O  O108  1  0.39447000  0.51289000  0.30552000  1.0
  O  O109  1  0.88145000  0.79264000  0.48710000  1.0
  O  O110  1  0.08882000  0.69445000  0.20738000  1.0
  O  O111  1  0.60553000  0.48711000  0.69448000  1.0
  O  O112  1  0.11855000  0.20736000  0.51290000  1.0
  O  O113  1  0.91118000  0.30555000  0.79262000  1.0
  O  O114  1  0.18859000  0.46802000  0.42878000  1.0
  O  O115  1  0.72063000  0.96078000  0.53201000  1.0
  O  O116  1  0.75992000  0.57120000  0.03920000  1.0
  O  O117  1  0.81141000  0.53198000  0.57122000  1.0
  O  O118  1  0.27936000  0.03922000  0.46799000  1.0
  O  O119  1  0.24009000  0.42880000  0.96080000  1.0
  O  O120  1  0.18268000  0.61876000  0.40765000  1.0
  O  O121  1  0.56392000  0.78891000  0.38130000  1.0
  O  O122  1  0.77503000  0.59239000  0.21108000  1.0
  O  O123  1  0.81732000  0.38124000  0.59235000  1.0
  O  O124  1  0.43608000  0.21109000  0.61870000  1.0
  O  O125  1  0.22497000  0.40761000  0.78892000  1.0
  O  O126  1  0.89728000  0.56096000  0.38126000  1.0
  O  O127  1  0.33628000  0.82029000  0.43902000  1.0
  O  O128  1  0.51596000  0.61874000  0.17972000  1.0
  O  O129  1  0.10272000  0.43904000  0.61874000  1.0
  O  O130  1  0.66372000  0.17971000  0.56098000  1.0
  O  O131  1  0.48404000  0.38125000  0.82028000  1.0
  O  O132  1  0.21875000  0.82432000  0.79106000  1.0
  O  O133  1  0.39441000  0.96674000  0.17570000  1.0
  O  O134  1  0.42755000  0.20889000  0.03324000  1.0
  O  O135  1  0.78125000  0.17568000  0.20894000  1.0
  O  O136  1  0.60559000  0.03326000  0.82430000  1.0
  O  O137  1  0.57245000  0.79110000  0.96676000  1.0
