# generated using pymatgen
data_Ag3H22C11S3N7
_symmetry_space_group_name_H-M   'P 1'
_cell_length_a   8.72988000
_cell_length_b   9.65298000
_cell_length_c   12.26370000
_cell_angle_alpha   71.88480000
_cell_angle_beta   75.58000000
_cell_angle_gamma   82.38810000
_symmetry_Int_Tables_number   1
_chemical_formula_structural   Ag3H22C11S3N7
_chemical_formula_sum   'Ag6 H44 C22 S6 N14'
_cell_volume   949.58368740
_cell_formula_units_Z   2
loop_
 _symmetry_equiv_pos_site_id
 _symmetry_equiv_pos_as_xyz
  1  'x, y, z'
loop_
 _atom_site_type_symbol
 _atom_site_label
 _atom_site_symmetry_multiplicity
 _atom_site_fract_x
 _atom_site_fract_y
 _atom_site_fract_z
 _atom_site_occupancy
  Ag  Ag0  1  0.07589000  0.88321000  0.95324000  1.0
  Ag  Ag1  1  0.92411000  0.11679000  0.04677000  1.0
  Ag  Ag2  1  0.21846000  0.15068000  0.45542000  1.0
  Ag  Ag3  1  0.78154000  0.84933000  0.54458000  1.0
  Ag  Ag4  1  0.29097000  0.39675000  0.57064000  1.0
  Ag  Ag5  1  0.70904000  0.60326000  0.42936000  1.0
  H  H6  1  0.09801000  0.10137000  0.28497000  1.0
  H  H7  1  0.90199000  0.89863000  0.71504000  1.0
  H  H8  1  0.94560000  0.10542000  0.39362000  1.0
  H  H9  1  0.05440000  0.89458000  0.60638000  1.0
  H  H10  1  0.12146000  0.71696000  0.17955000  1.0
  H  H11  1  0.87854000  0.28304000  0.82045000  1.0
  H  H12  1  0.31867000  0.80196000  0.78379000  1.0
  H  H13  1  0.68134000  0.19804000  0.21621000  1.0
  H  H14  1  0.40043000  0.35988000  0.76757000  1.0
  H  H15  1  0.59957000  0.64012000  0.23243000  1.0
  H  H16  1  0.54798000  0.39938000  0.65059000  1.0
  H  H17  1  0.45202000  0.60062000  0.34941000  1.0
  H  H18  1  0.88411000  0.34545000  0.32899000  1.0
  H  H19  1  0.11589000  0.65455000  0.67101000  1.0
  H  H20  1  0.94462000  0.29138000  0.19796000  1.0
  H  H21  1  0.05538000  0.70862000  0.80205000  1.0
  H  H22  1  0.22527000  0.36312000  0.18635000  1.0
  H  H23  1  0.77472000  0.63687000  0.81365000  1.0
  H  H24  1  0.13481000  0.44670000  0.29857000  1.0
  H  H25  1  0.86519000  0.55330000  0.70143000  1.0
  H  H26  1  0.07406000  0.52171000  0.05045000  1.0
  H  H27  1  0.92594000  0.47829000  0.94955000  1.0
  H  H28  1  0.93655000  0.58008000  0.16184000  1.0
  H  H29  1  0.06344000  0.41992000  0.83816000  1.0
  H  H30  1  0.37305000  0.56053000  0.11895000  1.0
  H  H31  1  0.62695000  0.43946000  0.88105000  1.0
  H  H32  1  0.37388000  0.75202000  0.08148000  1.0
  H  H33  1  0.62613000  0.24797000  0.91852000  1.0
  H  H34  1  0.50090000  0.64690000  0.91504000  1.0
  H  H35  1  0.49910000  0.35310000  0.08496000  1.0
  H  H36  1  0.31577000  0.58615000  0.92035000  1.0
  H  H37  1  0.68422000  0.41385000  0.07964000  1.0
  H  H38  1  0.56067000  0.88481000  0.78794000  1.0
  H  H39  1  0.43933000  0.11519000  0.21207000  1.0
  H  H40  1  0.46205000  0.93151000  0.91816000  1.0
  H  H41  1  0.53795000  0.06849000  0.08185000  1.0
  H  H42  1  0.28381000  0.11252000  0.81480000  1.0
  H  H43  1  0.71620000  0.88749000  0.18520000  1.0
  H  H44  1  0.35973000  0.06233000  0.68336000  1.0
  H  H45  1  0.64027000  0.93767000  0.31664000  1.0
  H  H46  1  0.57989000  0.16207000  0.79840000  1.0
  H  H47  1  0.42012000  0.83793000  0.20159000  1.0
  H  H48  1  0.61084000  0.16154000  0.65044000  1.0
  H  H49  1  0.38916000  0.83847000  0.34956000  1.0
  C  C50  1  0.98637000  0.30449000  0.27211000  1.0
  C  C51  1  0.01363000  0.69551000  0.72789000  1.0
  C  C52  1  0.11359000  0.41494000  0.22487000  1.0
  C  C53  1  0.88640000  0.58506000  0.77513000  1.0
  C  C54  1  0.06265000  0.54944000  0.13271000  1.0
  C  C55  1  0.93735000  0.45056000  0.86729000  1.0
  C  C56  1  0.32229000  0.66319000  0.06722000  1.0
  C  C57  1  0.67772000  0.33681000  0.93278000  1.0
  C  C58  1  0.37176000  0.67047000  0.93731000  1.0
  C  C59  1  0.62824000  0.32953000  0.06269000  1.0
  C  C60  1  0.44520000  0.92298000  0.83458000  1.0
  C  C61  1  0.55480000  0.07702000  0.16542000  1.0
  C  C62  1  0.39167000  0.07189000  0.76205000  1.0
  C  C63  1  0.60833000  0.92811000  0.23795000  1.0
  C  C64  1  0.52030000  0.17994000  0.72534000  1.0
  C  C65  1  0.47970000  0.82006000  0.27466000  1.0
  C  C66  1  0.59643000  0.17129000  0.42881000  1.0
  C  C67  1  0.40356000  0.82872000  0.57119000  1.0
  C  C68  1  0.91018000  0.33323000  0.58397000  1.0
  C  C69  1  0.08981000  0.66677000  0.41604000  1.0
  C  C70  1  0.74513000  0.79207000  0.99653000  1.0
  C  C71  1  0.25487000  0.20793000  0.00347000  1.0
  S  S72  1  0.46513000  0.29756000  0.37896000  1.0
  S  S73  1  0.53486000  0.70245000  0.62104000  1.0
  S  S74  1  0.04001000  0.21770000  0.64674000  1.0
  S  S75  1  0.95998000  0.78229000  0.35327000  1.0
  S  S76  1  0.81549000  0.95008000  0.91023000  1.0
  S  S77  1  0.18451000  0.04992000  0.08977000  1.0
  N  N78  1  0.04280000  0.16094000  0.34170000  1.0
  N  N79  1  0.95719000  0.83906000  0.65830000  1.0
  N  N80  1  0.14953000  0.68088000  0.10633000  1.0
  N  N81  1  0.85047000  0.31912000  0.89367000  1.0
  N  N82  1  0.32724000  0.81461000  0.86171000  1.0
  N  N83  1  0.67276000  0.18540000  0.13829000  1.0
  N  N84  1  0.45572000  0.33294000  0.69157000  1.0
  N  N85  1  0.54428000  0.66706000  0.30843000  1.0
  N  N86  1  0.69465000  0.08119000  0.46078000  1.0
  N  N87  1  0.30535000  0.91880000  0.53922000  1.0
  N  N88  1  0.81415000  0.41668000  0.54181000  1.0
  N  N89  1  0.18584000  0.58332000  0.45819000  1.0
  N  N90  1  0.69352000  0.67945000  0.05730000  1.0
  N  N91  1  0.30648000  0.32054000  0.94271000  1.0
