# generated using pymatgen
data_CuH4C6(SN2)2
_symmetry_space_group_name_H-M   'P 1'
_cell_length_a   5.69512000
_cell_length_b   6.34664000
_cell_length_c   6.34646000
_cell_angle_alpha   66.85470000
_cell_angle_beta   89.11500000
_cell_angle_gamma   89.11660000
_symmetry_Int_Tables_number   1
_chemical_formula_structural   CuH4C6(SN2)2
_chemical_formula_sum   'Cu1 H4 C6 S2 N4'
_cell_volume   210.89242216
_cell_formula_units_Z   1
loop_
 _symmetry_equiv_pos_site_id
 _symmetry_equiv_pos_as_xyz
  1  'x, y, z'
loop_
 _atom_site_type_symbol
 _atom_site_label
 _atom_site_symmetry_multiplicity
 _atom_site_fract_x
 _atom_site_fract_y
 _atom_site_fract_z
 _atom_site_occupancy
  Cu  Cu0  1  0.99999000  0.00001000  0.99999000  1.0
  H  H1  1  0.67333000  0.77152000  0.41086000  1.0
  H  H2  1  0.32668000  0.58917000  0.22841000  1.0
  H  H3  1  0.32667000  0.22844000  0.58914000  1.0
  H  H4  1  0.67334000  0.41082000  0.77155000  1.0
  C  C5  1  0.44568000  0.15867000  0.15865000  1.0
  C  C6  1  0.55431000  0.84135000  0.84134000  1.0
  C  C7  1  0.81884000  0.64928000  0.44989000  1.0
  C  C8  1  0.18116000  0.55014000  0.35070000  1.0
  C  C9  1  0.18115000  0.35070000  0.55014000  1.0
  C  C10  1  0.81885000  0.44986000  0.64930000  1.0
  S  S11  1  0.69319000  0.23108000  0.23108000  1.0
  S  S12  1  0.30681000  0.76895000  0.76892000  1.0
  N  N13  1  0.26490000  0.10531000  0.10528000  1.0
  N  N14  1  0.73511000  0.89472000  0.89472000  1.0
  N  N15  1  0.00001000  0.69794000  0.30207000  1.0
  N  N16  1  0.99998000  0.30205000  0.69796000  1.0
