# generated using pymatgen
data_HgH8C11I2BrN3O
_symmetry_space_group_name_H-M   'P 1'
_cell_length_a   6.72342000
_cell_length_b   7.46686000
_cell_length_c   17.90130000
_cell_angle_alpha   100.99200000
_cell_angle_beta   90.07690000
_cell_angle_gamma   116.62500000
_symmetry_Int_Tables_number   1
_chemical_formula_structural   HgH8C11I2BrN3O
_chemical_formula_sum   'Hg2 H16 C22 I4 Br2 N6 O2'
_cell_volume   784.79133539
_cell_formula_units_Z   2
loop_
 _symmetry_equiv_pos_site_id
 _symmetry_equiv_pos_as_xyz
  1  'x, y, z'
loop_
 _atom_site_type_symbol
 _atom_site_label
 _atom_site_symmetry_multiplicity
 _atom_site_fract_x
 _atom_site_fract_y
 _atom_site_fract_z
 _atom_site_occupancy
  Hg  Hg0  1  0.15798000  0.31480000  0.94515000  1.0
  Hg  Hg1  1  0.84200000  0.68521000  0.05486000  1.0
  H  H2  1  0.48917000  0.97805000  0.80634000  1.0
  H  H3  1  0.51083000  0.02194000  0.19366000  1.0
  H  H4  1  0.39011000  0.78039000  0.91210000  1.0
  H  H5  1  0.60989000  0.21960000  0.08790000  1.0
  H  H6  1  0.11538000  0.23104000  0.74921000  1.0
  H  H7  1  0.88461000  0.76895000  0.25079000  1.0
  H  H8  1  0.40681000  0.81693000  0.49658000  1.0
  H  H9  1  0.59320000  0.18307000  0.50342000  1.0
  H  H10  1  0.20906000  0.42054000  0.27174000  1.0
  H  H11  1  0.79094000  0.57948000  0.72826000  1.0
  H  H12  1  0.05799000  0.11578000  0.33245000  1.0
  H  H13  1  0.94200000  0.88423000  0.66754000  1.0
  H  H14  1  0.08046000  0.15876000  0.47241000  1.0
  H  H15  1  0.91953000  0.84124000  0.52759000  1.0
  H  H16  1  0.34010000  0.68146000  0.60127000  1.0
  H  H17  1  0.65990000  0.31854000  0.39873000  1.0
  C  C18  1  0.40540000  0.81065000  0.79333000  1.0
  C  C19  1  0.59459000  0.18933000  0.20667000  1.0
  C  C20  1  0.35088000  0.70192000  0.85200000  1.0
  C  C21  1  0.64912000  0.29807000  0.14800000  1.0
  C  C22  1  0.19908000  0.39823000  0.76214000  1.0
  C  C23  1  0.80092000  0.60176000  0.23786000  1.0
  C  C24  1  0.25460000  0.50859000  0.70406000  1.0
  C  C25  1  0.74540000  0.49139000  0.29594000  1.0
  C  C26  1  0.19957000  0.39770000  0.62138000  1.0
  C  C27  1  0.80044000  0.60228000  0.37861000  1.0
  C  C28  1  0.24543000  0.49108000  0.49356000  1.0
  C  C29  1  0.75457000  0.50892000  0.50644000  1.0
  C  C30  1  0.33078000  0.66354000  0.46022000  1.0
  C  C31  1  0.66924000  0.33647000  0.53978000  1.0
  C  C32  1  0.31654000  0.63555000  0.38112000  1.0
  C  C33  1  0.68346000  0.36446000  0.61888000  1.0
  C  C34  1  0.21918000  0.44005000  0.33372000  1.0
  C  C35  1  0.78082000  0.55997000  0.66628000  1.0
  C  C36  1  0.13513000  0.27041000  0.36788000  1.0
  C  C37  1  0.86486000  0.72959000  0.63212000  1.0
  C  C38  1  0.14676000  0.29270000  0.44711000  1.0
  C  C39  1  0.85324000  0.70730000  0.55289000  1.0
  I  I40  1  0.32385000  0.64764000  0.06331000  1.0
  I  I41  1  0.67616000  0.35237000  0.93669000  1.0
  I  I42  1  0.95989000  0.92062000  0.87324000  1.0
  I  I43  1  0.04008000  0.07939000  0.12678000  1.0
  Br  Br44  1  0.43427000  0.87277000  0.33770000  1.0
  Br  Br45  1  0.56574000  0.12725000  0.66230000  1.0
  N  N46  1  0.35778000  0.71506000  0.72013000  1.0
  N  N47  1  0.64222000  0.28492000  0.27987000  1.0
  N  N48  1  0.24836000  0.49709000  0.83589000  1.0
  N  N49  1  0.75163000  0.50290000  0.16411000  1.0
  N  N50  1  0.26542000  0.53079000  0.57331000  1.0
  N  N51  1  0.73459000  0.46921000  0.42669000  1.0
  O  O52  1  0.10581000  0.20830000  0.60318000  1.0
  O  O53  1  0.89423000  0.79170000  0.39682000  1.0
