# generated using pymatgen
data_CuHgH4C10(S2N3)2
_symmetry_space_group_name_H-M   'P 1'
_cell_length_a   8.22713000
_cell_length_b   8.22723000
_cell_length_c   12.05370000
_cell_angle_alpha   84.10260000
_cell_angle_beta   84.10150000
_cell_angle_gamma   87.70880000
_symmetry_Int_Tables_number   1
_chemical_formula_structural   CuHgH4C10(S2N3)2
_chemical_formula_sum   'Cu2 Hg2 H8 C20 S8 N12'
_cell_volume   806.90094761
_cell_formula_units_Z   2
loop_
 _symmetry_equiv_pos_site_id
 _symmetry_equiv_pos_as_xyz
  1  'x, y, z'
loop_
 _atom_site_type_symbol
 _atom_site_label
 _atom_site_symmetry_multiplicity
 _atom_site_fract_x
 _atom_site_fract_y
 _atom_site_fract_z
 _atom_site_occupancy
  Cu  Cu0  1  0.90428000  0.13121000  0.37052000  1.0
  Cu  Cu1  1  0.13122000  0.90429000  0.87052000  1.0
  Hg  Hg2  1  0.37178000  0.61758000  0.24433000  1.0
  Hg  Hg3  1  0.61758000  0.37177000  0.74433000  1.0
  H  H4  1  0.80035000  0.93838000  0.58576000  1.0
  H  H5  1  0.93837000  0.80035000  0.08576000  1.0
  H  H6  1  0.53967000  0.82647000  0.68606000  1.0
  H  H7  1  0.82647000  0.53968000  0.18607000  1.0
  H  H8  1  0.29445000  0.02082000  0.39744000  1.0
  H  H9  1  0.02082000  0.29446000  0.89745000  1.0
  H  H10  1  0.56436000  0.12623000  0.31014000  1.0
  H  H11  1  0.12622000  0.56437000  0.81015000  1.0
  C  C12  1  0.68500000  0.95367000  0.54811000  1.0
  C  C13  1  0.95367000  0.68502000  0.04811000  1.0
  C  C14  1  0.54067000  0.89100000  0.60282000  1.0
  C  C15  1  0.89100000  0.54070000  0.10283000  1.0
  C  C16  1  0.39703000  0.91398000  0.54866000  1.0
  C  C17  1  0.91399000  0.39704000  0.04866000  1.0
  C  C18  1  0.40334000  0.99997000  0.44177000  1.0
  C  C19  1  0.99997000  0.40336000  0.94177000  1.0
  C  C20  1  0.55278000  0.05930000  0.39318000  1.0
  C  C21  1  0.05930000  0.55278000  0.89319000  1.0
  C  C22  1  0.24631000  0.84858000  0.60007000  1.0
  C  C23  1  0.84859000  0.24633000  0.10009000  1.0
  C  C24  1  0.69527000  0.44833000  0.37737000  1.0
  C  C25  1  0.44833000  0.69526000  0.87736000  1.0
  C  C26  1  0.29407000  0.94305000  0.08686000  1.0
  C  C27  1  0.94307000  0.29407000  0.58687000  1.0
  C  C28  1  0.04023000  0.77624000  0.36544000  1.0
  C  C29  1  0.77625000  0.04024000  0.86544000  1.0
  C  C30  1  0.21661000  0.27830000  0.22550000  1.0
  C  C31  1  0.27829000  0.21661000  0.72550000  1.0
  S  S32  1  0.57930000  0.60606000  0.40621000  1.0
  S  S33  1  0.60607000  0.57929000  0.90620000  1.0
  S  S34  1  0.46114000  0.89023000  0.14807000  1.0
  S  S35  1  0.89024000  0.46113000  0.64808000  1.0
  S  S36  1  0.10297000  0.58521000  0.37695000  1.0
  S  S37  1  0.58521000  0.10296000  0.87694000  1.0
  S  S38  1  0.37019000  0.35761000  0.14209000  1.0
  S  S39  1  0.35760000  0.37020000  0.64210000  1.0
  N  N40  1  0.68940000  0.03637000  0.44573000  1.0
  N  N41  1  0.03636000  0.68940000  0.94574000  1.0
  N  N42  1  0.12342000  0.79421000  0.64190000  1.0
  N  N43  1  0.79423000  0.12343000  0.14190000  1.0
  N  N44  1  0.78334000  0.33812000  0.35270000  1.0
  N  N45  1  0.33813000  0.78333000  0.85269000  1.0
  N  N46  1  0.17902000  0.98562000  0.03909000  1.0
  N  N47  1  0.98562000  0.17902000  0.53909000  1.0
  N  N48  1  0.98915000  0.91216000  0.35791000  1.0
  N  N49  1  0.91217000  0.98915000  0.85791000  1.0
  N  N50  1  0.10633000  0.22127000  0.28463000  1.0
  N  N51  1  0.22129000  0.10632000  0.78463000  1.0
