# generated using pymatgen
data_CdH24C28N4(ClO2)2
_symmetry_space_group_name_H-M   'P 1'
_cell_length_a   10.95780000
_cell_length_b   12.06470000
_cell_length_c   13.42840000
_cell_angle_alpha   114.15400000
_cell_angle_beta   90.00070000
_cell_angle_gamma   117.00200000
_symmetry_Int_Tables_number   1
_chemical_formula_structural   CdH24C28N4(ClO2)2
_chemical_formula_sum   'Cd2 H48 C56 N8 Cl4 O8'
_cell_volume   1405.07005170
_cell_formula_units_Z   2
loop_
 _symmetry_equiv_pos_site_id
 _symmetry_equiv_pos_as_xyz
  1  'x, y, z'
loop_
 _atom_site_type_symbol
 _atom_site_label
 _atom_site_symmetry_multiplicity
 _atom_site_fract_x
 _atom_site_fract_y
 _atom_site_fract_z
 _atom_site_occupancy
  Cd  Cd0  1  0.98727000  0.99998000  0.24998000  1.0
  Cd  Cd1  1  0.01272000  0.00002000  0.75002000  1.0
  H  H2  1  0.26276000  0.43480000  0.53757000  1.0
  H  H3  1  0.82808000  0.56537000  0.96253000  1.0
  H  H4  1  0.73724000  0.56520000  0.46243000  1.0
  H  H5  1  0.17192000  0.43462000  0.03747000  1.0
  H  H6  1  0.40962000  0.61819000  0.38338000  1.0
  H  H7  1  0.79113000  0.38154000  0.11653000  1.0
  H  H8  1  0.59038000  0.38181000  0.61662000  1.0
  H  H9  1  0.20887000  0.61847000  0.88347000  1.0
  H  H10  1  0.68864000  0.01894000  0.61036000  1.0
  H  H11  1  0.66958000  0.98102000  0.88960000  1.0
  H  H12  1  0.31136000  0.98106000  0.38964000  1.0
  H  H13  1  0.33042000  0.01898000  0.11040000  1.0
  H  H14  1  0.56964000  0.84032000  0.56721000  1.0
  H  H15  1  0.72929000  0.15970000  0.93284000  1.0
  H  H16  1  0.43036000  0.15967000  0.43279000  1.0
  H  H17  1  0.27071000  0.84030000  0.06716000  1.0
  H  H18  1  0.88214000  0.14221000  0.59153000  1.0
  H  H19  1  0.73985000  0.85768000  0.90841000  1.0
  H  H20  1  0.11786000  0.85780000  0.40848000  1.0
  H  H21  1  0.26015000  0.14232000  0.09159000  1.0
  H  H22  1  0.83953000  0.18567000  0.48982000  1.0
  H  H23  1  0.65384000  0.81426000  0.01013000  1.0
  H  H24  1  0.16047000  0.81433000  0.51018000  1.0
  H  H25  1  0.34616000  0.18574000  0.98987000  1.0
  H  H26  1  0.98426000  0.15621000  0.48978000  1.0
  H  H27  1  0.82801000  0.84361000  0.01014000  1.0
  H  H28  1  0.01573000  0.84379000  0.51022000  1.0
  H  H29  1  0.17199000  0.15639000  0.98986000  1.0
  H  H30  1  0.35522000  0.41399000  0.20062000  1.0
  H  H31  1  0.94114000  0.58592000  0.29914000  1.0
  H  H32  1  0.64478000  0.58601000  0.79938000  1.0
  H  H33  1  0.05886000  0.41408000  0.70086000  1.0
  H  H34  1  0.73018000  0.66111000  0.11500000  1.0
  H  H35  1  0.06940000  0.33905000  0.38471000  1.0
  H  H36  1  0.26982000  0.33889000  0.88500000  1.0
  H  H37  1  0.93060000  0.66095000  0.61529000  1.0
  H  H38  1  0.51094000  0.43514000  0.06733000  1.0
  H  H39  1  0.07610000  0.56501000  0.43238000  1.0
  H  H40  1  0.48906000  0.56486000  0.93267000  1.0
  H  H41  1  0.92390000  0.43499000  0.56761000  1.0
  H  H42  1  0.39410000  0.84256000  0.45206000  1.0
  H  H43  1  0.55152000  0.15742000  0.04805000  1.0
  H  H44  1  0.60590000  0.15743000  0.54794000  1.0
  H  H45  1  0.44848000  0.84258000  0.95195000  1.0
  H  H46  1  0.44052000  0.96659000  0.59449000  1.0
  H  H47  1  0.47391000  0.03356000  0.90559000  1.0
  H  H48  1  0.55948000  0.03341000  0.40551000  1.0
  H  H49  1  0.52609000  0.96645000  0.09441000  1.0
  C  C50  1  0.36722000  0.46420000  0.52068000  1.0
  C  C51  1  0.90310000  0.53589000  0.97934000  1.0
  C  C52  1  0.63278000  0.53580000  0.47932000  1.0
  C  C53  1  0.09689000  0.46411000  0.02065000  1.0
  C  C54  1  0.38428000  0.36568000  0.42930000  1.0
  C  C55  1  0.01879000  0.63441000  0.07063000  1.0
  C  C56  1  0.61572000  0.63432000  0.57070000  1.0
  C  C57  1  0.98121000  0.36558000  0.92936000  1.0
  C  C58  1  0.60202000  0.75375000  0.35100000  1.0
  C  C59  1  0.84813000  0.24608000  0.14887000  1.0
  C  C60  1  0.39798000  0.24625000  0.64900000  1.0
  C  C61  1  0.15187000  0.75392000  0.85113000  1.0
  C  C62  1  0.47986000  0.59644000  0.59028000  1.0
  C  C63  1  0.88328000  0.40354000  0.90985000  1.0
  C  C64  1  0.52014000  0.40355000  0.40971000  1.0
  C  C65  1  0.11672000  0.59646000  0.09015000  1.0
  C  C66  1  0.25395000  0.22874000  0.35745000  1.0
  C  C67  1  0.02537000  0.77132000  0.14251000  1.0
  C  C68  1  0.74605000  0.77126000  0.64255000  1.0
  C  C69  1  0.97463000  0.22868000  0.85748000  1.0
  C  C70  1  0.78471000  0.97151000  0.42493000  1.0
  C  C71  1  0.81315000  0.02833000  0.07498000  1.0
  C  C72  1  0.21529000  0.02849000  0.57507000  1.0
  C  C73  1  0.18685000  0.97167000  0.92502000  1.0
  C  C74  1  0.69290000  0.76654000  0.27643000  1.0
  C  C75  1  0.92641000  0.23342000  0.22340000  1.0
  C  C76  1  0.30710000  0.23346000  0.72357000  1.0
  C  C77  1  0.07359000  0.76659000  0.77659000  1.0
  C  C78  1  0.47932000  0.62816000  0.32581000  1.0
  C  C79  1  0.85100000  0.37169000  0.17408000  1.0
  C  C80  1  0.52068000  0.37184000  0.67419000  1.0
  C  C81  1  0.14901000  0.62831000  0.82592000  1.0
  C  C82  1  0.60406000  0.92315000  0.54139000  1.0
  C  C83  1  0.68083000  0.07681000  0.95859000  1.0
  C  C84  1  0.39593000  0.07685000  0.45862000  1.0
  C  C85  1  0.31917000  0.92320000  0.04141000  1.0
  C  C86  1  0.87751000  0.12175000  0.50378000  1.0
  C  C87  1  0.75573000  0.87811000  0.99615000  1.0
  C  C88  1  0.12249000  0.87826000  0.49623000  1.0
  C  C89  1  0.24427000  0.12190000  0.00385000  1.0
  C  C90  1  0.44942000  0.51424000  0.22283000  1.0
  C  C91  1  0.93517000  0.48571000  0.27697000  1.0
  C  C92  1  0.55058000  0.48576000  0.77717000  1.0
  C  C93  1  0.06483000  0.51429000  0.72303000  1.0
  C  C94  1  0.66118000  0.65165000  0.17308000  1.0
  C  C95  1  0.00981000  0.34844000  0.32664000  1.0
  C  C96  1  0.33882000  0.34835000  0.82692000  1.0
  C  C97  1  0.99019000  0.65156000  0.67336000  1.0
  C  C98  1  0.53861000  0.52604000  0.14771000  1.0
  C  C99  1  0.01269000  0.47401000  0.35207000  1.0
  C  C100  1  0.46139000  0.47397000  0.85229000  1.0
  C  C101  1  0.98731000  0.52599000  0.64793000  1.0
  C  C102  1  0.48033000  0.94230000  0.51748000  1.0
  C  C103  1  0.53799000  0.05771000  0.98256000  1.0
  C  C104  1  0.51966000  0.05769000  0.48252000  1.0
  C  C105  1  0.46201000  0.94229000  0.01744000  1.0
  N  N106  1  0.66338000  0.88506000  0.44390000  1.0
  N  N107  1  0.77816000  0.11474000  0.05603000  1.0
  N  N108  1  0.33661000  0.11494000  0.55610000  1.0
  N  N109  1  0.22184000  0.88526000  0.94397000  1.0
  N  N110  1  0.80537000  0.90313000  0.32527000  1.0
  N  N111  1  0.90231000  0.09682000  0.17461000  1.0
  N  N112  1  0.19463000  0.09687000  0.67473000  1.0
  N  N113  1  0.09769000  0.90319000  0.82539000  1.0
  Cl  Cl114  1  0.44272000  0.71043000  0.69682000  1.0
  Cl  Cl115  1  0.73215000  0.28960000  0.80336000  1.0
  Cl  Cl116  1  0.55728000  0.28957000  0.30317000  1.0
  Cl  Cl117  1  0.26785000  0.71039000  0.19663000  1.0
  O  O118  1  0.15567000  0.18674000  0.40749000  1.0
  O  O119  1  0.96918000  0.81337000  0.09245000  1.0
  O  O120  1  0.84433000  0.81326000  0.59252000  1.0
  O  O121  1  0.03082000  0.18663000  0.90755000  1.0
  O  O122  1  0.24237000  0.16456000  0.25357000  1.0
  O  O123  1  0.07779000  0.83541000  0.24642000  1.0
  O  O124  1  0.75762000  0.83544000  0.74643000  1.0
  O  O125  1  0.92221000  0.16459000  0.75358000  1.0
