# generated using pymatgen
data_MnH4C6NClO3
_symmetry_space_group_name_H-M   'P 1'
_cell_length_a   6.41209000
_cell_length_b   12.99570000
_cell_length_c   16.56190000
_cell_angle_alpha   89.98850000
_cell_angle_beta   89.99880000
_cell_angle_gamma   89.95550000
_symmetry_Int_Tables_number   1
_chemical_formula_structural   MnH4C6NClO3
_chemical_formula_sum   'Mn8 H32 C48 N8 Cl8 O24'
_cell_volume   1380.09602498
_cell_formula_units_Z   8
loop_
 _symmetry_equiv_pos_site_id
 _symmetry_equiv_pos_as_xyz
  1  'x, y, z'
loop_
 _atom_site_type_symbol
 _atom_site_label
 _atom_site_symmetry_multiplicity
 _atom_site_fract_x
 _atom_site_fract_y
 _atom_site_fract_z
 _atom_site_occupancy
  Mn  Mn0  1  0.54790000  0.82183000  0.98113000  1.0
  Mn  Mn1  1  0.45234000  0.67835000  0.48146000  1.0
  Mn  Mn2  1  0.04688000  0.17859000  0.51927000  1.0
  Mn  Mn3  1  0.95260000  0.32160000  0.01865000  1.0
  Mn  Mn4  1  0.45273000  0.17834000  0.01858000  1.0
  Mn  Mn5  1  0.54700000  0.32126000  0.51919000  1.0
  Mn  Mn6  1  0.95194000  0.82159000  0.48142000  1.0
  Mn  Mn7  1  0.04821000  0.67844000  0.98138000  1.0
  H  H8  1  0.21199000  0.77979000  0.64579000  1.0
  H  H9  1  0.78728000  0.72013000  0.14571000  1.0
  H  H10  1  0.71379000  0.22015000  0.85411000  1.0
  H  H11  1  0.28725000  0.27970000  0.35434000  1.0
  H  H12  1  0.78738000  0.22024000  0.35429000  1.0
  H  H13  1  0.21357000  0.28023000  0.85415000  1.0
  H  H14  1  0.28755000  0.77987000  0.14559000  1.0
  H  H15  1  0.71216000  0.72000000  0.64569000  1.0
  H  H16  1  0.27022000  0.69696000  0.78316000  1.0
  H  H17  1  0.72898000  0.80309000  0.28302000  1.0
  H  H18  1  0.77195000  0.30302000  0.71685000  1.0
  H  H19  1  0.22911000  0.19703000  0.21697000  1.0
  H  H20  1  0.72932000  0.30293000  0.21687000  1.0
  H  H21  1  0.27194000  0.19704000  0.71700000  1.0
  H  H22  1  0.22940000  0.69686000  0.28290000  1.0
  H  H23  1  0.77019000  0.80307000  0.78291000  1.0
  H  H24  1  0.06582000  0.06138000  0.77203000  1.0
  H  H25  1  0.93441000  0.43877000  0.27222000  1.0
  H  H26  1  0.56481000  0.93899000  0.72780000  1.0
  H  H27  1  0.43445000  0.56111000  0.22814000  1.0
  H  H28  1  0.93390000  0.93855000  0.22823000  1.0
  H  H29  1  0.06549000  0.56133000  0.72744000  1.0
  H  H30  1  0.43382000  0.06115000  0.27212000  1.0
  H  H31  1  0.56614000  0.43868000  0.77238000  1.0
  H  H32  1  0.12702000  0.96729000  0.90309000  1.0
  H  H33  1  0.87355000  0.53305000  0.40319000  1.0
  H  H34  1  0.62536000  0.03318000  0.59682000  1.0
  H  H35  1  0.37357000  0.46719000  0.09703000  1.0
  H  H36  1  0.87305000  0.03253000  0.09707000  1.0
  H  H37  1  0.12612000  0.46681000  0.59657000  1.0
  H  H38  1  0.37292000  0.96685000  0.40308000  1.0
  H  H39  1  0.62724000  0.53307000  0.90326000  1.0
  C  C40  1  0.11126000  0.97975000  0.61741000  1.0
  C  C41  1  0.88854000  0.52015000  0.11748000  1.0
  C  C42  1  0.61179000  0.02034000  0.88243000  1.0
  C  C43  1  0.38871000  0.47957000  0.38274000  1.0
  C  C44  1  0.88845000  0.02027000  0.38279000  1.0
  C  C45  1  0.11166000  0.48010000  0.88227000  1.0
  C  C46  1  0.38837000  0.97986000  0.11739000  1.0
  C  C47  1  0.61153000  0.52001000  0.61758000  1.0
  C  C48  1  0.19248000  0.82396000  0.70114000  1.0
  C  C49  1  0.80707000  0.67606000  0.20112000  1.0
  C  C50  1  0.69372000  0.17608000  0.79875000  1.0
  C  C51  1  0.30706000  0.32386000  0.29898000  1.0
  C  C52  1  0.80690000  0.17600000  0.29897000  1.0
  C  C53  1  0.19382000  0.32421000  0.79872000  1.0
  C  C54  1  0.30707000  0.82393000  0.20100000  1.0
  C  C55  1  0.69262000  0.67594000  0.70111000  1.0
  C  C56  1  0.22607000  0.77691000  0.77457000  1.0
  C  C57  1  0.77352000  0.72318000  0.27450000  1.0
  C  C58  1  0.72725000  0.22316000  0.72537000  1.0
  C  C59  1  0.27360000  0.27689000  0.22553000  1.0
  C  C60  1  0.77343000  0.22299000  0.22551000  1.0
  C  C61  1  0.22728000  0.27695000  0.72540000  1.0
  C  C62  1  0.27358000  0.77678000  0.27439000  1.0
  C  C63  1  0.72607000  0.72313000  0.77446000  1.0
  C  C64  1  0.13508000  0.92788000  0.69793000  1.0
  C  C65  1  0.86471000  0.57215000  0.19799000  1.0
  C  C66  1  0.63538000  0.07227000  0.80202000  1.0
  C  C67  1  0.36481000  0.42768000  0.30220000  1.0
  C  C68  1  0.86431000  0.07209000  0.30221000  1.0
  C  C69  1  0.13590000  0.42810000  0.80180000  1.0
  C  C70  1  0.36457000  0.92782000  0.19788000  1.0
  C  C71  1  0.63533000  0.57203000  0.69804000  1.0
  C  C72  1  0.10924000  0.98056000  0.77115000  1.0
  C  C73  1  0.89083000  0.51959000  0.27127000  1.0
  C  C74  1  0.60869000  0.01973000  0.72872000  1.0
  C  C75  1  0.39082000  0.48034000  0.22898000  1.0
  C  C76  1  0.89027000  0.01937000  0.22902000  1.0
  C  C77  1  0.10929000  0.48054000  0.72849000  1.0
  C  C78  1  0.39042000  0.98034000  0.27117000  1.0
  C  C79  1  0.60949000  0.51950000  0.77134000  1.0
  C  C80  1  0.14161000  0.93113000  0.84405000  1.0
  C  C81  1  0.85854000  0.56911000  0.34412000  1.0
  C  C82  1  0.64073000  0.06918000  0.65587000  1.0
  C  C83  1  0.35854000  0.43103000  0.15606000  1.0
  C  C84  1  0.85811000  0.06875000  0.15608000  1.0
  C  C85  1  0.14132000  0.43089000  0.65568000  1.0
  C  C86  1  0.35810000  0.93081000  0.34402000  1.0
  C  C87  1  0.64184000  0.56907000  0.84416000  1.0
  N  N88  1  0.20367000  0.83108000  0.84435000  1.0
  N  N89  1  0.79625000  0.66912000  0.34434000  1.0
  N  N90  1  0.70362000  0.16913000  0.65553000  1.0
  N  N91  1  0.29636000  0.33102000  0.15573000  1.0
  N  N92  1  0.79606000  0.16882000  0.15574000  1.0
  N  N93  1  0.20395000  0.33089000  0.65551000  1.0
  N  N94  1  0.29612000  0.83080000  0.34424000  1.0
  N  N95  1  0.70375000  0.66911000  0.84431000  1.0
  Cl  Cl96  1  0.39137000  0.65968000  0.04654000  1.0
  Cl  Cl97  1  0.60899000  0.84036000  0.54673000  1.0
  Cl  Cl98  1  0.89026000  0.34084000  0.45309000  1.0
  Cl  Cl99  1  0.10986000  0.15976000  0.95333000  1.0
  Cl  Cl100  1  0.60900000  0.34027000  0.95342000  1.0
  Cl  Cl101  1  0.39030000  0.15901000  0.45310000  1.0
  Cl  Cl102  1  0.10920000  0.65962000  0.54668000  1.0
  Cl  Cl103  1  0.89075000  0.84040000  0.04665000  1.0
  O  O104  1  0.10080000  0.07788000  0.61792000  1.0
  O  O105  1  0.89862000  0.42204000  0.11811000  1.0
  O  O106  1  0.60115000  0.92220000  0.88186000  1.0
  O  O107  1  0.39895000  0.57765000  0.38221000  1.0
  O  O108  1  0.89841000  0.92217000  0.38241000  1.0
  O  O109  1  0.10159000  0.57821000  0.88163000  1.0
  O  O110  1  0.39871000  0.07796000  0.11801000  1.0
  O  O111  1  0.60119000  0.42189000  0.61827000  1.0
  O  O112  1  0.10903000  0.92368000  0.55497000  1.0
  O  O113  1  0.89106000  0.57624000  0.05503000  1.0
  O  O114  1  0.61000000  0.07631000  0.94499000  1.0
  O  O115  1  0.39129000  0.42342000  0.44518000  1.0
  O  O116  1  0.89171000  0.07651000  0.44514000  1.0
  O  O117  1  0.10823000  0.42414000  0.94477000  1.0
  O  O118  1  0.39078000  0.92384000  0.05491000  1.0
  O  O119  1  0.60931000  0.57594000  0.55504000  1.0
  O  O120  1  0.25317000  0.78570000  0.91384000  1.0
  O  O121  1  0.74694000  0.71458000  0.41381000  1.0
  O  O122  1  0.75278000  0.21437000  0.58594000  1.0
  O  O123  1  0.24739000  0.28569000  0.08623000  1.0
  O  O124  1  0.74699000  0.21421000  0.08623000  1.0
  O  O125  1  0.25316000  0.28544000  0.58601000  1.0
  O  O126  1  0.24697000  0.78531000  0.41368000  1.0
  O  O127  1  0.75313000  0.71461000  0.91372000  1.0
