# generated using pymatgen
data_Zn2H19C25(NO2)4
_symmetry_space_group_name_H-M   'P 1'
_cell_length_a   12.67370000
_cell_length_b   12.75860000
_cell_length_c   13.05560000
_cell_angle_alpha   66.09660000
_cell_angle_beta   68.36730000
_cell_angle_gamma   75.06070000
_symmetry_Int_Tables_number   1
_chemical_formula_structural   Zn2H19C25(NO2)4
_chemical_formula_sum   'Zn4 H38 C50 N8 O16'
_cell_volume   1779.40912746
_cell_formula_units_Z   2
loop_
 _symmetry_equiv_pos_site_id
 _symmetry_equiv_pos_as_xyz
  1  'x, y, z'
loop_
 _atom_site_type_symbol
 _atom_site_label
 _atom_site_symmetry_multiplicity
 _atom_site_fract_x
 _atom_site_fract_y
 _atom_site_fract_z
 _atom_site_occupancy
  Zn  Zn0  1  0.70965000  0.77082000  0.59510000  1.0
  Zn  Zn1  1  0.29035000  0.22918000  0.40490000  1.0
  Zn  Zn2  1  0.17741000  0.21898000  0.95660000  1.0
  Zn  Zn3  1  0.82259000  0.78102000  0.04340000  1.0
  H  H4  1  0.00781000  0.41151000  0.60935000  1.0
  H  H5  1  0.99219000  0.58849000  0.39065000  1.0
  H  H6  1  0.12369000  0.25996000  0.73379000  1.0
  H  H7  1  0.87630000  0.74004000  0.26621000  1.0
  H  H8  1  0.00035000  0.41349000  0.98810000  1.0
  H  H9  1  0.99965000  0.58652000  0.01190000  1.0
  H  H10  1  0.87548000  0.57041000  0.87613000  1.0
  H  H11  1  0.12452000  0.42959000  0.12387000  1.0
  H  H12  1  0.53412000  0.93156000  0.93246000  1.0
  H  H13  1  0.46588000  0.06843000  0.06754000  1.0
  H  H14  1  0.67501000  0.81302000  0.81494000  1.0
  H  H15  1  0.32499000  0.18698000  0.18506000  1.0
  H  H16  1  0.48356000  0.91127000  0.58522000  1.0
  H  H17  1  0.51644000  0.08873000  0.41478000  1.0
  H  H18  1  0.33529000  0.03407000  0.69152000  1.0
  H  H19  1  0.66471000  0.96593000  0.30848000  1.0
  H  H20  1  0.85455000  0.96157000  0.21046000  1.0
  H  H21  1  0.14545000  0.03843000  0.78954000  1.0
  H  H22  1  0.98213000  0.08480000  0.02553000  1.0
  H  H23  1  0.01787000  0.91520000  0.97447000  1.0
  H  H24  1  0.14530000  0.15380000  0.20995000  1.0
  H  H25  1  0.85470000  0.84620000  0.79005000  1.0
  H  H26  1  0.02483000  0.03630000  0.40198000  1.0
  H  H27  1  0.97517000  0.96370000  0.59802000  1.0
  H  H28  1  0.68740000  0.75957000  0.38010000  1.0
  H  H29  1  0.31260000  0.24043000  0.61990000  1.0
  H  H30  1  0.60876000  0.63612000  0.32948000  1.0
  H  H31  1  0.39125000  0.36388000  0.67051000  1.0
  H  H32  1  0.45496000  0.46708000  0.70435000  1.0
  H  H33  1  0.54504000  0.53292000  0.29564000  1.0
  H  H34  1  0.54296000  0.59815000  0.73710000  1.0
  H  H35  1  0.45703000  0.40186000  0.26290000  1.0
  H  H36  1  0.44922000  0.43445000  0.92956000  1.0
  H  H37  1  0.55078000  0.56555000  0.07044000  1.0
  H  H38  1  0.33677000  0.41605000  0.06729000  1.0
  H  H39  1  0.66323000  0.58395000  0.93271000  1.0
  H  H40  1  0.31899000  0.52945000  0.93678000  1.0
  H  H41  1  0.68101000  0.47055000  0.06323000  1.0
  C  C42  1  0.86073000  0.59462000  0.66282000  1.0
  C  C43  1  0.13927000  0.40538000  0.33718000  1.0
  C  C44  1  0.93139000  0.50143000  0.73489000  1.0
  C  C45  1  0.06861000  0.49858000  0.26511000  1.0
  C  C46  1  0.00192000  0.41364000  0.69397000  1.0
  C  C47  1  0.99808000  0.58636000  0.30603000  1.0
  C  C48  1  0.06756000  0.33017000  0.76188000  1.0
  C  C49  1  0.93244000  0.66983000  0.23812000  1.0
  C  C50  1  0.99818000  0.41641000  0.90420000  1.0
  C  C51  1  0.00183000  0.58359000  0.09580000  1.0
  C  C52  1  0.92915000  0.50245000  0.84248000  1.0
  C  C53  1  0.07084000  0.49755000  0.15752000  1.0
  C  C54  1  0.33700000  0.06403000  0.88991000  1.0
  C  C55  1  0.66300000  0.93597000  0.11009000  1.0
  C  C56  1  0.42279000  0.99133000  0.82178000  1.0
  C  C57  1  0.57721000  0.00867000  0.17822000  1.0
  C  C58  1  0.51940000  0.92847000  0.85660000  1.0
  C  C59  1  0.48060000  0.07153000  0.14340000  1.0
  C  C60  1  0.59870000  0.86385000  0.79088000  1.0
  C  C61  1  0.40130000  0.13615000  0.20912000  1.0
  C  C62  1  0.49151000  0.91895000  0.66226000  1.0
  C  C63  1  0.50850000  0.08105000  0.33774000  1.0
  C  C64  1  0.40877000  0.98616000  0.72250000  1.0
  C  C65  1  0.59123000  0.01384000  0.27750000  1.0
  C  C66  1  0.85419000  0.91809000  0.43723000  1.0
  C  C67  1  0.14581000  0.08190000  0.56278000  1.0
  C  C68  1  0.92895000  0.98946000  0.32194000  1.0
  C  C69  1  0.07106000  0.01053000  0.67806000  1.0
  C  C70  1  0.91759000  0.00303000  0.21430000  1.0
  C  C71  1  0.08241000  0.99697000  0.78570000  1.0
  C  C72  1  0.98887000  0.07051000  0.11130000  1.0
  C  C73  1  0.01113000  0.92949000  0.88871000  1.0
  C  C74  1  0.08027000  0.10930000  0.21428000  1.0
  C  C75  1  0.91973000  0.89070000  0.78573000  1.0
  C  C76  1  0.01211000  0.04375000  0.32115000  1.0
  C  C77  1  0.98790000  0.95625000  0.67885000  1.0
  C  C78  1  0.63521000  0.69375000  0.44900000  1.0
  C  C79  1  0.36480000  0.30625000  0.55099000  1.0
  C  C80  1  0.59009000  0.62368000  0.42173000  1.0
  C  C81  1  0.40991000  0.37633000  0.57827000  1.0
  C  C82  1  0.52411000  0.53883000  0.51261000  1.0
  C  C83  1  0.47589000  0.46117000  0.48738000  1.0
  C  C84  1  0.50590000  0.53018000  0.62862000  1.0
  C  C85  1  0.49410000  0.46982000  0.37138000  1.0
  C  C86  1  0.55425000  0.60365000  0.64809000  1.0
  C  C87  1  0.44575000  0.39635000  0.35191000  1.0
  C  C88  1  0.35650000  0.43933000  0.97225000  1.0
  C  C89  1  0.64350000  0.56067000  0.02776000  1.0
  C  C90  1  0.30601000  0.36303000  0.94320000  1.0
  C  C91  1  0.69399000  0.63696000  0.05681000  1.0
  N  N92  1  0.06658000  0.33176000  0.86492000  1.0
  N  N93  1  0.93342000  0.66824000  0.13508000  1.0
  N  N94  1  0.58530000  0.85953000  0.69491000  1.0
  N  N95  1  0.41470000  0.14046000  0.30509000  1.0
  N  N96  1  0.06905000  0.12269000  0.11080000  1.0
  N  N97  1  0.93095000  0.87731000  0.88920000  1.0
  N  N98  1  0.61825000  0.68415000  0.56035000  1.0
  N  N99  1  0.38175000  0.31585000  0.43965000  1.0
  O  O100  1  0.77680000  0.65336000  0.71884000  1.0
  O  O101  1  0.22320000  0.34664000  0.28116000  1.0
  O  O102  1  0.88446000  0.61178000  0.55606000  1.0
  O  O103  1  0.11554000  0.38823000  0.44394000  1.0
  O  O104  1  0.34851000  0.06388000  0.98106000  1.0
  O  O105  1  0.65149000  0.93612000  0.01895000  1.0
  O  O106  1  0.25344000  0.12584000  0.84811000  1.0
  O  O107  1  0.74655000  0.87416000  0.15189000  1.0
  O  O108  1  0.87010000  0.90259000  0.53145000  1.0
  O  O109  1  0.12991000  0.09740000  0.46855000  1.0
  O  O110  1  0.77520000  0.87535000  0.43066000  1.0
  O  O111  1  0.22480000  0.12465000  0.56934000  1.0
  O  O112  1  0.34282000  0.35432000  0.84341000  1.0
  O  O113  1  0.65718000  0.64568000  0.15659000  1.0
  O  O114  1  0.22191000  0.30977000  0.02558000  1.0
  O  O115  1  0.77809000  0.69024000  0.97442000  1.0
