# generated using pymatgen
data_ZnH16C18N2O9
_symmetry_space_group_name_H-M   'P 1'
_cell_length_a   7.68603000
_cell_length_b   11.37150000
_cell_length_c   11.46080000
_cell_angle_alpha   68.92740000
_cell_angle_beta   89.71180000
_cell_angle_gamma   72.52210000
_symmetry_Int_Tables_number   1
_chemical_formula_structural   ZnH16C18N2O9
_chemical_formula_sum   'Zn2 H32 C36 N4 O18'
_cell_volume   885.56799666
_cell_formula_units_Z   2
loop_
 _symmetry_equiv_pos_site_id
 _symmetry_equiv_pos_as_xyz
  1  'x, y, z'
loop_
 _atom_site_type_symbol
 _atom_site_label
 _atom_site_symmetry_multiplicity
 _atom_site_fract_x
 _atom_site_fract_y
 _atom_site_fract_z
 _atom_site_occupancy
  Zn  Zn0  1  0.27611000  0.34456000  0.97383000  1.0
  Zn  Zn1  1  0.72389000  0.65544000  0.02617000  1.0
  H  H2  1  0.87086000  0.78926000  0.31928000  1.0
  H  H3  1  0.12913000  0.21074000  0.68072000  1.0
  H  H4  1  0.96345000  0.41416000  0.80805000  1.0
  H  H5  1  0.03655000  0.58584000  0.19195000  1.0
  H  H6  1  0.99583000  0.52992000  0.84534000  1.0
  H  H7  1  0.00417000  0.47008000  0.15466000  1.0
  H  H8  1  0.45424000  0.50411000  0.33243000  1.0
  H  H9  1  0.54576000  0.49590000  0.66757000  1.0
  H  H10  1  0.48586000  0.41969000  0.14082000  1.0
  H  H11  1  0.51414000  0.58031000  0.85918000  1.0
  H  H12  1  0.70543000  0.07904000  0.48513000  1.0
  H  H13  1  0.29458000  0.92096000  0.51487000  1.0
  H  H14  1  0.56078000  0.95269000  0.39451000  1.0
  H  H15  1  0.43923000  0.04731000  0.60549000  1.0
  H  H16  1  0.38171000  0.07164000  0.18161000  1.0
  H  H17  1  0.61829000  0.92837000  0.81839000  1.0
  H  H18  1  0.75345000  0.39868000  0.28921000  1.0
  H  H19  1  0.24655000  0.60132000  0.71079000  1.0
  H  H20  1  0.79757000  0.27463000  0.44536000  1.0
  H  H21  1  0.20243000  0.72538000  0.55464000  1.0
  H  H22  1  0.57355000  0.30127000  0.59311000  1.0
  H  H23  1  0.42646000  0.69873000  0.40689000  1.0
  H  H24  1  0.38549000  0.32546000  0.48783000  1.0
  H  H25  1  0.61451000  0.67454000  0.51217000  1.0
  H  H26  1  0.71917000  0.56764000  0.35682000  1.0
  H  H27  1  0.28083000  0.43237000  0.64318000  1.0
  H  H28  1  0.77146000  0.44793000  0.51611000  1.0
  H  H29  1  0.22854000  0.55207000  0.48389000  1.0
  H  H30  1  0.64122000  0.08465000  0.92888000  1.0
  H  H31  1  0.35878000  0.91535000  0.07113000  1.0
  H  H32  1  0.06137000  0.12055000  0.22863000  1.0
  H  H33  1  0.93863000  0.87944000  0.77137000  1.0
  C  C34  1  0.50279000  0.31747000  0.20175000  1.0
  C  C35  1  0.49721000  0.68253000  0.79825000  1.0
  C  C36  1  0.60288000  0.26002000  0.32101000  1.0
  C  C37  1  0.39712000  0.73998000  0.67899000  1.0
  C  C38  1  0.62529000  0.12656000  0.39256000  1.0
  C  C39  1  0.37471000  0.87344000  0.60744000  1.0
  C  C40  1  0.54536000  0.05701000  0.34305000  1.0
  C  C41  1  0.45465000  0.94299000  0.65695000  1.0
  C  C42  1  0.44650000  0.12184000  0.22409000  1.0
  C  C43  1  0.55350000  0.87816000  0.77591000  1.0
  C  C44  1  0.69237000  0.33923000  0.36543000  1.0
  C  C45  1  0.30763000  0.66077000  0.63457000  1.0
  C  C46  1  0.46639000  0.37633000  0.51792000  1.0
  C  C47  1  0.53361000  0.62367000  0.48208000  1.0
  C  C48  1  0.66073000  0.51893000  0.44125000  1.0
  C  C49  1  0.33927000  0.48108000  0.55875000  1.0
  C  C50  1  0.75177000  0.21715000  0.97587000  1.0
  C  C51  1  0.24823000  0.78284000  0.02413000  1.0
  C  C52  1  0.73138000  0.09347000  0.99602000  1.0
  C  C53  1  0.26863000  0.90653000  0.00398000  1.0
  C  C54  1  0.81701000  0.98071000  0.10373000  1.0
  C  C55  1  0.18298000  0.01928000  0.89627000  1.0
  C  C56  1  0.93977000  0.99046000  0.18891000  1.0
  C  C57  1  0.06024000  0.00954000  0.81109000  1.0
  C  C58  1  0.96571000  0.11314000  0.16409000  1.0
  C  C59  1  0.03428000  0.88686000  0.83591000  1.0
  C  C60  1  0.86847000  0.22758000  0.06272000  1.0
  C  C61  1  0.13153000  0.77242000  0.93729000  1.0
  C  C62  1  0.88544000  0.35660000  0.06010000  1.0
  C  C63  1  0.11456000  0.64339000  0.93990000  1.0
  C  C64  1  0.76269000  0.85874000  0.12334000  1.0
  C  C65  1  0.23731000  0.14125000  0.87666000  1.0
  C  C66  1  0.64737000  0.33529000  0.86215000  1.0
  C  C67  1  0.35263000  0.66470000  0.13786000  1.0
  C  C68  1  0.05259000  0.88208000  0.30677000  1.0
  C  C69  1  0.94739000  0.11791000  0.69323000  1.0
  N  N70  1  0.42714000  0.24988000  0.15415000  1.0
  N  N71  1  0.57286000  0.75012000  0.84585000  1.0
  N  N72  1  0.55911000  0.43905000  0.40850000  1.0
  N  N73  1  0.44089000  0.56095000  0.59150000  1.0
  O  O74  1  0.47253000  0.37331000  0.85168000  1.0
  O  O75  1  0.52747000  0.62669000  0.14832000  1.0
  O  O76  1  0.73592000  0.39085000  0.77710000  1.0
  O  O77  1  0.26408000  0.60915000  0.22290000  1.0
  O  O78  1  0.74478000  0.45983000  0.02039000  1.0
  O  O79  1  0.25522000  0.54017000  0.97961000  1.0
  O  O80  1  0.04042000  0.35106000  0.10584000  1.0
  O  O81  1  0.95958000  0.64894000  0.89416000  1.0
  O  O82  1  0.98773000  0.78601000  0.37334000  1.0
  O  O83  1  0.01226000  0.21399000  0.62666000  1.0
  O  O84  1  0.20059000  0.88767000  0.34293000  1.0
  O  O85  1  0.79942000  0.11232000  0.65707000  1.0
  O  O86  1  0.74714000  0.78640000  0.23511000  1.0
  O  O87  1  0.25285000  0.21360000  0.76489000  1.0
  O  O88  1  0.72770000  0.83830000  0.02561000  1.0
  O  O89  1  0.27230000  0.16170000  0.97439000  1.0
  O  O90  1  0.05938000  0.45104000  0.82170000  1.0
  O  O91  1  0.94062000  0.54896000  0.17830000  1.0
