# generated using pymatgen
data_Zn2H17C26(N4O)2
_symmetry_space_group_name_H-M   'P 1'
_cell_length_a   14.78340000
_cell_length_b   14.86870000
_cell_length_c   14.96220000
_cell_angle_alpha   112.85900000
_cell_angle_beta   100.92300000
_cell_angle_gamma   113.61700000
_symmetry_Int_Tables_number   1
_chemical_formula_structural   Zn2H17C26(N4O)2
_chemical_formula_sum   'Zn4 H34 C52 N16 O4'
_cell_volume   2534.14130059
_cell_formula_units_Z   2
loop_
 _symmetry_equiv_pos_site_id
 _symmetry_equiv_pos_as_xyz
  1  'x, y, z'
loop_
 _atom_site_type_symbol
 _atom_site_label
 _atom_site_symmetry_multiplicity
 _atom_site_fract_x
 _atom_site_fract_y
 _atom_site_fract_z
 _atom_site_occupancy
  Zn  Zn0  1  0.99320000  0.14938000  0.14517000  1.0
  Zn  Zn1  1  0.15427000  0.14816000  0.99037000  1.0
  Zn  Zn2  1  0.99711000  0.86455000  0.86496000  1.0
  Zn  Zn3  1  0.86139000  0.86522000  0.01240000  1.0
  H  H4  1  0.30637000  0.74527000  0.83755000  1.0
  H  H5  1  0.27582000  0.77545000  0.09471000  1.0
  H  H6  1  0.52260000  0.36020000  0.64860000  1.0
  H  H7  1  0.36195000  0.21559000  0.47751000  1.0
  H  H8  1  0.29276000  0.62439000  0.11094000  1.0
  H  H9  1  0.45511000  0.45254000  0.36700000  1.0
  H  H10  1  0.03013000  0.55030000  0.21076000  1.0
  H  H11  1  0.44832000  0.69402000  0.72504000  1.0
  H  H12  1  0.61583000  0.59566000  0.53669000  1.0
  H  H13  1  0.01392000  0.70074000  0.19586000  1.0
  H  H14  1  0.76044000  0.81382000  0.34076000  1.0
  H  H15  1  0.77947000  0.81829000  0.50841000  1.0
  H  H16  1  0.93489000  0.18623000  0.67621000  1.0
  H  H17  1  0.91655000  0.18166000  0.50813000  1.0
  H  H18  1  0.81081000  0.62627000  0.64441000  1.0
  H  H19  1  0.99710000  0.84153000  0.18521000  1.0
  H  H20  1  0.02137000  0.19303000  0.83278000  1.0
  H  H21  1  0.95288000  0.18187000  0.36147000  1.0
  H  H22  1  0.66269000  0.80999000  0.83047000  1.0
  H  H23  1  0.15405000  0.78930000  0.75543000  1.0
  H  H24  1  0.82134000  0.82270000  0.66750000  1.0
  H  H25  1  0.76791000  0.81055000  0.18622000  1.0
  H  H26  1  0.81714000  0.17972000  0.00616000  1.0
  H  H27  1  0.27143000  0.68427000  0.69795000  1.0
  H  H28  1  0.35420000  0.15917000  0.92345000  1.0
  H  H29  1  0.63318000  0.60937000  0.84211000  1.0
  H  H30  1  0.17842000  0.83400000  0.98847000  1.0
  H  H31  1  0.22760000  0.42586000  0.02586000  1.0
  H  H32  1  0.15776000  0.18506000  0.34646000  1.0
  H  H33  1  0.48212000  0.75423000  0.86440000  1.0
  H  H34  1  0.65176000  0.14930000  0.87566000  1.0
  H  H35  1  0.47947000  0.13918000  0.84680000  1.0
  H  H36  1  0.03669000  0.47667000  0.37272000  1.0
  H  H37  1  0.52547000  0.31195000  0.18768000  1.0
  C  C38  1  0.09749000  0.38819000  0.17531000  1.0
  C  C39  1  0.85155000  0.99667000  0.31536000  1.0
  C  C40  1  0.30261000  0.24250000  0.30683000  1.0
  C  C41  1  0.05319000  0.39008000  0.25395000  1.0
  C  C42  1  0.37985000  0.26051000  0.16548000  1.0
  C  C43  1  0.89913000  0.00683000  0.70737000  1.0
  C  C44  1  0.69655000  0.99018000  0.89229000  1.0
  C  C45  1  0.29203000  0.97064000  0.82579000  1.0
  C  C46  1  0.49462000  0.87707000  0.81083000  1.0
  C  C47  1  0.39601000  0.87157000  0.79501000  1.0
  C  C48  1  0.29778000  0.22123000  0.20470000  1.0
  C  C49  1  0.59258000  0.97746000  0.84759000  1.0
  C  C50  1  0.38575000  0.96589000  0.81373000  1.0
  C  C51  1  0.58055000  0.06929000  0.85358000  1.0
  C  C52  1  0.48177000  0.06356000  0.83714000  1.0
  C  C53  1  0.33679000  0.75162000  0.77721000  1.0
  C  C54  1  0.44817000  0.75753000  0.79444000  1.0
  C  C55  1  0.50749000  0.38078000  0.58694000  1.0
  C  C56  1  0.22124000  0.72626000  0.12017000  1.0
  C  C57  1  0.41701000  0.29930000  0.49045000  1.0
  C  C58  1  0.23064000  0.64028000  0.12909000  1.0
  C  C59  1  0.39774000  0.32260000  0.40873000  1.0
  C  C60  1  0.15945000  0.57102000  0.15748000  1.0
  C  C61  1  0.78330000  0.63868000  0.70823000  1.0
  C  C62  1  0.03354000  0.84602000  0.12929000  1.0
  C  C63  1  0.47107000  0.43085000  0.42758000  1.0
  C  C64  1  0.67953000  0.57634000  0.70259000  1.0
  C  C65  1  0.08546000  0.59984000  0.18648000  1.0
  C  C66  1  0.56124000  0.51137000  0.52297000  1.0
  C  C67  1  0.07667000  0.68598000  0.17831000  1.0
  C  C68  1  0.58168000  0.48776000  0.60446000  1.0
  C  C69  1  0.14015000  0.74755000  0.13957000  1.0
  C  C70  1  0.10963000  0.81635000  0.10787000  1.0
  C  C71  1  0.79864000  0.89628000  0.41406000  1.0
  C  C72  1  0.80915000  0.89882000  0.50938000  1.0
  C  C73  1  0.86403000  0.00315000  0.60718000  1.0
  C  C74  1  0.84243000  0.99794000  0.41129000  1.0
  C  C75  1  0.89668000  0.10379000  0.60292000  1.0
  C  C76  1  0.88634000  0.10124000  0.50748000  1.0
  C  C77  1  0.97986000  0.10257000  0.80681000  1.0
  C  C78  1  0.91020000  0.09054000  0.30451000  1.0
  C  C79  1  0.71539000  0.90211000  0.88324000  1.0
  C  C80  1  0.18932000  0.88146000  0.80011000  1.0
  C  C81  1  0.87854000  0.91382000  0.72223000  1.0
  C  C82  1  0.81596000  0.90154000  0.21531000  1.0
  C  C83  1  0.79488000  0.09083000  0.97189000  1.0
  C  C84  1  0.29068000  0.06999000  0.88434000  1.0
  C  C85  1  0.69287000  0.62834000  0.80888000  1.0
  C  C86  1  0.12693000  0.84353000  0.02989000  1.0
  C  C87  1  0.18465000  0.40260000  0.07216000  1.0
  C  C88  1  0.19333000  0.18842000  0.28973000  1.0
  C  C89  1  0.15242000  0.46482000  0.14249000  1.0
  N  N90  1  0.09663000  0.28937000  0.12413000  1.0
  N  N91  1  0.90977000  0.05408000  0.20683000  1.0
  N  N92  1  0.00611000  0.06805000  0.87343000  1.0
  N  N93  1  0.81569000  0.94736000  0.95323000  1.0
  N  N94  1  0.13252000  0.92512000  0.84045000  1.0
  N  N95  1  0.94378000  0.95191000  0.82123000  1.0
  N  N96  1  0.85099000  0.93679000  0.15145000  1.0
  N  N97  1  0.19301000  0.16033000  0.13459000  1.0
  N  N98  1  0.86458000  0.06349000  0.00793000  1.0
  N  N99  1  0.19603000  0.04254000  0.89389000  1.0
  N  N100  1  0.79627000  0.71564000  0.87231000  1.0
  N  N101  1  0.06366000  0.88290000  0.00575000  1.0
  N  N102  1  0.15067000  0.29891000  0.06317000  1.0
  N  N103  1  0.12952000  0.14127000  0.18657000  1.0
  N  N104  1  0.85255000  0.72109000  0.80946000  1.0
  N  N105  1  0.00634000  0.88423000  0.06696000  1.0
  O  O106  1  0.00578000  0.30374000  0.26136000  1.0
  O  O107  1  0.06816000  0.49077000  0.32400000  1.0
  O  O108  1  0.36131000  0.27038000  0.08670000  1.0
  O  O109  1  0.47864000  0.28591000  0.22169000  1.0
