# generated using pymatgen
data_TbH14C14N3O9F4
_symmetry_space_group_name_H-M   'P 1'
_cell_length_a   11.34890000
_cell_length_b   12.35798846
_cell_length_c   20.23390000
_cell_angle_alpha   73.46535863
_cell_angle_beta   73.71500000
_cell_angle_gamma   62.67883745
_symmetry_Int_Tables_number   1
_chemical_formula_structural   TbH14C14N3O9F4
_chemical_formula_sum   'Tb4 H56 C56 N12 O36 F16'
_cell_volume   2379.30119621
_cell_formula_units_Z   4
loop_
 _symmetry_equiv_pos_site_id
 _symmetry_equiv_pos_as_xyz
  1  'x, y, z'
loop_
 _atom_site_type_symbol
 _atom_site_label
 _atom_site_symmetry_multiplicity
 _atom_site_fract_x
 _atom_site_fract_y
 _atom_site_fract_z
 _atom_site_occupancy
  Tb  Tb0  1  0.13235000  0.10796000  0.69678000  1.0
  Tb  Tb1  1  0.93700000  0.39211000  0.80324000  1.0
  Tb  Tb2  1  0.86765000  0.89204000  0.30322000  1.0
  Tb  Tb3  1  0.06300000  0.60789000  0.19676000  1.0
  H  H4  1  0.95301000  0.02379000  0.61625000  1.0
  H  H5  1  0.59293000  0.47612000  0.88383000  1.0
  H  H6  1  0.04699000  0.97621000  0.38375000  1.0
  H  H7  1  0.40707000  0.52388000  0.11617000  1.0
  H  H8  1  0.23296000  0.73861000  0.66319000  1.0
  H  H9  1  0.63468000  0.76134000  0.83678000  1.0
  H  H10  1  0.76704000  0.26139000  0.33682000  1.0
  H  H11  1  0.36532000  0.23866000  0.16322000  1.0
  H  H12  1  0.26051000  0.69765000  0.58028000  1.0
  H  H13  1  0.53834000  0.80237000  0.91967000  1.0
  H  H14  1  0.73949000  0.30235000  0.41972000  1.0
  H  H15  1  0.46165000  0.19763000  0.08033000  1.0
  H  H16  1  0.14996000  0.65245000  0.65248000  1.0
  H  H17  1  0.45485000  0.84747000  0.84747000  1.0
  H  H18  1  0.85004000  0.34755000  0.34752000  1.0
  H  H19  1  0.54515000  0.15253000  0.15253000  1.0
  H  H20  1  0.96470000  0.77263000  0.57536000  1.0
  H  H21  1  0.31264000  0.72737000  0.92467000  1.0
  H  H22  1  0.03530000  0.22737000  0.42464000  1.0
  H  H23  1  0.68736000  0.27263000  0.07533000  1.0
  H  H24  1  0.07304000  0.82656000  0.50702000  1.0
  H  H25  1  0.40659000  0.67348000  0.99298000  1.0
  H  H26  1  0.92696000  0.17344000  0.49298000  1.0
  H  H27  1  0.59341000  0.32652000  0.00702000  1.0
  H  H28  1  0.91954000  0.93496000  0.54795000  1.0
  H  H29  1  0.40229000  0.56503000  0.95212000  1.0
  H  H30  1  0.08046000  0.06504000  0.45205000  1.0
  H  H31  1  0.59771000  0.43497000  0.04788000  1.0
  H  H32  1  0.47352000  0.00578000  0.68889000  1.0
  H  H33  1  0.16800000  0.49424000  0.81124000  1.0
  H  H34  1  0.52648000  0.99422000  0.31111000  1.0
  H  H35  1  0.83200000  0.50576000  0.18876000  1.0
  H  H36  1  0.68651000  0.90652000  0.68993000  1.0
  H  H37  1  0.28290000  0.59347000  0.81007000  1.0
  H  H38  1  0.31349000  0.09348000  0.31007000  1.0
  H  H39  1  0.71710000  0.40653000  0.18993000  1.0
  H  H40  1  0.76868000  0.79700000  0.63171000  1.0
  H  H41  1  0.19749000  0.70297000  0.86831000  1.0
  H  H42  1  0.23132000  0.20300000  0.36829000  1.0
  H  H43  1  0.80251000  0.29703000  0.13169000  1.0
  H  H44  1  0.74562000  0.74290000  0.72377000  1.0
  H  H45  1  0.21231000  0.75711000  0.77623000  1.0
  H  H46  1  0.25437000  0.25711000  0.27623000  1.0
  H  H47  1  0.78769000  0.24289000  0.22377000  1.0
  H  H48  1  0.46582000  0.72773000  0.67073000  1.0
  H  H49  1  0.86432000  0.77231000  0.82933000  1.0
  H  H50  1  0.53418000  0.27227000  0.32927000  1.0
  H  H51  1  0.13568000  0.22769000  0.17067000  1.0
  H  H52  1  0.60968000  0.63442000  0.71352000  1.0
  H  H53  1  0.95769000  0.86560000  0.78652000  1.0
  H  H54  1  0.39031000  0.36559000  0.28648000  1.0
  H  H55  1  0.04231000  0.13440000  0.21348000  1.0
  H  H56  1  0.63340000  0.68424000  0.62082000  1.0
  H  H57  1  0.93851000  0.81584000  0.87921000  1.0
  H  H58  1  0.36660000  0.31576000  0.37919000  1.0
  H  H59  1  0.06149000  0.18416000  0.12079000  1.0
  C  C60  1  0.27341000  0.25006000  0.75008000  1.0
  C  C61  1  0.72659000  0.74994000  0.24992000  1.0
  C  C62  1  0.40648000  0.25008000  0.75015000  1.0
  C  C63  1  0.59352000  0.74992000  0.24985000  1.0
  C  C64  1  0.50906000  0.14508000  0.77934000  1.0
  C  C65  1  0.43337000  0.35503000  0.72091000  1.0
  C  C66  1  0.49094000  0.85492000  0.22066000  1.0
  C  C67  1  0.56663000  0.64497000  0.27909000  1.0
  C  C68  1  0.63221000  0.14469000  0.77878000  1.0
  C  C69  1  0.55571000  0.35529000  0.72133000  1.0
  C  C70  1  0.36779000  0.85531000  0.22122000  1.0
  C  C71  1  0.44429000  0.64471000  0.27867000  1.0
  C  C72  1  0.65848000  0.24996000  0.75001000  1.0
  C  C73  1  0.34152000  0.75004000  0.24999000  1.0
  C  C74  1  0.79203000  0.24993000  0.74998000  1.0
  C  C75  1  0.20797000  0.75007000  0.25002000  1.0
  C  C76  1  0.98051000  0.43881000  0.65188000  1.0
  C  C77  1  0.07108000  0.06127000  0.84814000  1.0
  C  C78  1  0.01949000  0.56119000  0.34812000  1.0
  C  C79  1  0.92892000  0.93873000  0.15186000  1.0
  C  C80  1  0.99133000  0.46954000  0.57354000  1.0
  C  C81  1  0.03433000  0.03051000  0.92647000  1.0
  C  C82  1  0.00867000  0.53046000  0.42646000  1.0
  C  C83  1  0.96567000  0.96949000  0.07353000  1.0
  C  C84  1  0.90558000  0.45655000  0.54169000  1.0
  C  C85  1  0.90377000  0.04345000  0.95834000  1.0
  C  C86  1  0.09442000  0.54345000  0.45831000  1.0
  C  C87  1  0.09623000  0.95655000  0.04166000  1.0
  C  C88  1  0.08605000  0.51306000  0.53068000  1.0
  C  C89  1  0.12975000  0.98700000  0.96929000  1.0
  C  C90  1  0.91395000  0.48694000  0.46932000  1.0
  C  C91  1  0.87026000  0.01300000  0.03071000  1.0
  C  C92  1  0.03923000  0.94088000  0.63515000  1.0
  C  C93  1  0.61513000  0.55905000  0.86488000  1.0
  C  C94  1  0.96077000  0.05912000  0.36485000  1.0
  C  C95  1  0.38488000  0.44094000  0.13512000  1.0
  C  C96  1  0.18620000  0.72546000  0.62739000  1.0
  C  C97  1  0.53898000  0.77450000  0.87258000  1.0
  C  C98  1  0.81380000  0.27454000  0.37261000  1.0
  C  C99  1  0.46102000  0.22550000  0.12742000  1.0
  C  C100  1  0.00387000  0.84437000  0.55693000  1.0
  C  C101  1  0.40508000  0.65562000  0.94310000  1.0
  C  C102  1  0.99614000  0.15563000  0.44307000  1.0
  C  C103  1  0.59492000  0.34438000  0.05690000  1.0
  C  C104  1  0.45930000  0.92664000  0.68338000  1.0
  C  C105  1  0.06919000  0.57338000  0.81672000  1.0
  C  C106  1  0.54070000  0.07336000  0.31662000  1.0
  C  C107  1  0.93081000  0.42662000  0.18328000  1.0
  C  C108  1  0.70060000  0.81723000  0.68142000  1.0
  C  C109  1  0.19928000  0.68276000  0.81859000  1.0
  C  C110  1  0.29940000  0.18277000  0.31858000  1.0
  C  C111  1  0.80072000  0.31724000  0.18141000  1.0
  C  C112  1  0.56951000  0.71007000  0.67069000  1.0
  C  C113  1  0.95033000  0.78996000  0.82936000  1.0
  C  C114  1  0.43049000  0.28993000  0.32931000  1.0
  C  C115  1  0.04967000  0.21004000  0.17064000  1.0
  N  N116  1  0.07376000  0.84157000  0.60805000  1.0
  N  N117  1  0.52328000  0.65838000  0.89196000  1.0
  N  N118  1  0.92624000  0.15843000  0.39195000  1.0
  N  N119  1  0.47672000  0.34162000  0.10804000  1.0
  N  N120  1  0.57081000  0.82256000  0.67927000  1.0
  N  N121  1  0.07261000  0.67746000  0.82080000  1.0
  N  N122  1  0.42919000  0.17744000  0.32073000  1.0
  N  N123  1  0.92739000  0.32254000  0.17920000  1.0
  N  N124  1  0.19873000  0.18825000  0.54692000  1.0
  N  N125  1  0.93402000  0.31175000  0.95310000  1.0
  N  N126  1  0.80127000  0.81175000  0.45308000  1.0
  N  N127  1  0.06598000  0.68825000  0.04690000  1.0
  O  O128  1  0.27972000  0.15834000  0.73106000  1.0
  O  O129  1  0.16895000  0.34179000  0.76902000  1.0
  O  O130  1  0.72028000  0.84166000  0.26894000  1.0
  O  O131  1  0.83105000  0.65821000  0.23098000  1.0
  O  O132  1  0.89555000  0.16618000  0.72273000  1.0
  O  O133  1  0.78464000  0.33366000  0.77722000  1.0
  O  O134  1  0.10445000  0.83382000  0.27727000  1.0
  O  O135  1  0.21536000  0.66634000  0.22278000  1.0
  O  O136  1  0.02552000  0.32508000  0.68126000  1.0
  O  O137  1  0.03178000  0.17499000  0.81876000  1.0
  O  O138  1  0.97448000  0.67492000  0.31874000  1.0
  O  O139  1  0.96822000  0.82501000  0.18124000  1.0
  O  O140  1  0.92621000  0.52530000  0.68629000  1.0
  O  O141  1  0.13759000  0.97477000  0.81372000  1.0
  O  O142  1  0.07379000  0.47470000  0.31371000  1.0
  O  O143  1  0.86241000  0.02523000  0.18628000  1.0
  O  O144  1  0.09810000  0.94216000  0.67877000  1.0
  O  O145  1  0.71886000  0.55775000  0.82124000  1.0
  O  O146  1  0.90190000  0.05784000  0.32123000  1.0
  O  O147  1  0.28114000  0.44225000  0.17876000  1.0
  O  O148  1  0.34403000  0.93714000  0.68230000  1.0
  O  O149  1  0.96332000  0.56289000  0.81783000  1.0
  O  O150  1  0.65597000  0.06286000  0.31771000  1.0
  O  O151  1  0.03669000  0.43711000  0.18217000  1.0
  O  O152  1  0.26797000  0.18138000  0.58927000  1.0
  O  O153  1  0.03870000  0.31861000  0.91074000  1.0
  O  O154  1  0.73204000  0.81861000  0.41073000  1.0
  O  O155  1  0.96130000  0.68139000  0.08926000  1.0
  O  O156  1  0.22377000  0.22362000  0.48310000  1.0
  O  O157  1  0.93066000  0.27627000  0.01692000  1.0
  O  O158  1  0.77623000  0.77638000  0.51690000  1.0
  O  O159  1  0.06934000  0.72373000  0.98308000  1.0
  O  O160  1  0.09894000  0.15648000  0.57506000  1.0
  O  O161  1  0.83052000  0.34363000  0.92500000  1.0
  O  O162  1  0.90106000  0.84352000  0.42494000  1.0
  O  O163  1  0.16948000  0.65637000  0.07500000  1.0
  F  F164  1  0.48986000  0.04036000  0.81069000  1.0
  F  F165  1  0.34080000  0.45976000  0.68958000  1.0
  F  F166  1  0.51014000  0.95964000  0.18931000  1.0
  F  F167  1  0.65920000  0.54024000  0.31042000  1.0
  F  F168  1  0.72588000  0.03935000  0.80857000  1.0
  F  F169  1  0.57396000  0.46057000  0.69141000  1.0
  F  F170  1  0.27412000  0.96065000  0.19143000  1.0
  F  F171  1  0.42603000  0.53944000  0.30859000  1.0
  F  F172  1  0.81118000  0.41555000  0.58140000  1.0
  F  F173  1  0.80800000  0.08449000  0.91869000  1.0
  F  F174  1  0.18882000  0.58445000  0.41860000  1.0
  F  F175  1  0.19200000  0.91551000  0.08131000  1.0
  F  F176  1  0.17292000  0.52498000  0.55952000  1.0
  F  F177  1  0.25731000  0.97519000  0.94037000  1.0
  F  F178  1  0.82709000  0.47502000  0.44048000  1.0
  F  F179  1  0.74271000  0.02480000  0.05963000  1.0
