# generated using pymatgen
data_ZnB4H12C3(NO4)2
_symmetry_space_group_name_H-M   'P 1'
_cell_length_a   7.98002000
_cell_length_b   9.31232000
_cell_length_c   14.22770000
_cell_angle_alpha   74.78400000
_cell_angle_beta   89.99980000
_cell_angle_gamma   89.99960000
_symmetry_Int_Tables_number   1
_chemical_formula_structural   ZnB4H12C3(NO4)2
_chemical_formula_sum   'Zn4 B16 H48 C12 N8 O32'
_cell_volume   1020.23058333
_cell_formula_units_Z   4
loop_
 _symmetry_equiv_pos_site_id
 _symmetry_equiv_pos_as_xyz
  1  'x, y, z'
loop_
 _atom_site_type_symbol
 _atom_site_label
 _atom_site_symmetry_multiplicity
 _atom_site_fract_x
 _atom_site_fract_y
 _atom_site_fract_z
 _atom_site_occupancy
  Zn  Zn0  1  0.28045000  0.04665000  0.23083000  1.0
  Zn  Zn1  1  0.78045000  0.45335000  0.26916000  1.0
  Zn  Zn2  1  0.71955000  0.95336000  0.76917000  1.0
  Zn  Zn3  1  0.21955000  0.54665000  0.73083000  1.0
  B  B4  1  0.61805000  0.04371000  0.13161000  1.0
  B  B5  1  0.11805000  0.45628000  0.36839000  1.0
  B  B6  1  0.38196000  0.95629000  0.86839000  1.0
  B  B7  1  0.88196000  0.54371000  0.63161000  1.0
  B  B8  1  0.81118000  0.14362000  0.23654000  1.0
  B  B9  1  0.31119000  0.35638000  0.26346000  1.0
  B  B10  1  0.18881000  0.85638000  0.76346000  1.0
  B  B11  1  0.68881000  0.64362000  0.73655000  1.0
  B  B12  1  0.55416000  0.28501000  0.16431000  1.0
  B  B13  1  0.05416000  0.21499000  0.33570000  1.0
  B  B14  1  0.44584000  0.71499000  0.83570000  1.0
  B  B15  1  0.94583000  0.78501000  0.66431000  1.0
  B  B16  1  0.63519000  0.27619000  0.99932000  1.0
  B  B17  1  0.13519000  0.22382000  0.50068000  1.0
  B  B18  1  0.36482000  0.72382000  0.00068000  1.0
  B  B19  1  0.86482000  0.77619000  0.49932000  1.0
  H  H20  1  0.48425000  0.88617000  0.09320000  1.0
  H  H21  1  0.98425000  0.61383000  0.40680000  1.0
  H  H22  1  0.51576000  0.11383000  0.90680000  1.0
  H  H23  1  0.01576000  0.38618000  0.59320000  1.0
  H  H24  1  0.62891000  0.44372000  0.87668000  1.0
  H  H25  1  0.12892000  0.05628000  0.62332000  1.0
  H  H26  1  0.37109000  0.55629000  0.12333000  1.0
  H  H27  1  0.87108000  0.94372000  0.37668000  1.0
  H  H28  1  0.34168000  0.83094000  0.56246000  1.0
  H  H29  1  0.84168000  0.66906000  0.93753000  1.0
  H  H30  1  0.65831000  0.16904000  0.43753000  1.0
  H  H31  1  0.15832000  0.33095000  0.06247000  1.0
  H  H32  1  0.32579000  0.40828000  0.61422000  1.0
  H  H33  1  0.82579000  0.09172000  0.88579000  1.0
  H  H34  1  0.67421000  0.59171000  0.38578000  1.0
  H  H35  1  0.17420000  0.90829000  0.11421000  1.0
  H  H36  1  0.39143000  0.57372000  0.46830000  1.0
  H  H37  1  0.89144000  0.92627000  0.03170000  1.0
  H  H38  1  0.60858000  0.42627000  0.53170000  1.0
  H  H39  1  0.10856000  0.07374000  0.96830000  1.0
  H  H40  1  0.48244000  0.97331000  0.41068000  1.0
  H  H41  1  0.98243000  0.52668000  0.08931000  1.0
  H  H42  1  0.51756000  0.02669000  0.58931000  1.0
  H  H43  1  0.01756000  0.47332000  0.91069000  1.0
  H  H44  1  0.48572000  0.50446000  0.64214000  1.0
  H  H45  1  0.98571000  0.99555000  0.85786000  1.0
  H  H46  1  0.51429000  0.49554000  0.35785000  1.0
  H  H47  1  0.01428000  0.00447000  0.14215000  1.0
  H  H48  1  0.54283000  0.75858000  0.54845000  1.0
  H  H49  1  0.04284000  0.74142000  0.95154000  1.0
  H  H50  1  0.45716000  0.24142000  0.45155000  1.0
  H  H51  1  0.95716000  0.25859000  0.04846000  1.0
  H  H52  1  0.50922000  0.81233000  0.37030000  1.0
  H  H53  1  0.00922000  0.68765000  0.12970000  1.0
  H  H54  1  0.49077000  0.18766000  0.62970000  1.0
  H  H55  1  0.99077000  0.31235000  0.87030000  1.0
  H  H56  1  0.20330000  0.62948000  0.51090000  1.0
  H  H57  1  0.70331000  0.87053000  0.98911000  1.0
  H  H58  1  0.79670000  0.37051000  0.48910000  1.0
  H  H59  1  0.29669000  0.12948000  0.01089000  1.0
  H  H60  1  0.20731000  0.79585000  0.35491000  1.0
  H  H61  1  0.70730000  0.70414000  0.14508000  1.0
  H  H62  1  0.79269000  0.20415000  0.64508000  1.0
  H  H63  1  0.29269000  0.29585000  0.85492000  1.0
  H  H64  1  0.18256000  0.94163000  0.40083000  1.0
  H  H65  1  0.68256000  0.55836000  0.09916000  1.0
  H  H66  1  0.81744000  0.05836000  0.59916000  1.0
  H  H67  1  0.31744000  0.44164000  0.90084000  1.0
  C  C68  1  0.42594000  0.86492000  0.41294000  1.0
  C  C69  1  0.92594000  0.63506000  0.08705000  1.0
  C  C70  1  0.57406000  0.13507000  0.58705000  1.0
  C  C71  1  0.07406000  0.36494000  0.91294000  1.0
  C  C72  1  0.41465000  0.77150000  0.51871000  1.0
  C  C73  1  0.91466000  0.72849000  0.98129000  1.0
  C  C74  1  0.58534000  0.22848000  0.48129000  1.0
  C  C75  1  0.08534000  0.27152000  0.01871000  1.0
  C  C76  1  0.33802000  0.61966000  0.52530000  1.0
  C  C77  1  0.83803000  0.88035000  0.97469000  1.0
  C  C78  1  0.66198000  0.38033000  0.47469000  1.0
  C  C79  1  0.16197000  0.11966000  0.02531000  1.0
  N  N80  1  0.26268000  0.89348000  0.36111000  1.0
  N  N81  1  0.76268000  0.60650000  0.13889000  1.0
  N  N82  1  0.73731000  0.10651000  0.63889000  1.0
  N  N83  1  0.23731000  0.39349000  0.86111000  1.0
  N  N84  1  0.36092000  0.51080000  0.62169000  1.0
  N  N85  1  0.86092000  0.98921000  0.87831000  1.0
  N  N86  1  0.63908000  0.48920000  0.37831000  1.0
  N  N87  1  0.13907000  0.01080000  0.12169000  1.0
  O  O88  1  0.49281000  0.13407000  0.17329000  1.0
  O  O89  1  0.99281000  0.36593000  0.32671000  1.0
  O  O90  1  0.50720000  0.86593000  0.82671000  1.0
  O  O91  1  0.00719000  0.63407000  0.67330000  1.0
  O  O92  1  0.71129000  0.26862000  0.22840000  1.0
  O  O93  1  0.21130000  0.23137000  0.27160000  1.0
  O  O94  1  0.28871000  0.73138000  0.77160000  1.0
  O  O95  1  0.78871000  0.76863000  0.72840000  1.0
  O  O96  1  0.56053000  0.89326000  0.14584000  1.0
  O  O97  1  0.06052000  0.60674000  0.35416000  1.0
  O  O98  1  0.43948000  0.10674000  0.85416000  1.0
  O  O99  1  0.93949000  0.39326000  0.64584000  1.0
  O  O100  1  0.77889000  0.04312000  0.18462000  1.0
  O  O101  1  0.27888000  0.45689000  0.31538000  1.0
  O  O102  1  0.22112000  0.95689000  0.81538000  1.0
  O  O103  1  0.72112000  0.54311000  0.68462000  1.0
  O  O104  1  0.94356000  0.11705000  0.30036000  1.0
  O  O105  1  0.44355000  0.38295000  0.19964000  1.0
  O  O106  1  0.05644000  0.88296000  0.69965000  1.0
  O  O107  1  0.55645000  0.61705000  0.80036000  1.0
  O  O108  1  0.64063000  0.12280000  0.02693000  1.0
  O  O109  1  0.14063000  0.37719000  0.47307000  1.0
  O  O110  1  0.35938000  0.87721000  0.97307000  1.0
  O  O111  1  0.85938000  0.62280000  0.52693000  1.0
  O  O112  1  0.60200000  0.35947000  0.06396000  1.0
  O  O113  1  0.10199000  0.14052000  0.43605000  1.0
  O  O114  1  0.39800000  0.64053000  0.93604000  1.0
  O  O115  1  0.89801000  0.85947000  0.56396000  1.0
  O  O116  1  0.66486000  0.33951000  0.90210000  1.0
  O  O117  1  0.16487000  0.16049000  0.59790000  1.0
  O  O118  1  0.33515000  0.66050000  0.09790000  1.0
  O  O119  1  0.83513000  0.83951000  0.40211000  1.0
