# generated using pymatgen
data_NaH8C6NO5
_symmetry_space_group_name_H-M   'P 1'
_cell_length_a   6.39341000
_cell_length_b   6.72208000
_cell_length_c   11.02027083
_cell_angle_alpha   72.39493726
_cell_angle_beta   73.13220876
_cell_angle_gamma   90.06570000
_symmetry_Int_Tables_number   1
_chemical_formula_structural   NaH8C6NO5
_chemical_formula_sum   'Na2 H16 C12 N2 O10'
_cell_volume   429.95665999
_cell_formula_units_Z   2
loop_
 _symmetry_equiv_pos_site_id
 _symmetry_equiv_pos_as_xyz
  1  'x, y, z'
loop_
 _atom_site_type_symbol
 _atom_site_label
 _atom_site_symmetry_multiplicity
 _atom_site_fract_x
 _atom_site_fract_y
 _atom_site_fract_z
 _atom_site_occupancy
  Na  Na0  1  0.29462000  0.97200000  0.55643000  1.0
  Na  Na1  1  0.85151000  0.02836000  0.44314000  1.0
  H  H2  1  0.12156000  0.37997000  0.74051000  1.0
  H  H3  1  0.86173000  0.61970000  0.25941000  1.0
  H  H4  1  0.07780000  0.25764000  0.98600000  1.0
  H  H5  1  0.06399000  0.74205000  0.01407000  1.0
  H  H6  1  0.37530000  0.21300000  0.07555000  1.0
  H  H7  1  0.45099000  0.78731000  0.92471000  1.0
  H  H8  1  0.41675000  0.33619000  0.82974000  1.0
  H  H9  1  0.24670000  0.66437000  0.17046000  1.0
  H  H10  1  0.63034000  0.29129000  0.58131000  1.0
  H  H11  1  0.63074000  0.62777000  0.58066000  1.0
  H  H12  1  0.21171000  0.37260000  0.41903000  1.0
  H  H13  1  0.21202000  0.70838000  0.41891000  1.0
  H  H14  1  0.53305000  0.35585000  0.46104000  1.0
  H  H15  1  0.53390000  0.68341000  0.46031000  1.0
  H  H16  1  0.99392000  0.31675000  0.53918000  1.0
  H  H17  1  0.99418000  0.64426000  0.53901000  1.0
  C  C18  1  0.77159000  0.36594000  0.76853000  1.0
  C  C19  1  0.53997000  0.63391000  0.23158000  1.0
  C  C20  1  0.95928000  0.34271000  0.81463000  1.0
  C  C21  1  0.77375000  0.65686000  0.18534000  1.0
  C  C22  1  0.93595000  0.27546000  0.94950000  1.0
  C  C23  1  0.88560000  0.72420000  0.05055000  1.0
  C  C24  1  0.72477000  0.22866000  0.04285000  1.0
  C  C25  1  0.76777000  0.77121000  0.95729000  1.0
  C  C26  1  0.53626000  0.25040000  0.00051000  1.0
  C  C27  1  0.53700000  0.74985000  0.99964000  1.0
  C  C28  1  0.55992000  0.31822000  0.86548000  1.0
  C  C29  1  0.42553000  0.68215000  0.13467000  1.0
  N  N30  1  0.70264000  0.15889000  0.18177000  1.0
  N  N31  1  0.88457000  0.84100000  0.81835000  1.0
  O  O32  1  0.79357000  0.42989000  0.63985000  1.0
  O  O33  1  0.43311000  0.56961000  0.36034000  1.0
  O  O34  1  0.87500000  0.14132000  0.21639000  1.0
  O  O35  1  0.09159000  0.85839000  0.78360000  1.0
  O  O36  1  0.51471000  0.11710000  0.26532000  1.0
  O  O37  1  0.77999000  0.88299000  0.73496000  1.0
  O  O38  1  0.56811000  0.23190000  0.52564000  1.0
  O  O39  1  0.56898000  0.74280000  0.52517000  1.0
  O  O40  1  0.09407000  0.25756000  0.47438000  1.0
  O  O41  1  0.09405000  0.76806000  0.47422000  1.0
