# generated using pymatgen
data_Zn4H4C24S5(BrO4)4
_symmetry_space_group_name_H-M   'P 1'
_cell_length_a   19.61570000
_cell_length_b   19.70000000
_cell_length_c   33.25880000
_cell_angle_alpha   79.20460000
_cell_angle_beta   79.46730000
_cell_angle_gamma   64.05610000
_symmetry_Int_Tables_number   1
_chemical_formula_structural   Zn4H4C24S5(BrO4)4
_chemical_formula_sum   'Zn16 H16 C96 S20 Br16 O64'
_cell_volume   11278.19678271
_cell_formula_units_Z   4
loop_
 _symmetry_equiv_pos_site_id
 _symmetry_equiv_pos_as_xyz
  1  'x, y, z'
loop_
 _atom_site_type_symbol
 _atom_site_label
 _atom_site_symmetry_multiplicity
 _atom_site_fract_x
 _atom_site_fract_y
 _atom_site_fract_z
 _atom_site_occupancy
  Zn  Zn0  1  0.05636000  0.39844000  0.47925000  1.0
  Zn  Zn1  1  0.98708000  0.48107000  0.56008000  1.0
  Zn  Zn2  1  0.05591000  0.56284000  0.48081000  1.0
  Zn  Zn3  1  0.90103000  0.55717000  0.47911000  1.0
  Zn  Zn4  1  0.69022000  0.35208000  0.27191000  1.0
  Zn  Zn5  1  0.68958000  0.19097000  0.26672000  1.0
  Zn  Zn6  1  0.77021000  0.26726000  0.19030000  1.0
  Zn  Zn7  1  0.84738000  0.19972000  0.27204000  1.0
  Zn  Zn8  1  0.26798000  0.76401000  0.68896000  1.0
  Zn  Zn9  1  0.35137000  0.69653000  0.76956000  1.0
  Zn  Zn10  1  0.19087000  0.84660000  0.77077000  1.0
  Zn  Zn11  1  0.19091000  0.68724000  0.76641000  1.0
  Zn  Zn12  1  0.55772000  0.06295000  0.98301000  1.0
  Zn  Zn13  1  0.40196000  0.05416000  0.97709000  1.0
  Zn  Zn14  1  0.55561000  0.90056000  0.97850000  1.0
  Zn  Zn15  1  0.48220000  0.98547000  0.06043000  1.0
  H  H16  1  0.95189000  0.25468000  0.35085000  1.0
  H  H17  1  0.74075000  0.45599000  0.35409000  1.0
  H  H18  1  0.99942000  0.30503000  0.39821000  1.0
  H  H19  1  0.09199000  0.59903000  0.69836000  1.0
  H  H20  1  0.20350000  0.69927000  0.59768000  1.0
  H  H21  1  0.04445000  0.55535000  0.64764000  1.0
  H  H22  1  0.55436000  0.04909000  0.15316000  1.0
  H  H23  1  0.65027000  0.15640000  0.04816000  1.0
  H  H24  1  0.60726000  0.09569000  0.19967000  1.0
  H  H25  1  0.49832000  0.79250000  0.89902000  1.0
  H  H26  1  0.29787000  0.00440000  0.89741000  1.0
  H  H27  1  0.44499000  0.74887000  0.85122000  1.0
  H  H28  1  0.84573000  0.57405000  0.39916000  1.0
  H  H29  1  0.06598000  0.68870000  0.51309000  1.0
  H  H30  1  0.79838000  0.17575000  0.12291000  1.0
  H  H31  1  0.17639000  0.90525000  0.84980000  1.0
  C  C32  1  0.06112000  0.31467000  0.56260000  1.0
  C  C33  1  0.06369000  0.57518000  0.56727000  1.0
  C  C34  1  0.18154000  0.44066000  0.43877000  1.0
  C  C35  1  0.93367000  0.68786000  0.43877000  1.0
  C  C36  1  0.93395000  0.43500000  0.42866000  1.0
  C  C37  1  0.82056000  0.55998000  0.56223000  1.0
  C  C38  1  0.56514000  0.30952000  0.31250000  1.0
  C  C39  1  0.68924000  0.17463000  0.18122000  1.0
  C  C40  1  0.68721000  0.43283000  0.18735000  1.0
  C  C41  1  0.93575000  0.19148000  0.18940000  1.0
  C  C42  1  0.81559000  0.32355000  0.32011000  1.0
  C  C43  1  0.81391000  0.06742000  0.30915000  1.0
  C  C44  1  0.43542000  0.68631000  0.68652000  1.0
  C  C45  1  0.31460000  0.81768000  0.82037000  1.0
  C  C46  1  0.19175000  0.93133000  0.68893000  1.0
  C  C47  1  0.06369000  0.80857000  0.81017000  1.0
  C  C48  1  0.18007000  0.67846000  0.68065000  1.0
  C  C49  1  0.31530000  0.56859000  0.81208000  1.0
  C  C50  1  0.43571000  0.18488000  0.93795000  1.0
  C  C51  1  0.43158000  0.92870000  0.93009000  1.0
  C  C52  1  0.68294000  0.94097000  0.93914000  1.0
  C  C53  1  0.56102000  0.81776000  0.06245000  1.0
  C  C54  1  0.56833000  0.07170000  0.06945000  1.0
  C  C55  1  0.31537000  0.06144000  0.06001000  1.0
  C  C56  1  0.89832000  0.40905000  0.40197000  1.0
  C  C57  1  0.84398000  0.35259000  0.34905000  1.0
  C  C58  1  0.82439000  0.45123000  0.38948000  1.0
  C  C59  1  0.91663000  0.30971000  0.36180000  1.0
  C  C60  1  0.79783000  0.42298000  0.36333000  1.0
  C  C61  1  0.94300000  0.33781000  0.38805000  1.0
  C  C62  1  0.09587000  0.60350000  0.59454000  1.0
  C  C63  1  0.15023000  0.65214000  0.65115000  1.0
  C  C64  1  0.14123000  0.64455000  0.58061000  1.0
  C  C65  1  0.10545000  0.61155000  0.66534000  1.0
  C  C66  1  0.16801000  0.66835000  0.60877000  1.0
  C  C67  1  0.07897000  0.58746000  0.63716000  1.0
  C  C68  1  0.30219000  0.45601000  0.39993000  1.0
  C  C69  1  0.44376000  0.29472000  0.35079000  1.0
  C  C70  1  0.25606000  0.41707000  0.41374000  1.0
  C  C71  1  0.48995000  0.33353000  0.33703000  1.0
  C  C72  1  0.37515000  0.33937000  0.37354000  1.0
  C  C73  1  0.37041000  0.41141000  0.37682000  1.0
  C  C74  1  0.72867000  0.57504000  0.62995000  1.0
  C  C75  1  0.52754000  0.67044000  0.61875000  1.0
  C  C76  1  0.74619000  0.58341000  0.58733000  1.0
  C  C77  1  0.50988000  0.66188000  0.66135000  1.0
  C  C78  1  0.60733000  0.63836000  0.60730000  1.0
  C  C79  1  0.64899000  0.60636000  0.64146000  1.0
  C  C80  1  0.07659000  0.22345000  0.63081000  1.0
  C  C81  1  0.17620000  0.02296000  0.62108000  1.0
  C  C82  1  0.08577000  0.24067000  0.58815000  1.0
  C  C83  1  0.16749000  0.00577000  0.66375000  1.0
  C  C84  1  0.14345000  0.10231000  0.60914000  1.0
  C  C85  1  0.10996000  0.14409000  0.64293000  1.0
  C  C86  1  0.83907000  0.80693000  0.39796000  1.0
  C  C87  1  0.90756000  0.94967000  0.35133000  1.0
  C  C88  1  0.90809000  0.76260000  0.41408000  1.0
  C  C89  1  0.83910000  0.99325000  0.33457000  1.0
  C  C90  1  0.90785000  0.88148000  0.37431000  1.0
  C  C91  1  0.83916000  0.87489000  0.37493000  1.0
  C  C92  1  0.65926000  0.15094000  0.15048000  1.0
  C  C93  1  0.59949000  0.09920000  0.09782000  1.0
  C  C94  1  0.67087000  0.16805000  0.10720000  1.0
  C  C95  1  0.58715000  0.08236000  0.14056000  1.0
  C  C96  1  0.64121000  0.14231000  0.08137000  1.0
  C  C97  1  0.61668000  0.10820000  0.16635000  1.0
  C  C98  1  0.67534000  0.52499000  0.11943000  1.0
  C  C99  1  0.57605000  0.72524000  0.13033000  1.0
  C  C100  1  0.66444000  0.50700000  0.16196000  1.0
  C  C101  1  0.58598000  0.74336000  0.08779000  1.0
  C  C102  1  0.60869000  0.64573000  0.14194000  1.0
  C  C103  1  0.64316000  0.60459000  0.10798000  1.0
  C  C104  1  0.08321000  0.12328000  0.17764000  1.0
  C  C105  1  0.16765000  0.12565000  0.07176000  1.0
  C  C106  1  0.01072000  0.16391000  0.16500000  1.0
  C  C107  1  0.24022000  0.08620000  0.08443000  1.0
  C  C108  1  0.11041000  0.13914000  0.10578000  1.0
  C  C109  1  0.14051000  0.10929000  0.14370000  1.0
  C  C110  1  0.34152000  0.85075000  0.84799000  1.0
  C  C111  1  0.40125000  0.90085000  0.90147000  1.0
  C  C112  1  0.30022000  0.92364000  0.86127000  1.0
  C  C113  1  0.44288000  0.82889000  0.88833000  1.0
  C  C114  1  0.33011000  0.94801000  0.88765000  1.0
  C  C115  1  0.41313000  0.80466000  0.86182000  1.0
  C  C116  1  0.40909000  0.44945000  0.85374000  1.0
  C  C117  1  0.34250000  0.30358000  0.89592000  1.0
  C  C118  1  0.34099000  0.49365000  0.83676000  1.0
  C  C119  1  0.41052000  0.25965000  0.91304000  1.0
  C  C120  1  0.34200000  0.37278000  0.87426000  1.0
  C  C121  1  0.40976000  0.38014000  0.87527000  1.0
  C  C122  1  0.94294000  0.79410000  0.84975000  1.0
  C  C123  1  0.80515000  0.95422000  0.90101000  1.0
  C  C124  1  0.98962000  0.83229000  0.83570000  1.0
  C  C125  1  0.75804000  0.91638000  0.91454000  1.0
  C  C126  1  0.87257000  0.90965000  0.87734000  1.0
  C  C127  1  0.87570000  0.83848000  0.87351000  1.0
  S  S128  1  0.29613000  0.32620000  0.39828000  1.0
  S  S129  1  0.44927000  0.42473000  0.35195000  1.0
  S  S130  1  0.66521000  0.62902000  0.56131000  1.0
  S  S131  1  0.59089000  0.61478000  0.68739000  1.0
  S  S132  1  0.13509000  0.15965000  0.56287000  1.0
  S  S133  1  0.11938000  0.08662000  0.68923000  1.0
  S  S134  1  0.97277000  0.80432000  0.40127000  1.0
  S  S135  1  0.77496000  0.95105000  0.34705000  1.0
  S  S136  1  0.61557000  0.58744000  0.18785000  1.0
  S  S137  1  0.63558000  0.66290000  0.06204000  1.0
  S  S138  1  0.01256000  0.18441000  0.11156000  1.0
  S  S139  1  0.23847000  0.06518000  0.13785000  1.0
  S  S140  1  0.27785000  0.45018000  0.84702000  1.0
  S  S141  1  0.47387000  0.30283000  0.90259000  1.0
  S  S142  1  0.95128000  0.92248000  0.85180000  1.0
  S  S143  1  0.79649000  0.82609000  0.89861000  1.0
  S  S144  1  0.75702000  0.54023000  0.40711000  1.0
  S  S145  1  0.17383000  0.66403000  0.52742000  1.0
  S  S146  1  0.71725000  0.22819000  0.08155000  1.0
  S  S147  1  0.21083000  0.99284000  0.84408000  1.0
  Br  Br148  1  0.28208000  0.55429000  0.40902000  1.0
  Br  Br149  1  0.46412000  0.19592000  0.34193000  1.0
  Br  Br150  1  0.79752000  0.52755000  0.66968000  1.0
  Br  Br151  1  0.45923000  0.71734000  0.57885000  1.0
  Br  Br152  1  0.02740000  0.29214000  0.67004000  1.0
  Br  Br153  1  0.22378000  0.95454000  0.58163000  1.0
  Br  Br154  1  0.75449000  0.78387000  0.40331000  1.0
  Br  Br155  1  0.99260000  0.97238000  0.34566000  1.0
  Br  Br156  1  0.72511000  0.45717000  0.07999000  1.0
  Br  Br157  1  0.52616000  0.79301000  0.17000000  1.0
  Br  Br158  1  0.10800000  0.08887000  0.23189000  1.0
  Br  Br159  1  0.14237000  0.15961000  0.01764000  1.0
  Br  Br160  1  0.49313000  0.47307000  0.85000000  1.0
  Br  Br161  1  0.25889000  0.27950000  0.89924000  1.0
  Br  Br162  1  0.96122000  0.69642000  0.83998000  1.0
  Br  Br163  1  0.78742000  0.05137000  0.91129000  1.0
  O  O164  1  0.00081000  0.49818000  0.49971000  1.0
  O  O165  1  0.08194000  0.31330000  0.52376000  1.0
  O  O166  1  0.04956000  0.51805000  0.58262000  1.0
  O  O167  1  0.15510000  0.50436000  0.45291000  1.0
  O  O168  1  0.02142000  0.37360000  0.58093000  1.0
  O  O169  1  0.14988000  0.39419000  0.44422000  1.0
  O  O170  1  0.05017000  0.61022000  0.53086000  1.0
  O  O171  1  0.00366000  0.65783000  0.44597000  1.0
  O  O172  1  0.91085000  0.50682000  0.42965000  1.0
  O  O173  1  0.88553000  0.65889000  0.45100000  1.0
  O  O174  1  0.98727000  0.38364000  0.44807000  1.0
  O  O175  1  0.87989000  0.53483000  0.58085000  1.0
  O  O176  1  0.81850000  0.56781000  0.52323000  1.0
  O  O177  1  0.74798000  0.25317000  0.25039000  1.0
  O  O178  1  0.59240000  0.35965000  0.30305000  1.0
  O  O179  1  0.65456000  0.17764000  0.21748000  1.0
  O  O180  1  0.71997000  0.37352000  0.16876000  1.0
  O  O181  1  0.59653000  0.24191000  0.30287000  1.0
  O  O182  1  0.67152000  0.43498000  0.22639000  1.0
  O  O183  1  0.74859000  0.18877000  0.17014000  1.0
  O  O184  1  0.87850000  0.22896000  0.16869000  1.0
  O  O185  1  0.86092000  0.25877000  0.30871000  1.0
  O  O186  1  0.93338000  0.17659000  0.22845000  1.0
  O  O187  1  0.74934000  0.36583000  0.30934000  1.0
  O  O188  1  0.74911000  0.09108000  0.29557000  1.0
  O  O189  1  0.85760000  0.10160000  0.30301000  1.0
  O  O190  1  0.25052000  0.74843000  0.74940000  1.0
  O  O191  1  0.37609000  0.72145000  0.66774000  1.0
  O  O192  1  0.36578000  0.76599000  0.80015000  1.0
  O  O193  1  0.17682000  0.93250000  0.72808000  1.0
  O  O194  1  0.43712000  0.66975000  0.72564000  1.0
  O  O195  1  0.22475000  0.87276000  0.66990000  1.0
  O  O196  1  0.24249000  0.84112000  0.81931000  1.0
  O  O197  1  0.09113000  0.85864000  0.80071000  1.0
  O  O198  1  0.16386000  0.66115000  0.71899000  1.0
  O  O199  1  0.09427000  0.74170000  0.79960000  1.0
  O  O200  1  0.21921000  0.71605000  0.66459000  1.0
  O  O201  1  0.35899000  0.60305000  0.80553000  1.0
  O  O202  1  0.24988000  0.59237000  0.79935000  1.0
  O  O203  1  0.50023000  0.99973000  0.99989000  1.0
  O  O204  1  0.50211000  0.15922000  0.94980000  1.0
  O  O205  1  0.38881000  0.99473000  0.94047000  1.0
  O  O206  1  0.65348000  0.89256000  0.94693000  1.0
  O  O207  1  0.39038000  0.15233000  0.94560000  1.0
  O  O208  1  0.65394000  0.00727000  0.95029000  1.0
  O  O209  1  0.49701000  0.88439000  0.94154000  1.0
  O  O210  1  0.57758000  0.81597000  0.02341000  1.0
  O  O211  1  0.53015000  0.03337000  0.08628000  1.0
  O  O212  1  0.52557000  0.87678000  0.08106000  1.0
  O  O213  1  0.58284000  0.08901000  0.03098000  1.0
  O  O214  1  0.31686000  0.07519000  0.02100000  1.0
  O  O215  1  0.37296000  0.02804000  0.08068000  1.0
  O  O216  1  0.79692000  0.59545000  0.38622000  1.0
  O  O217  1  0.68884000  0.56605000  0.38783000  1.0
  O  O218  1  0.75395000  0.53184000  0.45131000  1.0
  O  O219  1  0.09604000  0.72026000  0.50903000  1.0
  O  O220  1  0.21678000  0.70804000  0.52499000  1.0
  O  O221  1  0.20669000  0.59348000  0.50975000  1.0
  O  O222  1  0.80278000  0.17952000  0.09204000  1.0
  O  O223  1  0.71989000  0.23107000  0.03793000  1.0
  O  O224  1  0.68310000  0.29708000  0.10086000  1.0
  O  O225  1  0.15495000  0.95297000  0.86346000  1.0
  O  O226  1  0.18577000  0.05881000  0.86479000  1.0
  O  O227  1  0.21919000  0.99922000  0.79976000  1.0
