# generated using pymatgen
data_CuH12C12NO5F3
_symmetry_space_group_name_H-M   'P 1'
_cell_length_a   7.95500000
_cell_length_b   9.99063000
_cell_length_c   18.40000000
_cell_angle_alpha   89.99780000
_cell_angle_beta   96.45170000
_cell_angle_gamma   89.98850000
_symmetry_Int_Tables_number   1
_chemical_formula_structural   CuH12C12NO5F3
_chemical_formula_sum   'Cu4 H48 C48 N4 O20 F12'
_cell_volume   1453.08731029
_cell_formula_units_Z   4
loop_
 _symmetry_equiv_pos_site_id
 _symmetry_equiv_pos_as_xyz
  1  'x, y, z'
loop_
 _atom_site_type_symbol
 _atom_site_label
 _atom_site_symmetry_multiplicity
 _atom_site_fract_x
 _atom_site_fract_y
 _atom_site_fract_z
 _atom_site_occupancy
  Cu  Cu0  1  0.41482000  0.17539000  0.77996000  1.0
  Cu  Cu1  1  0.58512000  0.67540000  0.71998000  1.0
  Cu  Cu2  1  0.58519000  0.82456000  0.22002000  1.0
  Cu  Cu3  1  0.41482000  0.32458000  0.28002000  1.0
  H  H4  1  0.77236000  0.16967000  0.81048000  1.0
  H  H5  1  0.22762000  0.66965000  0.68948000  1.0
  H  H6  1  0.22763000  0.83027000  0.18954000  1.0
  H  H7  1  0.77235000  0.33027000  0.31049000  1.0
  H  H8  1  0.66232000  0.03210000  0.79518000  1.0
  H  H9  1  0.33772000  0.53212000  0.70476000  1.0
  H  H10  1  0.33760000  0.96786000  0.20484000  1.0
  H  H11  1  0.66235000  0.46783000  0.29521000  1.0
  H  H12  1  0.35303000  0.84475000  0.60390000  1.0
  H  H13  1  0.64693000  0.34469000  0.89605000  1.0
  H  H14  1  0.64690000  0.15521000  0.39610000  1.0
  H  H15  1  0.35309000  0.65530000  0.10395000  1.0
  H  H16  1  0.50479000  0.95501000  0.57284000  1.0
  H  H17  1  0.49511000  0.45496000  0.92710000  1.0
  H  H18  1  0.49514000  0.04498000  0.42715000  1.0
  H  H19  1  0.50490000  0.54504000  0.07289000  1.0
  H  H20  1  0.77858000  0.59225000  0.46055000  1.0
  H  H21  1  0.22138000  0.09222000  0.03937000  1.0
  H  H22  1  0.22141000  0.40786000  0.53945000  1.0
  H  H23  1  0.77863000  0.90782000  0.96063000  1.0
  H  H24  1  0.58976000  0.74058000  0.50694000  1.0
  H  H25  1  0.41018000  0.24055000  0.99300000  1.0
  H  H26  1  0.41024000  0.25940000  0.49307000  1.0
  H  H27  1  0.58979000  0.75944000  0.00699000  1.0
  H  H28  1  0.43029000  0.66226000  0.55248000  1.0
  H  H29  1  0.56972000  0.16224000  0.94746000  1.0
  H  H30  1  0.56970000  0.33773000  0.44751000  1.0
  H  H31  1  0.43028000  0.83776000  0.05253000  1.0
  H  H32  1  0.70761000  0.26423000  0.65802000  1.0
  H  H33  1  0.29262000  0.76416000  0.84200000  1.0
  H  H34  1  0.29257000  0.73577000  0.34196000  1.0
  H  H35  1  0.70728000  0.23580000  0.15800000  1.0
  H  H36  1  0.92294000  0.37268000  0.46103000  1.0
  H  H37  1  0.07709000  0.87265000  0.03895000  1.0
  H  H38  1  0.07715000  0.62746000  0.53896000  1.0
  H  H39  1  0.92288000  0.12741000  0.96107000  1.0
  H  H40  1  0.55309000  0.47464000  0.65303000  1.0
  H  H41  1  0.44702000  0.97459000  0.84695000  1.0
  H  H42  1  0.44698000  0.52532000  0.34698000  1.0
  H  H43  1  0.55293000  0.02535000  0.15305000  1.0
  H  H44  1  0.78601000  0.92184000  0.65225000  1.0
  H  H45  1  0.21392000  0.42185000  0.84765000  1.0
  H  H46  1  0.21397000  0.07813000  0.34777000  1.0
  H  H47  1  0.78605000  0.57814000  0.15233000  1.0
  H  H48  1  0.82636000  0.83069000  0.57388000  1.0
  H  H49  1  0.17361000  0.33076000  0.92606000  1.0
  H  H50  1  0.17363000  0.16936000  0.42611000  1.0
  H  H51  1  0.82640000  0.66929000  0.07396000  1.0
  C  C52  1  0.48837000  0.95935000  0.68935000  1.0
  C  C53  1  0.51157000  0.45935000  0.81059000  1.0
  C  C54  1  0.51157000  0.04064000  0.31066000  1.0
  C  C55  1  0.48845000  0.54065000  0.18941000  1.0
  C  C56  1  0.48164000  0.88464000  0.61675000  1.0
  C  C57  1  0.51828000  0.38462000  0.88319000  1.0
  C  C58  1  0.51828000  0.11537000  0.38324000  1.0
  C  C59  1  0.48171000  0.61540000  0.11681000  1.0
  C  C60  1  0.91942000  0.17429000  0.56262000  1.0
  C  C61  1  0.08081000  0.67426000  0.93741000  1.0
  C  C62  1  0.08070000  0.82578000  0.43738000  1.0
  C  C63  1  0.91913000  0.32577000  0.06261000  1.0
  C  C64  1  0.66191000  0.55349000  0.55879000  1.0
  C  C65  1  0.33811000  0.05346000  0.94115000  1.0
  C  C66  1  0.33815000  0.44656000  0.44122000  1.0
  C  C67  1  0.66185000  0.94656000  0.05883000  1.0
  C  C68  1  0.76463000  0.52114000  0.50442000  1.0
  C  C69  1  0.23542000  0.02112000  0.99553000  1.0
  C  C70  1  0.23546000  0.47894000  0.49559000  1.0
  C  C71  1  0.76455000  0.97891000  0.00447000  1.0
  C  C72  1  0.56602000  0.68400000  0.55624000  1.0
  C  C73  1  0.43399000  0.18398000  0.94370000  1.0
  C  C74  1  0.43402000  0.31601000  0.44377000  1.0
  C  C75  1  0.56599000  0.81602000  0.05629000  1.0
  C  C76  1  0.90003000  0.73527000  0.67867000  1.0
  C  C77  1  0.09991000  0.23526000  0.82130000  1.0
  C  C78  1  0.09996000  0.26468000  0.32131000  1.0
  C  C79  1  0.90008000  0.76469000  0.17872000  1.0
  C  C80  1  0.83090000  0.30670000  0.56134000  1.0
  C  C81  1  0.16922000  0.80667000  0.93867000  1.0
  C  C82  1  0.16919000  0.69335000  0.43864000  1.0
  C  C83  1  0.83074000  0.19334000  0.06136000  1.0
  C  C84  1  0.72480000  0.33582000  0.61485000  1.0
  C  C85  1  0.27539000  0.83575000  0.88518000  1.0
  C  C86  1  0.27532000  0.66422000  0.38515000  1.0
  C  C87  1  0.72459000  0.16422000  0.11484000  1.0
  C  C88  1  0.84710000  0.39768000  0.50485000  1.0
  C  C89  1  0.15298000  0.89765000  0.99514000  1.0
  C  C90  1  0.15292000  0.60238000  0.49514000  1.0
  C  C91  1  0.84701000  0.10237000  0.00487000  1.0
  C  C92  1  0.63949000  0.45729000  0.61229000  1.0
  C  C93  1  0.36064000  0.95722000  0.88769000  1.0
  C  C94  1  0.36057000  0.54273000  0.38770000  1.0
  C  C95  1  0.63931000  0.04278000  0.11232000  1.0
  C  C96  1  0.78085000  0.82170000  0.62779000  1.0
  C  C97  1  0.21908000  0.32171000  0.87215000  1.0
  C  C98  1  0.21912000  0.17832000  0.37222000  1.0
  C  C99  1  0.78092000  0.67829000  0.12785000  1.0
  N  N100  1  0.60386000  0.77241000  0.62136000  1.0
  N  N101  1  0.39611000  0.27241000  0.87858000  1.0
  N  N102  1  0.39611000  0.22761000  0.37865000  1.0
  N  N103  1  0.60389000  0.72760000  0.12141000  1.0
  O  O104  1  0.55454000  0.89957000  0.74644000  1.0
  O  O105  1  0.44543000  0.39959000  0.75349000  1.0
  O  O106  1  0.44543000  0.10042000  0.25356000  1.0
  O  O107  1  0.55460000  0.60040000  0.24651000  1.0
  O  O108  1  0.83402000  0.66550000  0.72690000  1.0
  O  O109  1  0.16591000  0.16547000  0.77307000  1.0
  O  O110  1  0.16595000  0.33446000  0.27309000  1.0
  O  O111  1  0.83408000  0.83448000  0.22695000  1.0
  O  O112  1  0.65967000  0.12419000  0.81483000  1.0
  O  O113  1  0.34032000  0.62420000  0.68510000  1.0
  O  O114  1  0.34030000  0.87577000  0.18519000  1.0
  O  O115  1  0.65968000  0.37575000  0.31488000  1.0
  O  O116  1  0.42636000  0.07718000  0.68680000  1.0
  O  O117  1  0.57355000  0.57716000  0.81315000  1.0
  O  O118  1  0.57360000  0.92282000  0.31322000  1.0
  O  O119  1  0.42643000  0.42286000  0.18684000  1.0
  O  O120  1  0.05476000  0.74267000  0.67174000  1.0
  O  O121  1  0.94518000  0.24267000  0.82824000  1.0
  O  O122  1  0.94520000  0.25723000  0.32822000  1.0
  O  O123  1  0.05482000  0.75725000  0.17179000  1.0
  F  F124  1  0.93762000  0.11719000  0.63004000  1.0
  F  F125  1  0.06241000  0.61725000  0.86997000  1.0
  F  F126  1  0.06246000  0.88282000  0.36995000  1.0
  F  F127  1  0.93753000  0.38275000  0.13005000  1.0
  F  F128  1  0.07791000  0.18340000  0.54058000  1.0
  F  F129  1  0.92244000  0.68330000  0.95960000  1.0
  F  F130  1  0.92226000  0.81660000  0.45942000  1.0
  F  F131  1  0.07746000  0.31668000  0.04041000  1.0
  F  F132  1  0.83183000  0.08352000  0.51588000  1.0
  F  F133  1  0.16863000  0.58339000  0.98404000  1.0
  F  F134  1  0.16830000  0.91657000  0.48410000  1.0
  F  F135  1  0.83133000  0.41662000  0.01596000  1.0
