# generated using pymatgen
data_CuH8(C4O3)2
_symmetry_space_group_name_H-M   'P 1'
_cell_length_a   5.65768000
_cell_length_b   7.08574000
_cell_length_c   10.86070000
_cell_angle_alpha   89.99890000
_cell_angle_beta   89.99940000
_cell_angle_gamma   89.99140000
_symmetry_Int_Tables_number   1
_chemical_formula_structural   CuH8(C4O3)2
_chemical_formula_sum   'Cu2 H16 C16 O12'
_cell_volume   435.39296257
_cell_formula_units_Z   2
loop_
 _symmetry_equiv_pos_site_id
 _symmetry_equiv_pos_as_xyz
  1  'x, y, z'
loop_
 _atom_site_type_symbol
 _atom_site_label
 _atom_site_symmetry_multiplicity
 _atom_site_fract_x
 _atom_site_fract_y
 _atom_site_fract_z
 _atom_site_occupancy
  Cu  Cu0  1  0.44779000  0.66997000  0.00000000  1.0
  Cu  Cu1  1  0.94768000  0.33001000  0.00000000  1.0
  H  H2  1  0.61141000  0.62573000  0.38508000  1.0
  H  H3  1  0.11155000  0.37431000  0.61491000  1.0
  H  H4  1  0.61143000  0.62573000  0.61492000  1.0
  H  H5  1  0.11154000  0.37430000  0.38508000  1.0
  H  H6  1  0.91771000  0.87229000  0.38475000  1.0
  H  H7  1  0.41790000  0.12777000  0.61526000  1.0
  H  H8  1  0.91772000  0.87229000  0.61524000  1.0
  H  H9  1  0.41789000  0.12777000  0.38476000  1.0
  H  H10  1  0.44326000  0.32862000  0.07367000  1.0
  H  H11  1  0.94327000  0.67132000  0.92631000  1.0
  H  H12  1  0.44327000  0.32863000  0.92633000  1.0
  H  H13  1  0.94326000  0.67132000  0.07369000  1.0
  H  H14  1  0.54101000  0.01206000  0.92703000  1.0
  H  H15  1  0.04102000  0.98790000  0.07296000  1.0
  H  H16  1  0.54100000  0.01205000  0.07297000  1.0
  H  H17  1  0.04103000  0.98791000  0.92705000  1.0
  C  C18  1  0.25654000  0.74071000  0.23362000  1.0
  C  C19  1  0.75663000  0.25928000  0.76637000  1.0
  C  C20  1  0.25655000  0.74071000  0.76638000  1.0
  C  C21  1  0.75662000  0.25927000  0.23363000  1.0
  C  C22  1  0.26351000  0.74758000  0.37124000  1.0
  C  C23  1  0.76373000  0.25247000  0.62876000  1.0
  C  C24  1  0.26354000  0.74757000  0.62876000  1.0
  C  C25  1  0.76369000  0.25245000  0.37125000  1.0
  C  C26  1  0.46032000  0.67956000  0.43599000  1.0
  C  C27  1  0.96041000  0.32046000  0.56402000  1.0
  C  C28  1  0.46030000  0.67956000  0.56401000  1.0
  C  C29  1  0.96042000  0.32046000  0.43597000  1.0
  C  C30  1  0.06893000  0.81899000  0.43592000  1.0
  C  C31  1  0.56907000  0.18104000  0.56407000  1.0
  C  C32  1  0.06892000  0.81899000  0.56408000  1.0
  C  C33  1  0.56908000  0.18105000  0.43594000  1.0
  O  O34  1  0.07423000  0.80269000  0.17827000  1.0
  O  O35  1  0.57437000  0.19727000  0.82169000  1.0
  O  O36  1  0.07427000  0.80269000  0.82173000  1.0
  O  O37  1  0.57433000  0.19725000  0.17831000  1.0
  O  O38  1  0.43823000  0.66923000  0.18007000  1.0
  O  O39  1  0.93826000  0.33078000  0.81993000  1.0
  O  O40  1  0.43826000  0.66924000  0.81993000  1.0
  O  O41  1  0.93822000  0.33077000  0.18007000  1.0
  O  O42  1  0.37091000  0.39418000  0.00000000  1.0
  O  O43  1  0.87082000  0.60579000  0.00000000  1.0
  O  O44  1  0.47532000  0.94580000  0.00000000  1.0
  O  O45  1  0.97540000  0.05420000  0.00000000  1.0
