# generated using pymatgen
data_NiH42C36(N10O3)2
_symmetry_space_group_name_H-M   'P 1'
_cell_length_a   8.47742000
_cell_length_b   9.21850000
_cell_length_c   13.16210000
_cell_angle_alpha   96.59370000
_cell_angle_beta   104.42000000
_cell_angle_gamma   106.99700000
_symmetry_Int_Tables_number   1
_chemical_formula_structural   NiH42C36(N10O3)2
_chemical_formula_sum   'Ni1 H42 C36 N20 O6'
_cell_volume   932.93483733
_cell_formula_units_Z   1
loop_
 _symmetry_equiv_pos_site_id
 _symmetry_equiv_pos_as_xyz
  1  'x, y, z'
loop_
 _atom_site_type_symbol
 _atom_site_label
 _atom_site_symmetry_multiplicity
 _atom_site_fract_x
 _atom_site_fract_y
 _atom_site_fract_z
 _atom_site_occupancy
  Ni  Ni0  1  0.50000000  0.50000000  0.50000000  1.0
  H  H1  1  0.33372000  0.52118000  0.82630000  1.0
  H  H2  1  0.66626000  0.47881000  0.17371000  1.0
  H  H3  1  0.48725000  0.68157000  0.92694000  1.0
  H  H4  1  0.51274000  0.31842000  0.07306000  1.0
  H  H5  1  0.76236000  0.43765000  0.01183000  1.0
  H  H6  1  0.23762000  0.56234000  0.98818000  1.0
  H  H7  1  0.75422000  0.62642000  0.04645000  1.0
  H  H8  1  0.24577000  0.37357000  0.95355000  1.0
  H  H9  1  0.93257000  0.35950000  0.76609000  1.0
  H  H10  1  0.06746000  0.64054000  0.23392000  1.0
  H  H11  1  0.79217000  0.40118000  0.58622000  1.0
  H  H12  1  0.20785000  0.59887000  0.41379000  1.0
  H  H13  1  0.41647000  0.50691000  0.70269000  1.0
  H  H14  1  0.58352000  0.49306000  0.29731000  1.0
  H  H15  1  0.83659000  0.32623000  0.30906000  1.0
  H  H16  1  0.16341000  0.67377000  0.69094000  1.0
  H  H17  1  0.74175000  0.22058000  0.17478000  1.0
  H  H18  1  0.25825000  0.77942000  0.82522000  1.0
  H  H19  1  0.04683000  0.27066000  0.22462000  1.0
  H  H20  1  0.95317000  0.72934000  0.77538000  1.0
  H  H21  1  0.05125000  0.20717000  0.34757000  1.0
  H  H22  1  0.94876000  0.79283000  0.65243000  1.0
  H  H23  1  0.89149000  0.90666000  0.32619000  1.0
  H  H24  1  0.10851000  0.09334000  0.67381000  1.0
  H  H25  1  0.80720000  0.79676000  0.19276000  1.0
  H  H26  1  0.19279000  0.20324000  0.80723000  1.0
  H  H27  1  0.58688000  0.92097000  0.14746000  1.0
  H  H28  1  0.41312000  0.07903000  0.85254000  1.0
  H  H29  1  0.57779000  0.85188000  0.26724000  1.0
  H  H30  1  0.42221000  0.14813000  0.73276000  1.0
  H  H31  1  0.23588000  0.92223000  0.40729000  1.0
  H  H32  1  0.76411000  0.07777000  0.59270000  1.0
  H  H33  1  0.25718000  0.19217000  0.48453000  1.0
  H  H34  1  0.74282000  0.80782000  0.51546000  1.0
  H  H35  1  0.69545000  0.37182000  0.39081000  1.0
  H  H36  1  0.30455000  0.62818000  0.60920000  1.0
  H  H37  1  0.07136000  0.69849000  0.00099000  1.0
  H  H38  1  0.92863000  0.30151000  0.99900000  1.0
  H  H39  1  0.34109000  0.90316000  0.99302000  1.0
  H  H40  1  0.65891000  0.09683000  0.00698000  1.0
  H  H41  1  0.25109000  0.22845000  0.19475000  1.0
  H  H42  1  0.74890000  0.77155000  0.80524000  1.0
  C  C43  1  0.42626000  0.55408000  0.90661000  1.0
  C  C44  1  0.57372000  0.44591000  0.09339000  1.0
  C  C45  1  0.67457000  0.50285000  0.01672000  1.0
  C  C46  1  0.32542000  0.49714000  0.98329000  1.0
  C  C47  1  0.61972000  0.46185000  0.82281000  1.0
  C  C48  1  0.38028000  0.53816000  0.17720000  1.0
  C  C49  1  0.81929000  0.39632000  0.75412000  1.0
  C  C50  1  0.18074000  0.60372000  0.24589000  1.0
  C  C51  1  0.74106000  0.41603000  0.65289000  1.0
  C  C52  1  0.25897000  0.58401000  0.34713000  1.0
  C  C53  1  0.53518000  0.47929000  0.71929000  1.0
  C  C54  1  0.46482000  0.52071000  0.28071000  1.0
  C  C55  1  0.80504000  0.21361000  0.25745000  1.0
  C  C56  1  0.19497000  0.78639000  0.74255000  1.0
  C  C57  1  0.97568000  0.18531000  0.26288000  1.0
  C  C58  1  0.02433000  0.81470000  0.73712000  1.0
  C  C59  1  0.82935000  0.90860000  0.24223000  1.0
  C  C60  1  0.17064000  0.09140000  0.75777000  1.0
  C  C61  1  0.65817000  0.93564000  0.23260000  1.0
  C  C62  1  0.34182000  0.06436000  0.76739000  1.0
  C  C63  1  0.57454000  0.11691000  0.34183000  1.0
  C  C64  1  0.42546000  0.88309000  0.65817000  1.0
  C  C65  1  0.33843000  0.02186000  0.40080000  1.0
  C  C66  1  0.66157000  0.97814000  0.59920000  1.0
  C  C67  1  0.34818000  0.17020000  0.44483000  1.0
  C  C68  1  0.65182000  0.82980000  0.55517000  1.0
  C  C69  1  0.59002000  0.26934000  0.38899000  1.0
  C  C70  1  0.40998000  0.73066000  0.61101000  1.0
  C  C71  1  0.05423000  0.99675000  0.15328000  1.0
  C  C72  1  0.94577000  0.00325000  0.84672000  1.0
  C  C73  1  0.11123000  0.81828000  0.04379000  1.0
  C  C74  1  0.88876000  0.18172000  0.95621000  1.0
  C  C75  1  0.25925000  0.93028000  0.03925000  1.0
  C  C76  1  0.74074000  0.06972000  0.96075000  1.0
  C  C77  1  0.20767000  0.11003000  0.14948000  1.0
  C  C78  1  0.79233000  0.88997000  0.85051000  1.0
  N  N79  1  0.56001000  0.48303000  0.90877000  1.0
  N  N80  1  0.43998000  0.51696000  0.09123000  1.0
  N  N81  1  0.76460000  0.42289000  0.83864000  1.0
  N  N82  1  0.23541000  0.57713000  0.16137000  1.0
  N  N83  1  0.59962000  0.46016000  0.63748000  1.0
  N  N84  1  0.40039000  0.53984000  0.36253000  1.0
  N  N85  1  0.68635000  0.09091000  0.28937000  1.0
  N  N86  1  0.31366000  0.90909000  0.71063000  1.0
  N  N87  1  0.94674000  0.02980000  0.20768000  1.0
  N  N88  1  0.05325000  0.97020000  0.79232000  1.0
  N  N89  1  0.44747000  0.99370000  0.34988000  1.0
  N  N90  1  0.55254000  0.00630000  0.65012000  1.0
  N  N91  1  0.47644000  0.29312000  0.43770000  1.0
  N  N92  1  0.52356000  0.70688000  0.56230000  1.0
  N  N93  1  0.01048000  0.84928000  0.10056000  1.0
  N  N94  1  0.98951000  0.15072000  0.89944000  1.0
  N  N95  1  0.30778000  0.07663000  0.09369000  1.0
  N  N96  1  0.69222000  0.92337000  0.90631000  1.0
  N  N97  1  0.91564000  0.65824000  0.43065000  1.0
  N  N98  1  0.08437000  0.34174000  0.56934000  1.0
  O  O99  1  0.83851000  0.59620000  0.49444000  1.0
  O  O100  1  0.16149000  0.40381000  0.50557000  1.0
  O  O101  1  0.87157000  0.58756000  0.33372000  1.0
  O  O102  1  0.12840000  0.41240000  0.66628000  1.0
  O  O103  1  0.03301000  0.78857000  0.46371000  1.0
  O  O104  1  0.96703000  0.21139000  0.53627000  1.0
