# generated using pymatgen
data_Co5H94C126(N5O17)2
_symmetry_space_group_name_H-M   'P 1'
_cell_length_a   15.33650000
_cell_length_b   15.55330000
_cell_length_c   16.63300000
_cell_angle_alpha   104.62500000
_cell_angle_beta   106.44600000
_cell_angle_gamma   114.61900000
_symmetry_Int_Tables_number   1
_chemical_formula_structural   Co5H94C126(N5O17)2
_chemical_formula_sum   'Co5 H94 C126 N10 O34'
_cell_volume   3131.57359526
_cell_formula_units_Z   1
loop_
 _symmetry_equiv_pos_site_id
 _symmetry_equiv_pos_as_xyz
  1  'x, y, z'
loop_
 _atom_site_type_symbol
 _atom_site_label
 _atom_site_symmetry_multiplicity
 _atom_site_fract_x
 _atom_site_fract_y
 _atom_site_fract_z
 _atom_site_occupancy
  Co  Co0  1  0.37937000  0.38752000  0.34088000  1.0
  Co  Co1  1  0.62062000  0.61248000  0.65913000  1.0
  Co  Co2  1  0.96551000  0.95882000  0.33940000  1.0
  Co  Co3  1  0.03449000  0.04117000  0.66059000  1.0
  Co  Co4  1  0.49999000  0.49998000  0.00000000  1.0
  H  H5  1  0.86538000  0.74017000  0.19506000  1.0
  H  H6  1  0.13462000  0.25983000  0.80494000  1.0
  H  H7  1  0.23574000  0.17942000  0.32854000  1.0
  H  H8  1  0.76427000  0.82060000  0.67148000  1.0
  H  H9  1  0.09597000  0.15427000  0.32934000  1.0
  H  H10  1  0.90404000  0.84574000  0.67066000  1.0
  H  H11  1  0.79833000  0.02033000  0.32534000  1.0
  H  H12  1  0.20168000  0.97967000  0.67466000  1.0
  H  H13  1  0.30269000  0.35342000  0.99815000  1.0
  H  H14  1  0.69729000  0.64657000  0.00184000  1.0
  H  H15  1  0.21590000  0.19460000  0.00096000  1.0
  H  H16  1  0.78412000  0.80543000  0.99905000  1.0
  H  H17  1  0.53356000  0.31398000  0.33290000  1.0
  H  H18  1  0.46644000  0.68602000  0.66711000  1.0
  H  H19  1  0.45419000  0.59775000  0.48037000  1.0
  H  H20  1  0.54581000  0.40225000  0.51962000  1.0
  H  H21  1  0.26270000  0.21489000  0.72342000  1.0
  H  H22  1  0.73731000  0.78509000  0.27656000  1.0
  H  H23  1  0.26665000  0.65545000  0.01026000  1.0
  H  H24  1  0.73337000  0.34457000  0.98975000  1.0
  H  H25  1  0.42980000  0.65224000  0.01217000  1.0
  H  H26  1  0.57020000  0.34776000  0.98783000  1.0
  H  H27  1  0.32704000  0.46444000  0.19424000  1.0
  H  H28  1  0.67294000  0.53556000  0.80575000  1.0
  H  H29  1  0.13680000  0.34478000  0.99970000  1.0
  H  H30  1  0.86320000  0.65523000  0.00031000  1.0
  H  H31  1  0.84474000  0.57124000  0.18804000  1.0
  H  H32  1  0.15527000  0.42876000  0.81195000  1.0
  H  H33  1  0.54133000  0.15415000  0.32129000  1.0
  H  H34  1  0.45867000  0.84584000  0.67872000  1.0
  H  H35  1  0.33729000  0.62555000  0.18648000  1.0
  H  H36  1  0.66271000  0.37446000  0.81352000  1.0
  H  H37  1  0.03385000  0.72545000  0.48524000  1.0
  H  H38  1  0.96617000  0.27456000  0.51476000  1.0
  H  H39  1  0.23158000  0.23099000  0.46298000  1.0
  H  H40  1  0.76842000  0.76903000  0.53701000  1.0
  H  H41  1  0.22914000  0.01592000  0.31822000  1.0
  H  H42  1  0.77086000  0.98409000  0.68180000  1.0
  H  H43  1  0.04757000  0.88867000  0.47935000  1.0
  H  H44  1  0.95244000  0.11134000  0.52064000  1.0
  H  H45  1  0.10065000  0.31609000  0.33529000  1.0
  H  H46  1  0.89934000  0.68393000  0.66472000  1.0
  H  H47  1  0.47755000  0.76770000  0.48537000  1.0
  H  H48  1  0.52246000  0.23229000  0.51462000  1.0
  H  H49  1  0.76227000  0.94403000  0.89036000  1.0
  H  H50  1  0.23772000  0.05599000  0.10964000  1.0
  H  H51  1  0.78484000  0.17474000  0.32479000  1.0
  H  H52  1  0.21516000  0.82525000  0.67521000  1.0
  H  H53  1  0.44584000  0.50883000  0.71868000  1.0
  H  H54  1  0.55414000  0.49116000  0.28132000  1.0
  H  H55  1  0.55636000  0.07062000  0.42205000  1.0
  H  H56  1  0.44364000  0.92938000  0.57797000  1.0
  H  H57  1  0.87441000  0.02588000  0.84993000  1.0
  H  H58  1  0.12559000  0.97412000  0.15008000  1.0
  H  H59  1  0.24203000  0.71132000  0.23115000  1.0
  H  H60  1  0.75798000  0.28868000  0.76884000  1.0
  H  H61  1  0.09975000  0.62272000  0.43871000  1.0
  H  H62  1  0.90025000  0.37728000  0.56129000  1.0
  H  H63  1  0.08045000  0.55708000  0.89891000  1.0
  H  H64  1  0.91956000  0.44294000  0.10111000  1.0
  H  H65  1  0.77752000  0.27058000  0.23433000  1.0
  H  H66  1  0.22248000  0.72942000  0.76568000  1.0
  H  H67  1  0.02435000  0.18424000  0.14868000  1.0
  H  H68  1  0.97566000  0.81574000  0.85133000  1.0
  H  H69  1  0.05394000  0.46817000  0.22590000  1.0
  H  H70  1  0.94606000  0.53183000  0.77410000  1.0
  H  H71  1  0.10965000  0.38661000  0.22056000  1.0
  H  H72  1  0.89036000  0.61339000  0.77945000  1.0
  H  H73  1  0.97390000  0.33369000  0.14166000  1.0
  H  H74  1  0.02610000  0.66631000  0.85834000  1.0
  H  H75  1  0.70413000  0.05039000  0.44369000  1.0
  H  H76  1  0.29587000  0.94962000  0.55632000  1.0
  H  H77  1  0.74549000  0.00651000  0.52887000  1.0
  H  H78  1  0.25452000  0.99351000  0.47114000  1.0
  H  H79  1  0.67413000  0.07193000  0.54152000  1.0
  H  H80  1  0.32587000  0.92808000  0.45848000  1.0
  H  H81  1  0.24544000  0.60385000  0.47317000  1.0
  H  H82  1  0.75454000  0.39614000  0.52682000  1.0
  H  H83  1  0.27286000  0.54743000  0.55123000  1.0
  H  H84  1  0.72715000  0.45257000  0.44877000  1.0
  H  H85  1  0.19949000  0.61101000  0.56202000  1.0
  H  H86  1  0.80053000  0.38900000  0.43799000  1.0
  H  H87  1  0.12748000  0.70781000  0.11128000  1.0
  H  H88  1  0.87252000  0.29219000  0.88874000  1.0
  H  H89  1  0.05306000  0.76998000  0.12106000  1.0
  H  H90  1  0.94694000  0.23002000  0.87895000  1.0
  H  H91  1  0.09480000  0.72804000  0.20752000  1.0
  H  H92  1  0.90520000  0.27196000  0.79248000  1.0
  H  H93  1  0.65210000  0.27861000  0.12667000  1.0
  H  H94  1  0.34791000  0.72138000  0.87333000  1.0
  H  H95  1  0.59275000  0.35302000  0.15633000  1.0
  H  H96  1  0.40725000  0.64698000  0.84367000  1.0
  H  H97  1  0.63787000  0.30037000  0.23219000  1.0
  H  H98  1  0.36212000  0.69962000  0.76781000  1.0
  C  C99  1  0.04976000  0.08484000  0.82528000  1.0
  C  C100  1  0.95024000  0.91516000  0.17472000  1.0
  C  C101  1  0.90359000  0.73387000  0.25750000  1.0
  C  C102  1  0.09641000  0.26612000  0.74248000  1.0
  C  C103  1  0.30248000  0.17094000  0.32802000  1.0
  C  C104  1  0.69752000  0.82906000  0.67198000  1.0
  C  C105  1  0.04498000  0.10632000  0.91661000  1.0
  C  C106  1  0.95501000  0.89368000  0.08336000  1.0
  C  C107  1  0.02991000  0.16349000  0.33083000  1.0
  C  C108  1  0.97009000  0.83652000  0.66917000  1.0
  C  C109  1  0.13060000  0.19614000  0.08461000  1.0
  C  C110  1  0.86939000  0.80386000  0.91540000  1.0
  C  C111  1  0.86280000  0.08779000  0.32679000  1.0
  C  C112  1  0.13721000  0.91221000  0.67320000  1.0
  C  C113  1  0.29105000  0.41848000  0.00143000  1.0
  C  C114  1  0.70895000  0.58152000  0.99857000  1.0
  C  C115  1  0.13779000  0.16744000  0.00077000  1.0
  C  C116  1  0.86220000  0.83256000  0.99923000  1.0
  C  C117  1  0.18796000  0.49960000  0.00434000  1.0
  C  C118  1  0.81204000  0.50041000  0.99566000  1.0
  C  C119  1  0.46860000  0.24579000  0.33010000  1.0
  C  C120  1  0.53140000  0.75420000  0.66990000  1.0
  C  C121  1  0.93683000  0.09771000  0.00025000  1.0
  C  C122  1  0.06316000  0.90228000  0.99976000  1.0
  C  C123  1  0.43051000  0.60805000  0.41681000  1.0
  C  C124  1  0.56949000  0.39194000  0.58318000  1.0
  C  C125  1  0.28301000  0.25925000  0.68339000  1.0
  C  C126  1  0.71699000  0.74073000  0.31659000  1.0
  C  C127  1  0.27149000  0.58677000  0.00707000  1.0
  C  C128  1  0.72852000  0.41324000  0.99293000  1.0
  C  C129  1  0.40648000  0.71085000  0.33550000  1.0
  C  C130  1  0.59353000  0.28915000  0.66449000  1.0
  C  C131  1  0.36181000  0.58583000  0.00821000  1.0
  C  C132  1  0.63819000  0.41417000  0.99178000  1.0
  C  C133  1  0.35758000  0.53258000  0.25705000  1.0
  C  C134  1  0.64241000  0.46742000  0.74294000  1.0
  C  C135  1  0.38221000  0.43642000  0.53257000  1.0
  C  C136  1  0.61780000  0.56359000  0.46746000  1.0
  C  C137  1  0.19911000  0.41404000  0.00166000  1.0
  C  C138  1  0.80089000  0.58598000  0.99834000  1.0
  C  C139  1  0.23488000  0.21069000  0.58675000  1.0
  C  C140  1  0.76512000  0.78931000  0.41323000  1.0
  C  C141  1  0.89180000  0.63948000  0.25427000  1.0
  C  C142  1  0.10820000  0.36052000  0.74572000  1.0
  C  C143  1  0.22856000  0.26930000  0.17517000  1.0
  C  C144  1  0.77144000  0.73069000  0.82483000  1.0
  C  C145  1  0.35765000  0.36651000  0.72981000  1.0
  C  C146  1  0.64234000  0.63348000  0.27019000  1.0
  C  C147  1  0.47244000  0.15690000  0.32450000  1.0
  C  C148  1  0.52755000  0.84309000  0.67549000  1.0
  C  C149  1  0.94030000  0.63332000  0.33628000  1.0
  C  C150  1  0.05970000  0.36667000  0.66371000  1.0
  C  C151  1  0.34301000  0.37615000  0.58445000  1.0
  C  C152  1  0.65699000  0.62385000  0.41556000  1.0
  C  C153  1  0.14879000  0.09799000  0.53602000  1.0
  C  C154  1  0.85120000  0.90200000  0.46395000  1.0
  C  C155  1  0.94294000  0.26156000  0.33239000  1.0
  C  C156  1  0.05706000  0.73844000  0.66760000  1.0
  C  C157  1  0.36415000  0.62316000  0.25338000  1.0
  C  C158  1  0.63585000  0.37684000  0.74661000  1.0
  C  C159  1  0.99750000  0.72531000  0.41858000  1.0
  C  C160  1  0.00249000  0.27469000  0.58141000  1.0
  C  C161  1  0.26641000  0.26923000  0.53789000  1.0
  C  C162  1  0.73359000  0.73077000  0.46210000  1.0
  C  C163  1  0.30203000  0.87501000  0.26662000  1.0
  C  C164  1  0.69798000  0.12499000  0.73339000  1.0
  C  C165  1  0.38706000  0.07046000  0.32124000  1.0
  C  C166  1  0.61294000  0.92954000  0.67877000  1.0
  C  C167  1  0.39200000  0.97775000  0.32111000  1.0
  C  C168  1  0.60800000  0.02225000  0.67890000  1.0
  C  C169  1  0.29952000  0.07903000  0.32188000  1.0
  C  C170  1  0.70048000  0.92097000  0.67813000  1.0
  C  C171  1  0.09145000  0.49858000  0.00278000  1.0
  C  C172  1  0.90855000  0.50143000  0.99723000  1.0
  C  C173  1  0.93630000  0.53722000  0.33715000  1.0
  C  C174  1  0.06369000  0.46278000  0.66285000  1.0
  C  C175  1  0.00508000  0.81668000  0.41617000  1.0
  C  C176  1  0.99492000  0.18333000  0.58383000  1.0
  C  C177  1  0.49618000  0.90695000  0.38614000  1.0
  C  C178  1  0.50382000  0.09305000  0.61387000  1.0
  C  C179  1  0.03104000  0.25359000  0.33307000  1.0
  C  C180  1  0.96895000  0.74641000  0.66693000  1.0
  C  C181  1  0.94076000  0.35646000  0.33671000  1.0
  C  C182  1  0.05924000  0.64354000  0.66330000  1.0
  C  C183  1  0.44224000  0.70218000  0.41894000  1.0
  C  C184  1  0.55776000  0.29782000  0.58105000  1.0
  C  C185  1  0.40588000  0.80452000  0.33195000  1.0
  C  C186  1  0.59413000  0.19548000  0.66805000  1.0
  C  C187  1  0.85636000  0.17432000  0.32677000  1.0
  C  C188  1  0.14364000  0.82567000  0.67323000  1.0
  C  C189  1  0.38679000  0.42537000  0.68081000  1.0
  C  C190  1  0.61320000  0.57462000  0.31918000  1.0
  C  C191  1  0.04625000  0.46478000  0.06029000  1.0
  C  C192  1  0.95374000  0.53520000  0.93971000  1.0
  C  C193  1  0.48803000  0.99127000  0.37900000  1.0
  C  C194  1  0.51197000  0.00873000  0.62102000  1.0
  C  C195  1  0.84317000  0.43660000  0.28100000  1.0
  C  C196  1  0.15684000  0.56340000  0.71901000  1.0
  C  C197  1  0.94471000  0.07042000  0.91689000  1.0
  C  C198  1  0.05530000  0.92958000  0.08312000  1.0
  C  C199  1  0.31085000  0.79068000  0.27233000  1.0
  C  C200  1  0.68917000  0.20933000  0.72767000  1.0
  C  C201  1  0.03218000  0.45733000  0.39645000  1.0
  C  C202  1  0.96781000  0.54267000  0.60355000  1.0
  C  C203  1  0.02861000  0.54520000  0.39516000  1.0
  C  C204  1  0.97140000  0.45480000  0.60485000  1.0
  C  C205  1  0.04482000  0.53315000  0.94346000  1.0
  C  C206  1  0.95517000  0.46684000  0.05654000  1.0
  C  C207  1  0.84712000  0.34834000  0.28104000  1.0
  C  C208  1  0.15288000  0.65166000  0.71896000  1.0
  C  C209  1  0.03012000  0.16113000  0.08383000  1.0
  C  C210  1  0.96988000  0.83886000  0.91618000  1.0
  C  C211  1  0.05482000  0.40405000  0.17986000  1.0
  C  C212  1  0.94519000  0.59595000  0.82014000  1.0
  C  C213  1  0.68276000  0.01788000  0.49171000  1.0
  C  C214  1  0.31725000  0.98212000  0.50829000  1.0
  C  C215  1  0.21433000  0.56281000  0.51309000  1.0
  C  C216  1  0.78567000  0.43719000  0.48692000  1.0
  C  C217  1  0.11669000  0.76073000  0.15985000  1.0
  C  C218  1  0.88331000  0.23926000  0.84017000  1.0
  C  C219  1  0.83222000  0.06917000  0.00353000  1.0
  C  C220  1  0.16779000  0.93082000  0.99649000  1.0
  C  C221  1  0.65346000  0.33470000  0.18361000  1.0
  C  C222  1  0.34654000  0.66529000  0.81639000  1.0
  C  C223  1  0.40864000  0.41791000  0.83202000  1.0
  C  C224  1  0.59135000  0.58207000  0.16797000  1.0
  N  N225  1  0.37105000  0.50305000  0.00516000  1.0
  N  N226  1  0.62895000  0.49696000  0.99483000  1.0
  N  N227  1  0.94922000  0.08259000  0.33057000  1.0
  N  N228  1  0.05078000  0.91741000  0.66942000  1.0
  N  N229  1  0.38550000  0.25415000  0.33309000  1.0
  N  N230  1  0.61449000  0.74585000  0.66691000  1.0
  N  N231  1  0.38853000  0.52366000  0.33722000  1.0
  N  N232  1  0.61145000  0.47633000  0.66276000  1.0
  N  N233  1  0.95956000  0.82200000  0.33674000  1.0
  N  N234  1  0.04043000  0.17800000  0.66325000  1.0
  O  O235  1  0.96109000  0.03517000  0.75169000  1.0
  O  O236  1  0.03892000  0.96485000  0.24831000  1.0
  O  O237  1  0.13850000  0.11824000  0.82101000  1.0
  O  O238  1  0.86152000  0.88178000  0.17901000  1.0
  O  O239  1  0.45952000  0.53197000  0.57914000  1.0
  O  O240  1  0.54048000  0.46802000  0.42087000  1.0
  O  O241  1  0.11659000  0.04883000  0.58281000  1.0
  O  O242  1  0.88339000  0.95115000  0.41717000  1.0
  O  O243  1  0.11287000  0.05612000  0.44827000  1.0
  O  O244  1  0.88713000  0.94387000  0.55172000  1.0
  O  O245  1  0.33625000  0.38974000  0.44465000  1.0
  O  O246  1  0.66374000  0.61027000  0.55535000  1.0
  O  O247  1  0.40085000  0.36169000  0.87729000  1.0
  O  O248  1  0.59914000  0.63829000  0.12270000  1.0
  O  O249  1  0.46169000  0.51782000  0.87448000  1.0
  O  O250  1  0.53830000  0.48216000  0.12551000  1.0
  O  O251  1  0.21519000  0.29778000  0.24797000  1.0
  O  O252  1  0.78480000  0.70221000  0.75204000  1.0
  O  O253  1  0.32171000  0.30363000  0.17973000  1.0
  O  O254  1  0.67829000  0.69637000  0.82027000  1.0
  O  O255  1  0.58740000  0.91643000  0.44217000  1.0
  O  O256  1  0.41261000  0.08357000  0.55783000  1.0
  O  O257  1  0.75307000  0.43259000  0.23027000  1.0
  O  O258  1  0.24693000  0.56741000  0.76973000  1.0
  O  O259  1  0.11999000  0.46242000  0.45340000  1.0
  O  O260  1  0.88000000  0.53758000  0.54662000  1.0
  O  O261  1  0.09666000  0.43430000  0.11793000  1.0
  O  O262  1  0.90334000  0.56571000  0.88208000  1.0
  O  O263  1  0.21013000  0.86351000  0.20941000  1.0
  O  O264  1  0.78986000  0.13649000  0.79060000  1.0
  O  O265  1  0.74315000  0.98115000  0.93216000  1.0
  O  O266  1  0.25686000  0.01888000  0.06785000  1.0
  O  O267  1  0.82411000  0.12192000  0.06587000  1.0
  O  O268  1  0.17593000  0.87807000  0.93417000  1.0
