# generated using pymatgen
data_ZnH12C8S2(NO2)2
_symmetry_space_group_name_H-M   'P 1'
_cell_length_a   5.35580000
_cell_length_b   9.68672000
_cell_length_c   10.94530000
_cell_angle_alpha   91.47950000
_cell_angle_beta   90.00000000
_cell_angle_gamma   89.99950000
_symmetry_Int_Tables_number   1
_chemical_formula_structural   ZnH12C8S2(NO2)2
_chemical_formula_sum   'Zn2 H24 C16 S4 N4 O8'
_cell_volume   567.65433754
_cell_formula_units_Z   2
loop_
 _symmetry_equiv_pos_site_id
 _symmetry_equiv_pos_as_xyz
  1  'x, y, z'
loop_
 _atom_site_type_symbol
 _atom_site_label
 _atom_site_symmetry_multiplicity
 _atom_site_fract_x
 _atom_site_fract_y
 _atom_site_fract_z
 _atom_site_occupancy
  Zn  Zn0  1  0.08941000  0.96413000  0.69895000  1.0
  Zn  Zn1  1  0.58943000  0.03586000  0.30105000  1.0
  H  H2  1  0.88683000  0.16381000  0.80674000  1.0
  H  H3  1  0.38686000  0.83619000  0.19326000  1.0
  H  H4  1  0.68731000  0.89415000  0.82420000  1.0
  H  H5  1  0.18732000  0.10585000  0.17581000  1.0
  H  H6  1  0.86557000  0.85571000  0.99584000  1.0
  H  H7  1  0.36556000  0.14429000  0.00416000  1.0
  H  H8  1  0.94152000  0.68026000  0.67796000  1.0
  H  H9  1  0.44154000  0.31973000  0.32204000  1.0
  H  H10  1  0.61791000  0.73007000  0.68136000  1.0
  H  H11  1  0.11793000  0.26993000  0.31865000  1.0
  H  H12  1  0.99689000  0.62362000  0.02742000  1.0
  H  H13  1  0.49689000  0.37638000  0.97258000  1.0
  H  H14  1  0.17272000  0.61502000  0.88957000  1.0
  H  H15  1  0.67273000  0.38498000  0.11043000  1.0
  H  H16  1  0.64912000  0.22986000  0.65306000  1.0
  H  H17  1  0.14916000  0.77013000  0.34693000  1.0
  H  H18  1  0.82282000  0.44749000  0.64294000  1.0
  H  H19  1  0.32288000  0.55250000  0.35707000  1.0
  H  H20  1  0.91422000  0.38479000  0.49388000  1.0
  H  H21  1  0.41429000  0.61522000  0.50613000  1.0
  H  H22  1  0.36326000  0.22213000  0.79541000  1.0
  H  H23  1  0.86328000  0.77786000  0.20458000  1.0
  H  H24  1  0.12252000  0.33920000  0.84502000  1.0
  H  H25  1  0.62255000  0.66079000  0.15497000  1.0
  C  C26  1  0.83791000  0.11860000  0.51920000  1.0
  C  C27  1  0.33792000  0.88141000  0.48080000  1.0
  C  C28  1  0.98029000  0.81273000  0.92107000  1.0
  C  C29  1  0.48029000  0.18726000  0.07893000  1.0
  C  C30  1  0.24157000  0.87761000  0.93427000  1.0
  C  C31  1  0.74157000  0.12239000  0.06573000  1.0
  C  C32  1  0.78543000  0.71404000  0.73665000  1.0
  C  C33  1  0.28545000  0.28596000  0.26336000  1.0
  C  C34  1  0.99984000  0.65466000  0.93207000  1.0
  C  C35  1  0.49985000  0.34534000  0.06793000  1.0
  C  C36  1  0.84725000  0.22441000  0.62563000  1.0
  C  C37  1  0.34728000  0.77559000  0.37437000  1.0
  C  C38  1  0.93149000  0.36914000  0.59222000  1.0
  C  C39  1  0.43154000  0.63087000  0.40780000  1.0
  C  C40  1  0.19218000  0.27531000  0.76779000  1.0
  C  C41  1  0.69220000  0.72468000  0.23221000  1.0
  S  S42  1  0.25612000  0.38079000  0.63747000  1.0
  S  S43  1  0.75618000  0.61921000  0.36252000  1.0
  S  S44  1  0.73057000  0.58506000  0.85167000  1.0
  S  S45  1  0.23058000  0.41495000  0.14834000  1.0
  N  N46  1  0.99741000  0.17388000  0.72977000  1.0
  N  N47  1  0.49743000  0.82612000  0.27023000  1.0
  N  N48  1  0.85215000  0.84305000  0.80362000  1.0
  N  N49  1  0.35216000  0.15695000  0.19638000  1.0
  O  O50  1  0.86136000  0.99281000  0.54372000  1.0
  O  O51  1  0.36137000  0.00719000  0.45628000  1.0
  O  O52  1  0.35285000  0.86236000  0.03353000  1.0
  O  O53  1  0.85285000  0.13765000  0.96647000  1.0
  O  O54  1  0.33520000  0.94101000  0.84276000  1.0
  O  O55  1  0.83521000  0.05898000  0.15723000  1.0
  O  O56  1  0.78443000  0.16473000  0.41423000  1.0
  O  O57  1  0.28443000  0.83527000  0.58576000  1.0
