# generated using pymatgen
data_TbH6C9NO7
_symmetry_space_group_name_H-M   'P 1'
_cell_length_a   7.55317000
_cell_length_b   8.44341000
_cell_length_c   17.06510000
_cell_angle_alpha   90.00010000
_cell_angle_beta   90.00060000
_cell_angle_gamma   75.25600000
_symmetry_Int_Tables_number   1
_chemical_formula_structural   TbH6C9NO7
_chemical_formula_sum   'Tb4 H24 C36 N4 O28'
_cell_volume   1052.48290895
_cell_formula_units_Z   4
loop_
 _symmetry_equiv_pos_site_id
 _symmetry_equiv_pos_as_xyz
  1  'x, y, z'
loop_
 _atom_site_type_symbol
 _atom_site_label
 _atom_site_symmetry_multiplicity
 _atom_site_fract_x
 _atom_site_fract_y
 _atom_site_fract_z
 _atom_site_occupancy
  Tb  Tb0  1  0.21824000  0.07127000  0.28411000  1.0
  Tb  Tb1  1  0.78176000  0.42874000  0.78412000  1.0
  Tb  Tb2  1  0.78176000  0.92874000  0.71588000  1.0
  Tb  Tb3  1  0.21825000  0.57126000  0.21588000  1.0
  H  H4  1  0.42571000  0.70385000  0.97500000  1.0
  H  H5  1  0.57429000  0.79616000  0.47501000  1.0
  H  H6  1  0.57429000  0.29615000  0.02499000  1.0
  H  H7  1  0.42571000  0.20385000  0.52499000  1.0
  H  H8  1  0.12926000  0.19286000  0.04036000  1.0
  H  H9  1  0.87073000  0.30715000  0.54036000  1.0
  H  H10  1  0.87074000  0.80714000  0.95964000  1.0
  H  H11  1  0.12927000  0.69285000  0.45964000  1.0
  H  H12  1  0.31972000  0.10740000  0.81234000  1.0
  H  H13  1  0.68027000  0.39261000  0.31234000  1.0
  H  H14  1  0.68027000  0.89260000  0.18766000  1.0
  H  H15  1  0.31972000  0.60740000  0.68766000  1.0
  H  H16  1  0.82535000  0.39764000  0.08669000  1.0
  H  H17  1  0.17465000  0.10236000  0.58668000  1.0
  H  H18  1  0.17465000  0.60236000  0.91331000  1.0
  H  H19  1  0.82535000  0.89764000  0.41332000  1.0
  H  H20  1  0.73251000  0.52163000  0.16878000  1.0
  H  H21  1  0.26748000  0.97837000  0.66878000  1.0
  H  H22  1  0.26749000  0.47837000  0.83123000  1.0
  H  H23  1  0.73251000  0.02163000  0.33122000  1.0
  H  H24  1  0.90081000  0.66823000  0.10200000  1.0
  H  H25  1  0.09919000  0.83177000  0.60200000  1.0
  H  H26  1  0.09919000  0.33177000  0.89800000  1.0
  H  H27  1  0.90081000  0.16823000  0.39800000  1.0
  C  C28  1  0.25766000  0.88661000  0.10104000  1.0
  C  C29  1  0.74235000  0.61337000  0.60105000  1.0
  C  C30  1  0.74235000  0.11339000  0.89896000  1.0
  C  C31  1  0.25765000  0.38663000  0.39895000  1.0
  C  C32  1  0.27559000  0.94095000  0.01834000  1.0
  C  C33  1  0.72441000  0.55906000  0.51834000  1.0
  C  C34  1  0.72442000  0.05905000  0.98166000  1.0
  C  C35  1  0.27559000  0.44095000  0.48166000  1.0
  C  C36  1  0.36711000  0.83252000  0.96103000  1.0
  C  C37  1  0.63289000  0.66748000  0.46103000  1.0
  C  C38  1  0.63289000  0.16748000  0.03897000  1.0
  C  C39  1  0.36711000  0.33252000  0.53897000  1.0
  C  C40  1  0.20190000  0.10443000  0.99734000  1.0
  C  C41  1  0.79810000  0.39557000  0.49735000  1.0
  C  C42  1  0.79810000  0.89557000  0.00266000  1.0
  C  C43  1  0.20190000  0.60443000  0.50265000  1.0
  C  C44  1  0.38670000  0.89153000  0.88599000  1.0
  C  C45  1  0.61329000  0.60848000  0.38600000  1.0
  C  C46  1  0.61330000  0.10848000  0.11401000  1.0
  C  C47  1  0.38670000  0.39152000  0.61400000  1.0
  C  C48  1  0.30766000  0.05679000  0.87027000  1.0
  C  C49  1  0.69234000  0.44321000  0.37027000  1.0
  C  C50  1  0.69234000  0.94321000  0.12973000  1.0
  C  C51  1  0.30766000  0.55679000  0.62973000  1.0
  C  C52  1  0.49287000  0.78301000  0.82345000  1.0
  C  C53  1  0.50713000  0.71698000  0.32345000  1.0
  C  C54  1  0.50714000  0.21699000  0.17655000  1.0
  C  C55  1  0.49286000  0.28302000  0.67655000  1.0
  C  C56  1  0.95773000  0.31973000  0.19623000  1.0
  C  C57  1  0.04228000  0.18029000  0.69623000  1.0
  C  C58  1  0.04227000  0.68028000  0.80377000  1.0
  C  C59  1  0.95772000  0.81970000  0.30377000  1.0
  C  C60  1  0.86128000  0.45365000  0.14081000  1.0
  C  C61  1  0.13872000  0.04636000  0.64081000  1.0
  C  C62  1  0.13872000  0.54635000  0.85919000  1.0
  C  C63  1  0.86128000  0.95364000  0.35919000  1.0
  N  N64  1  0.21472000  0.16014000  0.92450000  1.0
  N  N65  1  0.78527000  0.33986000  0.42451000  1.0
  N  N66  1  0.78528000  0.83986000  0.07550000  1.0
  N  N67  1  0.21472000  0.66014000  0.57550000  1.0
  O  O68  1  0.25094000  0.99409000  0.15364000  1.0
  O  O69  1  0.74906000  0.50592000  0.65363000  1.0
  O  O70  1  0.74906000  0.00591000  0.84637000  1.0
  O  O71  1  0.25094000  0.49408000  0.34637000  1.0
  O  O72  1  0.25167000  0.73906000  0.11132000  1.0
  O  O73  1  0.74834000  0.76095000  0.61133000  1.0
  O  O74  1  0.74835000  0.26094000  0.88868000  1.0
  O  O75  1  0.25165000  0.23905000  0.38867000  1.0
  O  O76  1  0.55228000  0.63150000  0.83995000  1.0
  O  O77  1  0.44772000  0.86851000  0.33995000  1.0
  O  O78  1  0.44773000  0.36850000  0.16005000  1.0
  O  O79  1  0.55228000  0.13149000  0.66005000  1.0
  O  O80  1  0.52028000  0.84836000  0.75902000  1.0
  O  O81  1  0.47972000  0.65165000  0.25902000  1.0
  O  O82  1  0.47972000  0.15164000  0.24098000  1.0
  O  O83  1  0.52028000  0.34835000  0.74098000  1.0
  O  O84  1  0.10877000  0.33752000  0.22680000  1.0
  O  O85  1  0.89123000  0.16248000  0.72680000  1.0
  O  O86  1  0.89123000  0.66248000  0.77320000  1.0
  O  O87  1  0.10877000  0.83752000  0.27320000  1.0
  O  O88  1  0.89995000  0.19722000  0.21261000  1.0
  O  O89  1  0.10004000  0.30277000  0.71261000  1.0
  O  O90  1  0.10005000  0.80278000  0.78738000  1.0
  O  O91  1  0.89996000  0.69723000  0.28739000  1.0
  O  O92  1  0.97957000  0.55726000  0.12443000  1.0
  O  O93  1  0.02042000  0.94274000  0.62443000  1.0
  O  O94  1  0.02043000  0.44274000  0.87557000  1.0
  O  O95  1  0.97957000  0.05726000  0.37557000  1.0
