# generated using pymatgen
data_AgH8C10N2O3
_symmetry_space_group_name_H-M   'P 1'
_cell_length_a   9.85783000
_cell_length_b   10.48370000
_cell_length_c   11.57300000
_cell_angle_alpha   70.97440000
_cell_angle_beta   69.33550000
_cell_angle_gamma   86.73830000
_symmetry_Int_Tables_number   1
_chemical_formula_structural   AgH8C10N2O3
_chemical_formula_sum   'Ag4 H32 C40 N8 O12'
_cell_volume   1055.66027046
_cell_formula_units_Z   4
loop_
 _symmetry_equiv_pos_site_id
 _symmetry_equiv_pos_as_xyz
  1  'x, y, z'
loop_
 _atom_site_type_symbol
 _atom_site_label
 _atom_site_symmetry_multiplicity
 _atom_site_fract_x
 _atom_site_fract_y
 _atom_site_fract_z
 _atom_site_occupancy
  Ag  Ag0  1  0.39076000  0.59385000  0.49647000  1.0
  Ag  Ag1  1  0.60925000  0.40616000  0.50352000  1.0
  Ag  Ag2  1  0.50111000  0.17610000  0.88851000  1.0
  Ag  Ag3  1  0.49889000  0.82390000  0.11149000  1.0
  H  H4  1  0.23174000  0.29288000  0.01756000  1.0
  H  H5  1  0.76825000  0.70711000  0.98245000  1.0
  H  H6  1  0.14841000  0.43339000  0.16231000  1.0
  H  H7  1  0.85158000  0.56661000  0.83770000  1.0
  H  H8  1  0.57391000  0.41877000  0.19232000  1.0
  H  H9  1  0.42608000  0.58122000  0.80768000  1.0
  H  H10  1  0.64473000  0.28137000  0.04046000  1.0
  H  H11  1  0.35526000  0.71863000  0.95955000  1.0
  H  H12  1  0.76858000  0.07985000  0.70984000  1.0
  H  H13  1  0.23141000  0.92015000  0.29017000  1.0
  H  H14  1  0.81825000  0.92845000  0.57716000  1.0
  H  H15  1  0.18175000  0.07154000  0.42286000  1.0
  H  H16  1  0.35489000  0.88194000  0.66862000  1.0
  H  H17  1  0.64511000  0.11806000  0.33138000  1.0
  H  H18  1  0.32165000  0.03230000  0.80374000  1.0
  H  H19  1  0.67835000  0.96770000  0.19626000  1.0
  H  H20  1  0.01840000  0.96615000  0.63299000  1.0
  H  H21  1  0.98160000  0.03386000  0.36701000  1.0
  H  H22  1  0.02185000  0.99226000  0.83784000  1.0
  H  H23  1  0.97816000  0.00774000  0.16216000  1.0
  H  H24  1  0.07408000  0.79162000  0.00578000  1.0
  H  H25  1  0.92593000  0.20836000  0.99422000  1.0
  H  H26  1  0.13298000  0.57873000  0.95988000  1.0
  H  H27  1  0.86702000  0.42126000  0.04011000  1.0
  H  H28  1  0.15537000  0.61211000  0.38225000  1.0
  H  H29  1  0.84462000  0.38790000  0.61774000  1.0
  H  H30  1  0.10716000  0.55048000  0.27365000  1.0
  H  H31  1  0.89284000  0.44953000  0.72635000  1.0
  H  H32  1  0.73718000  0.70037000  0.42025000  1.0
  H  H33  1  0.26282000  0.29963000  0.57976000  1.0
  H  H34  1  0.82834000  0.78667000  0.48205000  1.0
  H  H35  1  0.17167000  0.21334000  0.51795000  1.0
  C  C36  1  0.30461000  0.32166000  0.05835000  1.0
  C  C37  1  0.69539000  0.67834000  0.94165000  1.0
  C  C38  1  0.25852000  0.39931000  0.14013000  1.0
  C  C39  1  0.74148000  0.60069000  0.85987000  1.0
  C  C40  1  0.35565000  0.43536000  0.18957000  1.0
  C  C41  1  0.64434000  0.56464000  0.81043000  1.0
  C  C42  1  0.49665000  0.39197000  0.15435000  1.0
  C  C43  1  0.50333000  0.60802000  0.84566000  1.0
  C  C44  1  0.53531000  0.31549000  0.07104000  1.0
  C  C45  1  0.46468000  0.68451000  0.92897000  1.0
  C  C46  1  0.31586000  0.51827000  0.27951000  1.0
  C  C47  1  0.68413000  0.48173000  0.72050000  1.0
  C  C48  1  0.67887000  0.03304000  0.70046000  1.0
  C  C49  1  0.32113000  0.96696000  0.29955000  1.0
  C  C50  1  0.70608000  0.94993000  0.62350000  1.0
  C  C51  1  0.29392000  0.05007000  0.37650000  1.0
  C  C52  1  0.58900000  0.89399000  0.61074000  1.0
  C  C53  1  0.41100000  0.10602000  0.38925000  1.0
  C  C54  1  0.44844000  0.92446000  0.67615000  1.0
  C  C55  1  0.55155000  0.07555000  0.32385000  1.0
  C  C56  1  0.42977000  0.00715000  0.75176000  1.0
  C  C57  1  0.57023000  0.99285000  0.24825000  1.0
  C  C58  1  0.60194000  0.80246000  0.53112000  1.0
  C  C59  1  0.39807000  0.19755000  0.46888000  1.0
  C  C60  1  0.06800000  0.74806000  0.55465000  1.0
  C  C61  1  0.93200000  0.25194000  0.44534000  1.0
  C  C62  1  0.07822000  0.76003000  0.67790000  1.0
  C  C63  1  0.92179000  0.23997000  0.32209000  1.0
  C  C64  1  0.04600000  0.88209000  0.70428000  1.0
  C  C65  1  0.95400000  0.11791000  0.29572000  1.0
  C  C66  1  0.04756000  0.89630000  0.81958000  1.0
  C  C67  1  0.95245000  0.10369000  0.18042000  1.0
  C  C68  1  0.07933000  0.78631000  0.91167000  1.0
  C  C69  1  0.92068000  0.21368000  0.08833000  1.0
  C  C70  1  0.11277000  0.66488000  0.88566000  1.0
  C  C71  1  0.88722000  0.33511000  0.11433000  1.0
  C  C72  1  0.11416000  0.64979000  0.76907000  1.0
  C  C73  1  0.88584000  0.35021000  0.23092000  1.0
  C  C74  1  0.13700000  0.50904000  0.75670000  1.0
  C  C75  1  0.86301000  0.49096000  0.24328000  1.0
  N  N76  1  0.44119000  0.27992000  0.02393000  1.0
  N  N77  1  0.55881000  0.72008000  0.97608000  1.0
  N  N78  1  0.54313000  0.06060000  0.76476000  1.0
  N  N79  1  0.45687000  0.93940000  0.23524000  1.0
  N  N80  1  0.18443000  0.56445000  0.31101000  1.0
  N  N81  1  0.81557000  0.43556000  0.68898000  1.0
  N  N82  1  0.73258000  0.76326000  0.47270000  1.0
  N  N83  1  0.26742000  0.23674000  0.52731000  1.0
  O  O84  1  0.41395000  0.53996000  0.31914000  1.0
  O  O85  1  0.58604000  0.46004000  0.68086000  1.0
  O  O86  1  0.48651000  0.76928000  0.52255000  1.0
  O  O87  1  0.51349000  0.23073000  0.47746000  1.0
  O  O88  1  0.02222000  0.43408000  0.79648000  1.0
  O  O89  1  0.97778000  0.56592000  0.20351000  1.0
  O  O90  1  0.26575000  0.47215000  0.71838000  1.0
  O  O91  1  0.73425000  0.52785000  0.28160000  1.0
  O  O92  1  0.14021000  0.65846000  0.51122000  1.0
  O  O93  1  0.85979000  0.34155000  0.48877000  1.0
  O  O94  1  0.98858000  0.82720000  0.50125000  1.0
  O  O95  1  0.01141000  0.17280000  0.49875000  1.0
