# generated using pymatgen
data_CuH8C12N3O
_symmetry_space_group_name_H-M   'P 1'
_cell_length_a   4.75757000
_cell_length_b   11.39270000
_cell_length_c   18.23860000
_cell_angle_alpha   89.99950000
_cell_angle_beta   91.22100000
_cell_angle_gamma   89.99760000
_symmetry_Int_Tables_number   1
_chemical_formula_structural   CuH8C12N3O
_chemical_formula_sum   'Cu4 H32 C48 N12 O4'
_cell_volume   988.33625037
_cell_formula_units_Z   4
loop_
 _symmetry_equiv_pos_site_id
 _symmetry_equiv_pos_as_xyz
  1  'x, y, z'
loop_
 _atom_site_type_symbol
 _atom_site_label
 _atom_site_symmetry_multiplicity
 _atom_site_fract_x
 _atom_site_fract_y
 _atom_site_fract_z
 _atom_site_occupancy
  Cu  Cu0  1  0.80053000  0.33825000  0.24838000  1.0
  Cu  Cu1  1  0.69951000  0.83825000  0.25161000  1.0
  Cu  Cu2  1  0.19947000  0.66175000  0.75162000  1.0
  Cu  Cu3  1  0.30048000  0.16175000  0.74839000  1.0
  H  H4  1  0.32651000  0.34518000  0.35973000  1.0
  H  H5  1  0.17353000  0.84516000  0.14028000  1.0
  H  H6  1  0.67348000  0.65483000  0.64028000  1.0
  H  H7  1  0.82646000  0.15484000  0.85972000  1.0
  H  H8  1  0.31950000  0.28312000  0.13820000  1.0
  H  H9  1  0.18056000  0.78315000  0.36179000  1.0
  H  H10  1  0.68050000  0.71688000  0.86180000  1.0
  H  H11  1  0.81942000  0.21686000  0.63821000  1.0
  H  H12  1  0.61656000  0.74447000  0.11926000  1.0
  H  H13  1  0.88344000  0.24449000  0.38074000  1.0
  H  H14  1  0.38346000  0.25552000  0.88074000  1.0
  H  H15  1  0.11655000  0.75551000  0.61926000  1.0
  H  H16  1  0.16801000  0.46091000  0.18517000  1.0
  H  H17  1  0.33205000  0.96094000  0.31481000  1.0
  H  H18  1  0.83199000  0.53907000  0.81483000  1.0
  H  H19  1  0.66794000  0.03906000  0.68519000  1.0
  H  H20  1  0.97882000  0.43859000  0.44298000  1.0
  H  H21  1  0.52124000  0.93854000  0.05703000  1.0
  H  H22  1  0.02116000  0.56143000  0.55702000  1.0
  H  H23  1  0.47877000  0.06146000  0.94298000  1.0
  H  H24  1  0.59197000  0.15485000  0.05754000  1.0
  H  H25  1  0.90808000  0.65490000  0.44246000  1.0
  H  H26  1  0.40804000  0.84515000  0.94247000  1.0
  H  H27  1  0.09189000  0.34511000  0.55754000  1.0
  H  H28  1  0.88015000  0.75652000  0.00159000  1.0
  H  H29  1  0.61982000  0.25652000  0.49841000  1.0
  H  H30  1  0.11987000  0.24347000  0.99841000  1.0
  H  H31  1  0.38016000  0.74349000  0.50160000  1.0
  H  H32  1  0.41199000  0.48401000  0.06479000  1.0
  H  H33  1  0.08805000  0.98402000  0.43520000  1.0
  H  H34  1  0.58803000  0.51598000  0.93521000  1.0
  H  H35  1  0.91194000  0.01599000  0.56480000  1.0
  C  C36  1  0.70804000  0.59074000  0.22961000  1.0
  C  C37  1  0.79201000  0.09074000  0.27039000  1.0
  C  C38  1  0.29198000  0.40926000  0.77039000  1.0
  C  C39  1  0.20798000  0.90925000  0.72962000  1.0
  C  C40  1  0.44920000  0.51299000  0.31454000  1.0
  C  C41  1  0.05083000  0.01297000  0.18546000  1.0
  C  C42  1  0.55079000  0.48702000  0.68546000  1.0
  C  C43  1  0.94916000  0.98703000  0.81455000  1.0
  C  C44  1  0.09243000  0.13647000  0.18559000  1.0
  C  C45  1  0.40762000  0.63649000  0.31440000  1.0
  C  C46  1  0.90757000  0.86352000  0.81441000  1.0
  C  C47  1  0.59238000  0.36352000  0.68560000  1.0
  C  C48  1  0.87171000  0.60215000  0.16343000  1.0
  C  C49  1  0.62834000  0.10216000  0.33656000  1.0
  C  C50  1  0.12831000  0.39784000  0.83657000  1.0
  C  C51  1  0.37165000  0.89783000  0.66344000  1.0
  C  C52  1  0.29617000  0.43990000  0.36075000  1.0
  C  C53  1  0.20387000  0.93987000  0.13925000  1.0
  C  C54  1  0.70382000  0.56011000  0.63925000  1.0
  C  C55  1  0.79613000  0.06012000  0.86075000  1.0
  C  C56  1  0.28443000  0.18867000  0.13852000  1.0
  C  C57  1  0.21561000  0.68870000  0.36147000  1.0
  C  C58  1  0.71558000  0.81133000  0.86149000  1.0
  C  C59  1  0.78437000  0.31131000  0.63853000  1.0
  C  C60  1  0.79408000  0.68624000  0.11030000  1.0
  C  C61  1  0.70594000  0.18626000  0.38969000  1.0
  C  C62  1  0.20594000  0.31374000  0.88969000  1.0
  C  C63  1  0.29406000  0.81375000  0.61031000  1.0
  C  C64  1  0.09562000  0.52770000  0.14630000  1.0
  C  C65  1  0.40441000  0.02772000  0.35369000  1.0
  C  C66  1  0.90438000  0.47229000  0.85370000  1.0
  C  C67  1  0.59558000  0.97228000  0.64631000  1.0
  C  C68  1  0.10470000  0.49277000  0.40703000  1.0
  C  C69  1  0.39535000  0.99273000  0.09297000  1.0
  C  C70  1  0.89528000  0.50724000  0.59297000  1.0
  C  C71  1  0.60465000  0.00727000  0.90704000  1.0
  C  C72  1  0.43551000  0.11535000  0.09270000  1.0
  C  C73  1  0.06454000  0.61539000  0.40729000  1.0
  C  C74  1  0.56448000  0.88465000  0.90730000  1.0
  C  C75  1  0.93544000  0.38462000  0.59270000  1.0
  C  C76  1  0.93410000  0.69491000  0.04516000  1.0
  C  C77  1  0.56592000  0.19492000  0.45483000  1.0
  C  C78  1  0.06594000  0.30508000  0.95484000  1.0
  C  C79  1  0.43408000  0.80509000  0.54517000  1.0
  C  C80  1  0.23572000  0.53896000  0.08116000  1.0
  C  C81  1  0.26431000  0.03898000  0.41882000  1.0
  C  C82  1  0.76430000  0.46103000  0.91884000  1.0
  C  C83  1  0.73568000  0.96103000  0.58118000  1.0
  N  N84  1  0.64340000  0.48631000  0.26126000  1.0
  N  N85  1  0.85665000  0.98631000  0.23873000  1.0
  N  N86  1  0.35661000  0.51369000  0.73874000  1.0
  N  N87  1  0.14334000  0.01369000  0.76127000  1.0
  N  N88  1  0.92472000  0.18383000  0.23929000  1.0
  N  N89  1  0.57534000  0.68384000  0.26069000  1.0
  N  N90  1  0.07528000  0.81617000  0.76071000  1.0
  N  N91  1  0.42466000  0.31616000  0.73930000  1.0
  N  N92  1  0.15733000  0.62303000  0.03077000  1.0
  N  N93  1  0.34270000  0.12303000  0.46923000  1.0
  N  N94  1  0.84271000  0.37696000  0.96923000  1.0
  N  N95  1  0.65729000  0.87697000  0.53078000  1.0
  O  O96  1  0.29184000  0.63514000  0.97009000  1.0
  O  O97  1  0.20818000  0.13512000  0.52990000  1.0
  O  O98  1  0.70820000  0.36486000  0.02991000  1.0
  O  O99  1  0.79180000  0.86488000  0.47010000  1.0
