# generated using pymatgen
data_Zn4H32C40N12O13
_symmetry_space_group_name_H-M   'P 1'
_cell_length_a   23.93080022
_cell_length_b   23.92950000
_cell_length_c   23.92970000
_cell_angle_alpha   107.47700000
_cell_angle_beta   113.54136894
_cell_angle_gamma   107.47345431
_symmetry_Int_Tables_number   1
_chemical_formula_structural   Zn4H32C40N12O13
_chemical_formula_sum   'Zn8 H64 C80 N24 O26'
_cell_volume   10508.66885960
_cell_formula_units_Z   2
loop_
 _symmetry_equiv_pos_site_id
 _symmetry_equiv_pos_as_xyz
  1  'x, y, z'
loop_
 _atom_site_type_symbol
 _atom_site_label
 _atom_site_symmetry_multiplicity
 _atom_site_fract_x
 _atom_site_fract_y
 _atom_site_fract_z
 _atom_site_occupancy
  Zn  Zn0  1  0.51411000  0.55594000  0.45742000  1.0
  Zn  Zn1  1  0.54258000  0.44406000  0.48588000  1.0
  Zn  Zn2  1  0.54183000  0.55596000  0.59853000  1.0
  Zn  Zn3  1  0.40147000  0.44404000  0.45816000  1.0
  Zn  Zn4  1  0.98589000  0.44332000  0.04184000  1.0
  Zn  Zn5  1  0.95743000  0.44330000  0.90147000  1.0
  Zn  Zn6  1  0.95817000  0.55669000  0.01412000  1.0
  Zn  Zn7  1  0.09852000  0.55669000  0.04256000  1.0
  H  H8  1  0.82455000  0.10843000  0.90038000  1.0
  H  H9  1  0.78384000  0.10842000  0.70805000  1.0
  H  H10  1  0.71517000  0.89080000  0.79141000  1.0
  H  H11  1  0.67541000  0.89077000  0.59926000  1.0
  H  H12  1  0.29194000  0.89156000  0.21612000  1.0
  H  H13  1  0.09964000  0.89158000  0.17544000  1.0
  H  H14  1  0.40072000  0.10921000  0.32453000  1.0
  H  H15  1  0.20862000  0.10922000  0.28485000  1.0
  H  H16  1  0.82446000  0.42380000  0.21524000  1.0
  H  H17  1  0.78480000  0.57625000  0.17559000  1.0
  H  H18  1  0.71615000  0.42421000  0.32457000  1.0
  H  H19  1  0.67546000  0.57584000  0.28390000  1.0
  H  H20  1  0.09930000  0.42382000  0.70851000  1.0
  H  H21  1  0.29141000  0.57624000  0.90062000  1.0
  H  H22  1  0.20806000  0.42421000  0.59963000  1.0
  H  H23  1  0.40036000  0.57581000  0.79194000  1.0
  H  H24  1  0.25142000  0.40614000  0.33039000  1.0
  H  H25  1  0.16933000  0.36604000  0.25773000  1.0
  H  H26  1  0.24857000  0.57900000  0.15475000  1.0
  H  H27  1  0.33065000  0.58839000  0.19670000  1.0
  H  H28  1  0.07576000  0.42105000  0.16961000  1.0
  H  H29  1  0.10831000  0.41162000  0.24227000  1.0
  H  H30  1  0.42424000  0.59380000  0.34524000  1.0
  H  H31  1  0.39169000  0.63394000  0.30330000  1.0
  H  H32  1  0.66961000  0.59387000  0.74861000  1.0
  H  H33  1  0.74228000  0.63398000  0.83069000  1.0
  H  H34  1  0.84525000  0.42100000  0.75141000  1.0
  H  H35  1  0.80327000  0.41159000  0.66932000  1.0
  H  H36  1  0.83043000  0.57898000  0.92427000  1.0
  H  H37  1  0.75776000  0.58840000  0.89172000  1.0
  H  H38  1  0.65472000  0.40618000  0.57576000  1.0
  H  H39  1  0.69668000  0.36605000  0.60831000  1.0
  H  H40  1  0.92199000  0.28669000  0.00518000  1.0
  H  H41  1  0.89189000  0.20849000  0.00176000  1.0
  H  H42  1  0.86468000  0.28667000  0.78149000  1.0
  H  H43  1  0.81658000  0.20848000  0.70674000  1.0
  H  H44  1  0.62403000  0.71250000  0.71574000  1.0
  H  H45  1  0.66909000  0.79073000  0.79000000  1.0
  H  H46  1  0.58836000  0.71246000  0.49669000  1.0
  H  H47  1  0.62151000  0.79071000  0.50064000  1.0
  H  H48  1  0.21849000  0.71330000  0.13528000  1.0
  H  H49  1  0.29325000  0.79150000  0.18338000  1.0
  H  H50  1  0.99483000  0.71333000  0.07801000  1.0
  H  H51  1  0.99826000  0.79152000  0.10810000  1.0
  H  H52  1  0.50330000  0.28752000  0.41160000  1.0
  H  H53  1  0.49935000  0.20928000  0.37845000  1.0
  H  H54  1  0.28428000  0.28751000  0.37599000  1.0
  H  H55  1  0.21003000  0.20929000  0.33094000  1.0
  H  H56  1  0.91154000  0.40828000  0.12403000  1.0
  H  H57  1  0.87839000  0.37909000  0.16910000  1.0
  H  H58  1  0.87595000  0.59172000  0.08845000  1.0
  H  H59  1  0.83090000  0.62093000  0.12162000  1.0
  H  H60  1  0.63531000  0.41681000  0.42198000  1.0
  H  H61  1  0.68341000  0.39015000  0.39190000  1.0
  H  H62  1  0.57804000  0.58323000  0.36474000  1.0
  H  H63  1  0.60814000  0.60990000  0.31664000  1.0
  H  H64  1  0.99673000  0.40830000  0.78424000  1.0
  H  H65  1  0.00068000  0.37911000  0.70995000  1.0
  H  H66  1  0.21575000  0.59170000  0.00326000  1.0
  H  H67  1  0.28999000  0.62090000  0.99929000  1.0
  H  H68  1  0.28150000  0.41683000  0.49482000  1.0
  H  H69  1  0.20675000  0.39016000  0.49825000  1.0
  H  H70  1  0.50518000  0.58319000  0.71850000  1.0
  H  H71  1  0.50174000  0.60986000  0.79326000  1.0
  C  C72  1  0.59183000  0.50001000  0.40818000  1.0
  C  C73  1  0.63895000  0.50004000  0.63895000  1.0
  C  C74  1  0.59136000  0.68284000  0.59139000  1.0
  C  C75  1  0.40817000  0.50000000  0.59182000  1.0
  C  C76  1  0.36106000  0.49995000  0.36103000  1.0
  C  C77  1  0.40862000  0.31716000  0.40862000  1.0
  C  C78  1  0.90818000  0.31635000  0.90818000  1.0
  C  C79  1  0.86108000  0.49999000  0.86107000  1.0
  C  C80  1  0.90858000  0.50001000  0.09143000  1.0
  C  C81  1  0.09182000  0.68364000  0.09182000  1.0
  C  C82  1  0.13893000  0.50001000  0.13893000  1.0
  C  C83  1  0.09141000  0.49999000  0.90856000  1.0
  C  C84  1  0.30478000  0.49997000  0.30476000  1.0
  C  C85  1  0.19522000  0.50001000  0.19522000  1.0
  C  C86  1  0.23363000  0.45571000  0.27596000  1.0
  C  C87  1  0.26636000  0.54234000  0.22208000  1.0
  C  C88  1  0.17974000  0.45765000  0.22401000  1.0
  C  C89  1  0.32025000  0.54425000  0.27789000  1.0
  C  C90  1  0.69523000  0.50002000  0.69523000  1.0
  C  C91  1  0.80479000  0.50000000  0.80479000  1.0
  C  C92  1  0.72403000  0.54429000  0.76638000  1.0
  C  C93  1  0.77790000  0.45765000  0.73363000  1.0
  C  C94  1  0.77599000  0.54235000  0.82027000  1.0
  C  C95  1  0.72208000  0.45573000  0.67974000  1.0
  C  C96  1  0.87166000  0.24332000  0.87167000  1.0
  C  C97  1  0.86458000  0.20599000  0.90815000  1.0
  C  C98  1  0.82958000  0.13593000  0.87217000  1.0
  C  C99  1  0.80044000  0.10092000  0.80046000  1.0
  C  C100  1  0.80632000  0.13592000  0.76376000  1.0
  C  C101  1  0.84140000  0.20598000  0.79786000  1.0
  C  C102  1  0.76499000  0.03009000  0.76503000  1.0
  C  C103  1  0.73446000  0.96911000  0.73451000  1.0
  C  C104  1  0.69904000  0.89829000  0.69909000  1.0
  C  C105  1  0.69256000  0.86328000  0.73567000  1.0
  C  C106  1  0.65806000  0.79323000  0.70170000  1.0
  C  C107  1  0.62786000  0.75588000  0.62789000  1.0
  C  C108  1  0.63499000  0.79321000  0.59142000  1.0
  C  C109  1  0.67051000  0.86327000  0.62751000  1.0
  C  C110  1  0.12835000  0.75669000  0.12834000  1.0
  C  C111  1  0.20214000  0.79399000  0.15857000  1.0
  C  C112  1  0.23624000  0.86407000  0.19365000  1.0
  C  C113  1  0.19955000  0.89908000  0.19955000  1.0
  C  C114  1  0.12785000  0.86408000  0.17042000  1.0
  C  C115  1  0.09188000  0.79402000  0.13542000  1.0
  C  C116  1  0.23497000  0.96991000  0.23497000  1.0
  C  C117  1  0.26550000  0.03089000  0.26550000  1.0
  C  C118  1  0.30092000  0.10171000  0.30093000  1.0
  C  C119  1  0.37249000  0.13671000  0.32944000  1.0
  C  C120  1  0.40857000  0.20677000  0.36497000  1.0
  C  C121  1  0.37211000  0.24411000  0.37212000  1.0
  C  C122  1  0.29832000  0.20678000  0.34194000  1.0
  C  C123  1  0.26434000  0.13671000  0.30742000  1.0
  C  C124  1  0.87206000  0.50001000  0.12795000  1.0
  C  C125  1  0.86491000  0.45639000  0.15813000  1.0
  C  C126  1  0.82938000  0.45695000  0.19266000  1.0
  C  C127  1  0.80088000  0.50003000  0.19918000  1.0
  C  C128  1  0.80737000  0.54309000  0.17066000  1.0
  C  C129  1  0.84188000  0.54363000  0.13511000  1.0
  C  C130  1  0.76548000  0.50004000  0.23459000  1.0
  C  C131  1  0.73498000  0.50003000  0.26508000  1.0
  C  C132  1  0.69955000  0.50002000  0.30047000  1.0
  C  C133  1  0.69367000  0.45743000  0.32959000  1.0
  C  C134  1  0.65860000  0.45646000  0.36459000  1.0
  C  C135  1  0.62835000  0.50001000  0.37166000  1.0
  C  C136  1  0.63543000  0.54358000  0.34143000  1.0
  C  C137  1  0.67043000  0.54261000  0.30636000  1.0
  C  C138  1  0.12792000  0.50001000  0.87202000  1.0
  C  C139  1  0.09145000  0.45640000  0.79822000  1.0
  C  C140  1  0.12753000  0.45697000  0.76424000  1.0
  C  C141  1  0.19911000  0.50004000  0.80081000  1.0
  C  C142  1  0.23569000  0.54310000  0.87241000  1.0
  C  C143  1  0.20171000  0.54362000  0.90849000  1.0
  C  C144  1  0.23453000  0.50004000  0.76542000  1.0
  C  C145  1  0.26503000  0.50002000  0.73494000  1.0
  C  C146  1  0.30046000  0.50002000  0.69954000  1.0
  C  C147  1  0.26377000  0.45744000  0.62785000  1.0
  C  C148  1  0.29787000  0.45647000  0.59188000  1.0
  C  C149  1  0.37166000  0.50001000  0.62835000  1.0
  C  C150  1  0.40814000  0.54356000  0.70215000  1.0
  C  C151  1  0.37216000  0.54258000  0.73624000  1.0
  N  N152  1  0.21167000  0.41032000  0.29777000  1.0
  N  N153  1  0.28832000  0.58611000  0.19866000  1.0
  N  N154  1  0.11255000  0.41392000  0.20222000  1.0
  N  N155  1  0.38744000  0.58964000  0.30133000  1.0
  N  N156  1  0.70224000  0.58969000  0.78835000  1.0
  N  N157  1  0.80133000  0.41389000  0.71167000  1.0
  N  N158  1  0.79781000  0.58611000  0.88748000  1.0
  N  N159  1  0.69864000  0.41034000  0.61255000  1.0
  N  N160  1  0.88963000  0.23664000  0.97762000  1.0
  N  N161  1  0.84698000  0.23661000  0.75901000  1.0
  N  N162  1  0.65588000  0.76258000  0.74124000  1.0
  N  N163  1  0.60653000  0.76254000  0.52123000  1.0
  N  N164  1  0.24097000  0.76336000  0.15297000  1.0
  N  N165  1  0.02241000  0.76339000  0.11038000  1.0
  N  N166  1  0.47876000  0.23745000  0.39343000  1.0
  N  N167  1  0.25878000  0.23743000  0.34413000  1.0
  N  N168  1  0.89334000  0.41464000  0.15590000  1.0
  N  N169  1  0.84408000  0.58536000  0.10665000  1.0
  N  N170  1  0.65301000  0.41203000  0.38962000  1.0
  N  N171  1  0.61039000  0.58801000  0.34703000  1.0
  N  N172  1  0.02127000  0.41467000  0.75870000  1.0
  N  N173  1  0.24125000  0.58535000  0.97868000  1.0
  N  N174  1  0.25903000  0.41203000  0.52240000  1.0
  N  N175  1  0.47761000  0.58799000  0.74099000  1.0
  O  O176  1  0.50000000  0.50000000  0.50001000  1.0
  O  O177  1  0.56296000  0.53784000  0.41094000  1.0
  O  O178  1  0.61445000  0.45957000  0.57526000  1.0
  O  O179  1  0.58334000  0.65125000  0.62541000  1.0
  O  O180  1  0.58907000  0.46217000  0.43704000  1.0
  O  O181  1  0.56781000  0.65124000  0.52579000  1.0
  O  O182  1  0.61575000  0.54053000  0.65494000  1.0
  O  O183  1  0.47488000  0.53780000  0.62690000  1.0
  O  O184  1  0.34508000  0.45947000  0.38424000  1.0
  O  O185  1  0.37309000  0.46220000  0.52511000  1.0
  O  O186  1  0.42475000  0.54042000  0.38552000  1.0
  O  O187  1  0.47421000  0.34875000  0.43215000  1.0
  O  O188  1  0.37461000  0.34875000  0.41665000  1.0
  O  O189  1  0.00000000  0.50000000  0.99999000  1.0
  O  O190  1  0.93707000  0.34799000  0.97489000  1.0
  O  O191  1  0.88558000  0.46081000  0.84507000  1.0
  O  O192  1  0.91662000  0.54206000  0.06787000  1.0
  O  O193  1  0.91093000  0.34798000  0.87311000  1.0
  O  O194  1  0.93215000  0.45797000  0.08340000  1.0
  O  O195  1  0.88429000  0.53918000  0.92477000  1.0
  O  O196  1  0.02512000  0.65202000  0.06294000  1.0
  O  O197  1  0.15492000  0.53921000  0.11444000  1.0
  O  O198  1  0.12690000  0.65202000  0.08907000  1.0
  O  O199  1  0.07524000  0.46083000  0.11573000  1.0
  O  O200  1  0.02581000  0.45794000  0.87455000  1.0
  O  O201  1  0.12542000  0.54203000  0.97417000  1.0
