# generated using pymatgen
data_AgPH18C13(N2O)2
_symmetry_space_group_name_H-M   'P 1'
_cell_length_a   6.84521000
_cell_length_b   12.83380000
_cell_length_c   17.81200000
_cell_angle_alpha   89.99970000
_cell_angle_beta   89.99910000
_cell_angle_gamma   89.99930000
_symmetry_Int_Tables_number   1
_chemical_formula_structural   AgPH18C13(N2O)2
_chemical_formula_sum   'Ag4 P4 H72 C52 N16 O8'
_cell_volume   1564.78519889
_cell_formula_units_Z   4
loop_
 _symmetry_equiv_pos_site_id
 _symmetry_equiv_pos_as_xyz
  1  'x, y, z'
loop_
 _atom_site_type_symbol
 _atom_site_label
 _atom_site_symmetry_multiplicity
 _atom_site_fract_x
 _atom_site_fract_y
 _atom_site_fract_z
 _atom_site_occupancy
  Ag  Ag0  1  0.90253000  0.40487000  0.56261000  1.0
  Ag  Ag1  1  0.59747000  0.59513000  0.06261000  1.0
  Ag  Ag2  1  0.40252000  0.09512000  0.43739000  1.0
  Ag  Ag3  1  0.09748000  0.90488000  0.93739000  1.0
  P  P4  1  0.62598000  0.50703000  0.57860000  1.0
  P  P5  1  0.87402000  0.49297000  0.07859000  1.0
  P  P6  1  0.12597000  0.99296000  0.42140000  1.0
  P  P7  1  0.37404000  0.00703000  0.92141000  1.0
  H  H8  1  0.06014000  0.51827000  0.36249000  1.0
  H  H9  1  0.43987000  0.48174000  0.86249000  1.0
  H  H10  1  0.56013000  0.98172000  0.63752000  1.0
  H  H11  1  0.93986000  0.01828000  0.13751000  1.0
  H  H12  1  0.88762000  0.65059000  0.28461000  1.0
  H  H13  1  0.61239000  0.34942000  0.78461000  1.0
  H  H14  1  0.38758000  0.84940000  0.71540000  1.0
  H  H15  1  0.11240000  0.15060000  0.21539000  1.0
  H  H16  1  0.53386000  0.63026000  0.25629000  1.0
  H  H17  1  0.96614000  0.36974000  0.75630000  1.0
  H  H18  1  0.03383000  0.86974000  0.74371000  1.0
  H  H19  1  0.46615000  0.13026000  0.24371000  1.0
  H  H20  1  0.35557000  0.47398000  0.30836000  1.0
  H  H21  1  0.14444000  0.52602000  0.80837000  1.0
  H  H22  1  0.85554000  0.02601000  0.69163000  1.0
  H  H23  1  0.64443000  0.97398000  0.19164000  1.0
  H  H24  1  0.39056000  0.39326000  0.51494000  1.0
  H  H25  1  0.10944000  0.60674000  0.01494000  1.0
  H  H26  1  0.89055000  0.10674000  0.48506000  1.0
  H  H27  1  0.60946000  0.89326000  0.98506000  1.0
  H  H28  1  0.37644000  0.38008000  0.61388000  1.0
  H  H29  1  0.12356000  0.61993000  0.11388000  1.0
  H  H30  1  0.87643000  0.11992000  0.38612000  1.0
  H  H31  1  0.62358000  0.88008000  0.88612000  1.0
  H  H32  1  0.55275000  0.53434000  0.71230000  1.0
  H  H33  1  0.94725000  0.46566000  0.21230000  1.0
  H  H34  1  0.05275000  0.96566000  0.28770000  1.0
  H  H35  1  0.44725000  0.03433000  0.78770000  1.0
  H  H36  1  0.67079000  0.64423000  0.67365000  1.0
  H  H37  1  0.82920000  0.35577000  0.17365000  1.0
  H  H38  1  0.17080000  0.85577000  0.32635000  1.0
  H  H39  1  0.32921000  0.14423000  0.82635000  1.0
  H  H40  1  0.69586000  0.67195000  0.51684000  1.0
  H  H41  1  0.80415000  0.32805000  0.01684000  1.0
  H  H42  1  0.19585000  0.82805000  0.48316000  1.0
  H  H43  1  0.30415000  0.17195000  0.98316000  1.0
  H  H44  1  0.59854000  0.58034000  0.45166000  1.0
  H  H45  1  0.90146000  0.41966000  0.95166000  1.0
  H  H46  1  0.09853000  0.91966000  0.54834000  1.0
  H  H47  1  0.40147000  0.08034000  0.04834000  1.0
  H  H48  1  0.25318000  0.54180000  0.45475000  1.0
  H  H49  1  0.24683000  0.45821000  0.95474000  1.0
  H  H50  1  0.75316000  0.95820000  0.54526000  1.0
  H  H51  1  0.74684000  0.04180000  0.04526000  1.0
  H  H52  1  0.09138000  0.62616000  0.50584000  1.0
  H  H53  1  0.40863000  0.37384000  0.00584000  1.0
  H  H54  1  0.59136000  0.87384000  0.49416000  1.0
  H  H55  1  0.90864000  0.12616000  0.99415000  1.0
  H  H56  1  0.06970000  0.60609000  0.64311000  1.0
  H  H57  1  0.43030000  0.39391000  0.14311000  1.0
  H  H58  1  0.56970000  0.89391000  0.35689000  1.0
  H  H59  1  0.93030000  0.10608000  0.85689000  1.0
  H  H60  1  0.20771000  0.50508000  0.68700000  1.0
  H  H61  1  0.29228000  0.49492000  0.18700000  1.0
  H  H62  1  0.70771000  0.99492000  0.31300000  1.0
  H  H63  1  0.79229000  0.00508000  0.81300000  1.0
  H  H64  1  0.22962000  0.75315000  0.59188000  1.0
  H  H65  1  0.27038000  0.24685000  0.09187000  1.0
  H  H66  1  0.72962000  0.74685000  0.40813000  1.0
  H  H67  1  0.77039000  0.25315000  0.90812000  1.0
  H  H68  1  0.48861000  0.76637000  0.59806000  1.0
  H  H69  1  0.01139000  0.23363000  0.09805000  1.0
  H  H70  1  0.98862000  0.73363000  0.40194000  1.0
  H  H71  1  0.51139000  0.26637000  0.90194000  1.0
  H  H72  1  0.05244000  0.34300000  0.41414000  1.0
  H  H73  1  0.44756000  0.65701000  0.91415000  1.0
  H  H74  1  0.55244000  0.15698000  0.58586000  1.0
  H  H75  1  0.94755000  0.84301000  0.08586000  1.0
  H  H76  1  0.83028000  0.28225000  0.42786000  1.0
  H  H77  1  0.66972000  0.71776000  0.92786000  1.0
  H  H78  1  0.33029000  0.21773000  0.57215000  1.0
  H  H79  1  0.16970000  0.78225000  0.07215000  1.0
  C  C80  1  0.48744000  0.31670000  0.38677000  1.0
  C  C81  1  0.01257000  0.68331000  0.88677000  1.0
  C  C82  1  0.98743000  0.18329000  0.61323000  1.0
  C  C83  1  0.51255000  0.81670000  0.11323000  1.0
  C  C84  1  0.60546000  0.40928000  0.36171000  1.0
  C  C85  1  0.89456000  0.59073000  0.86171000  1.0
  C  C86  1  0.10544000  0.09071000  0.63828000  1.0
  C  C87  1  0.39455000  0.90927000  0.13829000  1.0
  C  C88  1  0.80735000  0.42116000  0.37844000  1.0
  C  C89  1  0.69265000  0.57885000  0.87845000  1.0
  C  C90  1  0.30734000  0.07883000  0.62156000  1.0
  C  C91  1  0.19265000  0.92116000  0.12156000  1.0
  C  C92  1  0.90497000  0.50976000  0.35022000  1.0
  C  C93  1  0.59504000  0.49025000  0.85022000  1.0
  C  C94  1  0.40496000  0.99023000  0.64979000  1.0
  C  C95  1  0.09503000  0.00976000  0.14979000  1.0
  C  C96  1  0.80825000  0.58354000  0.30671000  1.0
  C  C97  1  0.69174000  0.41647000  0.80672000  1.0
  C  C98  1  0.30823000  0.91645000  0.69329000  1.0
  C  C99  1  0.19176000  0.08355000  0.19328000  1.0
  C  C100  1  0.60886000  0.57269000  0.29088000  1.0
  C  C101  1  0.89115000  0.42731000  0.79088000  1.0
  C  C102  1  0.10884000  0.92730000  0.70911000  1.0
  C  C103  1  0.39114000  0.07269000  0.20911000  1.0
  C  C104  1  0.51068000  0.48613000  0.31918000  1.0
  C  C105  1  0.98932000  0.51388000  0.81919000  1.0
  C  C106  1  0.01066000  0.01387000  0.68082000  1.0
  C  C107  1  0.48932000  0.98613000  0.18081000  1.0
  C  C108  1  0.39027000  0.43678000  0.56801000  1.0
  C  C109  1  0.10974000  0.56322000  0.06801000  1.0
  C  C110  1  0.89025000  0.06322000  0.43199000  1.0
  C  C111  1  0.60975000  0.93678000  0.93199000  1.0
  C  C112  1  0.55720000  0.58534000  0.66294000  1.0
  C  C113  1  0.94279000  0.41466000  0.16293000  1.0
  C  C114  1  0.05721000  0.91465000  0.33706000  1.0
  C  C115  1  0.44280000  0.08534000  0.83706000  1.0
  C  C116  1  0.58233000  0.61220000  0.50855000  1.0
  C  C117  1  0.91768000  0.38780000  0.00854000  1.0
  C  C118  1  0.08233000  0.88780000  0.49146000  1.0
  C  C119  1  0.41768000  0.11220000  0.99146000  1.0
  C  C120  1  0.23151000  0.58422000  0.50764000  1.0
  C  C121  1  0.26849000  0.41579000  0.00763000  1.0
  C  C122  1  0.73150000  0.91578000  0.49236000  1.0
  C  C123  1  0.76850000  0.08422000  0.99236000  1.0
  C  C124  1  0.20870000  0.56307000  0.64178000  1.0
  C  C125  1  0.29130000  0.43693000  0.14178000  1.0
  C  C126  1  0.70870000  0.93692000  0.35822000  1.0
  C  C127  1  0.79131000  0.06307000  0.85822000  1.0
  C  C128  1  0.36868000  0.71045000  0.59064000  1.0
  C  C129  1  0.13132000  0.28956000  0.09064000  1.0
  C  C130  1  0.86868000  0.78955000  0.40936000  1.0
  C  C131  1  0.63132000  0.21045000  0.90936000  1.0
  N  N132  1  0.90531000  0.35126000  0.42457000  1.0
  N  N133  1  0.59470000  0.64875000  0.92457000  1.0
  N  N134  1  0.40530000  0.14873000  0.57543000  1.0
  N  N135  1  0.09469000  0.85127000  0.07544000  1.0
  N  N136  1  0.21947000  0.50691000  0.56921000  1.0
  N  N137  1  0.28054000  0.49309000  0.06921000  1.0
  N  N138  1  0.71946000  0.99308000  0.43079000  1.0
  N  N139  1  0.78055000  0.00692000  0.93079000  1.0
  N  N140  1  0.36780000  0.63722000  0.65364000  1.0
  N  N141  1  0.13219000  0.36278000  0.15363000  1.0
  N  N142  1  0.86781000  0.86278000  0.34636000  1.0
  N  N143  1  0.63220000  0.13722000  0.84636000  1.0
  N  N144  1  0.38882000  0.66084000  0.51662000  1.0
  N  N145  1  0.11119000  0.33916000  0.01661000  1.0
  N  N146  1  0.88881000  0.83916000  0.48338000  1.0
  N  N147  1  0.61119000  0.16084000  0.98338000  1.0
  O  O148  1  0.58314000  0.23221000  0.40084000  1.0
  O  O149  1  0.91686000  0.76780000  0.90084000  1.0
  O  O150  1  0.08314000  0.26777000  0.59915000  1.0
  O  O151  1  0.41684000  0.73221000  0.09917000  1.0
  O  O152  1  0.30497000  0.32589000  0.39234000  1.0
  O  O153  1  0.19503000  0.67412000  0.89234000  1.0
  O  O154  1  0.80497000  0.17411000  0.60766000  1.0
  O  O155  1  0.69501000  0.82588000  0.10765000  1.0
