# generated using pymatgen
data_CdH7C8S2N3O
_symmetry_space_group_name_H-M   'P 1'
_cell_length_a   7.43833000
_cell_length_b   7.71298000
_cell_length_c   19.84070000
_cell_angle_alpha   89.99990000
_cell_angle_beta   99.34590000
_cell_angle_gamma   89.99990000
_symmetry_Int_Tables_number   1
_chemical_formula_structural   CdH7C8S2N3O
_chemical_formula_sum   'Cd4 H28 C32 S8 N12 O4'
_cell_volume   1123.18470833
_cell_formula_units_Z   4
loop_
 _symmetry_equiv_pos_site_id
 _symmetry_equiv_pos_as_xyz
  1  'x, y, z'
loop_
 _atom_site_type_symbol
 _atom_site_label
 _atom_site_symmetry_multiplicity
 _atom_site_fract_x
 _atom_site_fract_y
 _atom_site_fract_z
 _atom_site_occupancy
  Cd  Cd0  1  0.30843000  0.32465000  0.48084000  1.0
  Cd  Cd1  1  0.69157000  0.82465000  0.01916000  1.0
  Cd  Cd2  1  0.69157000  0.67535000  0.51916000  1.0
  Cd  Cd3  1  0.30843000  0.17535000  0.98084000  1.0
  H  H4  1  0.57116000  0.62569000  0.36030000  1.0
  H  H5  1  0.42884000  0.12569000  0.13970000  1.0
  H  H6  1  0.42884000  0.37431000  0.63970000  1.0
  H  H7  1  0.57116000  0.87431000  0.86030000  1.0
  H  H8  1  0.64952000  0.56055000  0.24242000  1.0
  H  H9  1  0.35048000  0.06055000  0.25757000  1.0
  H  H10  1  0.35048000  0.43945000  0.75758000  1.0
  H  H11  1  0.64952000  0.93945000  0.74243000  1.0
  H  H12  1  0.76167000  0.26504000  0.21903000  1.0
  H  H13  1  0.23833000  0.76504000  0.28097000  1.0
  H  H14  1  0.23833000  0.73496000  0.78097000  1.0
  H  H15  1  0.76166000  0.23495000  0.71903000  1.0
  H  H16  1  0.73022000  0.13506000  0.42941000  1.0
  H  H17  1  0.26978000  0.63506000  0.07059000  1.0
  H  H18  1  0.26978000  0.86494000  0.57060000  1.0
  H  H19  1  0.73022000  0.36494000  0.92941000  1.0
  H  H20  1  0.86201000  0.92385000  0.35798000  1.0
  H  H21  1  0.13798000  0.42385000  0.14202000  1.0
  H  H22  1  0.13798000  0.07615000  0.64203000  1.0
  H  H23  1  0.86201000  0.57615000  0.85798000  1.0
  H  H24  1  0.91886000  0.98888000  0.27766000  1.0
  H  H25  1  0.08114000  0.48888000  0.22234000  1.0
  H  H26  1  0.08115000  0.01112000  0.72234000  1.0
  H  H27  1  0.91885000  0.51112000  0.77766000  1.0
  H  H28  1  0.69598000  0.91540000  0.28265000  1.0
  H  H29  1  0.30402000  0.41540000  0.21735000  1.0
  H  H30  1  0.30402000  0.08460000  0.71735000  1.0
  H  H31  1  0.69598000  0.58460000  0.78265000  1.0
  C  C32  1  0.41188000  0.94463000  0.41582000  1.0
  C  C33  1  0.58812000  0.44463000  0.08418000  1.0
  C  C34  1  0.58812000  0.05537000  0.58418000  1.0
  C  C35  1  0.41188000  0.55537000  0.91582000  1.0
  C  C36  1  0.97188000  0.36650000  0.56922000  1.0
  C  C37  1  0.02812000  0.86651000  0.93077000  1.0
  C  C38  1  0.02812000  0.63350000  0.43078000  1.0
  C  C39  1  0.97188000  0.13349000  0.06922000  1.0
  C  C40  1  0.62344000  0.50188000  0.34574000  1.0
  C  C41  1  0.37656000  0.00188000  0.15426000  1.0
  C  C42  1  0.37656000  0.49812000  0.65426000  1.0
  C  C43  1  0.62345000  0.99812000  0.84574000  1.0
  C  C44  1  0.66625000  0.46181000  0.28222000  1.0
  C  C45  1  0.33375000  0.96180000  0.21778000  1.0
  C  C46  1  0.33375000  0.53819000  0.71778000  1.0
  C  C47  1  0.66625000  0.03819000  0.78222000  1.0
  C  C48  1  0.72928000  0.29695000  0.26930000  1.0
  C  C49  1  0.27072000  0.79695000  0.23069000  1.0
  C  C50  1  0.27072000  0.70305000  0.73070000  1.0
  C  C51  1  0.72928000  0.20305000  0.76931000  1.0
  C  C52  1  0.75209000  0.17189000  0.32136000  1.0
  C  C53  1  0.24791000  0.67189000  0.17864000  1.0
  C  C54  1  0.24791000  0.82811000  0.67864000  1.0
  C  C55  1  0.75209000  0.32811000  0.82136000  1.0
  C  C56  1  0.71346000  0.21981000  0.38506000  1.0
  C  C57  1  0.28654000  0.71981000  0.11493000  1.0
  C  C58  1  0.28655000  0.78019000  0.61494000  1.0
  C  C59  1  0.71346000  0.28019000  0.88507000  1.0
  C  C60  1  0.81180000  0.99008000  0.30974000  1.0
  C  C61  1  0.18820000  0.49008000  0.19026000  1.0
  C  C62  1  0.18820000  0.00992000  0.69026000  1.0
  C  C63  1  0.81180000  0.50992000  0.80974000  1.0
  S  S64  1  0.25461000  0.08283000  0.38421000  1.0
  S  S65  1  0.74538000  0.58283000  0.11579000  1.0
  S  S66  1  0.74539000  0.91717000  0.61579000  1.0
  S  S67  1  0.25461000  0.41718000  0.88421000  1.0
  S  S68  1  0.85383000  0.46475000  0.62029000  1.0
  S  S69  1  0.14618000  0.96476000  0.87971000  1.0
  S  S70  1  0.14617000  0.53525000  0.37971000  1.0
  S  S71  1  0.85383000  0.03525000  0.12029000  1.0
  N  N72  1  0.52837000  0.84523000  0.43695000  1.0
  N  N73  1  0.47162000  0.34524000  0.06305000  1.0
  N  N74  1  0.47163000  0.15477000  0.56305000  1.0
  N  N75  1  0.52837000  0.65477000  0.93695000  1.0
  N  N76  1  0.05820000  0.29476000  0.53250000  1.0
  N  N77  1  0.94180000  0.79476000  0.96750000  1.0
  N  N78  1  0.94180000  0.70524000  0.46750000  1.0
  N  N79  1  0.05820000  0.20524000  0.03250000  1.0
  N  N80  1  0.64795000  0.38007000  0.39575000  1.0
  N  N81  1  0.35205000  0.88007000  0.10425000  1.0
  N  N82  1  0.35205000  0.61993000  0.60425000  1.0
  N  N83  1  0.64796000  0.11993000  0.89575000  1.0
  O  O84  1  0.60398000  0.41508000  0.45686000  1.0
  O  O85  1  0.39601000  0.91508000  0.04314000  1.0
  O  O86  1  0.39602000  0.58492000  0.54314000  1.0
  O  O87  1  0.60399000  0.08493000  0.95686000  1.0
