# generated using pymatgen
data_ZnH20C33(NO2)4
_symmetry_space_group_name_H-M   'P 1'
_cell_length_a   15.83880000
_cell_length_b   17.21300000
_cell_length_c   28.12550000
_cell_angle_alpha   89.88450000
_cell_angle_beta   87.28740000
_cell_angle_gamma   87.07850000
_symmetry_Int_Tables_number   1
_chemical_formula_structural   ZnH20C33(NO2)4
_chemical_formula_sum   'Zn2 H40 C66 N8 O16'
_cell_volume   7649.39942765
_cell_formula_units_Z   2
loop_
 _symmetry_equiv_pos_site_id
 _symmetry_equiv_pos_as_xyz
  1  'x, y, z'
loop_
 _atom_site_type_symbol
 _atom_site_label
 _atom_site_symmetry_multiplicity
 _atom_site_fract_x
 _atom_site_fract_y
 _atom_site_fract_z
 _atom_site_occupancy
  Zn  Zn0  1  0.58713000  0.50174000  0.49595000  1.0
  Zn  Zn1  1  0.41293000  0.49823000  0.50292000  1.0
  H  H2  1  0.60710000  0.89261000  0.48716000  1.0
  H  H3  1  0.11385000  0.57050000  0.45163000  1.0
  H  H4  1  0.12700000  0.40271000  0.56564000  1.0
  H  H5  1  0.87352000  0.59909000  0.43459000  1.0
  H  H6  1  0.40563000  0.42767000  0.74779000  1.0
  H  H7  1  0.59458000  0.57115000  0.25121000  1.0
  H  H8  1  0.55110000  0.30586000  0.87581000  1.0
  H  H9  1  0.44847000  0.69353000  0.12321000  1.0
  H  H10  1  0.38167000  0.44538000  0.35588000  1.0
  H  H11  1  0.61751000  0.55508000  0.64324000  1.0
  H  H12  1  0.50879000  0.30733000  0.12415000  1.0
  H  H13  1  0.39472000  0.11017000  0.53350000  1.0
  H  H14  1  0.48985000  0.69194000  0.87487000  1.0
  H  H15  1  0.52097000  0.30401000  0.03677000  1.0
  H  H16  1  0.47761000  0.69524000  0.96224000  1.0
  H  H17  1  0.61015000  0.74647000  0.48106000  1.0
  H  H18  1  0.39075000  0.25645000  0.52891000  1.0
  H  H19  1  0.43111000  0.30388000  0.66073000  1.0
  H  H20  1  0.43930000  0.35246000  0.60398000  1.0
  H  H21  1  0.33917000  0.32104000  0.62665000  1.0
  H  H22  1  0.56507000  0.64336000  0.39742000  1.0
  H  H23  1  0.56770000  0.69428000  0.34127000  1.0
  H  H24  1  0.66155000  0.10238000  0.49738000  1.0
  H  H25  1  0.66284000  0.67675000  0.37252000  1.0
  H  H26  1  0.28700000  0.41144000  0.56018000  1.0
  H  H27  1  0.71357000  0.59018000  0.43934000  1.0
  H  H28  1  0.36942000  0.44118000  0.26763000  1.0
  H  H29  1  0.63005000  0.55876000  0.73151000  1.0
  H  H30  1  0.62343000  0.22231000  0.92062000  1.0
  H  H31  1  0.51248000  0.20604000  0.91796000  1.0
  H  H32  1  0.57004000  0.17090000  0.96771000  1.0
  H  H33  1  0.48690000  0.79343000  0.08086000  1.0
  H  H34  1  0.37591000  0.77715000  0.07828000  1.0
  H  H35  1  0.34211000  0.89568000  0.52777000  1.0
  H  H36  1  0.42929000  0.82832000  0.03108000  1.0
  H  H37  1  0.65742000  0.24927000  0.49346000  1.0
  H  H38  1  0.34534000  0.74908000  0.52122000  1.0
  H  H39  1  0.72558000  0.42843000  0.54786000  1.0
  H  H40  1  0.27399000  0.57063000  0.45028000  1.0
  H  H41  1  0.88565000  0.42904000  0.54736000  1.0
  C  C42  1  0.51845000  0.34745000  0.50437000  1.0
  C  C43  1  0.49174000  0.43104000  0.12775000  1.0
  C  C44  1  0.50465000  0.49161000  0.64593000  1.0
  C  C45  1  0.49502000  0.50819000  0.35315000  1.0
  C  C46  1  0.50657000  0.42777000  0.02616000  1.0
  C  C47  1  0.49242000  0.57150000  0.97286000  1.0
  C  C48  1  0.48344000  0.57349000  0.02483000  1.0
  C  C49  1  0.51573000  0.42579000  0.97419000  1.0
  C  C50  1  0.49158000  0.50135000  0.05035000  1.0
  C  C51  1  0.50755000  0.49791000  0.94867000  1.0
  C  C52  1  0.51112000  0.35984000  0.05416000  1.0
  C  C53  1  0.48239000  0.65270000  0.49930000  1.0
  C  C54  1  0.48765000  0.63942000  0.94488000  1.0
  C  C55  1  0.50410000  0.36107000  0.10368000  1.0
  C  C56  1  0.49472000  0.63821000  0.89536000  1.0
  C  C57  1  0.50016000  0.49657000  0.59285000  1.0
  C  C58  1  0.49939000  0.50345000  0.40624000  1.0
  C  C59  1  0.53300000  0.35655000  0.94667000  1.0
  C  C60  1  0.46628000  0.64274000  0.05236000  1.0
  C  C61  1  0.52344000  0.26082000  0.51005000  1.0
  C  C62  1  0.47820000  0.73975000  0.50127000  1.0
  C  C63  1  0.44956000  0.22177000  0.52223000  1.0
  C  C64  1  0.51467000  0.49829000  0.89756000  1.0
  C  C65  1  0.55200000  0.78011000  0.49126000  1.0
  C  C66  1  0.45150000  0.14135000  0.52469000  1.0
  C  C67  1  0.55065000  0.86038000  0.49481000  1.0
  C  C68  1  0.52829000  0.09848000  0.51440000  1.0
  C  C69  1  0.47457000  0.90177000  0.50885000  1.0
  C  C70  1  0.60294000  0.13732000  0.50441000  1.0
  C  C71  1  0.40024000  0.86187000  0.51765000  1.0
  C  C72  1  0.60053000  0.21815000  0.50219000  1.0
  C  C73  1  0.40206000  0.78120000  0.51396000  1.0
  C  C74  1  0.23797000  0.53481000  0.47511000  1.0
  C  C75  1  0.48459000  0.50103000  0.10147000  1.0
  C  C76  1  0.76183000  0.46494000  0.52357000  1.0
  C  C77  1  0.15045000  0.53444000  0.47586000  1.0
  C  C78  1  0.84931000  0.46556000  0.52325000  1.0
  C  C79  1  0.10965000  0.48604000  0.50896000  1.0
  C  C80  1  0.89035000  0.51467000  0.49069000  1.0
  C  C81  1  0.53455000  0.42440000  0.81984000  1.0
  C  C82  1  0.46528000  0.57497000  0.17921000  1.0
  C  C83  1  0.15808000  0.44036000  0.53982000  1.0
  C  C84  1  0.84218000  0.56090000  0.45998000  1.0
  C  C85  1  0.24565000  0.44465000  0.53682000  1.0
  C  C86  1  0.52950000  0.42769000  0.87245000  1.0
  C  C87  1  0.75464000  0.55640000  0.46257000  1.0
  C  C88  1  0.51142000  0.56894000  0.81876000  1.0
  C  C89  1  0.48791000  0.43038000  0.18030000  1.0
  C  C90  1  0.57879000  0.52936000  0.71588000  1.0
  C  C91  1  0.42082000  0.47041000  0.28323000  1.0
  C  C92  1  0.57144000  0.52745000  0.66684000  1.0
  C  C93  1  0.42802000  0.47263000  0.33228000  1.0
  C  C94  1  0.44474000  0.45506000  0.67602000  1.0
  C  C95  1  0.55530000  0.54415000  0.32302000  1.0
  C  C96  1  0.45210000  0.45674000  0.72527000  1.0
  C  C97  1  0.47000000  0.57165000  0.12658000  1.0
  C  C98  1  0.54798000  0.54233000  0.27375000  1.0
  C  C99  1  0.51820000  0.49397000  0.74492000  1.0
  C  C100  1  0.48166000  0.50539000  0.25414000  1.0
  C  C101  1  0.39902000  0.34469000  0.63638000  1.0
  C  C102  1  0.60237000  0.65285000  0.36414000  1.0
  C  C103  1  0.56354000  0.21798000  0.94170000  1.0
  C  C104  1  0.43580000  0.78138000  0.05718000  1.0
  C  C105  1  0.53912000  0.35848000  0.89691000  1.0
  C  C106  1  0.46029000  0.64086000  0.10212000  1.0
  C  C107  1  0.50742000  0.56828000  0.87129000  1.0
  N  N108  1  0.52234000  0.49568000  0.79596000  1.0
  N  N109  1  0.47738000  0.50366000  0.20309000  1.0
  N  N110  1  0.53637000  0.01657000  0.51182000  1.0
  N  N111  1  0.46657000  0.98341000  0.51384000  1.0
  N  N112  1  0.28428000  0.49088000  0.50506000  1.0
  N  N113  1  0.71576000  0.50938000  0.49377000  1.0
  N  N114  1  0.02074000  0.47916000  0.51404000  1.0
  N  N115  1  0.97924000  0.52168000  0.48583000  1.0
  O  O116  1  0.58773000  0.38172000  0.49973000  1.0
  O  O117  1  0.45232000  0.63647000  0.20134000  1.0
  O  O118  1  0.49482000  0.37013000  0.20373000  1.0
  O  O119  1  0.50434000  0.62917000  0.79534000  1.0
  O  O120  1  0.37685000  0.41731000  0.65991000  1.0
  O  O121  1  0.62357000  0.58145000  0.33902000  1.0
  O  O122  1  0.54367000  0.28687000  0.96943000  1.0
  O  O123  1  0.45561000  0.71238000  0.02956000  1.0
  O  O124  1  0.41314000  0.61839000  0.50365000  1.0
  O  O125  1  0.44437000  0.38019000  0.50441000  1.0
  O  O126  1  0.55608000  0.61952000  0.49363000  1.0
  O  O127  1  0.57038000  0.50241000  0.56928000  1.0
  O  O128  1  0.42871000  0.50174000  0.42987000  1.0
  O  O129  1  0.42766000  0.49616000  0.57530000  1.0
  O  O130  1  0.57206000  0.49989000  0.42372000  1.0
  O  O131  1  0.54783000  0.36292000  0.79771000  1.0
