# generated using pymatgen
data_HgH14C10(SI)2
_symmetry_space_group_name_H-M   'P 1'
_cell_length_a   4.54172000
_cell_length_b   18.17710000
_cell_length_c   18.25340000
_cell_angle_alpha   95.89620000
_cell_angle_beta   90.00000000
_cell_angle_gamma   90.00000000
_symmetry_Int_Tables_number   1
_chemical_formula_structural   HgH14C10(SI)2
_chemical_formula_sum   'Hg4 H56 C40 S8 I8'
_cell_volume   1498.94275397
_cell_formula_units_Z   4
loop_
 _symmetry_equiv_pos_site_id
 _symmetry_equiv_pos_as_xyz
  1  'x, y, z'
loop_
 _atom_site_type_symbol
 _atom_site_label
 _atom_site_symmetry_multiplicity
 _atom_site_fract_x
 _atom_site_fract_y
 _atom_site_fract_z
 _atom_site_occupancy
  Hg  Hg0  1  0.70500000  0.75000000  0.25000000  1.0
  Hg  Hg1  1  0.29500000  0.25000000  0.75000000  1.0
  Hg  Hg2  1  0.33645000  0.75000000  0.75000000  1.0
  Hg  Hg3  1  0.66355000  0.25000000  0.25000000  1.0
  H  H4  1  0.57664000  0.87600000  0.38736000  1.0
  H  H5  1  0.57664000  0.62400000  0.11263000  1.0
  H  H6  1  0.42336000  0.12400000  0.61263000  1.0
  H  H7  1  0.42336000  0.37600000  0.88737000  1.0
  H  H8  1  0.85208000  0.82087000  0.42447000  1.0
  H  H9  1  0.85207000  0.67913000  0.07553000  1.0
  H  H10  1  0.14793000  0.17913000  0.57553000  1.0
  H  H11  1  0.14791000  0.32087000  0.92447000  1.0
  H  H12  1  0.22949000  0.87714000  0.50864000  1.0
  H  H13  1  0.22950000  0.62286000  0.99136000  1.0
  H  H14  1  0.77050000  0.12286000  0.49136000  1.0
  H  H15  1  0.77050000  0.37714000  0.00864000  1.0
  H  H16  1  0.60767000  0.01546000  0.40797000  1.0
  H  H17  1  0.60767000  0.48454000  0.09203000  1.0
  H  H18  1  0.39233000  0.98454000  0.59203000  1.0
  H  H19  1  0.39232000  0.51546000  0.90797000  1.0
  H  H20  1  0.96955000  0.99166000  0.29541000  1.0
  H  H21  1  0.96955000  0.50835000  0.20458000  1.0
  H  H22  1  0.03045000  0.00835000  0.70459000  1.0
  H  H23  1  0.03045000  0.49166000  0.79542000  1.0
  H  H24  1  0.63416000  0.94136000  0.27204000  1.0
  H  H25  1  0.63415000  0.55864000  0.22796000  1.0
  H  H26  1  0.36585000  0.05864000  0.72796000  1.0
  H  H27  1  0.36585000  0.44136000  0.77205000  1.0
  H  H28  1  0.94589000  0.92971000  0.21202000  1.0
  H  H29  1  0.94589000  0.57029000  0.28798000  1.0
  H  H30  1  0.05411000  0.07029000  0.78798000  1.0
  H  H31  1  0.05411000  0.42971000  0.71203000  1.0
  H  H32  1  0.44338000  0.60943000  0.62192000  1.0
  H  H33  1  0.44338000  0.89057000  0.87808000  1.0
  H  H34  1  0.55662000  0.39057000  0.37808000  1.0
  H  H35  1  0.55662000  0.10943000  0.12192000  1.0
  H  H36  1  0.17872000  0.57087000  0.67886000  1.0
  H  H37  1  0.17873000  0.92913000  0.82114000  1.0
  H  H38  1  0.82129000  0.42913000  0.32114000  1.0
  H  H39  1  0.82128000  0.07087000  0.17886000  1.0
  H  H40  1  0.77766000  0.48992000  0.62291000  1.0
  H  H41  1  0.77766000  0.01008000  0.87709000  1.0
  H  H42  1  0.22233000  0.51008000  0.37709000  1.0
  H  H43  1  0.22234000  0.98992000  0.12291000  1.0
  H  H44  1  0.40360000  0.58928000  0.48524000  1.0
  H  H45  1  0.40361000  0.91072000  0.01476000  1.0
  H  H46  1  0.59639000  0.41072000  0.51476000  1.0
  H  H47  1  0.59640000  0.08928000  0.98524000  1.0
  H  H48  1  0.01575000  0.70003000  0.51278000  1.0
  H  H49  1  0.01575000  0.79997000  0.98722000  1.0
  H  H50  1  0.98425000  0.29997000  0.48722000  1.0
  H  H51  1  0.98427000  0.20003000  0.01278000  1.0
  H  H52  1  0.35590000  0.72948000  0.55769000  1.0
  H  H53  1  0.35590000  0.77052000  0.94230000  1.0
  H  H54  1  0.64410000  0.27052000  0.44230000  1.0
  H  H55  1  0.64411000  0.22948000  0.05770000  1.0
  H  H56  1  0.03005000  0.78462000  0.57317000  1.0
  H  H57  1  0.03005000  0.71538000  0.92682000  1.0
  H  H58  1  0.96996000  0.21538000  0.42683000  1.0
  H  H59  1  0.96997000  0.28462000  0.07318000  1.0
  C  C60  1  0.81131000  0.87340000  0.40137000  1.0
  C  C61  1  0.81130000  0.62660000  0.09863000  1.0
  C  C62  1  0.18869000  0.12660000  0.59863000  1.0
  C  C63  1  0.18869000  0.37340000  0.90137000  1.0
  C  C64  1  0.90865000  0.93862000  0.45203000  1.0
  C  C65  1  0.90864000  0.56138000  0.04797000  1.0
  C  C66  1  0.09135000  0.06138000  0.54796000  1.0
  C  C67  1  0.09134000  0.43862000  0.95203000  1.0
  C  C68  1  0.12730000  0.93099000  0.50490000  1.0
  C  C69  1  0.12729000  0.56901000  0.99510000  1.0
  C  C70  1  0.87270000  0.06901000  0.49510000  1.0
  C  C71  1  0.87270000  0.43099000  0.00490000  1.0
  C  C72  1  0.78193000  0.00838000  0.44775000  1.0
  C  C73  1  0.78193000  0.49163000  0.05225000  1.0
  C  C74  1  0.21805000  0.99162000  0.55225000  1.0
  C  C75  1  0.21807000  0.50838000  0.94775000  1.0
  C  C76  1  0.87535000  0.93970000  0.26965000  1.0
  C  C77  1  0.87535000  0.56030000  0.23035000  1.0
  C  C78  1  0.12466000  0.06030000  0.73035000  1.0
  C  C79  1  0.12465000  0.43970000  0.76965000  1.0
  C  C80  1  0.20947000  0.59536000  0.62685000  1.0
  C  C81  1  0.20948000  0.90464000  0.87314000  1.0
  C  C82  1  0.79052000  0.40464000  0.37315000  1.0
  C  C83  1  0.79053000  0.09536000  0.12685000  1.0
  C  C84  1  0.10136000  0.54608000  0.56177000  1.0
  C  C85  1  0.10137000  0.95391000  0.93823000  1.0
  C  C86  1  0.89863000  0.45391000  0.43824000  1.0
  C  C87  1  0.89864000  0.04609000  0.06177000  1.0
  C  C88  1  0.87689000  0.49447000  0.56909000  1.0
  C  C89  1  0.87690000  0.00553000  0.93091000  1.0
  C  C90  1  0.12310000  0.50552000  0.43091000  1.0
  C  C91  1  0.12311000  0.99447000  0.06909000  1.0
  C  C92  1  0.22354000  0.55084000  0.49191000  1.0
  C  C93  1  0.22355000  0.94915000  0.00809000  1.0
  C  C94  1  0.77645000  0.44915000  0.50810000  1.0
  C  C95  1  0.77645000  0.05085000  0.99191000  1.0
  C  C96  1  0.11549000  0.72804000  0.56283000  1.0
  C  C97  1  0.11549000  0.77196000  0.93717000  1.0
  C  C98  1  0.88451000  0.27196000  0.43717000  1.0
  C  C99  1  0.88452000  0.22804000  0.06283000  1.0
  S  S100  1  0.01578000  0.86291000  0.31429000  1.0
  S  S101  1  0.01578000  0.63710000  0.18570000  1.0
  S  S102  1  0.98423000  0.13709000  0.68570000  1.0
  S  S103  1  0.98422000  0.36290000  0.81430000  1.0
  S  S104  1  0.00484000  0.68267000  0.64163000  1.0
  S  S105  1  0.00485000  0.81733000  0.85837000  1.0
  S  S106  1  0.99516000  0.31733000  0.35837000  1.0
  S  S107  1  0.99516000  0.18266000  0.14163000  1.0
  I  I108  1  0.40943000  0.69149000  0.36425000  1.0
  I  I109  1  0.40941000  0.80852000  0.13576000  1.0
  I  I110  1  0.59057000  0.30852000  0.63575000  1.0
  I  I111  1  0.59059000  0.19149000  0.86425000  1.0
  I  I112  1  0.62096000  0.86527000  0.68847000  1.0
  I  I113  1  0.62096000  0.63473000  0.81153000  1.0
  I  I114  1  0.37903000  0.13473000  0.31153000  1.0
  I  I115  1  0.37904000  0.36527000  0.18847000  1.0
