# generated using pymatgen
data_CdH42C36N18(ClO4)2
_symmetry_space_group_name_H-M   'P 1'
_cell_length_a   8.67393000
_cell_length_b   10.19040000
_cell_length_c   13.17990000
_cell_angle_alpha   107.03300000
_cell_angle_beta   94.35660000
_cell_angle_gamma   112.59800000
_symmetry_Int_Tables_number   1
_chemical_formula_structural   CdH42C36N18(ClO4)2
_chemical_formula_sum   'Cd1 H42 C36 N18 Cl2 O8'
_cell_volume   1004.63546259
_cell_formula_units_Z   1
loop_
 _symmetry_equiv_pos_site_id
 _symmetry_equiv_pos_as_xyz
  1  'x, y, z'
loop_
 _atom_site_type_symbol
 _atom_site_label
 _atom_site_symmetry_multiplicity
 _atom_site_fract_x
 _atom_site_fract_y
 _atom_site_fract_z
 _atom_site_occupancy
  Cd  Cd0  1  0.00000000  0.00000000  0.50000000  1.0
  H  H1  1  0.22291000  0.32720000  0.47935000  1.0
  H  H2  1  0.77710000  0.67280000  0.52065000  1.0
  H  H3  1  0.17669000  0.51601000  0.40777000  1.0
  H  H4  1  0.82331000  0.48400000  0.59223000  1.0
  H  H5  1  0.71158000  0.02708000  0.35149000  1.0
  H  H6  1  0.28842000  0.97292000  0.64851000  1.0
  H  H7  1  0.48981000  0.01268000  0.13972000  1.0
  H  H8  1  0.51020000  0.98732000  0.86028000  1.0
  H  H9  1  0.50153000  0.99349000  0.26959000  1.0
  H  H10  1  0.49847000  0.00652000  0.73042000  1.0
  H  H11  1  0.30227000  0.09577000  0.31904000  1.0
  H  H12  1  0.69773000  0.90423000  0.68096000  1.0
  H  H13  1  0.21722000  0.95821000  0.18544000  1.0
  H  H14  1  0.78279000  0.04179000  0.81456000  1.0
  H  H15  1  0.42161000  0.41031000  0.20456000  1.0
  H  H16  1  0.57838000  0.58969000  0.79544000  1.0
  H  H17  1  0.44161000  0.37844000  0.32923000  1.0
  H  H18  1  0.55838000  0.62156000  0.67077000  1.0
  H  H19  1  0.71582000  0.43847000  0.27457000  1.0
  H  H20  1  0.28418000  0.56154000  0.72543000  1.0
  H  H21  1  0.61871000  0.29973000  0.14256000  1.0
  H  H22  1  0.38128000  0.70027000  0.85744000  1.0
  H  H23  1  0.98482000  0.95365000  0.16904000  1.0
  H  H24  1  0.01518000  0.04635000  0.83096000  1.0
  H  H25  1  0.70881000  0.12427000  0.01946000  1.0
  H  H26  1  0.29118000  0.87572000  0.98053000  1.0
  H  H27  1  0.98032000  0.35592000  0.04472000  1.0
  H  H28  1  0.01967000  0.64407000  0.95528000  1.0
  H  H29  1  0.19409000  0.80361000  0.38367000  1.0
  H  H30  1  0.80591000  0.19640000  0.61633000  1.0
  H  H31  1  0.14953000  0.59339000  0.20935000  1.0
  H  H32  1  0.85047000  0.40661000  0.79065000  1.0
  H  H33  1  0.73641000  0.80648000  0.26841000  1.0
  H  H34  1  0.26358000  0.19351000  0.73160000  1.0
  H  H35  1  0.56531000  0.73932000  0.14346000  1.0
  H  H36  1  0.43469000  0.26068000  0.85654000  1.0
  H  H37  1  0.59534000  0.71924000  0.00932000  1.0
  H  H38  1  0.40465000  0.28076000  0.99068000  1.0
  H  H39  1  0.68291000  0.50395000  0.91330000  1.0
  H  H40  1  0.31709000  0.49605000  0.08670000  1.0
  H  H41  1  0.71241000  0.39730000  0.99259000  1.0
  H  H42  1  0.28759000  0.60270000  0.00741000  1.0
  C  C43  1  0.09912000  0.30266000  0.43375000  1.0
  C  C44  1  0.90089000  0.69734000  0.56625000  1.0
  C  C45  1  0.07165000  0.40582000  0.39399000  1.0
  C  C46  1  0.92835000  0.59419000  0.60601000  1.0
  C  C47  1  0.78819000  0.24286000  0.32218000  1.0
  C  C48  1  0.21182000  0.75715000  0.67782000  1.0
  C  C49  1  0.81501000  0.13547000  0.36136000  1.0
  C  C50  1  0.18500000  0.86454000  0.63864000  1.0
  C  C51  1  0.48900000  0.06610000  0.22575000  1.0
  C  C52  1  0.51101000  0.93391000  0.77426000  1.0
  C  C53  1  0.31632000  0.07147000  0.23386000  1.0
  C  C54  1  0.68369000  0.92853000  0.76614000  1.0
  C  C55  1  0.44066000  0.33373000  0.24212000  1.0
  C  C56  1  0.55933000  0.66627000  0.75788000  1.0
  C  C57  1  0.61038000  0.32783000  0.22897000  1.0
  C  C58  1  0.38961000  0.67217000  0.77104000  1.0
  C  C59  1  0.14095000  0.16959000  0.14997000  1.0
  C  C60  1  0.85905000  0.83040000  0.85003000  1.0
  C  C61  1  0.98577000  0.04217000  0.13836000  1.0
  C  C62  1  0.01423000  0.95783000  0.86164000  1.0
  C  C63  1  0.83274000  0.13685000  0.05696000  1.0
  C  C64  1  0.16726000  0.86315000  0.94304000  1.0
  C  C65  1  0.98268000  0.26419000  0.07089000  1.0
  C  C66  1  0.01731000  0.73580000  0.92911000  1.0
  C  C67  1  0.08295000  0.75720000  0.31822000  1.0
  C  C68  1  0.91705000  0.24280000  0.68177000  1.0
  C  C69  1  0.05660000  0.64148000  0.22158000  1.0
  C  C70  1  0.94340000  0.35852000  0.77842000  1.0
  C  C71  1  0.80323000  0.64091000  0.15475000  1.0
  C  C72  1  0.19677000  0.35909000  0.84525000  1.0
  C  C73  1  0.82908000  0.75955000  0.25321000  1.0
  C  C74  1  0.17092000  0.24044000  0.74680000  1.0
  C  C75  1  0.55203000  0.65646000  0.06488000  1.0
  C  C76  1  0.44797000  0.34354000  0.93512000  1.0
  C  C77  1  0.63563000  0.45517000  0.97545000  1.0
  C  C78  1  0.36437000  0.54483000  0.02455000  1.0
  N  N79  1  0.96735000  0.16718000  0.41686000  1.0
  N  N80  1  0.03265000  0.83282000  0.58313000  1.0
  N  N81  1  0.91980000  0.37812000  0.33922000  1.0
  N  N82  1  0.08021000  0.62189000  0.66078000  1.0
  N  N83  1  0.63118000  0.21605000  0.26986000  1.0
  N  N84  1  0.36882000  0.78395000  0.73015000  1.0
  N  N85  1  0.29815000  0.18346000  0.19228000  1.0
  N  N86  1  0.70185000  0.81654000  0.80772000  1.0
  N  N87  1  0.13515000  0.28202000  0.11763000  1.0
  N  N88  1  0.86484000  0.71798000  0.88237000  1.0
  N  N89  1  0.83492000  0.02651000  0.09257000  1.0
  N  N90  1  0.16508000  0.97348000  0.90743000  1.0
  N  N91  1  0.96608000  0.81443000  0.33242000  1.0
  N  N92  1  0.03392000  0.18556000  0.66758000  1.0
  N  N93  1  0.92087000  0.58409000  0.14032000  1.0
  N  N94  1  0.07913000  0.41591000  0.85968000  1.0
  N  N95  1  0.65927000  0.57795000  0.07512000  1.0
  N  N96  1  0.34073000  0.42204000  0.92488000  1.0
  Cl  Cl97  1  0.47273000  0.21844000  0.56487000  1.0
  Cl  Cl98  1  0.52727000  0.78156000  0.43513000  1.0
  O  O99  1  0.30508000  0.09134000  0.50355000  1.0
  O  O100  1  0.69492000  0.90867000  0.49645000  1.0
  O  O101  1  0.51003000  0.21061000  0.67270000  1.0
  O  O102  1  0.48997000  0.78939000  0.32730000  1.0
  O  O103  1  0.60185000  0.20166000  0.50562000  1.0
  O  O104  1  0.39814000  0.79833000  0.49437000  1.0
  O  O105  1  0.46447000  0.36124000  0.57512000  1.0
  O  O106  1  0.53554000  0.63877000  0.42488000  1.0
