# generated using pymatgen
data_Cd2H15C20(NO4)3
_symmetry_space_group_name_H-M   'P 1'
_cell_length_a   8.15852000
_cell_length_b   10.76750000
_cell_length_c   13.00450000
_cell_angle_alpha   99.26820000
_cell_angle_beta   92.00570000
_cell_angle_gamma   97.39090000
_symmetry_Int_Tables_number   1
_chemical_formula_structural   Cd2H15C20(NO4)3
_chemical_formula_sum   'Cd4 H30 C40 N6 O24'
_cell_volume   1116.30990815
_cell_formula_units_Z   2
loop_
 _symmetry_equiv_pos_site_id
 _symmetry_equiv_pos_as_xyz
  1  'x, y, z'
loop_
 _atom_site_type_symbol
 _atom_site_label
 _atom_site_symmetry_multiplicity
 _atom_site_fract_x
 _atom_site_fract_y
 _atom_site_fract_z
 _atom_site_occupancy
  Cd  Cd0  1  0.46810000  0.43440000  0.19934000  1.0
  Cd  Cd1  1  0.53190000  0.56560000  0.80066000  1.0
  Cd  Cd2  1  0.86088000  0.23015000  0.11036000  1.0
  Cd  Cd3  1  0.13912000  0.76985000  0.88964000  1.0
  H  H4  1  0.14898000  0.50863000  0.15685000  1.0
  H  H5  1  0.85102000  0.49136000  0.84315000  1.0
  H  H6  1  0.27102000  0.58707000  0.08730000  1.0
  H  H7  1  0.72898000  0.41293000  0.91270000  1.0
  H  H8  1  0.14751000  0.17718000  0.22700000  1.0
  H  H9  1  0.85249000  0.82282000  0.77300000  1.0
  H  H10  1  0.06045000  0.04334000  0.15632000  1.0
  H  H11  1  0.93955000  0.95666000  0.84368000  1.0
  H  H12  1  0.12154000  0.63110000  0.31814000  1.0
  H  H13  1  0.87846000  0.36890000  0.68186000  1.0
  H  H14  1  0.68321000  0.46183000  0.44684000  1.0
  H  H15  1  0.31679000  0.53817000  0.55316000  1.0
  H  H16  1  0.71172000  0.89245000  0.39225000  1.0
  H  H17  1  0.28828000  0.10755000  0.60775000  1.0
  H  H18  1  0.93038000  0.94335000  0.26859000  1.0
  H  H19  1  0.06962000  0.05665000  0.73141000  1.0
  H  H20  1  0.52561000  0.68463000  0.35077000  1.0
  H  H21  1  0.47439000  0.31537000  0.64923000  1.0
  H  H22  1  0.96725000  0.80371000  0.61550000  1.0
  H  H23  1  0.03275000  0.19629000  0.38450000  1.0
  H  H24  1  0.76856000  0.57593000  0.08266000  1.0
  H  H25  1  0.23144000  0.42407000  0.91734000  1.0
  H  H26  1  0.32414000  0.79281000  0.16715000  1.0
  H  H27  1  0.67586000  0.20719000  0.83285000  1.0
  H  H28  1  0.58104000  0.17224000  0.26313000  1.0
  H  H29  1  0.41896000  0.82776000  0.73687000  1.0
  H  H30  1  0.72630000  0.94951000  0.00005000  1.0
  H  H31  1  0.27370000  0.05049000  0.99995000  1.0
  H  H32  1  0.36287000  0.99909000  0.29329000  1.0
  H  H33  1  0.63713000  0.00091000  0.70671000  1.0
  C  C34  1  0.05309000  0.72578000  0.46638000  1.0
  C  C35  1  0.94691000  0.27422000  0.53363000  1.0
  C  C36  1  0.49991000  0.73985000  0.99113000  1.0
  C  C37  1  0.50009000  0.26015000  0.00888000  1.0
  C  C38  1  0.03259000  0.63113000  0.37856000  1.0
  C  C39  1  0.96741000  0.36887000  0.62144000  1.0
  C  C40  1  0.78801000  0.53652000  0.45211000  1.0
  C  C41  1  0.21199000  0.46348000  0.54789000  1.0
  C  C42  1  0.89676000  0.53609000  0.37134000  1.0
  C  C43  1  0.10324000  0.46391000  0.62866000  1.0
  C  C44  1  0.72914000  0.82434000  0.32347000  1.0
  C  C45  1  0.27085000  0.17566000  0.67652000  1.0
  C  C46  1  0.85087000  0.85216000  0.25491000  1.0
  C  C47  1  0.14913000  0.14784000  0.74509000  1.0
  C  C48  1  0.86893000  0.43243000  0.27846000  1.0
  C  C49  1  0.13107000  0.56757000  0.72154000  1.0
  C  C50  1  0.62509000  0.70951000  0.30096000  1.0
  C  C51  1  0.37491000  0.29049000  0.69904000  1.0
  C  C52  1  0.94516000  0.72900000  0.54741000  1.0
  C  C53  1  0.05484000  0.27100000  0.45258000  1.0
  C  C54  1  0.75935000  0.64803000  0.15050000  1.0
  C  C55  1  0.24065000  0.35197000  0.84951000  1.0
  C  C56  1  0.41843000  0.87043000  0.15705000  1.0
  C  C57  1  0.58157000  0.12957000  0.84295000  1.0
  C  C58  1  0.56147000  0.08119000  0.21119000  1.0
  C  C59  1  0.43853000  0.91881000  0.78881000  1.0
  C  C60  1  0.81194000  0.63196000  0.54025000  1.0
  C  C61  1  0.18806000  0.36804000  0.45975000  1.0
  C  C62  1  0.64364000  0.95704000  0.06414000  1.0
  C  C63  1  0.35636000  0.04296000  0.93586000  1.0
  C  C64  1  0.43952000  0.98461000  0.22681000  1.0
  C  C65  1  0.56048000  0.01539000  0.77319000  1.0
  C  C66  1  0.86618000  0.76290000  0.16606000  1.0
  C  C67  1  0.13382000  0.23710000  0.83394000  1.0
  C  C68  1  0.98427000  0.78783000  0.08348000  1.0
  C  C69  1  0.01573000  0.21218000  0.91652000  1.0
  C  C70  1  0.70008000  0.62337000  0.62874000  1.0
  C  C71  1  0.29992000  0.37663000  0.37126000  1.0
  C  C72  1  0.52202000  0.85603000  0.07373000  1.0
  C  C73  1  0.47798000  0.14397000  0.92627000  1.0
  N  N74  1  0.64090000  0.62262000  0.21603000  1.0
  N  N75  1  0.35911000  0.37738000  0.78397000  1.0
  N  N76  1  0.66186000  0.06756000  0.13085000  1.0
  N  N77  1  0.33814000  0.93244000  0.86915000  1.0
  N  N78  1  0.19650000  0.82487000  0.47457000  1.0
  N  N79  1  0.80350000  0.17513000  0.52543000  1.0
  O  O80  1  0.36649000  0.66185000  0.98363000  1.0
  O  O81  1  0.63351000  0.33815000  0.01637000  1.0
  O  O82  1  0.26054000  0.55540000  0.15435000  1.0
  O  O83  1  0.73946000  0.44460000  0.84565000  1.0
  O  O84  1  0.04099000  0.12637000  0.19737000  1.0
  O  O85  1  0.95900000  0.87363000  0.80263000  1.0
  O  O86  1  0.61551000  0.72849000  0.92826000  1.0
  O  O87  1  0.38448000  0.27151000  0.07174000  1.0
  O  O88  1  0.98525000  0.41902000  0.21633000  1.0
  O  O89  1  0.01475000  0.58098000  0.78367000  1.0
  O  O90  1  0.05945000  0.89852000  0.08296000  1.0
  O  O91  1  0.94055000  0.10148000  0.91704000  1.0
  O  O92  1  0.73132000  0.35889000  0.26464000  1.0
  O  O93  1  0.26868000  0.64111000  0.73536000  1.0
  O  O94  1  0.69766000  0.71908000  0.70009000  1.0
  O  O95  1  0.30234000  0.28092000  0.29991000  1.0
  O  O96  1  0.61339000  0.51620000  0.62978000  1.0
  O  O97  1  0.38662000  0.48380000  0.37022000  1.0
  O  O98  1  0.99892000  0.69208000  0.01393000  1.0
  O  O99  1  0.00108000  0.30792000  0.98607000  1.0
  O  O100  1  0.28000000  0.83019000  0.39693000  1.0
  O  O101  1  0.72000000  0.16981000  0.60307000  1.0
  O  O102  1  0.22708000  0.89822000  0.55907000  1.0
  O  O103  1  0.77292000  0.10178000  0.44094000  1.0
