# generated using pymatgen
data_Li2H16(C2O)9
_symmetry_space_group_name_H-M   'P 1'
_cell_length_a   7.03602000
_cell_length_b   10.31080000
_cell_length_c   13.62025749
_cell_angle_alpha   108.00921033
_cell_angle_beta   104.96503760
_cell_angle_gamma   90.02650000
_symmetry_Int_Tables_number   1
_chemical_formula_structural   Li2H16(C2O)9
_chemical_formula_sum   'Li4 H32 C36 O18'
_cell_volume   904.35295694
_cell_formula_units_Z   2
loop_
 _symmetry_equiv_pos_site_id
 _symmetry_equiv_pos_as_xyz
  1  'x, y, z'
loop_
 _atom_site_type_symbol
 _atom_site_label
 _atom_site_symmetry_multiplicity
 _atom_site_fract_x
 _atom_site_fract_y
 _atom_site_fract_z
 _atom_site_occupancy
  Li  Li0  1  0.91738000  0.10525000  0.95897000  1.0
  Li  Li1  1  0.95844000  0.39470000  0.04101000  1.0
  Li  Li2  1  0.08262000  0.89475000  0.04103000  1.0
  Li  Li3  1  0.04156000  0.60530000  0.95899000  1.0
  H  H4  1  0.67163000  0.27934000  0.06317000  1.0
  H  H5  1  0.60856000  0.22084000  0.93691000  1.0
  H  H6  1  0.32837000  0.72066000  0.93683000  1.0
  H  H7  1  0.39143000  0.77916000  0.06309000  1.0
  H  H8  1  0.96573000  0.49086000  0.75242000  1.0
  H  H9  1  0.21293000  0.00920000  0.24744000  1.0
  H  H10  1  0.03427000  0.50914000  0.24758000  1.0
  H  H11  1  0.78707000  0.99080000  0.75256000  1.0
  H  H12  1  0.01989000  0.49727000  0.58237000  1.0
  H  H13  1  0.43692000  0.00266000  0.41750000  1.0
  H  H14  1  0.98011000  0.50273000  0.41763000  1.0
  H  H15  1  0.56308000  0.99734000  0.58250000  1.0
  H  H16  1  0.12233000  0.28866000  0.45944000  1.0
  H  H17  1  0.66270000  0.21116000  0.54049000  1.0
  H  H18  1  0.87766000  0.71134000  0.54056000  1.0
  H  H19  1  0.33730000  0.78884000  0.45951000  1.0
  H  H20  1  0.17893000  0.08069000  0.51547000  1.0
  H  H21  1  0.66361000  0.41925000  0.48464000  1.0
  H  H22  1  0.82107000  0.91931000  0.48453000  1.0
  H  H23  1  0.33639000  0.58076000  0.51536000  1.0
  H  H24  1  0.42474000  0.92798000  0.86741000  1.0
  H  H25  1  0.55704000  0.57204000  0.13250000  1.0
  H  H26  1  0.57526000  0.07202000  0.13259000  1.0
  H  H27  1  0.44296000  0.42796000  0.86750000  1.0
  H  H28  1  0.25893000  0.83976000  0.73913000  1.0
  H  H29  1  0.51954000  0.66031000  0.26076000  1.0
  H  H30  1  0.74107000  0.16024000  0.26087000  1.0
  H  H31  1  0.48046000  0.33969000  0.73924000  1.0
  H  H32  1  0.16301000  0.93309000  0.84598000  1.0
  H  H33  1  0.31674000  0.56680000  0.15394000  1.0
  H  H34  1  0.83699000  0.06691000  0.15402000  1.0
  H  H35  1  0.68326000  0.43320000  0.84606000  1.0
  C  C36  1  0.01837000  0.28772000  0.84032000  1.0
  C  C37  1  0.17797000  0.21245000  0.15971000  1.0
  C  C38  1  0.98163000  0.71227000  0.15968000  1.0
  C  C39  1  0.82202000  0.78755000  0.84029000  1.0
  C  C40  1  0.04573000  0.28461000  0.73341000  1.0
  C  C41  1  0.31222000  0.21548000  0.26661000  1.0
  C  C42  1  0.95427000  0.71539000  0.26659000  1.0
  C  C43  1  0.68778000  0.78452000  0.73339000  1.0
  C  C44  1  0.01371000  0.40104000  0.70066000  1.0
  C  C45  1  0.31274000  0.09899000  0.29926000  1.0
  C  C46  1  0.98629000  0.59896000  0.29934000  1.0
  C  C47  1  0.68726000  0.90101000  0.70074000  1.0
  C  C48  1  0.04189000  0.40378000  0.60371000  1.0
  C  C49  1  0.43781000  0.09616000  0.39620000  1.0
  C  C50  1  0.95811000  0.59623000  0.39629000  1.0
  C  C51  1  0.56219000  0.90384000  0.60380000  1.0
  C  C52  1  0.09962000  0.28858000  0.53568000  1.0
  C  C53  1  0.56373000  0.21132000  0.46426000  1.0
  C  C54  1  0.90037000  0.71142000  0.46432000  1.0
  C  C55  1  0.43627000  0.78868000  0.53574000  1.0
  C  C56  1  0.13169000  0.17145000  0.56624000  1.0
  C  C57  1  0.56545000  0.32853000  0.43380000  1.0
  C  C58  1  0.86831000  0.82855000  0.43376000  1.0
  C  C59  1  0.43455000  0.67147000  0.56620000  1.0
  C  C60  1  0.10672000  0.17060000  0.66411000  1.0
  C  C61  1  0.44265000  0.32948000  0.33596000  1.0
  C  C62  1  0.89327000  0.82940000  0.33589000  1.0
  C  C63  1  0.55735000  0.67051000  0.66404000  1.0
  C  C64  1  0.29064000  0.05750000  0.77936000  1.0
  C  C65  1  0.51109000  0.44259000  0.22064000  1.0
  C  C66  1  0.70936000  0.94250000  0.22064000  1.0
  C  C67  1  0.48891000  0.55741000  0.77936000  1.0
  C  C68  1  0.28606000  0.93158000  0.80975000  1.0
  C  C69  1  0.47604000  0.56843000  0.19019000  1.0
  C  C70  1  0.71394000  0.06842000  0.19025000  1.0
  C  C71  1  0.52395000  0.43156000  0.80981000  1.0
  O  O72  1  0.98595000  0.17612000  0.85600000  1.0
  O  O73  1  0.12985000  0.32409000  0.14415000  1.0
  O  O74  1  0.01405000  0.82388000  0.14400000  1.0
  O  O75  1  0.87014000  0.67591000  0.85585000  1.0
  O  O76  1  0.02716000  0.40537000  0.91039000  1.0
  O  O77  1  0.11670000  0.09482000  0.08957000  1.0
  O  O78  1  0.97284000  0.59462000  0.08961000  1.0
  O  O79  1  0.88330000  0.90518000  0.91043000  1.0
  O  O80  1  0.14295000  0.04961000  0.68937000  1.0
  O  O81  1  0.45373000  0.45051000  0.31075000  1.0
  O  O82  1  0.85705000  0.95039000  0.31063000  1.0
  O  O83  1  0.54627000  0.54949000  0.68925000  1.0
  O  O84  1  0.40926000  0.15869000  0.82551000  1.0
  O  O85  1  0.58342000  0.34141000  0.17444000  1.0
  O  O86  1  0.59074000  0.84132000  0.17449000  1.0
  O  O87  1  0.41659000  0.65859000  0.82556000  1.0
  O  O88  1  0.72586000  0.25008000  0.00006000  1.0
  O  O89  1  0.27414000  0.74992000  0.99994000  1.0
