# generated using pymatgen
data_SnH16C20SCl2O5
_symmetry_space_group_name_H-M   'P 1'
_cell_length_a   8.77196000
_cell_length_b   16.03710000
_cell_length_c   17.62230000
_cell_angle_alpha   90.00010000
_cell_angle_beta   89.99990000
_cell_angle_gamma   89.99990000
_symmetry_Int_Tables_number   1
_chemical_formula_structural   SnH16C20SCl2O5
_chemical_formula_sum   'Sn4 H64 C80 S4 Cl8 O20'
_cell_volume   2479.04876762
_cell_formula_units_Z   4
loop_
 _symmetry_equiv_pos_site_id
 _symmetry_equiv_pos_as_xyz
  1  'x, y, z'
loop_
 _atom_site_type_symbol
 _atom_site_label
 _atom_site_symmetry_multiplicity
 _atom_site_fract_x
 _atom_site_fract_y
 _atom_site_fract_z
 _atom_site_occupancy
  Sn  Sn0  1  0.11728000  0.87487000  0.29176000  1.0
  Sn  Sn1  1  0.38272000  0.12514000  0.79176000  1.0
  Sn  Sn2  1  0.88272000  0.37487000  0.20825000  1.0
  Sn  Sn3  1  0.61728000  0.62513000  0.70825000  1.0
  H  H4  1  0.02297000  0.69971000  0.37237000  1.0
  H  H5  1  0.47702000  0.30029000  0.87237000  1.0
  H  H6  1  0.97703000  0.19971000  0.12763000  1.0
  H  H7  1  0.52297000  0.80029000  0.62763000  1.0
  H  H8  1  0.96587000  0.95934000  0.43250000  1.0
  H  H9  1  0.53413000  0.04066000  0.93249000  1.0
  H  H10  1  0.03413000  0.45934000  0.06751000  1.0
  H  H11  1  0.46587000  0.54066000  0.56751000  1.0
  H  H12  1  0.30076000  0.03512000  0.22520000  1.0
  H  H13  1  0.19925000  0.96488000  0.72520000  1.0
  H  H14  1  0.69924000  0.53512000  0.27480000  1.0
  H  H15  1  0.80076000  0.46488000  0.77480000  1.0
  H  H16  1  0.11439000  0.81257000  0.12209000  1.0
  H  H17  1  0.38562000  0.18743000  0.62209000  1.0
  H  H18  1  0.88561000  0.31257000  0.37791000  1.0
  H  H19  1  0.61439000  0.68743000  0.87791000  1.0
  H  H20  1  0.83152000  0.91701000  0.54955000  1.0
  H  H21  1  0.66848000  0.08299000  0.04954000  1.0
  H  H22  1  0.16848000  0.41701000  0.95046000  1.0
  H  H23  1  0.33152000  0.58299000  0.45046000  1.0
  H  H24  1  0.88480000  0.65902000  0.48787000  1.0
  H  H25  1  0.61519000  0.34098000  0.98788000  1.0
  H  H26  1  0.11519000  0.15902000  0.01213000  1.0
  H  H27  1  0.38481000  0.84098000  0.51213000  1.0
  H  H28  1  0.79316000  0.76594000  0.57816000  1.0
  H  H29  1  0.70684000  0.23406000  0.07816000  1.0
  H  H30  1  0.20684000  0.26594000  0.92184000  1.0
  H  H31  1  0.29316000  0.73406000  0.42184000  1.0
  H  H32  1  0.36299000  0.08950000  0.09848000  1.0
  H  H33  1  0.13701000  0.91050000  0.59848000  1.0
  H  H34  1  0.63700000  0.58950000  0.40152000  1.0
  H  H35  1  0.86300000  0.41050000  0.90152000  1.0
  H  H36  1  0.62422000  0.79195000  0.39159000  1.0
  H  H37  1  0.87578000  0.20805000  0.89159000  1.0
  H  H38  1  0.37578000  0.29195000  0.10841000  1.0
  H  H39  1  0.12422000  0.70805000  0.60841000  1.0
  H  H40  1  0.72059000  0.82022000  0.30405000  1.0
  H  H41  1  0.77941000  0.17978000  0.80405000  1.0
  H  H42  1  0.27941000  0.32022000  0.19595000  1.0
  H  H43  1  0.22059000  0.67977000  0.69595000  1.0
  H  H44  1  0.55387000  0.75543000  0.30096000  1.0
  H  H45  1  0.94613000  0.24457000  0.80096000  1.0
  H  H46  1  0.44613000  0.25543000  0.19904000  1.0
  H  H47  1  0.05387000  0.74457000  0.69904000  1.0
  H  H48  1  0.29984000  0.00688000  0.98258000  1.0
  H  H49  1  0.20016000  0.99312000  0.48258000  1.0
  H  H50  1  0.70015000  0.50688000  0.51742000  1.0
  H  H51  1  0.79985000  0.49312000  0.01742000  1.0
  H  H52  1  0.50291000  0.02150000  0.38650000  1.0
  H  H53  1  0.99709000  0.97850000  0.88650000  1.0
  H  H54  1  0.49709000  0.52150000  0.11350000  1.0
  H  H55  1  0.00291000  0.47850000  0.61350000  1.0
  H  H56  1  0.69015000  0.97825000  0.37010000  1.0
  H  H57  1  0.80985000  0.02175000  0.87010000  1.0
  H  H58  1  0.30985000  0.47825000  0.12990000  1.0
  H  H59  1  0.19015000  0.52175000  0.62990000  1.0
  H  H60  1  0.56946000  0.93466000  0.44315000  1.0
  H  H61  1  0.93054000  0.06534000  0.94315000  1.0
  H  H62  1  0.43054000  0.43466000  0.05685000  1.0
  H  H63  1  0.06946000  0.56534000  0.55685000  1.0
  H  H64  1  0.18269000  0.86659000  0.99600000  1.0
  H  H65  1  0.31732000  0.13340000  0.49600000  1.0
  H  H66  1  0.81731000  0.36660000  0.50400000  1.0
  H  H67  1  0.68270000  0.63341000  0.00400000  1.0
  C  C68  1  0.12099000  0.15125000  0.31031000  1.0
  C  C69  1  0.37901000  0.84875000  0.81032000  1.0
  C  C70  1  0.87901000  0.65125000  0.18969000  1.0
  C  C71  1  0.62099000  0.34875000  0.68969000  1.0
  C  C72  1  0.02325000  0.21220000  0.28026000  1.0
  C  C73  1  0.47675000  0.78780000  0.78026000  1.0
  C  C74  1  0.97675000  0.71220000  0.21974000  1.0
  C  C75  1  0.52325000  0.28780000  0.71974000  1.0
  C  C76  1  0.86279000  0.18681000  0.25452000  1.0
  C  C77  1  0.63721000  0.81319000  0.75452000  1.0
  C  C78  1  0.13721000  0.68681000  0.24548000  1.0
  C  C79  1  0.36279000  0.31319000  0.74548000  1.0
  C  C80  1  0.82017000  0.10257000  0.25361000  1.0
  C  C81  1  0.67984000  0.89743000  0.75361000  1.0
  C  C82  1  0.17984000  0.60256000  0.24639000  1.0
  C  C83  1  0.32016000  0.39744000  0.74639000  1.0
  C  C84  1  0.07596000  0.06739000  0.31222000  1.0
  C  C85  1  0.42404000  0.93261000  0.81222000  1.0
  C  C86  1  0.92404000  0.56739000  0.18778000  1.0
  C  C87  1  0.57595000  0.43261000  0.68778000  1.0
  C  C88  1  0.19892000  0.92034000  0.18346000  1.0
  C  C89  1  0.30108000  0.07966000  0.68346000  1.0
  C  C90  1  0.80107000  0.42034000  0.31654000  1.0
  C  C91  1  0.69893000  0.57966000  0.81654000  1.0
  C  C92  1  0.92325000  0.04072000  0.27741000  1.0
  C  C93  1  0.57675000  0.95928000  0.77741000  1.0
  C  C94  1  0.07675000  0.54072000  0.22259000  1.0
  C  C95  1  0.42325000  0.45928000  0.72259000  1.0
  C  C96  1  0.98104000  0.74865000  0.40989000  1.0
  C  C97  1  0.51896000  0.25135000  0.90989000  1.0
  C  C98  1  0.01896000  0.24865000  0.09011000  1.0
  C  C99  1  0.48104000  0.75135000  0.59012000  1.0
  C  C100  1  0.00474000  0.83317000  0.39356000  1.0
  C  C101  1  0.49525000  0.16683000  0.89356000  1.0
  C  C102  1  0.99526000  0.33317000  0.10644000  1.0
  C  C103  1  0.50474000  0.66682000  0.60644000  1.0
  C  C104  1  0.94892000  0.89326000  0.44401000  1.0
  C  C105  1  0.55107000  0.10674000  0.94401000  1.0
  C  C106  1  0.05108000  0.39326000  0.05599000  1.0
  C  C107  1  0.44892000  0.60674000  0.55599000  1.0
  C  C108  1  0.27109000  0.99793000  0.17566000  1.0
  C  C109  1  0.22891000  0.00207000  0.67566000  1.0
  C  C110  1  0.72891000  0.49793000  0.32434000  1.0
  C  C111  1  0.77109000  0.50207000  0.82434000  1.0
  C  C112  1  0.16946000  0.87320000  0.11815000  1.0
  C  C113  1  0.33054000  0.12680000  0.61815000  1.0
  C  C114  1  0.83053000  0.37320000  0.38185000  1.0
  C  C115  1  0.66947000  0.62680000  0.88185000  1.0
  C  C116  1  0.87245000  0.86952000  0.51020000  1.0
  C  C117  1  0.62755000  0.13048000  0.01019000  1.0
  C  C118  1  0.12755000  0.36952000  0.98981000  1.0
  C  C119  1  0.37245000  0.63048000  0.48981000  1.0
  C  C120  1  0.90358000  0.72488000  0.47571000  1.0
  C  C121  1  0.59642000  0.27512000  0.97571000  1.0
  C  C122  1  0.09642000  0.22488000  0.02429000  1.0
  C  C123  1  0.40358000  0.77512000  0.52429000  1.0
  C  C124  1  0.85020000  0.78524000  0.52628000  1.0
  C  C125  1  0.64979000  0.21476000  0.02628000  1.0
  C  C126  1  0.14979000  0.28524000  0.97372000  1.0
  C  C127  1  0.35021000  0.71476000  0.47372000  1.0
  C  C128  1  0.30762000  0.02887000  0.10372000  1.0
  C  C129  1  0.19238000  0.97113000  0.60372000  1.0
  C  C130  1  0.69237000  0.52887000  0.39628000  1.0
  C  C131  1  0.80763000  0.47113000  0.89628000  1.0
  C  C132  1  0.61079000  0.80650000  0.33117000  1.0
  C  C133  1  0.88921000  0.19349000  0.83117000  1.0
  C  C134  1  0.38921000  0.30650000  0.16883000  1.0
  C  C135  1  0.11079000  0.69349000  0.66883000  1.0
  C  C136  1  0.27402000  0.98242000  0.03882000  1.0
  C  C137  1  0.22599000  0.01757000  0.53882000  1.0
  C  C138  1  0.72598000  0.48242000  0.46118000  1.0
  C  C139  1  0.77402000  0.51758000  0.96118000  1.0
  C  C140  1  0.57274000  0.96482000  0.38734000  1.0
  C  C141  1  0.92726000  0.03517000  0.88734000  1.0
  C  C142  1  0.42726000  0.46482000  0.11266000  1.0
  C  C143  1  0.07273000  0.53517000  0.61266000  1.0
  C  C144  1  0.20690000  0.90395000  0.04632000  1.0
  C  C145  1  0.29310000  0.09605000  0.54632000  1.0
  C  C146  1  0.79309000  0.40395000  0.45368000  1.0
  C  C147  1  0.70691000  0.59605000  0.95368000  1.0
  S  S148  1  0.49131000  0.89583000  0.31858000  1.0
  S  S149  1  0.00869000  0.10417000  0.81858000  1.0
  S  S150  1  0.50869000  0.39583000  0.18141000  1.0
  S  S151  1  0.99131000  0.60417000  0.68141000  1.0
  Cl  Cl152  1  0.64626000  0.07415000  0.21613000  1.0
  Cl  Cl153  1  0.85374000  0.92585000  0.71613000  1.0
  Cl  Cl154  1  0.35374000  0.57415000  0.28387000  1.0
  Cl  Cl155  1  0.14626000  0.42585000  0.78387000  1.0
  Cl  Cl156  1  0.30042000  0.17903000  0.34135000  1.0
  Cl  Cl157  1  0.19959000  0.82097000  0.84135000  1.0
  Cl  Cl158  1  0.69958000  0.67903000  0.15865000  1.0
  Cl  Cl159  1  0.80042000  0.32097000  0.65865000  1.0
  O  O160  1  0.33754000  0.87162000  0.35549000  1.0
  O  O161  1  0.16246000  0.12838000  0.85549000  1.0
  O  O162  1  0.66246000  0.37162000  0.14451000  1.0
  O  O163  1  0.83754000  0.62838000  0.64451000  1.0
  O  O164  1  0.15713000  0.00916000  0.33968000  1.0
  O  O165  1  0.34287000  0.99084000  0.83968000  1.0
  O  O166  1  0.84287000  0.50916000  0.16032000  1.0
  O  O167  1  0.65713000  0.49084000  0.66032000  1.0
  O  O168  1  0.05789000  0.28846000  0.27257000  1.0
  O  O169  1  0.44211000  0.71154000  0.77257000  1.0
  O  O170  1  0.94211000  0.78846000  0.22744000  1.0
  O  O171  1  0.55789000  0.21154000  0.72743000  1.0
  O  O172  1  0.77744000  0.24553000  0.23136000  1.0
  O  O173  1  0.72256000  0.75447000  0.73136000  1.0
  O  O174  1  0.22256000  0.74553000  0.26864000  1.0
  O  O175  1  0.27744000  0.25447000  0.76864000  1.0
  O  O176  1  0.89918000  0.96301000  0.27293000  1.0
  O  O177  1  0.60083000  0.03699000  0.77293000  1.0
  O  O178  1  0.10083000  0.46301000  0.22707000  1.0
  O  O179  1  0.39917000  0.53699000  0.72707000  1.0
