# generated using pymatgen
data_ZnPH12C6N3Cl2O
_symmetry_space_group_name_H-M   'P 1'
_cell_length_a   7.03336000
_cell_length_b   7.23890000
_cell_length_c   20.92560000
_cell_angle_alpha   90.00000000
_cell_angle_beta   90.00000000
_cell_angle_gamma   101.96000000
_symmetry_Int_Tables_number   1
_chemical_formula_structural   ZnPH12C6N3Cl2O
_chemical_formula_sum   'Zn4 P4 H48 C24 N12 Cl8 O4'
_cell_volume   1042.27440553
_cell_formula_units_Z   4
loop_
 _symmetry_equiv_pos_site_id
 _symmetry_equiv_pos_as_xyz
  1  'x, y, z'
loop_
 _atom_site_type_symbol
 _atom_site_label
 _atom_site_symmetry_multiplicity
 _atom_site_fract_x
 _atom_site_fract_y
 _atom_site_fract_z
 _atom_site_occupancy
  Zn  Zn0  1  0.59519000  0.42463000  0.60944000  1.0
  Zn  Zn1  1  0.40481000  0.07537000  0.10944000  1.0
  Zn  Zn2  1  0.40481000  0.57537000  0.39056000  1.0
  Zn  Zn3  1  0.59519000  0.92463000  0.89056000  1.0
  P  P4  1  0.93419000  0.19823000  0.64907000  1.0
  P  P5  1  0.06580000  0.30177000  0.14907000  1.0
  P  P6  1  0.06580000  0.80177000  0.35093000  1.0
  P  P7  1  0.93420000  0.69823000  0.85093000  1.0
  H  H8  1  0.16428000  0.44349000  0.59414000  1.0
  H  H9  1  0.83572000  0.05651000  0.09414000  1.0
  H  H10  1  0.83572000  0.55651000  0.40586000  1.0
  H  H11  1  0.16428000  0.94349000  0.90586000  1.0
  H  H12  1  0.21170000  0.44339000  0.67813000  1.0
  H  H13  1  0.78829000  0.05661000  0.17813000  1.0
  H  H14  1  0.78829000  0.55661000  0.32187000  1.0
  H  H15  1  0.21171000  0.94339000  0.82187000  1.0
  H  H16  1  0.03035000  0.13393000  0.75575000  1.0
  H  H17  1  0.96965000  0.36607000  0.25575000  1.0
  H  H18  1  0.96965000  0.86607000  0.24425000  1.0
  H  H19  1  0.03035000  0.63393000  0.74425000  1.0
  H  H20  1  0.86714000  0.93409000  0.72322000  1.0
  H  H21  1  0.13286000  0.56591000  0.22322000  1.0
  H  H22  1  0.13286000  0.06590000  0.27678000  1.0
  H  H23  1  0.86714000  0.43409000  0.77678000  1.0
  H  H24  1  0.78838000  0.93008000  0.58365000  1.0
  H  H25  1  0.21162000  0.56992000  0.08365000  1.0
  H  H26  1  0.21162000  0.06992000  0.41635000  1.0
  H  H27  1  0.78838000  0.43008000  0.91635000  1.0
  H  H28  1  0.90210000  0.12763000  0.53569000  1.0
  H  H29  1  0.09790000  0.37237000  0.03569000  1.0
  H  H30  1  0.09790000  0.87237000  0.46431000  1.0
  H  H31  1  0.90210000  0.62763000  0.96431000  1.0
  H  H32  1  0.45813000  0.04608000  0.67383000  1.0
  H  H33  1  0.54188000  0.45392000  0.17383000  1.0
  H  H34  1  0.54188000  0.95392000  0.32618000  1.0
  H  H35  1  0.45812000  0.54608000  0.82618000  1.0
  H  H36  1  0.36589000  0.20468000  0.72455000  1.0
  H  H37  1  0.63411000  0.29532000  0.22455000  1.0
  H  H38  1  0.63411000  0.79532000  0.27545000  1.0
  H  H39  1  0.36589000  0.70468000  0.77545000  1.0
  H  H40  1  0.25175000  0.20606000  0.52700000  1.0
  H  H41  1  0.74825000  0.29394000  0.02700000  1.0
  H  H42  1  0.74825000  0.79394000  0.47300000  1.0
  H  H43  1  0.25175000  0.70606000  0.97300000  1.0
  H  H44  1  0.39195000  0.04570000  0.55792000  1.0
  H  H45  1  0.60806000  0.45430000  0.05792000  1.0
  H  H46  1  0.60805000  0.95430000  0.44208000  1.0
  H  H47  1  0.39194000  0.54571000  0.94208000  1.0
  H  H48  1  0.24044000  0.78643000  0.62417000  1.0
  H  H49  1  0.75956000  0.71357000  0.12417000  1.0
  H  H50  1  0.75956000  0.21357000  0.37583000  1.0
  H  H51  1  0.24044000  0.28643000  0.87583000  1.0
  H  H52  1  0.98351000  0.74968000  0.63992000  1.0
  H  H53  1  0.01649000  0.75032000  0.13992000  1.0
  H  H54  1  0.01649000  0.25032000  0.36008000  1.0
  H  H55  1  0.98351000  0.24968000  0.86008000  1.0
  C  C56  1  0.17072000  0.35324000  0.63605000  1.0
  C  C57  1  0.82927000  0.14676000  0.13605000  1.0
  C  C58  1  0.82927000  0.64676000  0.36395000  1.0
  C  C59  1  0.17072000  0.85324000  0.86395000  1.0
  C  C60  1  0.99270000  0.04779000  0.71253000  1.0
  C  C61  1  0.00730000  0.45221000  0.21253000  1.0
  C  C62  1  0.00730000  0.95221000  0.28747000  1.0
  C  C63  1  0.99270000  0.54779000  0.78747000  1.0
  C  C64  1  0.91607000  0.04626000  0.57918000  1.0
  C  C65  1  0.08393000  0.45374000  0.07918000  1.0
  C  C66  1  0.08392000  0.95374000  0.42082000  1.0
  C  C67  1  0.91607000  0.54626000  0.92082000  1.0
  C  C68  1  0.33517000  0.11461000  0.68207000  1.0
  C  C69  1  0.66483000  0.38539000  0.18207000  1.0
  C  C70  1  0.66483000  0.88539000  0.31793000  1.0
  C  C71  1  0.33517000  0.61461000  0.81793000  1.0
  C  C72  1  0.26934000  0.11441000  0.56741000  1.0
  C  C73  1  0.73066000  0.38559000  0.06741000  1.0
  C  C74  1  0.73066000  0.88559000  0.43259000  1.0
  C  C75  1  0.26934000  0.61442000  0.93260000  1.0
  C  C76  1  0.11794000  0.85587000  0.63290000  1.0
  C  C77  1  0.88206000  0.64413000  0.13290000  1.0
  C  C78  1  0.88206000  0.14413000  0.36710000  1.0
  C  C79  1  0.11794000  0.35587000  0.86710000  1.0
  N  N80  1  0.32291000  0.23933000  0.62503000  1.0
  N  N81  1  0.67709000  0.26067000  0.12503000  1.0
  N  N82  1  0.67709000  0.76067000  0.37497000  1.0
  N  N83  1  0.32291000  0.73933000  0.87497000  1.0
  N  N84  1  0.16097000  0.96906000  0.69183000  1.0
  N  N85  1  0.83903000  0.53094000  0.19183000  1.0
  N  N86  1  0.83903000  0.03094000  0.30817000  1.0
  N  N87  1  0.16097000  0.46906000  0.80817000  1.0
  N  N88  1  0.09508000  0.96982000  0.57665000  1.0
  N  N89  1  0.90492000  0.53018000  0.07665000  1.0
  N  N90  1  0.90492000  0.03018000  0.42335000  1.0
  N  N91  1  0.09508000  0.46982000  0.92335000  1.0
  Cl  Cl92  1  0.71303000  0.40254000  0.51194000  1.0
  Cl  Cl93  1  0.28697000  0.09746000  0.01194000  1.0
  Cl  Cl94  1  0.28697000  0.59746000  0.48806000  1.0
  Cl  Cl95  1  0.71303000  0.90254000  0.98806000  1.0
  Cl  Cl96  1  0.57750000  0.68914000  0.66195000  1.0
  Cl  Cl97  1  0.42250000  0.81086000  0.16195000  1.0
  Cl  Cl98  1  0.42250000  0.31086000  0.33805000  1.0
  Cl  Cl99  1  0.57750000  0.18914000  0.83805000  1.0
  O  O100  1  0.77061000  0.29927000  0.66467000  1.0
  O  O101  1  0.22938000  0.20073000  0.16467000  1.0
  O  O102  1  0.22938000  0.70073000  0.33533000  1.0
  O  O103  1  0.77061000  0.79927000  0.83533000  1.0
