# generated using pymatgen
data_NiH26(C9N2)4
_symmetry_space_group_name_H-M   'P 1'
_cell_length_a   9.28407000
_cell_length_b   12.98150000
_cell_length_c   16.23080000
_cell_angle_alpha   74.49700000
_cell_angle_beta   89.99930000
_cell_angle_gamma   69.06000000
_symmetry_Int_Tables_number   1
_chemical_formula_structural   NiH26(C9N2)4
_chemical_formula_sum   'Ni2 H52 C72 N16'
_cell_volume   1750.54684153
_cell_formula_units_Z   2
loop_
 _symmetry_equiv_pos_site_id
 _symmetry_equiv_pos_as_xyz
  1  'x, y, z'
loop_
 _atom_site_type_symbol
 _atom_site_label
 _atom_site_symmetry_multiplicity
 _atom_site_fract_x
 _atom_site_fract_y
 _atom_site_fract_z
 _atom_site_occupancy
  Ni  Ni0  1  0.90479000  0.05592000  0.39258000  1.0
  Ni  Ni1  1  0.03914000  0.05610000  0.89249000  1.0
  H  H2  1  0.78907000  0.02014000  0.22021000  1.0
  H  H3  1  0.77546000  0.81921000  0.20576000  1.0
  H  H4  1  0.84331000  0.67375000  0.36817000  1.0
  H  H5  1  0.95874000  0.72418000  0.67908000  1.0
  H  H6  1  0.00217000  0.89562000  0.72850000  1.0
  H  H7  1  0.97693000  0.06414000  0.58104000  1.0
  H  H8  1  0.65760000  0.71267000  0.50670000  1.0
  H  H9  1  0.66016000  0.51857000  0.58087000  1.0
  H  H10  1  0.15479000  0.39637000  0.64489000  1.0
  H  H11  1  0.14836000  0.59332000  0.57714000  1.0
  H  H12  1  0.10178000  0.27071000  0.75404000  1.0
  H  H13  1  0.78648000  0.12051000  0.70953000  1.0
  H  H14  1  0.71481000  0.32966000  0.58568000  1.0
  H  H15  1  0.57542000  0.03574000  0.38323000  1.0
  H  H16  1  0.30099000  0.22371000  0.34399000  1.0
  H  H17  1  0.37189000  0.40132000  0.35843000  1.0
  H  H18  1  0.91096000  0.44090000  0.44489000  1.0
  H  H19  1  0.20477000  0.28561000  0.49308000  1.0
  H  H20  1  0.20129000  0.08519000  0.47183000  1.0
  H  H21  1  0.47874000  0.42329000  0.49888000  1.0
  H  H22  1  0.33040000  0.62889000  0.48628000  1.0
  H  H23  1  0.56913000  0.72720000  0.26930000  1.0
  H  H24  1  0.72704000  0.52120000  0.28720000  1.0
  H  H25  1  0.13552000  0.79484000  0.41040000  1.0
  H  H26  1  0.25708000  0.08538000  0.32447000  1.0
  H  H27  1  0.50935000  0.89231000  0.31849000  1.0
  H  H28  1  0.19017000  0.01992000  0.72011000  1.0
  H  H29  1  0.40480000  0.81905000  0.70575000  1.0
  H  H30  1  0.48285000  0.67383000  0.86825000  1.0
  H  H31  1  0.31639000  0.72447000  0.17914000  1.0
  H  H32  1  0.10186000  0.89627000  0.22836000  1.0
  H  H33  1  0.95917000  0.06474000  0.08070000  1.0
  H  H34  1  0.62961000  0.71324000  0.00693000  1.0
  H  H35  1  0.82137000  0.51912000  0.08088000  1.0
  H  H36  1  0.44930000  0.39630000  0.14457000  1.0
  H  H37  1  0.25855000  0.59320000  0.07690000  1.0
  H  H38  1  0.62756000  0.27106000  0.25393000  1.0
  H  H39  1  0.09291000  0.12053000  0.20950000  1.0
  H  H40  1  0.95599000  0.32981000  0.08569000  1.0
  H  H41  1  0.38860000  0.03603000  0.88280000  1.0
  H  H42  1  0.47515000  0.22400000  0.84341000  1.0
  H  H43  1  0.22680000  0.40160000  0.85808000  1.0
  H  H44  1  0.64808000  0.44103000  0.94482000  1.0
  H  H45  1  0.50979000  0.28576000  0.99304000  1.0
  H  H46  1  0.71390000  0.08514000  0.97249000  1.0
  H  H47  1  0.09880000  0.42366000  0.99864000  1.0
  H  H48  1  0.04113000  0.62933000  0.98591000  1.0
  H  H49  1  0.70286000  0.72706000  0.76970000  1.0
  H  H50  1  0.75117000  0.52107000  0.78779000  1.0
  H  H51  1  0.06863000  0.79532000  0.91103000  1.0
  H  H52  1  0.65708000  0.08578000  0.82352000  1.0
  H  H53  1  0.59814000  0.89256000  0.81766000  1.0
  C  C54  1  0.80780000  0.94183000  0.27159000  1.0
  C  C55  1  0.80015000  0.83688000  0.26488000  1.0
  C  C56  1  0.83546000  0.76246000  0.34778000  1.0
  C  C57  1  0.86176000  0.82516000  0.40291000  1.0
  C  C58  1  0.90001000  0.78382000  0.49290000  1.0
  C  C59  1  0.93421000  0.84314000  0.54579000  1.0
  C  C60  1  0.95897000  0.80541000  0.63833000  1.0
  C  C61  1  0.97948000  0.89306000  0.66369000  1.0
  C  C62  1  0.96768000  0.98153000  0.58670000  1.0
  C  C63  1  0.90309000  0.66635000  0.53587000  1.0
  C  C64  1  0.76651000  0.64336000  0.53717000  1.0
  C  C65  1  0.76785000  0.53422000  0.57840000  1.0
  C  C66  1  0.90761000  0.44473000  0.61668000  1.0
  C  C67  1  0.04528000  0.46587000  0.61581000  1.0
  C  C68  1  0.04156000  0.57635000  0.57672000  1.0
  C  C69  1  0.00701000  0.25573000  0.72720000  1.0
  C  C70  1  0.83928000  0.18396000  0.70254000  1.0
  C  C71  1  0.80084000  0.28781000  0.64099000  1.0
  C  C72  1  0.55660000  0.12350000  0.38249000  1.0
  C  C73  1  0.41532000  0.22102000  0.36134000  1.0
  C  C74  1  0.45117000  0.31279000  0.36992000  1.0
  C  C75  1  0.61485000  0.26848000  0.39569000  1.0
  C  C76  1  0.70407000  0.33395000  0.40342000  1.0
  C  C77  1  0.86631000  0.29222000  0.41953000  1.0
  C  C78  1  0.95570000  0.35185000  0.44386000  1.0
  C  C79  1  0.10509000  0.27230000  0.46981000  1.0
  C  C80  1  0.10445000  0.16729000  0.45833000  1.0
  C  C81  1  0.61563000  0.45757000  0.39504000  1.0
  C  C82  1  0.50055000  0.48993000  0.44939000  1.0
  C  C83  1  0.41532000  0.60518000  0.44165000  1.0
  C  C84  1  0.44042000  0.69088000  0.37689000  1.0
  C  C85  1  0.55233000  0.66051000  0.32098000  1.0
  C  C86  1  0.64040000  0.54482000  0.33109000  1.0
  C  C87  1  0.20122000  0.84922000  0.38823000  1.0
  C  C88  1  0.26842000  0.99618000  0.34166000  1.0
  C  C89  1  0.39450000  0.90197000  0.33796000  1.0
  C  C90  1  0.24983000  0.94168000  0.77152000  1.0
  C  C91  1  0.36246000  0.83674000  0.76487000  1.0
  C  C92  1  0.40181000  0.76246000  0.84781000  1.0
  C  C93  1  0.31280000  0.82520000  0.90293000  1.0
  C  C94  1  0.31598000  0.78400000  0.99292000  1.0
  C  C95  1  0.22237000  0.84327000  0.04579000  1.0
  C  C96  1  0.23511000  0.80572000  0.13833000  1.0
  C  C97  1  0.12710000  0.89356000  0.16357000  1.0
  C  C98  1  0.05072000  0.98198000  0.08649000  1.0
  C  C99  1  0.43060000  0.66657000  0.03590000  1.0
  C  C100  1  0.59010000  0.64384000  0.03734000  1.0
  C  C101  1  0.69804000  0.53470000  0.07847000  1.0
  C  C102  1  0.64791000  0.44507000  0.11660000  1.0
  C  C103  1  0.48916000  0.46595000  0.11561000  1.0
  C  C104  1  0.38228000  0.57640000  0.07658000  1.0
  C  C105  1  0.73732000  0.25605000  0.22709000  1.0
  C  C106  1  0.97680000  0.18415000  0.20255000  1.0
  C  C107  1  0.91163000  0.28803000  0.14098000  1.0
  C  C108  1  0.31979000  0.12374000  0.88216000  1.0
  C  C109  1  0.36355000  0.22129000  0.86091000  1.0
  C  C110  1  0.23610000  0.31301000  0.86972000  1.0
  C  C111  1  0.11690000  0.26860000  0.89576000  1.0
  C  C112  1  0.96220000  0.33407000  0.90351000  1.0
  C  C113  1  0.84161000  0.29234000  0.91943000  1.0
  C  C114  1  0.69253000  0.35199000  0.94375000  1.0
  C  C115  1  0.62278000  0.27238000  0.96976000  1.0
  C  C116  1  0.72847000  0.16731000  0.95854000  1.0
  C  C117  1  0.92699000  0.45762000  0.89521000  1.0
  C  C118  1  0.01008000  0.49019000  0.94924000  1.0
  C  C119  1  0.97987000  0.60546000  0.94142000  1.0
  C  C120  1  0.86843000  0.69110000  0.87691000  1.0
  C  C121  1  0.78661000  0.66050000  0.82129000  1.0
  C  C122  1  0.81438000  0.54477000  0.83152000  1.0
  C  C123  1  0.94871000  0.84966000  0.88841000  1.0
  C  C124  1  0.73490000  0.99655000  0.84105000  1.0
  C  C125  1  0.70316000  0.90220000  0.83746000  1.0
  N  N126  1  0.84584000  0.93539000  0.35317000  1.0
  N  N127  1  0.94126000  0.95268000  0.51665000  1.0
  N  N128  1  0.90811000  0.33363000  0.65747000  1.0
  N  N129  1  0.96663000  0.16553000  0.75706000  1.0
  N  N130  1  0.67593000  0.15122000  0.40195000  1.0
  N  N131  1  0.96403000  0.17854000  0.42756000  1.0
  N  N132  1  0.35063000  0.80809000  0.36832000  1.0
  N  N133  1  0.14810000  0.96256000  0.37259000  1.0
  N  N134  1  0.21834000  0.93535000  0.85311000  1.0
  N  N135  1  0.10591000  0.95283000  0.01652000  1.0
  N  N136  1  0.75849000  0.33394000  0.15742000  1.0
  N  N137  1  0.86781000  0.16577000  0.25698000  1.0
  N  N138  1  0.17296000  0.15135000  0.90194000  1.0
  N  N139  1  0.85757000  0.17862000  0.92760000  1.0
  N  N140  1  0.84064000  0.80836000  0.86834000  1.0
  N  N141  1  0.88858000  0.96304000  0.87233000  1.0
