# generated using pymatgen
data_CuH15C15S3IN6
_symmetry_space_group_name_H-M   'P 1'
_cell_length_a   8.75567000
_cell_length_b   8.94849000
_cell_length_c   12.30460000
_cell_angle_alpha   87.43450000
_cell_angle_beta   85.46160000
_cell_angle_gamma   88.68210000
_symmetry_Int_Tables_number   1
_chemical_formula_structural   CuH15C15S3IN6
_chemical_formula_sum   'Cu2 H30 C30 S6 I2 N12'
_cell_volume   959.89639406
_cell_formula_units_Z   2
loop_
 _symmetry_equiv_pos_site_id
 _symmetry_equiv_pos_as_xyz
  1  'x, y, z'
loop_
 _atom_site_type_symbol
 _atom_site_label
 _atom_site_symmetry_multiplicity
 _atom_site_fract_x
 _atom_site_fract_y
 _atom_site_fract_z
 _atom_site_occupancy
  Cu  Cu0  1  0.59712000  0.59077000  0.08884000  1.0
  Cu  Cu1  1  0.40289000  0.40923000  0.91115000  1.0
  H  H2  1  0.04295000  0.24893000  0.19977000  1.0
  H  H3  1  0.95704000  0.75108000  0.80023000  1.0
  H  H4  1  0.34033000  0.80758000  0.13978000  1.0
  H  H5  1  0.65968000  0.19241000  0.86021000  1.0
  H  H6  1  0.98800000  0.02115000  0.12430000  1.0
  H  H7  1  0.01201000  0.97885000  0.87570000  1.0
  H  H8  1  0.11929000  0.89641000  0.05201000  1.0
  H  H9  1  0.88073000  0.10358000  0.94799000  1.0
  H  H10  1  0.56384000  0.23316000  0.14878000  1.0
  H  H11  1  0.43618000  0.76683000  0.85122000  1.0
  H  H12  1  0.87646000  0.38825000  0.06665000  1.0
  H  H13  1  0.12354000  0.61175000  0.93335000  1.0
  H  H14  1  0.31855000  0.08967000  0.16714000  1.0
  H  H15  1  0.68146000  0.91033000  0.83286000  1.0
  H  H16  1  0.96219000  0.26433000  0.40020000  1.0
  H  H17  1  0.03781000  0.73567000  0.59981000  1.0
  H  H18  1  0.64919000  0.58338000  0.51482000  1.0
  H  H19  1  0.35080000  0.41662000  0.48518000  1.0
  H  H20  1  0.46024000  0.66639000  0.51272000  1.0
  H  H21  1  0.53976000  0.33361000  0.48729000  1.0
  H  H22  1  0.21452000  0.60217000  0.37308000  1.0
  H  H23  1  0.78547000  0.39783000  0.62692000  1.0
  H  H24  1  0.94337000  0.65703000  0.32368000  1.0
  H  H25  1  0.05662000  0.34297000  0.67632000  1.0
  H  H26  1  0.85333000  0.92829000  0.32185000  1.0
  H  H27  1  0.14666000  0.07171000  0.67815000  1.0
  H  H28  1  0.51617000  0.93720000  0.38430000  1.0
  H  H29  1  0.48382000  0.06280000  0.61571000  1.0
  H  H30  1  0.58285000  0.11443000  0.42009000  1.0
  H  H31  1  0.41714000  0.88557000  0.57991000  1.0
  C  C32  1  0.94331000  0.31505000  0.22809000  1.0
  C  C33  1  0.05669000  0.68496000  0.77191000  1.0
  C  C34  1  0.70195000  0.48498000  0.29925000  1.0
  C  C35  1  0.29805000  0.51502000  0.70075000  1.0
  C  C36  1  0.70074000  0.89829000  0.09926000  1.0
  C  C37  1  0.29927000  0.10170000  0.90074000  1.0
  C  C38  1  0.43937000  0.88050000  0.13300000  1.0
  C  C39  1  0.56065000  0.11950000  0.86700000  1.0
  C  C40  1  0.00664000  0.95290000  0.05250000  1.0
  C  C41  1  0.99337000  0.04709000  0.94751000  1.0
  C  C42  1  0.56433000  0.11236000  0.13883000  1.0
  C  C43  1  0.43568000  0.88763000  0.86117000  1.0
  C  C44  1  0.85347000  0.39182000  0.15506000  1.0
  C  C45  1  0.14653000  0.60818000  0.84494000  1.0
  C  C46  1  0.42821000  0.03320000  0.14863000  1.0
  C  C47  1  0.57180000  0.96680000  0.85137000  1.0
  C  C48  1  0.89992000  0.32637000  0.33881000  1.0
  C  C49  1  0.10008000  0.67364000  0.66119000  1.0
  C  C50  1  0.53602000  0.57491000  0.48374000  1.0
  C  C51  1  0.46398000  0.42509000  0.51626000  1.0
  C  C52  1  0.20220000  0.96395000  0.39085000  1.0
  C  C53  1  0.79780000  0.03605000  0.60915000  1.0
  C  C54  1  0.16688000  0.71596000  0.37101000  1.0
  C  C55  1  0.83311000  0.28405000  0.62898000  1.0
  C  C56  1  0.01759000  0.74562000  0.34381000  1.0
  C  C57  1  0.98241000  0.25438000  0.65619000  1.0
  C  C58  1  0.96874000  0.89520000  0.34270000  1.0
  C  C59  1  0.03125000  0.10481000  0.65730000  1.0
  C  C60  1  0.49668000  0.02838000  0.44092000  1.0
  C  C61  1  0.50331000  0.97163000  0.55909000  1.0
  S  S62  1  0.55246000  0.60916000  0.33725000  1.0
  S  S63  1  0.44753000  0.39084000  0.66275000  1.0
  S  S64  1  0.87223000  0.80054000  0.06589000  1.0
  S  S65  1  0.12778000  0.19945000  0.93411000  1.0
  S  S66  1  0.31369000  0.11732000  0.41652000  1.0
  S  S67  1  0.68630000  0.88268000  0.58348000  1.0
  I  I68  1  0.69104000  0.51184000  0.88881000  1.0
  I  I69  1  0.30896000  0.48816000  0.11119000  1.0
  N  N70  1  0.73048000  0.47544000  0.18919000  1.0
  N  N71  1  0.26951000  0.52456000  0.81081000  1.0
  N  N72  1  0.57483000  0.81105000  0.10722000  1.0
  N  N73  1  0.42518000  0.18894000  0.89278000  1.0
  N  N74  1  0.78034000  0.41218000  0.37477000  1.0
  N  N75  1  0.21966000  0.58783000  0.62523000  1.0
  N  N76  1  0.70071000  0.04518000  0.11499000  1.0
  N  N77  1  0.29930000  0.95481000  0.88501000  1.0
  N  N78  1  0.26074000  0.82450000  0.39529000  1.0
  N  N79  1  0.73925000  0.17551000  0.60471000  1.0
  N  N80  1  0.05995000  0.00552000  0.36560000  1.0
  N  N81  1  0.94004000  0.99449000  0.63440000  1.0
