# generated using pymatgen
data_ZnH26C34(NO2)2
_symmetry_space_group_name_H-M   'P 1'
_cell_length_a   7.21330000
_cell_length_b   10.89021690
_cell_length_c   19.52440000
_cell_angle_alpha   92.54174698
_cell_angle_beta   90.03960000
_cell_angle_gamma   109.32976671
_symmetry_Int_Tables_number   1
_chemical_formula_structural   ZnH26C34(NO2)2
_chemical_formula_sum   'Zn2 H52 C68 N4 O8'
_cell_volume   1445.65392074
_cell_formula_units_Z   2
loop_
 _symmetry_equiv_pos_site_id
 _symmetry_equiv_pos_as_xyz
  1  'x, y, z'
loop_
 _atom_site_type_symbol
 _atom_site_label
 _atom_site_symmetry_multiplicity
 _atom_site_fract_x
 _atom_site_fract_y
 _atom_site_fract_z
 _atom_site_occupancy
  Zn  Zn0  1  0.90074000  0.99996000  0.24986000  1.0
  Zn  Zn1  1  0.09926000  0.00004000  0.75014000  1.0
  H  H2  1  0.88177000  0.30339000  0.11712000  1.0
  H  H3  1  0.57814000  0.69673000  0.38251000  1.0
  H  H4  1  0.11822000  0.69661000  0.88288000  1.0
  H  H5  1  0.42186000  0.30326000  0.61749000  1.0
  H  H6  1  0.94090000  0.50444000  0.05176000  1.0
  H  H7  1  0.43597000  0.49586000  0.44798000  1.0
  H  H8  1  0.05911000  0.49557000  0.94824000  1.0
  H  H9  1  0.56402000  0.50413000  0.55202000  1.0
  H  H10  1  0.10926000  0.72185000  0.10835000  1.0
  H  H11  1  0.38790000  0.27835000  0.39162000  1.0
  H  H12  1  0.89074000  0.27816000  0.89165000  1.0
  H  H13  1  0.61210000  0.72165000  0.60838000  1.0
  H  H14  1  0.22176000  0.73817000  0.23035000  1.0
  H  H15  1  0.48524000  0.26185000  0.26981000  1.0
  H  H16  1  0.77825000  0.26184000  0.76965000  1.0
  H  H17  1  0.51476000  0.73814000  0.73019000  1.0
  H  H18  1  0.16167000  0.53911000  0.29497000  1.0
  H  H19  1  0.62409000  0.46082000  0.20510000  1.0
  H  H20  1  0.83833000  0.46089000  0.70503000  1.0
  H  H21  1  0.37590000  0.53917000  0.79490000  1.0
  H  H22  1  0.94967000  0.38519000  0.34262000  1.0
  H  H23  1  0.56352000  0.61466000  0.15722000  1.0
  H  H24  1  0.05033000  0.61481000  0.65738000  1.0
  H  H25  1  0.43647000  0.38534000  0.84278000  1.0
  H  H26  1  0.79605000  0.37073000  0.43602000  1.0
  H  H27  1  0.42474000  0.62909000  0.06363000  1.0
  H  H28  1  0.20397000  0.62928000  0.56398000  1.0
  H  H29  1  0.57526000  0.37091000  0.93637000  1.0
  H  H30  1  0.81011000  0.41797000  0.56134000  1.0
  H  H31  1  0.39157000  0.58182000  0.93833000  1.0
  H  H32  1  0.18990000  0.58203000  0.43866000  1.0
  H  H33  1  0.60843000  0.41817000  0.06167000  1.0
  H  H34  1  0.96550000  0.30192000  0.63874000  1.0
  H  H35  1  0.66291000  0.69774000  0.86100000  1.0
  H  H36  1  0.03450000  0.69808000  0.36126000  1.0
  H  H37  1  0.33710000  0.30226000  0.13900000  1.0
  H  H38  1  0.10077000  0.13628000  0.59012000  1.0
  H  H39  1  0.96388000  0.86336000  0.90974000  1.0
  H  H40  1  0.89922000  0.86371000  0.40988000  1.0
  H  H41  1  0.03611000  0.13664000  0.09026000  1.0
  H  H42  1  0.08571000  0.08805000  0.46344000  1.0
  H  H43  1  0.99709000  0.91157000  0.03640000  1.0
  H  H44  1  0.91429000  0.91195000  0.53656000  1.0
  H  H45  1  0.00291000  0.08843000  0.96360000  1.0
  H  H46  1  0.22891000  0.01957000  0.14489000  1.0
  H  H47  1  0.20994000  0.98013000  0.35512000  1.0
  H  H48  1  0.77108000  0.98043000  0.85511000  1.0
  H  H49  1  0.79006000  0.01988000  0.64488000  1.0
  H  H50  1  0.58636000  0.02431000  0.14527000  1.0
  H  H51  1  0.56282000  0.97563000  0.35458000  1.0
  H  H52  1  0.41363000  0.97569000  0.85474000  1.0
  H  H53  1  0.43716000  0.02437000  0.64542000  1.0
  C  C54  1  0.95428000  0.39927000  0.14169000  1.0
  C  C55  1  0.55517000  0.60080000  0.35808000  1.0
  C  C56  1  0.04572000  0.60073000  0.85831000  1.0
  C  C57  1  0.44484000  0.39920000  0.64192000  1.0
  C  C58  1  0.98858000  0.51172000  0.10523000  1.0
  C  C59  1  0.47691000  0.48846000  0.39459000  1.0
  C  C60  1  0.01143000  0.48829000  0.89477000  1.0
  C  C61  1  0.52310000  0.51154000  0.60541000  1.0
  C  C62  1  0.08349000  0.63421000  0.13699000  1.0
  C  C63  1  0.44987000  0.36594000  0.36297000  1.0
  C  C64  1  0.91653000  0.36580000  0.86301000  1.0
  C  C65  1  0.55014000  0.63406000  0.63703000  1.0
  C  C66  1  0.14467000  0.64342000  0.20545000  1.0
  C  C67  1  0.50250000  0.35661000  0.29461000  1.0
  C  C68  1  0.85533000  0.35658000  0.79455000  1.0
  C  C69  1  0.49750000  0.64339000  0.70539000  1.0
  C  C70  1  0.10870000  0.53129000  0.24217000  1.0
  C  C71  1  0.57869000  0.46865000  0.25784000  1.0
  C  C72  1  0.89131000  0.46872000  0.75783000  1.0
  C  C73  1  0.42131000  0.53134000  0.74216000  1.0
  C  C74  1  0.01278000  0.40789000  0.21083000  1.0
  C  C75  1  0.60553000  0.59207000  0.28904000  1.0
  C  C76  1  0.98722000  0.59211000  0.78917000  1.0
  C  C77  1  0.39447000  0.40793000  0.71096000  1.0
  C  C78  1  0.97759000  0.28617000  0.24864000  1.0
  C  C79  1  0.69165000  0.71369000  0.25112000  1.0
  C  C80  1  0.02240000  0.71383000  0.75136000  1.0
  C  C81  1  0.30835000  0.28631000  0.74887000  1.0
  C  C82  1  0.95034000  0.29233000  0.32013000  1.0
  C  C83  1  0.65747000  0.70746000  0.17967000  1.0
  C  C84  1  0.04965000  0.70767000  0.67987000  1.0
  C  C85  1  0.34252000  0.29253000  0.82033000  1.0
  C  C86  1  0.94203000  0.19463000  0.36594000  1.0
  C  C87  1  0.74703000  0.80506000  0.13382000  1.0
  C  C88  1  0.05798000  0.80538000  0.63406000  1.0
  C  C89  1  0.25298000  0.19494000  0.86617000  1.0
  C  C90  1  0.94278000  0.22672000  0.44114000  1.0
  C  C91  1  0.71554000  0.77295000  0.05863000  1.0
  C  C92  1  0.05722000  0.77328000  0.55886000  1.0
  C  C93  1  0.28446000  0.22704000  0.94137000  1.0
  C  C94  1  0.86446000  0.31955000  0.46926000  1.0
  C  C95  1  0.54435000  0.68022000  0.03043000  1.0
  C  C96  1  0.13555000  0.68045000  0.53074000  1.0
  C  C97  1  0.45564000  0.31977000  0.96957000  1.0
  C  C98  1  0.87076000  0.34543000  0.54008000  1.0
  C  C99  1  0.52478000  0.65433000  0.95962000  1.0
  C  C100  1  0.12926000  0.65458000  0.45992000  1.0
  C  C101  1  0.47522000  0.34566000  0.04038000  1.0
  C  C102  1  0.95633000  0.28014000  0.58353000  1.0
  C  C103  1  0.67562000  0.71953000  0.91621000  1.0
  C  C104  1  0.04367000  0.71986000  0.41647000  1.0
  C  C105  1  0.32437000  0.28046000  0.08379000  1.0
  C  C106  1  0.03411000  0.18713000  0.55603000  1.0
  C  C107  1  0.84639000  0.81252000  0.94378000  1.0
  C  C108  1  0.96590000  0.81287000  0.44397000  1.0
  C  C109  1  0.15361000  0.18748000  0.05622000  1.0
  C  C110  1  0.02628000  0.16055000  0.48549000  1.0
  C  C111  1  0.86517000  0.83909000  0.01432000  1.0
  C  C112  1  0.97372000  0.83945000  0.51451000  1.0
  C  C113  1  0.13484000  0.16091000  0.98568000  1.0
  C  C114  1  0.30581000  0.01142000  0.19163000  1.0
  C  C115  1  0.29467000  0.98833000  0.30834000  1.0
  C  C116  1  0.69419000  0.98858000  0.80837000  1.0
  C  C117  1  0.70532000  0.01167000  0.69166000  1.0
  C  C118  1  0.49976000  0.01295000  0.19179000  1.0
  C  C119  1  0.48713000  0.98687000  0.30810000  1.0
  C  C120  1  0.50024000  0.98705000  0.80821000  1.0
  C  C121  1  0.51286000  0.01313000  0.69190000  1.0
  N  N122  1  0.20489000  0.99988000  0.25000000  1.0
  N  N123  1  0.79511000  0.00012000  0.75000000  1.0
  N  N124  1  0.58879000  0.99994000  0.24992000  1.0
  N  N125  1  0.41122000  0.00007000  0.75008000  1.0
  O  O126  1  0.97653000  0.18480000  0.21229000  1.0
  O  O127  1  0.79233000  0.81508000  0.28739000  1.0
  O  O128  1  0.02346000  0.81520000  0.78771000  1.0
  O  O129  1  0.20768000  0.18492000  0.71261000  1.0
  O  O130  1  0.94201000  0.07895000  0.34919000  1.0
  O  O131  1  0.86307000  0.92062000  0.15058000  1.0
  O  O132  1  0.05799000  0.92105000  0.65081000  1.0
  O  O133  1  0.13692000  0.07937000  0.84942000  1.0
