# generated using pymatgen
data_MoPH14C7O4
_symmetry_space_group_name_H-M   'P 1'
_cell_length_a   7.51968000
_cell_length_b   8.34821000
_cell_length_c   9.56872000
_cell_angle_alpha   69.01700000
_cell_angle_beta   69.77900000
_cell_angle_gamma   78.36640000
_symmetry_Int_Tables_number   1
_chemical_formula_structural   MoPH14C7O4
_chemical_formula_sum   'Mo2 P2 H28 C14 O8'
_cell_volume   524.20066916
_cell_formula_units_Z   2
loop_
 _symmetry_equiv_pos_site_id
 _symmetry_equiv_pos_as_xyz
  1  'x, y, z'
loop_
 _atom_site_type_symbol
 _atom_site_label
 _atom_site_symmetry_multiplicity
 _atom_site_fract_x
 _atom_site_fract_y
 _atom_site_fract_z
 _atom_site_occupancy
  Mo  Mo0  1  0.03915000  0.92008000  0.60230000  1.0
  Mo  Mo1  1  0.96087000  0.07995000  0.39768000  1.0
  P  P2  1  0.84539000  0.26012000  0.10623000  1.0
  P  P3  1  0.15460000  0.73988000  0.89377000  1.0
  H  H4  1  0.54018000  0.89153000  0.09248000  1.0
  H  H5  1  0.45981000  0.10845000  0.90751000  1.0
  H  H6  1  0.64150000  0.85048000  0.24815000  1.0
  H  H7  1  0.35852000  0.14949000  0.75181000  1.0
  H  H8  1  0.52868000  0.68746000  0.24182000  1.0
  H  H9  1  0.47130000  0.31252000  0.75819000  1.0
  H  H10  1  0.74476000  0.47429000  0.62225000  1.0
  H  H11  1  0.25526000  0.52574000  0.37777000  1.0
  H  H12  1  0.84343000  0.53139000  0.41580000  1.0
  H  H13  1  0.15660000  0.46861000  0.58422000  1.0
  H  H14  1  0.60998000  0.61881000  0.49716000  1.0
  H  H15  1  0.39004000  0.38119000  0.50285000  1.0
  H  H16  1  0.15251000  0.47332000  0.85180000  1.0
  H  H17  1  0.84747000  0.52667000  0.14820000  1.0
  H  H18  1  0.19180000  0.43083000  0.03519000  1.0
  H  H19  1  0.80817000  0.56918000  0.96481000  1.0
  H  H20  1  0.17522000  0.67014000  0.16047000  1.0
  H  H21  1  0.82474000  0.32987000  0.83953000  1.0
  H  H22  1  0.16303000  0.89709000  0.06249000  1.0
  H  H23  1  0.83694000  0.10293000  0.93750000  1.0
  H  H24  1  0.95513000  0.78909000  0.14045000  1.0
  H  H25  1  0.04483000  0.21092000  0.85953000  1.0
  H  H26  1  0.47123000  0.84057000  0.79131000  1.0
  H  H27  1  0.52882000  0.15934000  0.20874000  1.0
  H  H28  1  0.47665000  0.62331000  0.91668000  1.0
  H  H29  1  0.52329000  0.37662000  0.08339000  1.0
  H  H30  1  0.46072000  0.67355000  0.72268000  1.0
  H  H31  1  0.53929000  0.32637000  0.27737000  1.0
  C  C32  1  0.33819000  0.88891000  0.31717000  1.0
  C  C33  1  0.66183000  0.11111000  0.68280000  1.0
  C  C34  1  0.52295000  0.82717000  0.21749000  1.0
  C  C35  1  0.47705000  0.17282000  0.78249000  1.0
  C  C36  1  0.83413000  0.72953000  0.51165000  1.0
  C  C37  1  0.16590000  0.27051000  0.48834000  1.0
  C  C38  1  0.75203000  0.57969000  0.51262000  1.0
  C  C39  1  0.24799000  0.42033000  0.48739000  1.0
  C  C40  1  0.89446000  0.48797000  0.04151000  1.0
  C  C41  1  0.10552000  0.51204000  0.95849000  1.0
  C  C42  1  0.10831000  0.77627000  0.08169000  1.0
  C  C43  1  0.89167000  0.22374000  0.91831000  1.0
  C  C44  1  0.41533000  0.71607000  0.82656000  1.0
  C  C45  1  0.58466000  0.28387000  0.17348000  1.0
  O  O46  1  0.29989000  0.82909000  0.46772000  1.0
  O  O47  1  0.70012000  0.17097000  0.53225000  1.0
  O  O48  1  0.77838000  0.00029000  0.74811000  1.0
  O  O49  1  0.22164000  0.99974000  0.25186000  1.0
  O  O50  1  0.91336000  0.70943000  0.61751000  1.0
  O  O51  1  0.08668000  0.29062000  0.38247000  1.0
  O  O52  1  0.17143000  0.12564000  0.59657000  1.0
  O  O53  1  0.82856000  0.87440000  0.40340000  1.0
