# generated using pymatgen
data_Gd2MnH32(C4O5)4
_symmetry_space_group_name_H-M   'P 1'
_cell_length_a   7.97860000
_cell_length_b   9.85797000
_cell_length_c   11.15600000
_cell_angle_alpha   110.80100000
_cell_angle_beta   107.05800000
_cell_angle_gamma   92.18020000
_symmetry_Int_Tables_number   1
_chemical_formula_structural   Gd2MnH32(C4O5)4
_chemical_formula_sum   'Gd2 Mn1 H32 C16 O20'
_cell_volume   774.18110831
_cell_formula_units_Z   1
loop_
 _symmetry_equiv_pos_site_id
 _symmetry_equiv_pos_as_xyz
  1  'x, y, z'
loop_
 _atom_site_type_symbol
 _atom_site_label
 _atom_site_symmetry_multiplicity
 _atom_site_fract_x
 _atom_site_fract_y
 _atom_site_fract_z
 _atom_site_occupancy
  Gd  Gd0  1  0.90147000  0.57539000  0.15687000  1.0
  Gd  Gd1  1  0.09854000  0.42462000  0.84313000  1.0
  Mn  Mn2  1  0.99999000  0.49999000  0.50000000  1.0
  H  H3  1  0.41823000  0.47414000  0.09265000  1.0
  H  H4  1  0.58177000  0.52587000  0.90735000  1.0
  H  H5  1  0.24209000  0.41582000  0.11071000  1.0
  H  H6  1  0.75791000  0.58419000  0.88929000  1.0
  H  H7  1  0.05940000  0.12281000  0.70395000  1.0
  H  H8  1  0.94060000  0.87720000  0.29606000  1.0
  H  H9  1  0.25260000  0.14277000  0.80779000  1.0
  H  H10  1  0.74741000  0.85724000  0.19222000  1.0
  H  H11  1  0.55619000  0.18471000  0.76386000  1.0
  H  H12  1  0.44380000  0.81529000  0.23613000  1.0
  H  H13  1  0.74823000  0.09864000  0.76398000  1.0
  H  H14  1  0.25178000  0.90137000  0.23602000  1.0
  H  H15  1  0.61141000  0.07170000  0.85961000  1.0
  H  H16  1  0.38859000  0.92831000  0.14040000  1.0
  H  H17  1  0.43451000  0.53519000  0.58425000  1.0
  H  H18  1  0.56548000  0.46480000  0.41575000  1.0
  H  H19  1  0.58050000  0.42922000  0.65725000  1.0
  H  H20  1  0.41950000  0.57077000  0.34275000  1.0
  H  H21  1  0.39192000  0.34216000  0.50682000  1.0
  H  H22  1  0.60807000  0.65783000  0.49318000  1.0
  H  H23  1  0.89868000  0.83893000  0.93112000  1.0
  H  H24  1  0.10132000  0.16107000  0.06887000  1.0
  H  H25  1  0.87951000  0.90201000  0.79554000  1.0
  H  H26  1  0.12049000  0.09799000  0.20445000  1.0
  H  H27  1  0.69308000  0.80002000  0.80097000  1.0
  H  H28  1  0.30692000  0.19998000  0.19903000  1.0
  H  H29  1  0.69659000  0.01473000  0.41761000  1.0
  H  H30  1  0.30342000  0.98525000  0.58239000  1.0
  H  H31  1  0.56129000  0.13173000  0.35482000  1.0
  H  H32  1  0.43871000  0.86826000  0.64518000  1.0
  H  H33  1  0.56980000  0.11741000  0.51223000  1.0
  H  H34  1  0.43020000  0.88258000  0.48777000  1.0
  C  C35  1  0.76898000  0.28554000  0.94536000  1.0
  C  C36  1  0.23103000  0.71447000  0.05464000  1.0
  C  C37  1  0.66666667  0.14956000  0.82599000  1.0
  C  C38  1  0.33338000  0.85045000  0.17401000  1.0
  C  C39  1  0.32578000  0.43052000  0.68659000  1.0
  C  C40  1  0.67422000  0.56948000  0.31341000  1.0
  C  C41  1  0.88521000  0.66991000  0.74038000  1.0
  C  C42  1  0.11478000  0.33009000  0.25961000  1.0
  C  C43  1  0.80237000  0.24440000  0.52211000  1.0
  C  C44  1  0.19763000  0.75559000  0.47790000  1.0
  C  C45  1  0.44313000  0.43492000  0.60541000  1.0
  C  C46  1  0.55687000  0.56507000  0.39459000  1.0
  C  C47  1  0.83776000  0.81244000  0.82188000  1.0
  C  C48  1  0.16224000  0.18756000  0.17811000  1.0
  C  C49  1  0.64698000  0.12023000  0.44604000  1.0
  C  C50  1  0.35302000  0.87975000  0.55396000  1.0
  O  O51  1  0.10064000  0.64021000  0.06261000  1.0
  O  O52  1  0.89936000  0.35979000  0.93739000  1.0
  O  O53  1  0.72341000  0.33182000  0.05039000  1.0
  O  O54  1  0.27660000  0.66818000  0.94961000  1.0
  O  O55  1  0.16784000  0.46157000  0.65425000  1.0
  O  O56  1  0.83216000  0.53843000  0.34575000  1.0
  O  O57  1  0.88035000  0.56247000  0.78119000  1.0
  O  O58  1  0.11965000  0.43753000  0.21881000  1.0
  O  O59  1  0.37778000  0.39505000  0.79060000  1.0
  O  O60  1  0.62222000  0.60496000  0.20941000  1.0
  O  O61  1  0.30436000  0.40590000  0.04285000  1.0
  O  O62  1  0.69563000  0.59411000  0.95716000  1.0
  O  O63  1  0.13086000  0.15813000  0.80057000  1.0
  O  O64  1  0.86914000  0.84187000  0.19945000  1.0
  O  O65  1  0.91020000  0.24445000  0.63333000  1.0
  O  O66  1  0.08980000  0.75554000  0.36667000  1.0
  O  O67  1  0.92287000  0.66274000  0.63605000  1.0
  O  O68  1  0.07713000  0.33725000  0.36394000  1.0
  O  O69  1  0.81291000  0.33879000  0.47056000  1.0
  O  O70  1  0.18709000  0.66120000  0.52944000  1.0
