# generated using pymatgen
data_CuH32C40(N9O4)2
_symmetry_space_group_name_H-M   'P 1'
_cell_length_a   7.94722000
_cell_length_b   8.40057000
_cell_length_c   17.19250000
_cell_angle_alpha   77.45970000
_cell_angle_beta   80.32880000
_cell_angle_gamma   65.51180000
_symmetry_Int_Tables_number   1
_chemical_formula_structural   CuH32C40(N9O4)2
_chemical_formula_sum   'Cu1 H32 C40 N18 O8'
_cell_volume   1015.68728343
_cell_formula_units_Z   1
loop_
 _symmetry_equiv_pos_site_id
 _symmetry_equiv_pos_as_xyz
  1  'x, y, z'
loop_
 _atom_site_type_symbol
 _atom_site_label
 _atom_site_symmetry_multiplicity
 _atom_site_fract_x
 _atom_site_fract_y
 _atom_site_fract_z
 _atom_site_occupancy
  Cu  Cu0  1  0.00000000  0.00000000  0.00000000  1.0
  H  H1  1  0.23550000  0.09157000  0.27043000  1.0
  H  H2  1  0.76450000  0.90843000  0.72957000  1.0
  H  H3  1  0.00616000  0.36420000  0.19936000  1.0
  H  H4  1  0.99384000  0.63580000  0.80064000  1.0
  H  H5  1  0.76126000  0.54652000  0.42346000  1.0
  H  H6  1  0.23874000  0.45348000  0.57654000  1.0
  H  H7  1  0.99175000  0.27328000  0.49572000  1.0
  H  H8  1  0.00824000  0.72672000  0.50428000  1.0
  H  H9  1  0.66080000  0.60992000  0.22262000  1.0
  H  H10  1  0.33919000  0.39009000  0.77738000  1.0
  H  H11  1  0.62792000  0.72249000  0.30402000  1.0
  H  H12  1  0.37208000  0.27752000  0.69598000  1.0
  H  H13  1  0.76219000  0.76156000  0.09306000  1.0
  H  H14  1  0.23781000  0.23844000  0.90694000  1.0
  H  H15  1  0.09148000  0.95342000  0.18394000  1.0
  H  H16  1  0.90852000  0.04658000  0.81606000  1.0
  H  H17  1  0.29207000  0.99032000  0.65403000  1.0
  H  H18  1  0.70792000  0.00968000  0.34597000  1.0
  H  H19  1  0.37294000  0.86114000  0.79200000  1.0
  H  H20  1  0.62706000  0.13886000  0.20800000  1.0
  H  H21  1  0.71096000  0.35468000  0.71881000  1.0
  H  H22  1  0.28905000  0.64531000  0.28119000  1.0
  H  H23  1  0.63448000  0.48549000  0.57947000  1.0
  H  H24  1  0.36552000  0.51451000  0.42053000  1.0
  H  H25  1  0.63348000  0.37136000  0.86103000  1.0
  H  H26  1  0.36653000  0.62864000  0.13897000  1.0
  H  H27  1  0.68118000  0.55625000  0.87173000  1.0
  H  H28  1  0.31882000  0.44376000  0.12827000  1.0
  H  H29  1  0.98946000  0.63990000  0.95436000  1.0
  H  H30  1  0.01053000  0.36011000  0.04563000  1.0
  H  H31  1  0.43882000  0.78728000  0.94917000  1.0
  H  H32  1  0.56118000  0.21272000  0.05083000  1.0
  C  C33  1  0.26025000  0.00279000  0.42836000  1.0
  C  C34  1  0.73975000  0.99721000  0.57164000  1.0
  C  C35  1  0.12661000  0.16399000  0.38780000  1.0
  C  C36  1  0.87339000  0.83600000  0.61221000  1.0
  C  C37  1  0.13040000  0.19028000  0.30394000  1.0
  C  C38  1  0.86959000  0.80971000  0.69606000  1.0
  C  C39  1  0.00226000  0.34397000  0.26439000  1.0
  C  C40  1  0.99774000  0.65603000  0.73561000  1.0
  C  C41  1  0.86924000  0.47315000  0.30705000  1.0
  C  C42  1  0.13076000  0.52685000  0.69295000  1.0
  C  C43  1  0.86657000  0.44694000  0.39035000  1.0
  C  C44  1  0.13343000  0.55306000  0.60965000  1.0
  C  C45  1  0.99416000  0.29339000  0.43076000  1.0
  C  C46  1  0.00584000  0.70660000  0.56924000  1.0
  C  C47  1  0.73250000  0.64022000  0.26295000  1.0
  C  C48  1  0.26750000  0.35978000  0.73705000  1.0
  C  C49  1  0.83473000  0.79309000  0.13179000  1.0
  C  C50  1  0.16527000  0.20691000  0.86821000  1.0
  C  C51  1  0.99927000  0.89040000  0.17999000  1.0
  C  C52  1  0.00073000  0.10960000  0.82001000  1.0
  C  C53  1  0.40902000  0.81762000  0.52608000  1.0
  C  C54  1  0.59098000  0.18238000  0.47392000  1.0
  C  C55  1  0.45946000  0.74630000  0.60731000  1.0
  C  C56  1  0.54055000  0.25369000  0.39269000  1.0
  C  C57  1  0.38529000  0.85162000  0.66774000  1.0
  C  C58  1  0.61471000  0.14838000  0.33226000  1.0
  C  C59  1  0.42968000  0.77742000  0.74582000  1.0
  C  C60  1  0.57031000  0.22258000  0.25418000  1.0
  C  C61  1  0.62141000  0.49450000  0.70476000  1.0
  C  C62  1  0.37859000  0.50550000  0.29524000  1.0
  C  C63  1  0.58029000  0.56781000  0.62614000  1.0
  C  C64  1  0.41971000  0.43219000  0.37386000  1.0
  C  C65  1  0.58173000  0.51654000  0.85194000  1.0
  C  C66  1  0.41828000  0.48346000  0.14806000  1.0
  C  C67  1  0.12831000  0.63995000  0.94404000  1.0
  C  C68  1  0.87169000  0.36006000  0.05596000  1.0
  C  C69  1  0.35126000  0.72203000  0.94176000  1.0
  C  C70  1  0.64874000  0.27797000  0.05824000  1.0
  C  C71  1  0.54462000  0.59801000  0.76557000  1.0
  C  C72  1  0.45538000  0.40199000  0.23443000  1.0
  N  N73  1  0.94319000  0.88506000  0.10991000  1.0
  N  N74  1  0.05681000  0.11494000  0.89009000  1.0
  N  N75  1  0.82826000  0.74600000  0.21162000  1.0
  N  N76  1  0.17175000  0.25399000  0.78838000  1.0
  N  N77  1  0.17204000  0.76246000  0.96771000  1.0
  N  N78  1  0.82796000  0.23754000  0.03229000  1.0
  N  N79  1  0.41072000  0.58152000  0.90416000  1.0
  N  N80  1  0.58929000  0.41848000  0.09584000  1.0
  N  N81  1  0.47637000  0.74375000  0.46176000  1.0
  N  N82  1  0.52364000  0.25625000  0.53823000  1.0
  N  N83  1  0.38053000  0.86253000  0.39880000  1.0
  N  N84  1  0.61947000  0.13746000  0.60120000  1.0
  N  N85  1  0.32838000  0.05727000  0.08911000  1.0
  N  N86  1  0.67162000  0.94274000  0.91089000  1.0
  N  N87  1  0.27031000  0.52793000  0.90452000  1.0
  N  N88  1  0.72969000  0.47207000  0.09547000  1.0
  N  N89  1  0.93187000  0.80648000  0.24339000  1.0
  N  N90  1  0.06814000  0.19352000  0.75661000  1.0
  O  O91  1  0.27100000  0.98339000  0.50919000  1.0
  O  O92  1  0.72901000  0.01661000  0.49081000  1.0
  O  O93  1  0.28733000  0.97708000  0.04484000  1.0
  O  O94  1  0.71267000  0.02292000  0.95516000  1.0
  O  O95  1  0.40524000  0.97269000  0.15241000  1.0
  O  O96  1  0.59476000  0.02732000  0.84758000  1.0
  O  O97  1  0.29045000  0.22280000  0.06869000  1.0
  O  O98  1  0.70955000  0.77720000  0.93131000  1.0
