# generated using pymatgen
data_H6PbC8O7F4
_symmetry_space_group_name_H-M   'P 1'
_cell_length_a   7.38941000
_cell_length_b   8.38903000
_cell_length_c   10.64250000
_cell_angle_alpha   77.88600000
_cell_angle_beta   74.03800000
_cell_angle_gamma   66.78020000
_symmetry_Int_Tables_number   1
_chemical_formula_structural   H6PbC8O7F4
_chemical_formula_sum   'H12 Pb2 C16 O14 F8'
_cell_volume   579.05981827
_cell_formula_units_Z   2
loop_
 _symmetry_equiv_pos_site_id
 _symmetry_equiv_pos_as_xyz
  1  'x, y, z'
loop_
 _atom_site_type_symbol
 _atom_site_label
 _atom_site_symmetry_multiplicity
 _atom_site_fract_x
 _atom_site_fract_y
 _atom_site_fract_z
 _atom_site_occupancy
  H  H0  1  0.07586000  0.13933000  0.76517000  1.0
  H  H1  1  0.92413000  0.86067000  0.23483000  1.0
  H  H2  1  0.97773000  0.22819000  0.63942000  1.0
  H  H3  1  0.02226000  0.77181000  0.36058000  1.0
  H  H4  1  0.23623000  0.53699000  0.47362000  1.0
  H  H5  1  0.76376000  0.46301000  0.52638000  1.0
  H  H6  1  0.34413000  0.61555000  0.34471000  1.0
  H  H7  1  0.65587000  0.38445000  0.65529000  1.0
  H  H8  1  0.63497000  0.61253000  0.36594000  1.0
  H  H9  1  0.36503000  0.38747000  0.63407000  1.0
  H  H10  1  0.73164000  0.73618000  0.39589000  1.0
  H  H11  1  0.26835000  0.26382000  0.60412000  1.0
  Pb  Pb12  1  0.28909000  0.84745000  0.57601000  1.0
  Pb  Pb13  1  0.71091000  0.15255000  0.42399000  1.0
  C  C14  1  0.71750000  0.88228000  0.67396000  1.0
  C  C15  1  0.28250000  0.11772000  0.32604000  1.0
  C  C16  1  0.70321000  0.76474000  0.80187000  1.0
  C  C17  1  0.29679000  0.23526000  0.19813000  1.0
  C  C18  1  0.84455000  0.59666000  0.81396000  1.0
  C  C19  1  0.15546000  0.40334000  0.18604000  1.0
  C  C20  1  0.83525000  0.48376000  0.92956000  1.0
  C  C21  1  0.16475000  0.51624000  0.07044000  1.0
  C  C22  1  0.68462000  0.53660000  0.04235000  1.0
  C  C23  1  0.31539000  0.46340000  0.95765000  1.0
  C  C24  1  0.54127000  0.70593000  0.02878000  1.0
  C  C25  1  0.45873000  0.29407000  0.97122000  1.0
  C  C26  1  0.54863000  0.81620000  0.91126000  1.0
  C  C27  1  0.45137000  0.18380000  0.08874000  1.0
  C  C28  1  0.68027000  0.41691000  0.17001000  1.0
  C  C29  1  0.31974000  0.58308000  0.82998000  1.0
  O  O30  1  0.87449000  0.91976000  0.62913000  1.0
  O  O31  1  0.12551000  0.08024000  0.37087000  1.0
  O  O32  1  0.56800000  0.93811000  0.61887000  1.0
  O  O33  1  0.43199000  0.06189000  0.38113000  1.0
  O  O34  1  0.10778000  0.15269000  0.66923000  1.0
  O  O35  1  0.89221000  0.84732000  0.33077000  1.0
  O  O36  1  0.22257000  0.65043000  0.41660000  1.0
  O  O37  1  0.77743000  0.34957000  0.58341000  1.0
  O  O38  1  0.64795000  0.66246000  0.43839000  1.0
  O  O39  1  0.35205000  0.33754000  0.56161000  1.0
  O  O40  1  0.76658000  0.25506000  0.16558000  1.0
  O  O41  1  0.23342000  0.74494000  0.83442000  1.0
  O  O42  1  0.58982000  0.48705000  0.27750000  1.0
  O  O43  1  0.41018000  0.51295000  0.72250000  1.0
  F  F44  1  0.99439000  0.53935000  0.70869000  1.0
  F  F45  1  0.00561000  0.46065000  0.29131000  1.0
  F  F46  1  0.98037000  0.32248000  0.92970000  1.0
  F  F47  1  0.01964000  0.67752000  0.07030000  1.0
  F  F48  1  0.38403000  0.76733000  0.12934000  1.0
  F  F49  1  0.61597000  0.23267000  0.87067000  1.0
  F  F50  1  0.40337000  0.97626000  0.90511000  1.0
  F  F51  1  0.59663000  0.02374000  0.09489000  1.0
