# generated using pymatgen
data_CuH38C50S2(N3O2)4
_symmetry_space_group_name_H-M   'P 1'
_cell_length_a   7.94302000
_cell_length_b   9.75875000
_cell_length_c   15.17360000
_cell_angle_alpha   73.72020000
_cell_angle_beta   85.46090000
_cell_angle_gamma   87.12230000
_symmetry_Int_Tables_number   1
_chemical_formula_structural   CuH38C50S2(N3O2)4
_chemical_formula_sum   'Cu1 H38 C50 S2 N12 O8'
_cell_volume   1124.98264328
_cell_formula_units_Z   1
loop_
 _symmetry_equiv_pos_site_id
 _symmetry_equiv_pos_as_xyz
  1  'x, y, z'
loop_
 _atom_site_type_symbol
 _atom_site_label
 _atom_site_symmetry_multiplicity
 _atom_site_fract_x
 _atom_site_fract_y
 _atom_site_fract_z
 _atom_site_occupancy
  Cu  Cu0  1  0.00001000  0.99999000  0.00000000  1.0
  H  H1  1  0.38998000  0.94124000  0.28649000  1.0
  H  H2  1  0.61003000  0.05877000  0.71350000  1.0
  H  H3  1  0.15990000  0.97255000  0.18069000  1.0
  H  H4  1  0.84011000  0.02745000  0.81931000  1.0
  H  H5  1  0.27931000  0.19142000  0.90765000  1.0
  H  H6  1  0.72068000  0.80858000  0.09235000  1.0
  H  H7  1  0.53242000  0.29361000  0.94995000  1.0
  H  H8  1  0.46757000  0.70639000  0.05004000  1.0
  H  H9  1  0.60343000  0.22765000  0.11533000  1.0
  H  H10  1  0.39657000  0.77235000  0.88466000  1.0
  H  H11  1  0.67383000  0.20263000  0.41010000  1.0
  H  H12  1  0.32618000  0.79737000  0.58989000  1.0
  H  H13  1  0.28641000  0.90198000  0.42442000  1.0
  H  H14  1  0.71360000  0.09803000  0.57557000  1.0
  H  H15  1  0.37346000  0.43603000  0.29311000  1.0
  H  H16  1  0.62654000  0.56397000  0.70688000  1.0
  H  H17  1  0.10130000  0.76271000  0.20971000  1.0
  H  H18  1  0.89870000  0.23730000  0.79028000  1.0
  H  H19  1  0.06098000  0.69499000  0.95483000  1.0
  H  H20  1  0.93901000  0.30501000  0.04517000  1.0
  H  H21  1  0.22966000  0.46503000  0.99907000  1.0
  H  H22  1  0.77033000  0.53496000  0.00093000  1.0
  H  H23  1  0.35582000  0.39364000  0.15329000  1.0
  H  H24  1  0.64417000  0.60636000  0.84672000  1.0
  H  H25  1  0.57140000  0.74478000  0.40558000  1.0
  H  H26  1  0.42859000  0.25522000  0.59442000  1.0
  H  H27  1  0.30818000  0.35538000  0.44284000  1.0
  H  H28  1  0.69181000  0.64462000  0.55716000  1.0
  H  H29  1  0.18205000  0.46926000  0.60731000  1.0
  H  H30  1  0.81795000  0.53074000  0.39270000  1.0
  H  H31  1  0.04439000  0.63954000  0.47378000  1.0
  H  H32  1  0.95559000  0.36045000  0.52623000  1.0
  H  H33  1  0.90643000  0.86508000  0.49283000  1.0
  H  H34  1  0.09356000  0.13492000  0.50718000  1.0
  H  H35  1  0.90926000  0.92290000  0.64274000  1.0
  H  H36  1  0.09074000  0.07711000  0.35727000  1.0
  H  H37  1  0.04980000  0.75549000  0.77327000  1.0
  H  H38  1  0.95021000  0.24452000  0.22673000  1.0
  C  C39  1  0.85795000  0.96363000  0.19516000  1.0
  C  C40  1  0.14206000  0.03637000  0.80484000  1.0
  C  C41  1  0.38571000  0.09403000  0.16041000  1.0
  C  C42  1  0.61430000  0.90598000  0.83958000  1.0
  C  C43  1  0.24594000  0.04218000  0.13066000  1.0
  C  C44  1  0.75406000  0.95782000  0.86934000  1.0
  C  C45  1  0.31302000  0.16503000  0.97868000  1.0
  C  C46  1  0.68698000  0.83497000  0.02132000  1.0
  C  C47  1  0.45376000  0.22166000  0.00325000  1.0
  C  C48  1  0.54623000  0.77835000  0.99675000  1.0
  C  C49  1  0.49276000  0.18609000  0.09498000  1.0
  C  C50  1  0.50724000  0.81391000  0.90501000  1.0
  C  C51  1  0.46187000  0.13137000  0.30604000  1.0
  C  C52  1  0.53815000  0.86863000  0.69395000  1.0
  C  C53  1  0.47926000  0.06003000  0.40587000  1.0
  C  C54  1  0.52076000  0.93996000  0.59413000  1.0
  C  C55  1  0.59842000  0.11352000  0.44997000  1.0
  C  C56  1  0.40159000  0.88647000  0.55002000  1.0
  C  C57  1  0.38009000  0.94596000  0.45688000  1.0
  C  C58  1  0.61992000  0.05404000  0.54312000  1.0
  C  C59  1  0.24322000  0.57594000  0.19161000  1.0
  C  C60  1  0.75677000  0.42406000  0.80839000  1.0
  C  C61  1  0.13790000  0.69797000  0.16326000  1.0
  C  C62  1  0.86210000  0.30204000  0.83674000  1.0
  C  C63  1  0.11111000  0.65668000  0.02256000  1.0
  C  C64  1  0.88888000  0.34332000  0.97743000  1.0
  C  C65  1  0.20658000  0.52933000  0.04708000  1.0
  C  C66  1  0.79342000  0.47067000  0.95291000  1.0
  C  C67  1  0.27548000  0.48931000  0.13217000  1.0
  C  C68  1  0.72451000  0.51069000  0.86783000  1.0
  C  C69  1  0.35341000  0.62622000  0.32638000  1.0
  C  C70  1  0.64658000  0.37378000  0.67362000  1.0
  C  C71  1  0.43152000  0.55754000  0.41471000  1.0
  C  C72  1  0.56848000  0.44246000  0.58529000  1.0
  C  C73  1  0.53836000  0.63854000  0.44802000  1.0
  C  C74  1  0.46164000  0.36146000  0.55197000  1.0
  C  C75  1  0.39389000  0.41831000  0.46720000  1.0
  C  C76  1  0.60611000  0.58168000  0.53280000  1.0
  C  C77  1  0.12043000  0.60446000  0.69597000  1.0
  C  C78  1  0.87957000  0.39555000  0.30404000  1.0
  C  C79  1  0.12026000  0.56867000  0.61311000  1.0
  C  C80  1  0.87974000  0.43133000  0.38689000  1.0
  C  C81  1  0.04316000  0.66356000  0.53981000  1.0
  C  C82  1  0.95683000  0.33644000  0.46020000  1.0
  C  C83  1  0.96576000  0.79050000  0.55050000  1.0
  C  C84  1  0.03423000  0.20949000  0.44951000  1.0
  C  C85  1  0.96565000  0.82292000  0.63458000  1.0
  C  C86  1  0.03434000  0.17708000  0.36543000  1.0
  C  C87  1  0.04389000  0.73014000  0.70822000  1.0
  C  C88  1  0.95611000  0.26986000  0.29178000  1.0
  S  S89  1  0.84187000  0.89611000  0.30533000  1.0
  S  S90  1  0.15815000  0.10389000  0.69467000  1.0
  N  N91  1  0.87122000  0.01574000  0.11387000  1.0
  N  N92  1  0.12879000  0.98425000  0.88612000  1.0
  N  N93  1  0.21097000  0.07609000  0.04194000  1.0
  N  N94  1  0.78903000  0.92391000  0.95806000  1.0
  N  N95  1  0.41218000  0.04755000  0.25524000  1.0
  N  N96  1  0.58783000  0.95244000  0.74476000  1.0
  N  N97  1  0.07676000  0.73880000  0.07968000  1.0
  N  N98  1  0.92324000  0.26120000  0.92032000  1.0
  N  N99  1  0.31561000  0.53572000  0.27688000  1.0
  N  N100  1  0.68438000  0.46427000  0.72311000  1.0
  N  N101  1  0.20968000  0.50884000  0.77176000  1.0
  N  N102  1  0.79033000  0.49116000  0.22825000  1.0
  O  O103  1  0.49076000  0.26109000  0.27304000  1.0
  O  O104  1  0.50927000  0.73890000  0.72696000  1.0
  O  O105  1  0.32211000  0.75736000  0.30169000  1.0
  O  O106  1  0.67787000  0.24264000  0.69832000  1.0
  O  O107  1  0.20196000  0.53941000  0.84609000  1.0
  O  O108  1  0.79805000  0.46060000  0.15392000  1.0
  O  O109  1  0.28901000  0.40338000  0.75749000  1.0
  O  O110  1  0.71100000  0.59663000  0.24252000  1.0
