# generated using pymatgen
data_CdH16C20(NO2)2
_symmetry_space_group_name_H-M   'P 1'
_cell_length_a   9.61782000
_cell_length_b   10.44230000
_cell_length_c   10.56200000
_cell_angle_alpha   111.89400000
_cell_angle_beta   105.45600000
_cell_angle_gamma   97.86150000
_symmetry_Int_Tables_number   1
_chemical_formula_structural   CdH16C20(NO2)2
_chemical_formula_sum   'Cd2 H32 C40 N4 O8'
_cell_volume   914.99041343
_cell_formula_units_Z   2
loop_
 _symmetry_equiv_pos_site_id
 _symmetry_equiv_pos_as_xyz
  1  'x, y, z'
loop_
 _atom_site_type_symbol
 _atom_site_label
 _atom_site_symmetry_multiplicity
 _atom_site_fract_x
 _atom_site_fract_y
 _atom_site_fract_z
 _atom_site_occupancy
  Cd  Cd0  1  0.88525000  0.05441000  0.34692000  1.0
  Cd  Cd1  1  0.11475000  0.94559000  0.65308000  1.0
  H  H2  1  0.57533000  0.84974000  0.41665000  1.0
  H  H3  1  0.42468000  0.15026000  0.58336000  1.0
  H  H4  1  0.58340000  0.81512000  0.57234000  1.0
  H  H5  1  0.41659000  0.18487000  0.42766000  1.0
  H  H6  1  0.67567000  0.59091000  0.57460000  1.0
  H  H7  1  0.32434000  0.40909000  0.42539000  1.0
  H  H8  1  0.63608000  0.33329000  0.42535000  1.0
  H  H9  1  0.36392000  0.66666667  0.57464000  1.0
  H  H10  1  0.48880000  0.39565000  0.03649000  1.0
  H  H11  1  0.51119000  0.60435000  0.96350000  1.0
  H  H12  1  0.52812000  0.65466000  0.18685000  1.0
  H  H13  1  0.47188000  0.34534000  0.81315000  1.0
  H  H14  1  0.42106000  0.12941000  0.12544000  1.0
  H  H15  1  0.57894000  0.87059000  0.87456000  1.0
  H  H16  1  0.52155000  0.16423000  0.01785000  1.0
  H  H17  1  0.47845000  0.83577000  0.98215000  1.0
  H  H18  1  0.06325000  0.39946000  0.53943000  1.0
  H  H19  1  0.93674000  0.60054000  0.46057000  1.0
  H  H20  1  0.05725000  0.61534000  0.74470000  1.0
  H  H21  1  0.94274000  0.38467000  0.25530000  1.0
  H  H22  1  0.71048000  0.33789000  0.78593000  1.0
  H  H23  1  0.28951000  0.66211000  0.21407000  1.0
  H  H24  1  0.72969000  0.13562000  0.57696000  1.0
  H  H25  1  0.27032000  0.86438000  0.42304000  1.0
  H  H26  1  0.91187000  0.77449000  0.82300000  1.0
  H  H27  1  0.08813000  0.22551000  0.17701000  1.0
  H  H28  1  0.90008000  0.97409000  0.03975000  1.0
  H  H29  1  0.09992000  0.02590000  0.96025000  1.0
  H  H30  1  0.82162000  0.70654000  0.23334000  1.0
  H  H31  1  0.17839000  0.29346000  0.76666000  1.0
  H  H32  1  0.82562000  0.49354000  0.02484000  1.0
  H  H33  1  0.17439000  0.50646000  0.97516000  1.0
  C  C34  1  0.79620000  0.86416000  0.54770000  1.0
  C  C35  1  0.20380000  0.13583000  0.45231000  1.0
  C  C36  1  0.62782000  0.79838000  0.48336000  1.0
  C  C37  1  0.37218000  0.20162000  0.51664000  1.0
  C  C38  1  0.60170000  0.64058000  0.39112000  1.0
  C  C39  1  0.39829000  0.35942000  0.60887000  1.0
  C  C40  1  0.63460000  0.54837000  0.45637000  1.0
  C  C41  1  0.36540000  0.45163000  0.54362000  1.0
  C  C42  1  0.61263000  0.40342000  0.37205000  1.0
  C  C43  1  0.38737000  0.59658000  0.62794000  1.0
  C  C44  1  0.55839000  0.34503000  0.21968000  1.0
  C  C45  1  0.44161000  0.65497000  0.78031000  1.0
  C  C46  1  0.52993000  0.43799000  0.15477000  1.0
  C  C47  1  0.47007000  0.56201000  0.84522000  1.0
  C  C48  1  0.55107000  0.58350000  0.23926000  1.0
  C  C49  1  0.44894000  0.41651000  0.76074000  1.0
  C  C50  1  0.52869000  0.18614000  0.12989000  1.0
  C  C51  1  0.47131000  0.81386000  0.87011000  1.0
  C  C52  1  0.65195000  0.12817000  0.19604000  1.0
  C  C53  1  0.34805000  0.87183000  0.80396000  1.0
  C  C54  1  0.98522000  0.39125000  0.59617000  1.0
  C  C55  1  0.01478000  0.60875000  0.40383000  1.0
  C  C56  1  0.98096000  0.51133000  0.71048000  1.0
  C  C57  1  0.01904000  0.48868000  0.28952000  1.0
  C  C58  1  0.88152000  0.49448000  0.78293000  1.0
  C  C59  1  0.11848000  0.50552000  0.21707000  1.0
  C  C60  1  0.79096000  0.35656000  0.73514000  1.0
  C  C61  1  0.20903000  0.64344000  0.26486000  1.0
  C  C62  1  0.80091000  0.24343000  0.61876000  1.0
  C  C63  1  0.19909000  0.75658000  0.38124000  1.0
  C  C64  1  0.87379000  0.61647000  0.90713000  1.0
  C  C65  1  0.12621000  0.38353000  0.09287000  1.0
  C  C66  1  0.89513000  0.75432000  0.91263000  1.0
  C  C67  1  0.10487000  0.24568000  0.08738000  1.0
  C  C68  1  0.88787000  0.86592000  0.03235000  1.0
  C  C69  1  0.11213000  0.13408000  0.96765000  1.0
  C  C70  1  0.84180000  0.71620000  0.14018000  1.0
  C  C71  1  0.15821000  0.28380000  0.85982000  1.0
  C  C72  1  0.84405000  0.59808000  0.02321000  1.0
  C  C73  1  0.15595000  0.40192000  0.97679000  1.0
  N  N74  1  0.89662000  0.25977000  0.55026000  1.0
  N  N75  1  0.10338000  0.74023000  0.44974000  1.0
  N  N76  1  0.86410000  0.84813000  0.14537000  1.0
  N  N77  1  0.13590000  0.15187000  0.85464000  1.0
  O  O78  1  0.85847000  0.92198000  0.48230000  1.0
  O  O79  1  0.14154000  0.07802000  0.51771000  1.0
  O  O80  1  0.87200000  0.85147000  0.65859000  1.0
  O  O81  1  0.12800000  0.14853000  0.34141000  1.0
  O  O82  1  0.78112000  0.16394000  0.18894000  1.0
  O  O83  1  0.21888000  0.83606000  0.81106000  1.0
  O  O84  1  0.62310000  0.05152000  0.26064000  1.0
  O  O85  1  0.37690000  0.94848000  0.73936000  1.0
