# generated using pymatgen
data_CoH10C14(SN4)2
_symmetry_space_group_name_H-M   'P 1'
_cell_length_a   7.09561000
_cell_length_b   8.84591000
_cell_length_c   13.26251962
_cell_angle_alpha   70.51276910
_cell_angle_beta   82.73671875
_cell_angle_gamma   90.01370000
_symmetry_Int_Tables_number   1
_chemical_formula_structural   CoH10C14(SN4)2
_chemical_formula_sum   'Co2 H20 C28 S4 N16'
_cell_volume   777.66570138
_cell_formula_units_Z   2
loop_
 _symmetry_equiv_pos_site_id
 _symmetry_equiv_pos_as_xyz
  1  'x, y, z'
loop_
 _atom_site_type_symbol
 _atom_site_label
 _atom_site_symmetry_multiplicity
 _atom_site_fract_x
 _atom_site_fract_y
 _atom_site_fract_z
 _atom_site_occupancy
  Co  Co0  1  0.74994000  0.90432000  0.99996000  1.0
  Co  Co1  1  0.25006000  0.09569000  0.00004000  1.0
  H  H2  1  0.69005000  0.85739000  0.75899000  1.0
  H  H3  1  0.80963000  0.61608000  0.24106000  1.0
  H  H4  1  0.30995000  0.14261000  0.24100000  1.0
  H  H5  1  0.19037000  0.38392000  0.75894000  1.0
  H  H6  1  0.56709000  0.75944000  0.47648000  1.0
  H  H7  1  0.93298000  0.23562000  0.52353000  1.0
  H  H8  1  0.43291000  0.24056000  0.52352000  1.0
  H  H9  1  0.06702000  0.76438000  0.47647000  1.0
  H  H10  1  0.73777000  0.56716000  0.85014000  1.0
  H  H11  1  0.76197000  0.41700000  0.14991000  1.0
  H  H12  1  0.26223000  0.43284000  0.14986000  1.0
  H  H13  1  0.23803000  0.58300000  0.85009000  1.0
  H  H14  1  0.60792000  0.46594000  0.56996000  1.0
  H  H15  1  0.89214000  0.03560000  0.43004000  1.0
  H  H16  1  0.39208000  0.53405000  0.43004000  1.0
  H  H17  1  0.10786000  0.96439000  0.56997000  1.0
  H  H18  1  0.60268000  0.95217000  0.57357000  1.0
  H  H19  1  0.89736000  0.52546000  0.42640000  1.0
  H  H20  1  0.39732000  0.04783000  0.42643000  1.0
  H  H21  1  0.10264000  0.47454000  0.57360000  1.0
  C  C22  1  0.66885000  0.77162000  0.71812000  1.0
  C  C23  1  0.83084000  0.48943000  0.28194000  1.0
  C  C24  1  0.33115000  0.22838000  0.28188000  1.0
  C  C25  1  0.16916000  0.51057000  0.71806000  1.0
  C  C26  1  0.60105000  0.71637000  0.55886000  1.0
  C  C27  1  0.89883000  0.27491000  0.44117000  1.0
  C  C28  1  0.39895000  0.28362000  0.44114000  1.0
  C  C29  1  0.10117000  0.72508000  0.55884000  1.0
  C  C30  1  0.67087000  0.50221000  0.71494000  1.0
  C  C31  1  0.82893000  0.21685000  0.28511000  1.0
  C  C32  1  0.32913000  0.49779000  0.28506000  1.0
  C  C33  1  0.17107000  0.78315000  0.71489000  1.0
  C  C34  1  0.69444000  0.60941000  0.76985000  1.0
  C  C35  1  0.80521000  0.37894000  0.23022000  1.0
  C  C36  1  0.30556000  0.39059000  0.23015000  1.0
  C  C37  1  0.19479000  0.62105000  0.76979000  1.0
  C  C38  1  0.62411000  0.55347000  0.61006000  1.0
  C  C39  1  0.87576000  0.16323000  0.38998000  1.0
  C  C40  1  0.37589000  0.44652000  0.38994000  1.0
  C  C41  1  0.12424000  0.83677000  0.61002000  1.0
  C  C42  1  0.64616000  0.23695000  0.86739000  1.0
  C  C43  1  0.85397000  0.10411000  0.13263000  1.0
  C  C44  1  0.35384000  0.76305000  0.13261000  1.0
  C  C45  1  0.14603000  0.89589000  0.86737000  1.0
  C  C46  1  0.62249000  0.82499000  0.61301000  1.0
  C  C47  1  0.87739000  0.43769000  0.38701000  1.0
  C  C48  1  0.37751000  0.17501000  0.38699000  1.0
  C  C49  1  0.12261000  0.56231000  0.61299000  1.0
  S  S50  1  0.49229000  0.27963000  0.96361000  1.0
  S  S51  1  0.00790000  0.24315000  0.03648000  1.0
  S  S52  1  0.50772000  0.72037000  0.03639000  1.0
  S  S53  1  0.99210000  0.75686000  0.96352000  1.0
  N  N54  1  0.73011000  0.09720000  0.87383000  1.0
  N  N55  1  0.76999000  0.97079000  0.12615000  1.0
  N  N56  1  0.26989000  0.90281000  0.12617000  1.0
  N  N57  1  0.23001000  0.02921000  0.87385000  1.0
  N  N58  1  0.70460000  0.33740000  0.76479000  1.0
  N  N59  1  0.79538000  0.10191000  0.23522000  1.0
  N  N60  1  0.29540000  0.66260000  0.23521000  1.0
  N  N61  1  0.20462000  0.89809000  0.76479000  1.0
  N  N62  1  0.81588000  0.25727000  0.70976000  1.0
  N  N63  1  0.68401000  0.96675000  0.29019000  1.0
  N  N64  1  0.18412000  0.74272000  0.29024000  1.0
  N  N65  1  0.31599000  0.03325000  0.70981000  1.0
  N  N66  1  0.82899000  0.11375000  0.77575000  1.0
  N  N67  1  0.67096000  0.88923000  0.22420000  1.0
  N  N68  1  0.17102000  0.88625000  0.22425000  1.0
  N  N69  1  0.32904000  0.11077000  0.77580000  1.0
