# generated using pymatgen
data_CoP2H12C14S(NO3)2
_symmetry_space_group_name_H-M   'P 1'
_cell_length_a   9.23484000
_cell_length_b   9.57614000
_cell_length_c   10.02560000
_cell_angle_alpha   110.05500000
_cell_angle_beta   89.99990000
_cell_angle_gamma   90.00000000
_symmetry_Int_Tables_number   1
_chemical_formula_structural   CoP2H12C14S(NO3)2
_chemical_formula_sum   'Co2 P4 H24 C28 S2 N4 O12'
_cell_volume   832.84481919
_cell_formula_units_Z   2
loop_
 _symmetry_equiv_pos_site_id
 _symmetry_equiv_pos_as_xyz
  1  'x, y, z'
loop_
 _atom_site_type_symbol
 _atom_site_label
 _atom_site_symmetry_multiplicity
 _atom_site_fract_x
 _atom_site_fract_y
 _atom_site_fract_z
 _atom_site_occupancy
  Co  Co0  1  0.35674000  0.52013000  0.89316000  1.0
  Co  Co1  1  0.85674000  0.47987000  0.10684000  1.0
  P  P2  1  0.40129000  0.77098000  0.74168000  1.0
  P  P3  1  0.90129000  0.22902000  0.25832000  1.0
  P  P4  1  0.50306000  0.41119000  0.13692000  1.0
  P  P5  1  0.00306000  0.58881000  0.86308000  1.0
  H  H6  1  0.62674000  0.21775000  0.16369000  1.0
  H  H7  1  0.12675000  0.78225000  0.83632000  1.0
  H  H8  1  0.55713000  0.94739000  0.84827000  1.0
  H  H9  1  0.05713000  0.05261000  0.15174000  1.0
  H  H10  1  0.16151000  0.60952000  0.55329000  1.0
  H  H11  1  0.66151000  0.39048000  0.44671000  1.0
  H  H12  1  0.19844000  0.43569000  0.28674000  1.0
  H  H13  1  0.69844000  0.56431000  0.71326000  1.0
  H  H14  1  0.45822000  0.44742000  0.59153000  1.0
  H  H15  1  0.95822000  0.55258000  0.40847000  1.0
  H  H16  1  0.44462000  0.23355000  0.36238000  1.0
  H  H17  1  0.94462000  0.76645000  0.63762000  1.0
  H  H18  1  0.27851000  0.96951000  0.60168000  1.0
  H  H19  1  0.77851000  0.03049000  0.39832000  1.0
  H  H20  1  0.30378000  0.19338000  0.82037000  1.0
  H  H21  1  0.80378000  0.80662000  0.17963000  1.0
  H  H22  1  0.14852000  0.65871000  0.14031000  1.0
  H  H23  1  0.64853000  0.34129000  0.85969000  1.0
  H  H24  1  0.14460000  0.87302000  0.36792000  1.0
  H  H25  1  0.64460000  0.12699000  0.63208000  1.0
  H  H26  1  0.56412000  0.99901000  0.25379000  1.0
  H  H27  1  0.06412000  0.00099000  0.74620000  1.0
  H  H28  1  0.55313000  0.77533000  0.03518000  1.0
  H  H29  1  0.05313000  0.22466000  0.96482000  1.0
  C  C30  1  0.38282000  0.68503000  0.55335000  1.0
  C  C31  1  0.88282000  0.31497000  0.44665000  1.0
  C  C32  1  0.26055000  0.60361000  0.49319000  1.0
  C  C33  1  0.76055000  0.39639000  0.50681000  1.0
  C  C34  1  0.28161000  0.50859000  0.35143000  1.0
  C  C35  1  0.78161000  0.49142000  0.64856000  1.0
  C  C36  1  0.42068000  0.51795000  0.30338000  1.0
  C  C37  1  0.92068000  0.48206000  0.69662000  1.0
  C  C38  1  0.42030000  0.33895000  0.58826000  1.0
  C  C39  1  0.92030000  0.66105000  0.41174000  1.0
  C  C40  1  0.41318000  0.21965000  0.46187000  1.0
  C  C41  1  0.91318000  0.78035000  0.53813000  1.0
  C  C42  1  0.36019000  0.08310000  0.46301000  1.0
  C  C43  1  0.86019000  0.91690000  0.53699000  1.0
  C  C44  1  0.31740000  0.07379000  0.59387000  1.0
  C  C45  1  0.81740000  0.92621000  0.40613000  1.0
  C  C46  1  0.33088000  0.19774000  0.71613000  1.0
  C  C47  1  0.83088000  0.80226000  0.28387000  1.0
  C  C48  1  0.23902000  0.73619000  0.17015000  1.0
  C  C49  1  0.73902000  0.26381000  0.82985000  1.0
  C  C50  1  0.23761000  0.85549000  0.29727000  1.0
  C  C51  1  0.73761000  0.14452000  0.70272000  1.0
  C  C52  1  0.35470000  0.95437000  0.33068000  1.0
  C  C53  1  0.85470000  0.04563000  0.66931000  1.0
  C  C54  1  0.46953000  0.92669000  0.23346000  1.0
  C  C55  1  0.96953000  0.07331000  0.76653000  1.0
  C  C56  1  0.46375000  0.80305000  0.11069000  1.0
  C  C57  1  0.96375000  0.19695000  0.88931000  1.0
  S  S58  1  0.52272000  0.64588000  0.43284000  1.0
  S  S59  1  0.02272000  0.35412000  0.56716000  1.0
  N  N60  1  0.38062000  0.32962000  0.71418000  1.0
  N  N61  1  0.88062000  0.67037000  0.28582000  1.0
  N  N62  1  0.34968000  0.70959000  0.07734000  1.0
  N  N63  1  0.84968000  0.29041000  0.92266000  1.0
  O  O64  1  0.64633000  0.48875000  0.13542000  1.0
  O  O65  1  0.14633000  0.51125000  0.86457000  1.0
  O  O66  1  0.39923000  0.39871000  0.01592000  1.0
  O  O67  1  0.89924000  0.60129000  0.98408000  1.0
  O  O68  1  0.52418000  0.24888000  0.14066000  1.0
  O  O69  1  0.02418000  0.75112000  0.85934000  1.0
  O  O70  1  0.45659000  0.65201000  0.79911000  1.0
  O  O71  1  0.95659000  0.34799000  0.20088000  1.0
  O  O72  1  0.26171000  0.84865000  0.80390000  1.0
  O  O73  1  0.76171000  0.15135000  0.19610000  1.0
  O  O74  1  0.52974000  0.88807000  0.75130000  1.0
  O  O75  1  0.02974000  0.11193000  0.24870000  1.0
