# generated using pymatgen
data_CdH8(C5N4)2
_symmetry_space_group_name_H-M   'P 1'
_cell_length_a   6.63142000
_cell_length_b   9.47320000
_cell_length_c   11.09659044
_cell_angle_alpha   115.27255266
_cell_angle_beta   106.08052087
_cell_angle_gamma   89.98250000
_symmetry_Int_Tables_number   1
_chemical_formula_structural   CdH8(C5N4)2
_chemical_formula_sum   'Cd2 H16 C20 N16'
_cell_volume   600.10443008
_cell_formula_units_Z   2
loop_
 _symmetry_equiv_pos_site_id
 _symmetry_equiv_pos_as_xyz
  1  'x, y, z'
loop_
 _atom_site_type_symbol
 _atom_site_label
 _atom_site_symmetry_multiplicity
 _atom_site_fract_x
 _atom_site_fract_y
 _atom_site_fract_z
 _atom_site_occupancy
  Cd  Cd0  1  0.74997000  0.09398000  0.00003000  1.0
  Cd  Cd1  1  0.25004000  0.90602000  0.99997000  1.0
  H  H2  1  0.80928000  0.70440000  0.10648000  1.0
  H  H3  1  0.69109000  0.59807000  0.89361000  1.0
  H  H4  1  0.19072000  0.29560000  0.89352000  1.0
  H  H5  1  0.30891000  0.40193000  0.10639000  1.0
  H  H6  1  0.98859000  0.81733000  0.36223000  1.0
  H  H7  1  0.51173000  0.45516000  0.63788000  1.0
  H  H8  1  0.01141000  0.18267000  0.63777000  1.0
  H  H9  1  0.48827000  0.54484000  0.36212000  1.0
  H  H10  1  0.09667000  0.63481000  0.47198000  1.0
  H  H11  1  0.40336000  0.16296000  0.52824000  1.0
  H  H12  1  0.90333000  0.36520000  0.52803000  1.0
  H  H13  1  0.59664000  0.83704000  0.47176000  1.0
  H  H14  1  0.01375000  0.34324000  0.31767000  1.0
  H  H15  1  0.48615000  0.02580000  0.68262000  1.0
  H  H16  1  0.98625000  0.65676000  0.68233000  1.0
  H  H17  1  0.51385000  0.97420000  0.31738000  1.0
  C  C18  1  0.80778000  0.46247000  0.07649000  1.0
  C  C19  1  0.69249000  0.38614000  0.92372000  1.0
  C  C20  1  0.19222000  0.53753000  0.92351000  1.0
  C  C21  1  0.30751000  0.61386000  0.07628000  1.0
  C  C22  1  0.85455000  0.62645000  0.15552000  1.0
  C  C23  1  0.64575000  0.47110000  0.84465000  1.0
  C  C24  1  0.14545000  0.37355000  0.84448000  1.0
  C  C25  1  0.35425000  0.52890000  0.15535000  1.0
  C  C26  1  0.95543000  0.69003000  0.29906000  1.0
  C  C27  1  0.54476000  0.39112000  0.70112000  1.0
  C  C28  1  0.04456000  0.30997000  0.70094000  1.0
  C  C29  1  0.45523000  0.60888000  0.29888000  1.0
  C  C30  1  0.01287000  0.58900000  0.36071000  1.0
  C  C31  1  0.48714000  0.22851000  0.63950000  1.0
  C  C32  1  0.98713000  0.41100000  0.63929000  1.0
  C  C33  1  0.51286000  0.77149000  0.36050000  1.0
  C  C34  1  0.96699000  0.42746000  0.27548000  1.0
  C  C35  1  0.53298000  0.15220000  0.72474000  1.0
  C  C36  1  0.03301000  0.57254000  0.72452000  1.0
  C  C37  1  0.46702000  0.84780000  0.27526000  1.0
  N  N38  1  0.00983000  0.01459000  0.13634000  1.0
  N  N39  1  0.49021000  0.87826000  0.86363000  1.0
  N  N40  1  0.99017000  0.98541000  0.86366000  1.0
  N  N41  1  0.50980000  0.12174000  0.13637000  1.0
  N  N42  1  0.01878000  0.04031000  0.25409000  1.0
  N  N43  1  0.48128000  0.78625000  0.74588000  1.0
  N  N44  1  0.98122000  0.95968000  0.74591000  1.0
  N  N45  1  0.51872000  0.21375000  0.25412000  1.0
  N  N46  1  0.02703000  0.06509000  0.36799000  1.0
  N  N47  1  0.47305000  0.69713000  0.63198000  1.0
  N  N48  1  0.97298000  0.93491000  0.63201000  1.0
  N  N49  1  0.52695000  0.30288000  0.36803000  1.0
  N  N50  1  0.86614000  0.36614000  0.13757000  1.0
  N  N51  1  0.63393000  0.22877000  0.86264000  1.0
  N  N52  1  0.13387000  0.63386000  0.86243000  1.0
  N  N53  1  0.36607000  0.77123000  0.13736000  1.0
