# generated using pymatgen
data_CaH10C10N2O5
_symmetry_space_group_name_H-M   'P 1'
_cell_length_a   6.45274000
_cell_length_b   10.78620000
_cell_length_c   16.34610000
_cell_angle_alpha   89.99990000
_cell_angle_beta   99.81860000
_cell_angle_gamma   89.99960000
_symmetry_Int_Tables_number   1
_chemical_formula_structural   CaH10C10N2O5
_chemical_formula_sum   'Ca4 H40 C40 N8 O20'
_cell_volume   1121.03313565
_cell_formula_units_Z   4
loop_
 _symmetry_equiv_pos_site_id
 _symmetry_equiv_pos_as_xyz
  1  'x, y, z'
loop_
 _atom_site_type_symbol
 _atom_site_label
 _atom_site_symmetry_multiplicity
 _atom_site_fract_x
 _atom_site_fract_y
 _atom_site_fract_z
 _atom_site_occupancy
  Ca  Ca0  1  0.75779000  0.07102000  0.04923000  1.0
  Ca  Ca1  1  0.74221000  0.57102000  0.45077000  1.0
  Ca  Ca2  1  0.24221000  0.92898000  0.95077000  1.0
  Ca  Ca3  1  0.25779000  0.42898000  0.54923000  1.0
  H  H4  1  0.45697000  0.29468000  0.23387000  1.0
  H  H5  1  0.04302000  0.79467000  0.26613000  1.0
  H  H6  1  0.54304000  0.70533000  0.76613000  1.0
  H  H7  1  0.95698000  0.20533000  0.73387000  1.0
  H  H8  1  0.71146000  0.21170000  0.23363000  1.0
  H  H9  1  0.78855000  0.71170000  0.26637000  1.0
  H  H10  1  0.28855000  0.78831000  0.76637000  1.0
  H  H11  1  0.21146000  0.28830000  0.73363000  1.0
  H  H12  1  0.29267000  0.38744000  0.34550000  1.0
  H  H13  1  0.20732000  0.88745000  0.15450000  1.0
  H  H14  1  0.70734000  0.61256000  0.65450000  1.0
  H  H15  1  0.79268000  0.11255000  0.84550000  1.0
  H  H16  1  0.09235000  0.26679000  0.95117000  1.0
  H  H17  1  0.40763000  0.76679000  0.54883000  1.0
  H  H18  1  0.90762000  0.73321000  0.04883000  1.0
  H  H19  1  0.59236000  0.23321000  0.45117000  1.0
  H  H20  1  0.75515000  0.58855000  0.92143000  1.0
  H  H21  1  0.74486000  0.08854000  0.57857000  1.0
  H  H22  1  0.24487000  0.41146000  0.07857000  1.0
  H  H23  1  0.25514000  0.91145000  0.42143000  1.0
  H  H24  1  0.63079000  0.45102000  0.95185000  1.0
  H  H25  1  0.86920000  0.95100000  0.54815000  1.0
  H  H26  1  0.36920000  0.54900000  0.04814000  1.0
  H  H27  1  0.13079000  0.04899000  0.45185000  1.0
  H  H28  1  0.62720000  0.48520000  0.84409000  1.0
  H  H29  1  0.87280000  0.98518000  0.65591000  1.0
  H  H30  1  0.37281000  0.51482000  0.15590000  1.0
  H  H31  1  0.12720000  0.01481000  0.34409000  1.0
  H  H32  1  0.99061000  0.45981000  0.79359000  1.0
  H  H33  1  0.50939000  0.95981000  0.70640000  1.0
  H  H34  1  0.00941000  0.54019000  0.20641000  1.0
  H  H35  1  0.49059000  0.04019000  0.29360000  1.0
  H  H36  1  0.19741000  0.39547000  0.86773000  1.0
  H  H37  1  0.30259000  0.89547000  0.63227000  1.0
  H  H38  1  0.80260000  0.60453000  0.13227000  1.0
  H  H39  1  0.69740000  0.10453000  0.36773000  1.0
  H  H40  1  0.12157000  0.55376000  0.87689000  1.0
  H  H41  1  0.37843000  0.05376000  0.62311000  1.0
  H  H42  1  0.87844000  0.44623000  0.12312000  1.0
  H  H43  1  0.62156000  0.94624000  0.37689000  1.0
  C  C44  1  0.98820000  0.30564000  0.30013000  1.0
  C  C45  1  0.51179000  0.80564000  0.19987000  1.0
  C  C46  1  0.01180000  0.69436000  0.69987000  1.0
  C  C47  1  0.48822000  0.19436000  0.80013000  1.0
  C  C48  1  0.17393000  0.19788000  0.17796000  1.0
  C  C49  1  0.32607000  0.69787000  0.32204000  1.0
  C  C50  1  0.82608000  0.80213000  0.82204000  1.0
  C  C51  1  0.67393000  0.30213000  0.67796000  1.0
  C  C52  1  0.29353000  0.27477000  0.23666000  1.0
  C  C53  1  0.20647000  0.77476000  0.26335000  1.0
  C  C54  1  0.70648000  0.72524000  0.76334000  1.0
  C  C55  1  0.79354000  0.22524000  0.73666000  1.0
  C  C56  1  0.87865000  0.23017000  0.23744000  1.0
  C  C57  1  0.62134000  0.73017000  0.26256000  1.0
  C  C58  1  0.12136000  0.76983000  0.76256000  1.0
  C  C59  1  0.37866000  0.26983000  0.73744000  1.0
  C  C60  1  0.20105000  0.32765000  0.29914000  1.0
  C  C61  1  0.29893000  0.82765000  0.20087000  1.0
  C  C62  1  0.79895000  0.67235000  0.70086000  1.0
  C  C63  1  0.70107000  0.17235000  0.79914000  1.0
  C  C64  1  0.87949000  0.36865000  0.36305000  1.0
  C  C65  1  0.62051000  0.86865000  0.13695000  1.0
  C  C66  1  0.12053000  0.63135000  0.63696000  1.0
  C  C67  1  0.37950000  0.13135000  0.86305000  1.0
  C  C68  1  0.27240000  0.13471000  0.11081000  1.0
  C  C69  1  0.22760000  0.63470000  0.38919000  1.0
  C  C70  1  0.72760000  0.86530000  0.88919000  1.0
  C  C71  1  0.77240000  0.36529000  0.61081000  1.0
  C  C72  1  0.94657000  0.31711000  0.95755000  1.0
  C  C73  1  0.55341000  0.81710000  0.54245000  1.0
  C  C74  1  0.05341000  0.68289000  0.04244000  1.0
  C  C75  1  0.44657000  0.18289000  0.45756000  1.0
  C  C76  1  0.72044000  0.49057000  0.90699000  1.0
  C  C77  1  0.77956000  0.99056000  0.59301000  1.0
  C  C78  1  0.27957000  0.50944000  0.09301000  1.0
  C  C79  1  0.22043000  0.00943000  0.40699000  1.0
  C  C80  1  0.06402000  0.45988000  0.85941000  1.0
  C  C81  1  0.43597000  0.95988000  0.64058000  1.0
  C  C82  1  0.93599000  0.54011000  0.14059000  1.0
  C  C83  1  0.56401000  0.04012000  0.35941000  1.0
  N  N84  1  0.96808000  0.17664000  0.17831000  1.0
  N  N85  1  0.53192000  0.67664000  0.32169000  1.0
  N  N86  1  0.03193000  0.82337000  0.82168000  1.0
  N  N87  1  0.46808000  0.32337000  0.67831000  1.0
  N  N88  1  0.91401000  0.42020000  0.91106000  1.0
  N  N89  1  0.58599000  0.92019000  0.58894000  1.0
  N  N90  1  0.08598000  0.57981000  0.08894000  1.0
  N  N91  1  0.41401000  0.07981000  0.41106000  1.0
  O  O92  1  0.14866000  0.07096000  0.05694000  1.0
  O  O93  1  0.35134000  0.57095000  0.44306000  1.0
  O  O94  1  0.85134000  0.92905000  0.94306000  1.0
  O  O95  1  0.64866000  0.42905000  0.55694000  1.0
  O  O96  1  0.46774000  0.14906000  0.11442000  1.0
  O  O97  1  0.03226000  0.64905000  0.38558000  1.0
  O  O98  1  0.53227000  0.85094000  0.88558000  1.0
  O  O99  1  0.96774000  0.35095000  0.61442000  1.0
  O  O100  1  0.68757000  0.39867000  0.34236000  1.0
  O  O101  1  0.81243000  0.89868000  0.15765000  1.0
  O  O102  1  0.31245000  0.60132000  0.65765000  1.0
  O  O103  1  0.18757000  0.10133000  0.84235000  1.0
  O  O104  1  0.82526000  0.27873000  0.00386000  1.0
  O  O105  1  0.67474000  0.77872000  0.49613000  1.0
  O  O106  1  0.17471000  0.72127000  0.99613000  1.0
  O  O107  1  0.32527000  0.22127000  0.50387000  1.0
  O  O108  1  0.98805000  0.39498000  0.43352000  1.0
  O  O109  1  0.51195000  0.89497000  0.06648000  1.0
  O  O110  1  0.01195000  0.60501000  0.56648000  1.0
  O  O111  1  0.48806000  0.10502000  0.93353000  1.0
