# generated using pymatgen
data_CuH7C7N7O
_symmetry_space_group_name_H-M   'P 1'
_cell_length_a   8.09296000
_cell_length_b   10.50250000
_cell_length_c   11.14530000
_cell_angle_alpha   90.00030000
_cell_angle_beta   90.00030000
_cell_angle_gamma   79.98900000
_symmetry_Int_Tables_number   1
_chemical_formula_structural   CuH7C7N7O
_chemical_formula_sum   'Cu4 H28 C28 N28 O4'
_cell_volume   932.88604353
_cell_formula_units_Z   4
loop_
 _symmetry_equiv_pos_site_id
 _symmetry_equiv_pos_as_xyz
  1  'x, y, z'
loop_
 _atom_site_type_symbol
 _atom_site_label
 _atom_site_symmetry_multiplicity
 _atom_site_fract_x
 _atom_site_fract_y
 _atom_site_fract_z
 _atom_site_occupancy
  Cu  Cu0  1  0.83987000  0.38243000  0.39993000  1.0
  Cu  Cu1  1  0.66013000  0.61757000  0.89992000  1.0
  Cu  Cu2  1  0.16013000  0.61757000  0.60008000  1.0
  Cu  Cu3  1  0.33987000  0.38243000  0.10008000  1.0
  H  H4  1  0.30876000  0.13825000  0.19444000  1.0
  H  H5  1  0.19123000  0.86175000  0.69444000  1.0
  H  H6  1  0.69124000  0.86175000  0.80556000  1.0
  H  H7  1  0.80877000  0.13825000  0.30556000  1.0
  H  H8  1  0.20142000  0.04000000  0.28261000  1.0
  H  H9  1  0.29858000  0.96000000  0.78260000  1.0
  H  H10  1  0.79858000  0.96000000  0.71739000  1.0
  H  H11  1  0.70142000  0.04000000  0.21739000  1.0
  H  H12  1  0.09674000  0.60590000  0.23816000  1.0
  H  H13  1  0.40326000  0.39410000  0.73815000  1.0
  H  H14  1  0.90326000  0.39410000  0.76184000  1.0
  H  H15  1  0.59675000  0.60590000  0.26184000  1.0
  H  H16  1  0.93090000  0.82797000  0.31131000  1.0
  H  H17  1  0.56909000  0.17203000  0.81131000  1.0
  H  H18  1  0.06909000  0.17203000  0.68869000  1.0
  H  H19  1  0.43091000  0.82797000  0.18869000  1.0
  H  H20  1  0.70443000  0.94655000  0.44418000  1.0
  H  H21  1  0.79557000  0.05345000  0.94418000  1.0
  H  H22  1  0.29557000  0.05345000  0.55582000  1.0
  H  H23  1  0.20444000  0.94655000  0.05582000  1.0
  H  H24  1  0.53061000  0.81911000  0.56632000  1.0
  H  H25  1  0.96938000  0.18090000  0.06632000  1.0
  H  H26  1  0.46939000  0.18090000  0.43368000  1.0
  H  H27  1  0.03062000  0.81911000  0.93368000  1.0
  H  H28  1  0.59416000  0.57626000  0.55510000  1.0
  H  H29  1  0.90584000  0.42374000  0.05509000  1.0
  H  H30  1  0.40584000  0.42374000  0.44491000  1.0
  H  H31  1  0.09416000  0.57627000  0.94491000  1.0
  C  C32  1  0.09898000  0.22912000  0.28015000  1.0
  C  C33  1  0.40101000  0.77088000  0.78015000  1.0
  C  C34  1  0.90101000  0.77088000  0.71985000  1.0
  C  C35  1  0.59899000  0.22912000  0.21985000  1.0
  C  C36  1  0.00689000  0.56281000  0.29008000  1.0
  C  C37  1  0.49311000  0.43719000  0.79007000  1.0
  C  C38  1  0.99311000  0.43719000  0.70992000  1.0
  C  C39  1  0.50689000  0.56281000  0.20992000  1.0
  C  C40  1  0.87889000  0.64102000  0.36217000  1.0
  C  C41  1  0.62110000  0.35898000  0.86217000  1.0
  C  C42  1  0.12110000  0.35898000  0.63783000  1.0
  C  C43  1  0.37890000  0.64102000  0.13783000  1.0
  C  C44  1  0.85226000  0.77605000  0.36533000  1.0
  C  C45  1  0.64773000  0.22395000  0.86532000  1.0
  C  C46  1  0.14773000  0.22395000  0.63467000  1.0
  C  C47  1  0.35227000  0.77605000  0.13468000  1.0
  C  C48  1  0.72608000  0.84140000  0.43892000  1.0
  C  C49  1  0.77392000  0.15860000  0.93892000  1.0
  C  C50  1  0.27392000  0.15860000  0.56108000  1.0
  C  C51  1  0.22608000  0.84140000  0.06108000  1.0
  C  C52  1  0.63000000  0.77101000  0.50802000  1.0
  C  C53  1  0.87000000  0.22899000  0.00802000  1.0
  C  C54  1  0.37000000  0.22899000  0.49198000  1.0
  C  C55  1  0.13000000  0.77102000  0.99198000  1.0
  C  C56  1  0.66361000  0.63629000  0.50204000  1.0
  C  C57  1  0.83639000  0.36371000  0.00203000  1.0
  C  C58  1  0.33639000  0.36371000  0.49797000  1.0
  C  C59  1  0.16362000  0.63629000  0.99796000  1.0
  N  N60  1  0.72936000  0.32769000  0.54260000  1.0
  N  N61  1  0.77064000  0.67231000  0.04259000  1.0
  N  N62  1  0.27064000  0.67231000  0.45740000  1.0
  N  N63  1  0.22936000  0.32769000  0.95740000  1.0
  N  N64  1  0.74589000  0.21619000  0.57189000  1.0
  N  N65  1  0.75411000  0.78381000  0.07188000  1.0
  N  N66  1  0.25411000  0.78381000  0.42811000  1.0
  N  N67  1  0.24589000  0.21619000  0.92811000  1.0
  N  N68  1  0.75620000  0.10915000  0.60474000  1.0
  N  N69  1  0.74380000  0.89085000  0.10474000  1.0
  N  N70  1  0.24380000  0.89085000  0.39526000  1.0
  N  N71  1  0.25620000  0.10915000  0.89525000  1.0
  N  N72  1  0.20013000  0.12430000  0.23627000  1.0
  N  N73  1  0.29987000  0.87570000  0.73627000  1.0
  N  N74  1  0.79987000  0.87570000  0.76373000  1.0
  N  N75  1  0.70013000  0.12430000  0.26373000  1.0
  N  N76  1  0.12376000  0.34835000  0.24210000  1.0
  N  N77  1  0.37624000  0.65165000  0.74209000  1.0
  N  N78  1  0.87624000  0.65165000  0.75791000  1.0
  N  N79  1  0.62376000  0.34835000  0.25791000  1.0
  N  N80  1  0.01043000  0.43865000  0.29572000  1.0
  N  N81  1  0.48957000  0.56135000  0.79572000  1.0
  N  N82  1  0.98957000  0.56135000  0.70428000  1.0
  N  N83  1  0.51043000  0.43865000  0.20428000  1.0
  N  N84  1  0.78367000  0.57346000  0.43073000  1.0
  N  N85  1  0.71633000  0.42654000  0.93073000  1.0
  N  N86  1  0.21633000  0.42654000  0.56927000  1.0
  N  N87  1  0.28367000  0.57346000  0.06927000  1.0
  O  O88  1  0.98241000  0.21273000  0.35542000  1.0
  O  O89  1  0.51760000  0.78727000  0.85542000  1.0
  O  O90  1  0.01759000  0.78727000  0.64458000  1.0
  O  O91  1  0.48240000  0.21273000  0.14458000  1.0
