# generated using pymatgen
data_GdH18(C2O)7
_symmetry_space_group_name_H-M   'P 1'
_cell_length_a   12.86610000
_cell_length_b   14.15480000
_cell_length_c   18.86730000
_cell_angle_alpha   90.00070000
_cell_angle_beta   90.00000000
_cell_angle_gamma   89.99990000
_symmetry_Int_Tables_number   1
_chemical_formula_structural   GdH18(C2O)7
_chemical_formula_sum   'Gd8 H144 C112 O56'
_cell_volume   3436.05743757
_cell_formula_units_Z   8
loop_
 _symmetry_equiv_pos_site_id
 _symmetry_equiv_pos_as_xyz
  1  'x, y, z'
loop_
 _atom_site_type_symbol
 _atom_site_label
 _atom_site_symmetry_multiplicity
 _atom_site_fract_x
 _atom_site_fract_y
 _atom_site_fract_z
 _atom_site_occupancy
  Gd  Gd0  1  0.71655000  0.00332000  0.88970000  1.0
  Gd  Gd1  1  0.78345000  0.99669000  0.38970000  1.0
  Gd  Gd2  1  0.28345000  0.50331000  0.61030000  1.0
  Gd  Gd3  1  0.21655000  0.49669000  0.11031000  1.0
  Gd  Gd4  1  0.77194000  0.02115000  0.67357000  1.0
  Gd  Gd5  1  0.72806000  0.97885000  0.17357000  1.0
  Gd  Gd6  1  0.22806000  0.52115000  0.82643000  1.0
  Gd  Gd7  1  0.27194000  0.47885000  0.32643000  1.0
  H  H8  1  0.99348000  0.06832000  0.88172000  1.0
  H  H9  1  0.50653000  0.93168000  0.38172000  1.0
  H  H10  1  0.00653000  0.56832000  0.61828000  1.0
  H  H11  1  0.49348000  0.43167000  0.11828000  1.0
  H  H12  1  0.12642000  0.03887000  0.75410000  1.0
  H  H13  1  0.37358000  0.96114000  0.25411000  1.0
  H  H14  1  0.87358000  0.53887000  0.74589000  1.0
  H  H15  1  0.62642000  0.46113000  0.24590000  1.0
  H  H16  1  0.15395000  0.01284000  0.84378000  1.0
  H  H17  1  0.34606000  0.98716000  0.34379000  1.0
  H  H18  1  0.84606000  0.51283000  0.65621000  1.0
  H  H19  1  0.65395000  0.48716000  0.15622000  1.0
  H  H20  1  0.26846000  0.14658000  0.83480000  1.0
  H  H21  1  0.23155000  0.85343000  0.33481000  1.0
  H  H22  1  0.73154000  0.64658000  0.66520000  1.0
  H  H23  1  0.76846000  0.35342000  0.16520000  1.0
  H  H24  1  0.20122000  0.18975000  0.76020000  1.0
  H  H25  1  0.29877000  0.81026000  0.26021000  1.0
  H  H26  1  0.79877000  0.68975000  0.73979000  1.0
  H  H27  1  0.70123000  0.31025000  0.23980000  1.0
  H  H28  1  0.22348000  0.21533000  0.95458000  1.0
  H  H29  1  0.27652000  0.78466000  0.45458000  1.0
  H  H30  1  0.77652000  0.71534000  0.54542000  1.0
  H  H31  1  0.72348000  0.28467000  0.04542000  1.0
  H  H32  1  0.13156000  0.12260000  0.94595000  1.0
  H  H33  1  0.36844000  0.87740000  0.44597000  1.0
  H  H34  1  0.86844000  0.62261000  0.55404000  1.0
  H  H35  1  0.63156000  0.37740000  0.05405000  1.0
  H  H36  1  0.08990000  0.23571000  0.97359000  1.0
  H  H37  1  0.41010000  0.76428000  0.47360000  1.0
  H  H38  1  0.91010000  0.73572000  0.52641000  1.0
  H  H39  1  0.58990000  0.26429000  0.02641000  1.0
  H  H40  1  0.99192000  0.33063000  0.76790000  1.0
  H  H41  1  0.50808000  0.66936000  0.26791000  1.0
  H  H42  1  0.00808000  0.83063000  0.73209000  1.0
  H  H43  1  0.49192000  0.16937000  0.23210000  1.0
  H  H44  1  0.91077000  0.23432000  0.74478000  1.0
  H  H45  1  0.58923000  0.76568000  0.24478000  1.0
  H  H46  1  0.08923000  0.73432000  0.75522000  1.0
  H  H47  1  0.41077000  0.26568000  0.25522000  1.0
  H  H48  1  0.04359000  0.23160000  0.72158000  1.0
  H  H49  1  0.45640000  0.76840000  0.22159000  1.0
  H  H50  1  0.95640000  0.73160000  0.77841000  1.0
  H  H51  1  0.54359000  0.26840000  0.27842000  1.0
  H  H52  1  0.93702000  0.31619000  0.89822000  1.0
  H  H53  1  0.56298000  0.68381000  0.39822000  1.0
  H  H54  1  0.06298000  0.81619000  0.60178000  1.0
  H  H55  1  0.43702000  0.18381000  0.10178000  1.0
  H  H56  1  0.93406000  0.20224000  0.93901000  1.0
  H  H57  1  0.56593000  0.79775000  0.43901000  1.0
  H  H58  1  0.06593000  0.70225000  0.56099000  1.0
  H  H59  1  0.43406000  0.29775000  0.06099000  1.0
  H  H60  1  0.85088000  0.22726000  0.86735000  1.0
  H  H61  1  0.64912000  0.77274000  0.36736000  1.0
  H  H62  1  0.14912000  0.72726000  0.63265000  1.0
  H  H63  1  0.35089000  0.27273000  0.13265000  1.0
  H  H64  1  0.39142000  0.89381000  0.84594000  1.0
  H  H65  1  0.10858000  0.10619000  0.34594000  1.0
  H  H66  1  0.60858000  0.39381000  0.65406000  1.0
  H  H67  1  0.89142000  0.60619000  0.15406000  1.0
  H  H68  1  0.33199000  0.99655000  0.81329000  1.0
  H  H69  1  0.16803000  0.00345000  0.31329000  1.0
  H  H70  1  0.66802000  0.49655000  0.68671000  1.0
  H  H71  1  0.83199000  0.50345000  0.18671000  1.0
  H  H72  1  0.21174000  0.90611000  0.74200000  1.0
  H  H73  1  0.28827000  0.09389000  0.24201000  1.0
  H  H74  1  0.78826000  0.40611000  0.75799000  1.0
  H  H75  1  0.71174000  0.59389000  0.25800000  1.0
  H  H76  1  0.23768000  0.81906000  0.80673000  1.0
  H  H77  1  0.26232000  0.18095000  0.30673000  1.0
  H  H78  1  0.76232000  0.31906000  0.69327000  1.0
  H  H79  1  0.73767000  0.68094000  0.19328000  1.0
  H  H80  1  0.29572000  0.82145000  0.65616000  1.0
  H  H81  1  0.20428000  0.17855000  0.15616000  1.0
  H  H82  1  0.70427000  0.32146000  0.84384000  1.0
  H  H83  1  0.79572000  0.67855000  0.34384000  1.0
  H  H84  1  0.40422000  0.07587000  0.71005000  1.0
  H  H85  1  0.09580000  0.92412000  0.21004000  1.0
  H  H86  1  0.59579000  0.57588000  0.78996000  1.0
  H  H87  1  0.90421000  0.42413000  0.28995000  1.0
  H  H88  1  0.34210000  0.98823000  0.65813000  1.0
  H  H89  1  0.15790000  0.01177000  0.15813000  1.0
  H  H90  1  0.65790000  0.48823000  0.84187000  1.0
  H  H91  1  0.84210000  0.51177000  0.34187000  1.0
  H  H92  1  0.47634000  0.01408000  0.64466000  1.0
  H  H93  1  0.02366000  0.98592000  0.14466000  1.0
  H  H94  1  0.52366000  0.51408000  0.85533000  1.0
  H  H95  1  0.97634000  0.48592000  0.35533000  1.0
  H  H96  1  0.50285000  0.68935000  0.73534000  1.0
  H  H97  1  0.99715000  0.31065000  0.23535000  1.0
  H  H98  1  0.49715000  0.18935000  0.76465000  1.0
  H  H99  1  0.00285000  0.81065000  0.26466000  1.0
  H  H100  1  0.48136000  0.76253000  0.81005000  1.0
  H  H101  1  0.01864000  0.23746000  0.31005000  1.0
  H  H102  1  0.51863000  0.26254000  0.68995000  1.0
  H  H103  1  0.98136000  0.73747000  0.18995000  1.0
  H  H104  1  0.59151000  0.78153000  0.75465000  1.0
  H  H105  1  0.90849000  0.21846000  0.25466000  1.0
  H  H106  1  0.40849000  0.28154000  0.74534000  1.0
  H  H107  1  0.09150000  0.71847000  0.24535000  1.0
  H  H108  1  0.49605000  0.74968000  0.61626000  1.0
  H  H109  1  0.00396000  0.25031000  0.11627000  1.0
  H  H110  1  0.50396000  0.24969000  0.88373000  1.0
  H  H111  1  0.99604000  0.75032000  0.38374000  1.0
  H  H112  1  0.57044000  0.85328000  0.63166000  1.0
  H  H113  1  0.92956000  0.14671000  0.13167000  1.0
  H  H114  1  0.42956000  0.35329000  0.86833000  1.0
  H  H115  1  0.07043000  0.64671000  0.36834000  1.0
  H  H116  1  0.44430000  0.86253000  0.59416000  1.0
  H  H117  1  0.05569000  0.13746000  0.09417000  1.0
  H  H118  1  0.55569000  0.36254000  0.90583000  1.0
  H  H119  1  0.94430000  0.63747000  0.40584000  1.0
  H  H120  1  0.53399000  0.80919000  0.91013000  1.0
  H  H121  1  0.96601000  0.19081000  0.41014000  1.0
  H  H122  1  0.46601000  0.30919000  0.58986000  1.0
  H  H123  1  0.03399000  0.69081000  0.08987000  1.0
  H  H124  1  0.42144000  0.66707000  0.88789000  1.0
  H  H125  1  0.07855000  0.33293000  0.38790000  1.0
  H  H126  1  0.57856000  0.16708000  0.61210000  1.0
  H  H127  1  0.92144000  0.83292000  0.11211000  1.0
  H  H128  1  0.47616000  0.57367000  0.10125000  1.0
  H  H129  1  0.02385000  0.42634000  0.60125000  1.0
  H  H130  1  0.52384000  0.07367000  0.39874000  1.0
  H  H131  1  0.97616000  0.92633000  0.89875000  1.0
  H  H132  1  0.58940000  0.71437000  0.12281000  1.0
  H  H133  1  0.91060000  0.28564000  0.62281000  1.0
  H  H134  1  0.41059000  0.21436000  0.37719000  1.0
  H  H135  1  0.08940000  0.78563000  0.87719000  1.0
  H  H136  1  0.73349000  0.79614000  0.86549000  1.0
  H  H137  1  0.76651000  0.20386000  0.36549000  1.0
  H  H138  1  0.26651000  0.29614000  0.63451000  1.0
  H  H139  1  0.23349000  0.70386000  0.13451000  1.0
  H  H140  1  0.78309000  0.83981000  0.79442000  1.0
  H  H141  1  0.71691000  0.16019000  0.29442000  1.0
  H  H142  1  0.21691000  0.33981000  0.70558000  1.0
  H  H143  1  0.28309000  0.66019000  0.20558000  1.0
  H  H144  1  0.61878000  0.10672000  0.01854000  1.0
  H  H145  1  0.88122000  0.89329000  0.51854000  1.0
  H  H146  1  0.38122000  0.60672000  0.48146000  1.0
  H  H147  1  0.11878000  0.39328000  0.98146000  1.0
  H  H148  1  0.60888000  0.15772000  0.94228000  1.0
  H  H149  1  0.89112000  0.84229000  0.44228000  1.0
  H  H150  1  0.39112000  0.65771000  0.55772000  1.0
  H  H151  1  0.10888000  0.34228000  0.05772000  1.0
  C  C152  1  0.01294000  0.09520000  0.82881000  1.0
  C  C153  1  0.48707000  0.90480000  0.32881000  1.0
  C  C154  1  0.98707000  0.59520000  0.67119000  1.0
  C  C155  1  0.51294000  0.40480000  0.17119000  1.0
  C  C156  1  0.12501000  0.06796000  0.80792000  1.0
  C  C157  1  0.37500000  0.93205000  0.30794000  1.0
  C  C158  1  0.87500000  0.56795000  0.69207000  1.0
  C  C159  1  0.62501000  0.43204000  0.19208000  1.0
  C  C160  1  0.19046000  0.15877000  0.81289000  1.0
  C  C161  1  0.30955000  0.84124000  0.31290000  1.0
  C  C162  1  0.80954000  0.65877000  0.68710000  1.0
  C  C163  1  0.69045000  0.34123000  0.18711000  1.0
  C  C164  1  0.12685000  0.22588000  0.86013000  1.0
  C  C165  1  0.37315000  0.77412000  0.36013000  1.0
  C  C166  1  0.87315000  0.72588000  0.63987000  1.0
  C  C167  1  0.62685000  0.27412000  0.13987000  1.0
  C  C168  1  0.01074000  0.20631000  0.83495000  1.0
  C  C169  1  0.48926000  0.79369000  0.33496000  1.0
  C  C170  1  0.98926000  0.70631000  0.66505000  1.0
  C  C171  1  0.51074000  0.29368000  0.16505000  1.0
  C  C172  1  0.93219000  0.05473000  0.77893000  1.0
  C  C173  1  0.56781000  0.94527000  0.27893000  1.0
  C  C174  1  0.06781000  0.55473000  0.72107000  1.0
  C  C175  1  0.43219000  0.44528000  0.22106000  1.0
  C  C176  1  0.15559000  0.32946000  0.84920000  1.0
  C  C177  1  0.34441000  0.67054000  0.34919000  1.0
  C  C178  1  0.84441000  0.82946000  0.65081000  1.0
  C  C179  1  0.65559000  0.17053000  0.15081000  1.0
  C  C180  1  0.14356000  0.19871000  0.93823000  1.0
  C  C181  1  0.35643000  0.80128000  0.43824000  1.0
  C  C182  1  0.85643000  0.69872000  0.56176000  1.0
  C  C183  1  0.64356000  0.30129000  0.06177000  1.0
  C  C184  1  0.98898000  0.25329000  0.76310000  1.0
  C  C185  1  0.51102000  0.74670000  0.26311000  1.0
  C  C186  1  0.01102000  0.75329000  0.73689000  1.0
  C  C187  1  0.48898000  0.24671000  0.23690000  1.0
  C  C188  1  0.92913000  0.23995000  0.88834000  1.0
  C  C189  1  0.57087000  0.76005000  0.38835000  1.0
  C  C190  1  0.07087000  0.73995000  0.61165000  1.0
  C  C191  1  0.42913000  0.26005000  0.11166000  1.0
  C  C192  1  0.44395000  0.93238000  0.74078000  1.0
  C  C193  1  0.05606000  0.06761000  0.24078000  1.0
  C  C194  1  0.55605000  0.43239000  0.75922000  1.0
  C  C195  1  0.94394000  0.56761000  0.25922000  1.0
  C  C196  1  0.35918000  0.92597000  0.79792000  1.0
  C  C197  1  0.14083000  0.07402000  0.29792000  1.0
  C  C198  1  0.64083000  0.42598000  0.70207000  1.0
  C  C199  1  0.85917000  0.57403000  0.20208000  1.0
  C  C200  1  0.27374000  0.86379000  0.76616000  1.0
  C  C201  1  0.22627000  0.13621000  0.26617000  1.0
  C  C202  1  0.72626000  0.36379000  0.73383000  1.0
  C  C203  1  0.77373000  0.63621000  0.23384000  1.0
  C  C204  1  0.32665000  0.80325000  0.70872000  1.0
  C  C205  1  0.17335000  0.19675000  0.20873000  1.0
  C  C206  1  0.67334000  0.30325000  0.79127000  1.0
  C  C207  1  0.82665000  0.69675000  0.29128000  1.0
  C  C208  1  0.44594000  0.82931000  0.70793000  1.0
  C  C209  1  0.05406000  0.17068000  0.20794000  1.0
  C  C210  1  0.55406000  0.32932000  0.79206000  1.0
  C  C211  1  0.94594000  0.67069000  0.29207000  1.0
  C  C212  1  0.54933000  0.95650000  0.77343000  1.0
  C  C213  1  0.95068000  0.04349000  0.27344000  1.0
  C  C214  1  0.45068000  0.45651000  0.72656000  1.0
  C  C215  1  0.04933000  0.54350000  0.22656000  1.0
  C  C216  1  0.31049000  0.69758000  0.71651000  1.0
  C  C217  1  0.18951000  0.30242000  0.21650000  1.0
  C  C218  1  0.68951000  0.19759000  0.78349000  1.0
  C  C219  1  0.81049000  0.80242000  0.28350000  1.0
  C  C220  1  0.41532000  0.00676000  0.68472000  1.0
  C  C221  1  0.08469000  0.99324000  0.18473000  1.0
  C  C222  1  0.58468000  0.50676000  0.81527000  1.0
  C  C223  1  0.91532000  0.49324000  0.31527000  1.0
  C  C224  1  0.50882000  0.76206000  0.75522000  1.0
  C  C225  1  0.99118000  0.23793000  0.25522000  1.0
  C  C226  1  0.49117000  0.26207000  0.74478000  1.0
  C  C227  1  0.00882000  0.73794000  0.24478000  1.0
  C  C228  1  0.49149000  0.82399000  0.63305000  1.0
  C  C229  1  0.00851000  0.17600000  0.13306000  1.0
  C  C230  1  0.50850000  0.32399000  0.86694000  1.0
  C  C231  1  0.99149000  0.67601000  0.36695000  1.0
  C  C232  1  0.57024000  0.76836000  0.01703000  1.0
  C  C233  1  0.92976000  0.23165000  0.51704000  1.0
  C  C234  1  0.42975000  0.26835000  0.48296000  1.0
  C  C235  1  0.07023000  0.73164000  0.98297000  1.0
  C  C236  1  0.52245000  0.75562000  0.95093000  1.0
  C  C237  1  0.97755000  0.24438000  0.45094000  1.0
  C  C238  1  0.47755000  0.25563000  0.54906000  1.0
  C  C239  1  0.02244000  0.74437000  0.04906000  1.0
  C  C240  1  0.45974000  0.67719000  0.93883000  1.0
  C  C241  1  0.04026000  0.32281000  0.43883000  1.0
  C  C242  1  0.54026000  0.17719000  0.56117000  1.0
  C  C243  1  0.95974000  0.82281000  0.06117000  1.0
  C  C244  1  0.44420000  0.61033000  0.99264000  1.0
  C  C245  1  0.05581000  0.38968000  0.49264000  1.0
  C  C246  1  0.55580000  0.11033000  0.50735000  1.0
  C  C247  1  0.94420000  0.88967000  0.00736000  1.0
  C  C248  1  0.49075000  0.62432000  0.05911000  1.0
  C  C249  1  0.00926000  0.37569000  0.55911000  1.0
  C  C250  1  0.50925000  0.12431000  0.44089000  1.0
  C  C251  1  0.99075000  0.87568000  0.94089000  1.0
  C  C252  1  0.55330000  0.70270000  0.07135000  1.0
  C  C253  1  0.94670000  0.29731000  0.57136000  1.0
  C  C254  1  0.44669000  0.20269000  0.42864000  1.0
  C  C255  1  0.05330000  0.79730000  0.92865000  1.0
  C  C256  1  0.63850000  0.85247000  0.02943000  1.0
  C  C257  1  0.86150000  0.14753000  0.52944000  1.0
  C  C258  1  0.36150000  0.35247000  0.47056000  1.0
  C  C259  1  0.13850000  0.64752000  0.97057000  1.0
  C  C260  1  0.37646000  0.52586000  0.97972000  1.0
  C  C261  1  0.12355000  0.47413000  0.47972000  1.0
  C  C262  1  0.62354000  0.02587000  0.52028000  1.0
  C  C263  1  0.87646000  0.97413000  0.02028000  1.0
  O  O264  1  0.84177000  0.03127000  0.80367000  1.0
  O  O265  1  0.65823000  0.96874000  0.30367000  1.0
  O  O266  1  0.15823000  0.53127000  0.69633000  1.0
  O  O267  1  0.34177000  0.46873000  0.19633000  1.0
  O  O268  1  0.95016000  0.04485000  0.71349000  1.0
  O  O269  1  0.54984000  0.95514000  0.21350000  1.0
  O  O270  1  0.04984000  0.54486000  0.78651000  1.0
  O  O271  1  0.45016000  0.45515000  0.28651000  1.0
  O  O272  1  0.13703000  0.39164000  0.89664000  1.0
  O  O273  1  0.36297000  0.60836000  0.39664000  1.0
  O  O274  1  0.86297000  0.89164000  0.60336000  1.0
  O  O275  1  0.63703000  0.10836000  0.10336000  1.0
  O  O276  1  0.19939000  0.35698000  0.79162000  1.0
  O  O277  1  0.30061000  0.64303000  0.29162000  1.0
  O  O278  1  0.80062000  0.85698000  0.70838000  1.0
  O  O279  1  0.69939000  0.14302000  0.20838000  1.0
  O  O280  1  0.62583000  0.97507000  0.73290000  1.0
  O  O281  1  0.87418000  0.02492000  0.23290000  1.0
  O  O282  1  0.37418000  0.47508000  0.76709000  1.0
  O  O283  1  0.12582000  0.52493000  0.26709000  1.0
  O  O284  1  0.55853000  0.95560000  0.84062000  1.0
  O  O285  1  0.94148000  0.04440000  0.34062000  1.0
  O  O286  1  0.44148000  0.45560000  0.65938000  1.0
  O  O287  1  0.05852000  0.54441000  0.15938000  1.0
  O  O288  1  0.32699000  0.64812000  0.66082000  1.0
  O  O289  1  0.17301000  0.35187000  0.16082000  1.0
  O  O290  1  0.67301000  0.14813000  0.83918000  1.0
  O  O291  1  0.82699000  0.85187000  0.33918000  1.0
  O  O292  1  0.28343000  0.66387000  0.77605000  1.0
  O  O293  1  0.21657000  0.33613000  0.27606000  1.0
  O  O294  1  0.71657000  0.16386000  0.72394000  1.0
  O  O295  1  0.78342000  0.83613000  0.22394000  1.0
  O  O296  1  0.65931000  0.87439000  0.09298000  1.0
  O  O297  1  0.84071000  0.12562000  0.59298000  1.0
  O  O298  1  0.34070000  0.37439000  0.40702000  1.0
  O  O299  1  0.15930000  0.62561000  0.90702000  1.0
  O  O300  1  0.67235000  0.89634000  0.97524000  1.0
  O  O301  1  0.82764000  0.10367000  0.47525000  1.0
  O  O302  1  0.32764000  0.39634000  0.52475000  1.0
  O  O303  1  0.17235000  0.60366000  0.02475000  1.0
  O  O304  1  0.35271000  0.47397000  0.03285000  1.0
  O  O305  1  0.14728000  0.52604000  0.53285000  1.0
  O  O306  1  0.64728000  0.97396000  0.46715000  1.0
  O  O307  1  0.85272000  0.02603000  0.96715000  1.0
  O  O308  1  0.34621000  0.50929000  0.91697000  1.0
  O  O309  1  0.15379000  0.49071000  0.41697000  1.0
  O  O310  1  0.65379000  0.00929000  0.58302000  1.0
  O  O311  1  0.84621000  0.99071000  0.08303000  1.0
  O  O312  1  0.77125000  0.84979000  0.84633000  1.0
  O  O313  1  0.72875000  0.15022000  0.34633000  1.0
  O  O314  1  0.22875000  0.34979000  0.65368000  1.0
  O  O315  1  0.27124000  0.65021000  0.15367000  1.0
  O  O316  1  0.61139000  0.09659000  0.96605000  1.0
  O  O317  1  0.88860000  0.90342000  0.46605000  1.0
  O  O318  1  0.38861000  0.59659000  0.53395000  1.0
  O  O319  1  0.11139000  0.40341000  0.03395000  1.0
