# generated using pymatgen
data_CdH18C27(N3O2)2
_symmetry_space_group_name_H-M   'P 1'
_cell_length_a   11.33700000
_cell_length_b   13.73573915
_cell_length_c   24.79770000
_cell_angle_alpha   90.00006503
_cell_angle_beta   90.00020000
_cell_angle_gamma   65.66072495
_symmetry_Int_Tables_number   1
_chemical_formula_structural   CdH18C27(N3O2)2
_chemical_formula_sum   'Cd4 H72 C108 N24 O16'
_cell_volume   3518.33856779
_cell_formula_units_Z   4
loop_
 _symmetry_equiv_pos_site_id
 _symmetry_equiv_pos_as_xyz
  1  'x, y, z'
loop_
 _atom_site_type_symbol
 _atom_site_label
 _atom_site_symmetry_multiplicity
 _atom_site_fract_x
 _atom_site_fract_y
 _atom_site_fract_z
 _atom_site_occupancy
  Cd  Cd0  1  0.18094000  0.17429000  0.83816000  1.0
  Cd  Cd1  1  0.81906000  0.32571000  0.33816000  1.0
  Cd  Cd2  1  0.81906000  0.82571000  0.16184000  1.0
  Cd  Cd3  1  0.18094000  0.67429000  0.66184000  1.0
  H  H4  1  0.96853000  0.88789000  0.93356000  1.0
  H  H5  1  0.03147000  0.61211000  0.43356000  1.0
  H  H6  1  0.03147000  0.11211000  0.06644000  1.0
  H  H7  1  0.96854000  0.38789000  0.56644000  1.0
  H  H8  1  0.22018000  0.66354000  0.81696000  1.0
  H  H9  1  0.77982000  0.83646000  0.31696000  1.0
  H  H10  1  0.77982000  0.33646000  0.18304000  1.0
  H  H11  1  0.22018000  0.16354000  0.68304000  1.0
  H  H12  1  0.03795000  0.55561000  0.94294000  1.0
  H  H13  1  0.96204000  0.94439000  0.44294000  1.0
  H  H14  1  0.96206000  0.44438000  0.05706000  1.0
  H  H15  1  0.03795000  0.05561000  0.55706000  1.0
  H  H16  1  0.76821000  0.69523000  0.95650000  1.0
  H  H17  1  0.23179000  0.80476000  0.45650000  1.0
  H  H18  1  0.23179000  0.30476000  0.04350000  1.0
  H  H19  1  0.76821000  0.19524000  0.54350000  1.0
  H  H20  1  0.65649000  0.76877000  0.05756000  1.0
  H  H21  1  0.34350000  0.73123000  0.55756000  1.0
  H  H22  1  0.34350000  0.23123000  0.94244000  1.0
  H  H23  1  0.65650000  0.26877000  0.44244000  1.0
  H  H24  1  0.00328000  0.81031000  0.04555000  1.0
  H  H25  1  0.99671000  0.68969000  0.54555000  1.0
  H  H26  1  0.99672000  0.18969000  0.95445000  1.0
  H  H27  1  0.00329000  0.31031000  0.45445000  1.0
  H  H28  1  0.09767000  0.83064000  0.76554000  1.0
  H  H29  1  0.90233000  0.66936000  0.26554000  1.0
  H  H30  1  0.90233000  0.16936000  0.23446000  1.0
  H  H31  1  0.09768000  0.33064000  0.73446000  1.0
  H  H32  1  0.13172000  0.01989000  0.74965000  1.0
  H  H33  1  0.86830000  0.48010000  0.24965000  1.0
  H  H34  1  0.86828000  0.98011000  0.25035000  1.0
  H  H35  1  0.13171000  0.51990000  0.75035000  1.0
  H  H36  1  0.14896000  0.95556000  0.91601000  1.0
  H  H37  1  0.85103000  0.54445000  0.41601000  1.0
  H  H38  1  0.85103000  0.04445000  0.08399000  1.0
  H  H39  1  0.14897000  0.45555000  0.58399000  1.0
  H  H40  1  0.37544000  0.48659000  0.82683000  1.0
  H  H41  1  0.62456000  0.01342000  0.32683000  1.0
  H  H42  1  0.62457000  0.51341000  0.17317000  1.0
  H  H43  1  0.37544000  0.98658000  0.67317000  1.0
  H  H44  1  0.41148000  0.27857000  0.80246000  1.0
  H  H45  1  0.58853000  0.22143000  0.30245000  1.0
  H  H46  1  0.58852000  0.72143000  0.19754000  1.0
  H  H47  1  0.41148000  0.77857000  0.69754000  1.0
  H  H48  1  0.04228000  0.43624000  0.87182000  1.0
  H  H49  1  0.95773000  0.06375000  0.37182000  1.0
  H  H50  1  0.95773000  0.56375000  0.12818000  1.0
  H  H51  1  0.04227000  0.93625000  0.62818000  1.0
  H  H52  1  0.52736000  0.08885000  0.69992000  1.0
  H  H53  1  0.47264000  0.41115000  0.19992000  1.0
  H  H54  1  0.47265000  0.91115000  0.30008000  1.0
  H  H55  1  0.52735000  0.58885000  0.80008000  1.0
  H  H56  1  0.74114000  0.97277000  0.65894000  1.0
  H  H57  1  0.25885000  0.52724000  0.15894000  1.0
  H  H58  1  0.25885000  0.02724000  0.34105000  1.0
  H  H59  1  0.74114000  0.47277000  0.84106000  1.0
  H  H60  1  0.91376000  0.66382000  0.77228000  1.0
  H  H61  1  0.08623000  0.83619000  0.27228000  1.0
  H  H62  1  0.08624000  0.33618000  0.22772000  1.0
  H  H63  1  0.91376000  0.16382000  0.72772000  1.0
  H  H64  1  0.82922000  0.59689000  0.84884000  1.0
  H  H65  1  0.17078000  0.90311000  0.34884000  1.0
  H  H66  1  0.17078000  0.40311000  0.15116000  1.0
  H  H67  1  0.82922000  0.09689000  0.65116000  1.0
  H  H68  1  0.60992000  0.70884000  0.88715000  1.0
  H  H69  1  0.39008000  0.79116000  0.38715000  1.0
  H  H70  1  0.39008000  0.29116000  0.11285000  1.0
  H  H71  1  0.60992000  0.20884000  0.61285000  1.0
  H  H72  1  0.48070000  0.88830000  0.84946000  1.0
  H  H73  1  0.51930000  0.61170000  0.34946000  1.0
  H  H74  1  0.51930000  0.11170000  0.15054000  1.0
  H  H75  1  0.48070000  0.38830000  0.65054000  1.0
  C  C76  1  0.99651000  0.72355000  0.94294000  1.0
  C  C77  1  0.00349000  0.77644000  0.44294000  1.0
  C  C78  1  0.00348000  0.27645000  0.05706000  1.0
  C  C79  1  0.99652000  0.22355000  0.55706000  1.0
  C  C80  1  0.01944000  0.80615000  0.91925000  1.0
  C  C81  1  0.98056000  0.69385000  0.41925000  1.0
  C  C82  1  0.98056000  0.19385000  0.08075000  1.0
  C  C83  1  0.01944000  0.30615000  0.58075000  1.0
  C  C84  1  0.10118000  0.78323000  0.87440000  1.0
  C  C85  1  0.89881000  0.71677000  0.37440000  1.0
  C  C86  1  0.89882000  0.21677000  0.12560000  1.0
  C  C87  1  0.10119000  0.28323000  0.62560000  1.0
  C  C88  1  0.15893000  0.68025000  0.85287000  1.0
  C  C89  1  0.84107000  0.81975000  0.35287000  1.0
  C  C90  1  0.84107000  0.31975000  0.14713000  1.0
  C  C91  1  0.15893000  0.18025000  0.64713000  1.0
  C  C92  1  0.13409000  0.59922000  0.87757000  1.0
  C  C93  1  0.86591000  0.90078000  0.37757000  1.0
  C  C94  1  0.86592000  0.40078000  0.12243000  1.0
  C  C95  1  0.13409000  0.09922000  0.62243000  1.0
  C  C96  1  0.05375000  0.61967000  0.92284000  1.0
  C  C97  1  0.94625000  0.88033000  0.42284000  1.0
  C  C98  1  0.94625000  0.38033000  0.07716000  1.0
  C  C99  1  0.05375000  0.11967000  0.57716000  1.0
  C  C100  1  0.79923000  0.72840000  0.99047000  1.0
  C  C101  1  0.20077000  0.77160000  0.49046000  1.0
  C  C102  1  0.20077000  0.27160000  0.00954000  1.0
  C  C103  1  0.79923000  0.22840000  0.50954000  1.0
  C  C104  1  0.74482000  0.76692000  0.03976000  1.0
  C  C105  1  0.25518000  0.73308000  0.53976000  1.0
  C  C106  1  0.25518000  0.23308000  0.96024000  1.0
  C  C107  1  0.74482000  0.26692000  0.46024000  1.0
  C  C108  1  0.92039000  0.79382000  0.03511000  1.0
  C  C109  1  0.07962000  0.70617000  0.53511000  1.0
  C  C110  1  0.07962000  0.20617000  0.96489000  1.0
  C  C111  1  0.92038000  0.29383000  0.46489000  1.0
  C  C112  1  0.11545000  0.88451000  0.79320000  1.0
  C  C113  1  0.88455000  0.61549000  0.29320000  1.0
  C  C114  1  0.88455000  0.11549000  0.20680000  1.0
  C  C115  1  0.11545000  0.38451000  0.70680000  1.0
  C  C116  1  0.13003000  0.97796000  0.78640000  1.0
  C  C117  1  0.86997000  0.52204000  0.28640000  1.0
  C  C118  1  0.86997000  0.02204000  0.21360000  1.0
  C  C119  1  0.13003000  0.47796000  0.71360000  1.0
  C  C120  1  0.13722000  0.95060000  0.87283000  1.0
  C  C121  1  0.86278000  0.54940000  0.37283000  1.0
  C  C122  1  0.86278000  0.04940000  0.12717000  1.0
  C  C123  1  0.13722000  0.45060000  0.62717000  1.0
  C  C124  1  0.31463000  0.44429000  0.83379000  1.0
  C  C125  1  0.68537000  0.05571000  0.33379000  1.0
  C  C126  1  0.68537000  0.55571000  0.16621000  1.0
  C  C127  1  0.31463000  0.94429000  0.66621000  1.0
  C  C128  1  0.32990000  0.34255000  0.82127000  1.0
  C  C129  1  0.67009000  0.15746000  0.32127000  1.0
  C  C130  1  0.67010000  0.65745000  0.17873000  1.0
  C  C131  1  0.32991000  0.84254000  0.67873000  1.0
  C  C132  1  0.13868000  0.42063000  0.85727000  1.0
  C  C133  1  0.86133000  0.07936000  0.35728000  1.0
  C  C134  1  0.86133000  0.57936000  0.14272000  1.0
  C  C135  1  0.13867000  0.92064000  0.64272000  1.0
  C  C136  1  0.54402000  0.98054000  0.76426000  1.0
  C  C137  1  0.45599000  0.51945000  0.26426000  1.0
  C  C138  1  0.45599000  0.01945000  0.23574000  1.0
  C  C139  1  0.54401000  0.48055000  0.73574000  1.0
  C  C140  1  0.58735000  0.01177000  0.71794000  1.0
  C  C141  1  0.41264000  0.48823000  0.21794000  1.0
  C  C142  1  0.41264000  0.98823000  0.28206000  1.0
  C  C143  1  0.58735000  0.51177000  0.78206000  1.0
  C  C144  1  0.70788000  0.94744000  0.69531000  1.0
  C  C145  1  0.29212000  0.55256000  0.19531000  1.0
  C  C146  1  0.29212000  0.05256000  0.30469000  1.0
  C  C147  1  0.70788000  0.44744000  0.80469000  1.0
  C  C148  1  0.78899000  0.85165000  0.71877000  1.0
  C  C149  1  0.21101000  0.64835000  0.21878000  1.0
  C  C150  1  0.21102000  0.14834000  0.28122000  1.0
  C  C151  1  0.78898000  0.35166000  0.78123000  1.0
  C  C152  1  0.81916000  0.71235000  0.78920000  1.0
  C  C153  1  0.18085000  0.78765000  0.28920000  1.0
  C  C154  1  0.18084000  0.28765000  0.21080000  1.0
  C  C155  1  0.81916000  0.21235000  0.71080000  1.0
  C  C156  1  0.77175000  0.67594000  0.83223000  1.0
  C  C157  1  0.22824000  0.82407000  0.33223000  1.0
  C  C158  1  0.22825000  0.32406000  0.16777000  1.0
  C  C159  1  0.77175000  0.17594000  0.66777000  1.0
  C  C160  1  0.64839000  0.73897000  0.85383000  1.0
  C  C161  1  0.35161000  0.76103000  0.35383000  1.0
  C  C162  1  0.35161000  0.26103000  0.14617000  1.0
  C  C163  1  0.64839000  0.23897000  0.64617000  1.0
  C  C164  1  0.57499000  0.83844000  0.83253000  1.0
  C  C165  1  0.42501000  0.66156000  0.33253000  1.0
  C  C166  1  0.42501000  0.16156000  0.16747000  1.0
  C  C167  1  0.57499000  0.33844000  0.66747000  1.0
  C  C168  1  0.62061000  0.87894000  0.78813000  1.0
  C  C169  1  0.37939000  0.62105000  0.28814000  1.0
  C  C170  1  0.37940000  0.12105000  0.21186000  1.0
  C  C171  1  0.62060000  0.37895000  0.71187000  1.0
  C  C172  1  0.74573000  0.81384000  0.76545000  1.0
  C  C173  1  0.25426000  0.68617000  0.26545000  1.0
  C  C174  1  0.25427000  0.18616000  0.23455000  1.0
  C  C175  1  0.74573000  0.31384000  0.73455000  1.0
  C  C176  1  0.41668000  0.05612000  0.78747000  1.0
  C  C177  1  0.58333000  0.44387000  0.28747000  1.0
  C  C178  1  0.58332000  0.94388000  0.21253000  1.0
  C  C179  1  0.41667000  0.55613000  0.71253000  1.0
  C  C180  1  0.92078000  0.79454000  0.69382000  1.0
  C  C181  1  0.07922000  0.70546000  0.19382000  1.0
  C  C182  1  0.07923000  0.20545000  0.30618000  1.0
  C  C183  1  0.92077000  0.29455000  0.80618000  1.0
  N  N184  1  0.82156000  0.80669000  0.06707000  1.0
  N  N185  1  0.17844000  0.69331000  0.56707000  1.0
  N  N186  1  0.17843000  0.19331000  0.93293000  1.0
  N  N187  1  0.82156000  0.30669000  0.43293000  1.0
  N  N188  1  0.91079000  0.74665000  0.98773000  1.0
  N  N189  1  0.08920000  0.75335000  0.48773000  1.0
  N  N190  1  0.08920000  0.25335000  0.01227000  1.0
  N  N191  1  0.91080000  0.24665000  0.51227000  1.0
  N  N192  1  0.14428000  0.01771000  0.83602000  1.0
  N  N193  1  0.85572000  0.48229000  0.33602000  1.0
  N  N194  1  0.85572000  0.98229000  0.16398000  1.0
  N  N195  1  0.14428000  0.51771000  0.66398000  1.0
  N  N196  1  0.11962000  0.86787000  0.84853000  1.0
  N  N197  1  0.88038000  0.63213000  0.34852000  1.0
  N  N198  1  0.88038000  0.13213000  0.15148000  1.0
  N  N199  1  0.11962000  0.36787000  0.65148000  1.0
  N  N200  1  0.21975000  0.32945000  0.83589000  1.0
  N  N201  1  0.78027000  0.17054000  0.33589000  1.0
  N  N202  1  0.78027000  0.67054000  0.16411000  1.0
  N  N203  1  0.21974000  0.82945000  0.66411000  1.0
  N  N204  1  0.19233000  0.49372000  0.85697000  1.0
  N  N205  1  0.80767000  0.00628000  0.35697000  1.0
  N  N206  1  0.80767000  0.50628000  0.14303000  1.0
  N  N207  1  0.19233000  0.99372000  0.64303000  1.0
  O  O208  1  0.40527000  0.06583000  0.83867000  1.0
  O  O209  1  0.59473000  0.43417000  0.33867000  1.0
  O  O210  1  0.59473000  0.93417000  0.16133000  1.0
  O  O211  1  0.40527000  0.56583000  0.66133000  1.0
  O  O212  1  0.32553000  0.10846000  0.75489000  1.0
  O  O213  1  0.67446000  0.39154000  0.25489000  1.0
  O  O214  1  0.67446000  0.89154000  0.24511000  1.0
  O  O215  1  0.32553000  0.60846000  0.74511000  1.0
  O  O216  1  0.93532000  0.80658000  0.64395000  1.0
  O  O217  1  0.06468000  0.69343000  0.14395000  1.0
  O  O218  1  0.06467000  0.19343000  0.35605000  1.0
  O  O219  1  0.93532000  0.30657000  0.85605000  1.0
  O  O220  1  0.01518000  0.73851000  0.72501000  1.0
  O  O221  1  0.98481000  0.76149000  0.22501000  1.0
  O  O222  1  0.98481000  0.26149000  0.27499000  1.0
  O  O223  1  0.01519000  0.23851000  0.77499000  1.0
