# generated using pymatgen
data_MnH24C22S2(NO2)3
_symmetry_space_group_name_H-M   'P 1'
_cell_length_a   10.09890000
_cell_length_b   10.81310000
_cell_length_c   11.37380000
_cell_angle_alpha   84.59490000
_cell_angle_beta   79.74760000
_cell_angle_gamma   71.39380000
_symmetry_Int_Tables_number   1
_chemical_formula_structural   MnH24C22S2(NO2)3
_chemical_formula_sum   'Mn2 H48 C44 S4 N6 O12'
_cell_volume   1157.38110823
_cell_formula_units_Z   2
loop_
 _symmetry_equiv_pos_site_id
 _symmetry_equiv_pos_as_xyz
  1  'x, y, z'
loop_
 _atom_site_type_symbol
 _atom_site_label
 _atom_site_symmetry_multiplicity
 _atom_site_fract_x
 _atom_site_fract_y
 _atom_site_fract_z
 _atom_site_occupancy
  Mn  Mn0  1  0.89447000  0.11709000  0.23689000  1.0
  Mn  Mn1  1  0.10552000  0.88291000  0.76312000  1.0
  H  H2  1  0.10842000  0.31489000  0.92550000  1.0
  H  H3  1  0.89157000  0.68510000  0.07451000  1.0
  H  H4  1  0.17385000  0.52145000  0.88065000  1.0
  H  H5  1  0.82615000  0.47855000  0.11935000  1.0
  H  H6  1  0.31011000  0.55542000  0.68401000  1.0
  H  H7  1  0.68990000  0.44457000  0.31599000  1.0
  H  H8  1  0.37893000  0.38759000  0.53016000  1.0
  H  H9  1  0.62108000  0.61240000  0.46984000  1.0
  H  H10  1  0.17900000  0.28132000  0.39627000  1.0
  H  H11  1  0.82099000  0.71869000  0.60372000  1.0
  H  H12  1  0.03662000  0.41958000  0.25020000  1.0
  H  H13  1  0.96339000  0.58045000  0.74978000  1.0
  H  H14  1  0.15498000  0.51016000  0.06587000  1.0
  H  H15  1  0.84505000  0.48986000  0.93412000  1.0
  H  H16  1  0.41804000  0.44543000  0.02432000  1.0
  H  H17  1  0.58198000  0.55458000  0.97568000  1.0
  H  H18  1  0.13582000  0.05291000  0.41717000  1.0
  H  H19  1  0.86417000  0.94710000  0.58284000  1.0
  H  H20  1  0.42265000  0.92829000  0.34098000  1.0
  H  H21  1  0.57735000  0.07172000  0.65901000  1.0
  H  H22  1  0.19089000  0.93914000  0.06233000  1.0
  H  H23  1  0.80909000  0.06086000  0.93767000  1.0
  H  H24  1  0.45071000  0.79575000  0.03818000  1.0
  H  H25  1  0.54927000  0.20425000  0.96182000  1.0
  H  H26  1  0.54629000  0.78009000  0.15790000  1.0
  H  H27  1  0.45369000  0.21991000  0.84210000  1.0
  H  H28  1  0.57023000  0.00268000  0.10901000  1.0
  H  H29  1  0.42978000  0.99731000  0.89098000  1.0
  H  H30  1  0.64716000  0.89599000  0.99003000  1.0
  H  H31  1  0.35284000  0.10399000  0.00997000  1.0
  H  H32  1  0.69700000  0.34544000  0.74651000  1.0
  H  H33  1  0.30297000  0.65457000  0.25350000  1.0
  H  H34  1  0.58783000  0.33626000  0.64226000  1.0
  H  H35  1  0.41215000  0.66374000  0.35774000  1.0
  H  H36  1  0.63799000  0.48000000  0.64577000  1.0
  H  H37  1  0.36198000  0.52000000  0.35423000  1.0
  H  H38  1  0.92409000  0.36850000  0.66950000  1.0
  H  H39  1  0.07590000  0.63151000  0.33051000  1.0
  H  H40  1  0.95384000  0.41144000  0.51386000  1.0
  H  H41  1  0.04614000  0.58857000  0.48615000  1.0
  H  H42  1  0.01774000  0.24462000  0.56448000  1.0
  H  H43  1  0.98224000  0.75539000  0.43554000  1.0
  H  H44  1  0.68665000  0.24292000  0.47349000  1.0
  H  H45  1  0.31335000  0.75707000  0.52652000  1.0
  H  H46  1  0.83133000  0.25964000  0.04867000  1.0
  H  H47  1  0.16868000  0.74034000  0.95133000  1.0
  H  H48  1  0.99564000  0.17436000  0.00043000  1.0
  H  H49  1  0.00436000  0.82562000  0.99957000  1.0
  C  C50  1  0.15845000  0.11765000  0.78184000  1.0
  C  C51  1  0.84155000  0.88234000  0.21816000  1.0
  C  C52  1  0.20339000  0.23722000  0.75293000  1.0
  C  C53  1  0.79661000  0.76277000  0.24707000  1.0
  C  C54  1  0.16687000  0.33269000  0.83870000  1.0
  C  C55  1  0.83314000  0.66730000  0.16130000  1.0
  C  C56  1  0.20417000  0.44683000  0.81455000  1.0
  C  C57  1  0.79582000  0.55316000  0.18544000  1.0
  C  C58  1  0.28025000  0.46635000  0.70298000  1.0
  C  C59  1  0.71976000  0.53363000  0.29703000  1.0
  C  C60  1  0.31828000  0.37272000  0.61674000  1.0
  C  C61  1  0.68172000  0.62727000  0.38326000  1.0
  C  C62  1  0.28186000  0.25699000  0.63986000  1.0
  C  C63  1  0.71815000  0.74299000  0.36013000  1.0
  C  C64  1  0.37919000  0.28591000  0.29534000  1.0
  C  C65  1  0.62082000  0.71410000  0.70465000  1.0
  C  C66  1  0.23145000  0.31850000  0.31523000  1.0
  C  C67  1  0.76857000  0.68150000  0.68476000  1.0
  C  C68  1  0.15144000  0.39634000  0.23247000  1.0
  C  C69  1  0.84857000  0.60369000  0.76752000  1.0
  C  C70  1  0.21770000  0.44496000  0.12843000  1.0
  C  C71  1  0.78233000  0.55505000  0.87155000  1.0
  C  C72  1  0.36465000  0.40948000  0.10560000  1.0
  C  C73  1  0.63537000  0.59053000  0.89439000  1.0
  C  C74  1  0.44772000  0.32938000  0.18700000  1.0
  C  C75  1  0.55230000  0.67062000  0.81299000  1.0
  C  C76  1  0.60535000  0.29272000  0.15698000  1.0
  C  C77  1  0.39466000  0.70727000  0.84302000  1.0
  C  C78  1  0.18939000  0.01027000  0.33252000  1.0
  C  C79  1  0.81061000  0.98973000  0.66747000  1.0
  C  C80  1  0.33080000  0.94815000  0.29680000  1.0
  C  C81  1  0.66920000  0.05186000  0.70320000  1.0
  C  C82  1  0.21188000  0.95289000  0.14971000  1.0
  C  C83  1  0.78811000  0.04711000  0.85029000  1.0
  C  C84  1  0.47544000  0.85071000  0.10308000  1.0
  C  C85  1  0.52455000  0.14929000  0.89692000  1.0
  C  C86  1  0.54522000  0.95088000  0.04110000  1.0
  C  C87  1  0.45478000  0.04911000  0.95889000  1.0
  C  C88  1  0.67325000  0.37290000  0.65542000  1.0
  C  C89  1  0.32673000  0.62710000  0.34459000  1.0
  C  C90  1  0.93147000  0.33648000  0.57959000  1.0
  C  C91  1  0.06852000  0.66353000  0.42043000  1.0
  C  C92  1  0.79115000  0.25317000  0.47636000  1.0
  C  C93  1  0.20883000  0.74684000  0.52367000  1.0
  S  S94  1  0.33568000  0.13395000  0.53209000  1.0
  S  S95  1  0.66431000  0.86606000  0.46791000  1.0
  S  S96  1  0.48163000  0.18851000  0.40224000  1.0
  S  S97  1  0.51836000  0.81149000  0.59776000  1.0
  N  N98  1  0.11622000  0.01326000  0.23990000  1.0
  N  N99  1  0.88378000  0.98674000  0.76010000  1.0
  N  N100  1  0.34305000  0.91179000  0.18106000  1.0
  N  N101  1  0.65694000  0.08822000  0.81893000  1.0
  N  N102  1  0.79804000  0.31724000  0.56826000  1.0
  N  N103  1  0.20194000  0.68277000  0.43175000  1.0
  O  O104  1  0.10434000  0.09028000  0.88654000  1.0
  O  O105  1  0.89566000  0.90970000  0.11346000  1.0
  O  O106  1  0.17839000  0.04321000  0.69429000  1.0
  O  O107  1  0.82160000  0.95679000  0.30571000  1.0
  O  O108  1  0.67550000  0.23901000  0.24246000  1.0
  O  O109  1  0.32451000  0.76098000  0.75753000  1.0
  O  O110  1  0.66156000  0.31411000  0.05127000  1.0
  O  O111  1  0.33845000  0.68588000  0.94873000  1.0
  O  O112  1  0.89568000  0.20823000  0.39664000  1.0
  O  O113  1  0.10432000  0.79176000  0.60337000  1.0
  O  O114  1  0.92999000  0.22116000  0.07031000  1.0
  O  O115  1  0.07002000  0.77883000  0.92969000  1.0
