# generated using pymatgen
data_CuH8C7O5
_symmetry_space_group_name_H-M   'P 1'
_cell_length_a   8.38001000
_cell_length_b   8.37991000
_cell_length_c   14.65610000
_cell_angle_alpha   87.19780000
_cell_angle_beta   87.19790000
_cell_angle_gamma   79.03870000
_symmetry_Int_Tables_number   1
_chemical_formula_structural   CuH8C7O5
_chemical_formula_sum   'Cu4 H32 C28 O20'
_cell_volume   1008.39789404
_cell_formula_units_Z   4
loop_
 _symmetry_equiv_pos_site_id
 _symmetry_equiv_pos_as_xyz
  1  'x, y, z'
loop_
 _atom_site_type_symbol
 _atom_site_label
 _atom_site_symmetry_multiplicity
 _atom_site_fract_x
 _atom_site_fract_y
 _atom_site_fract_z
 _atom_site_occupancy
  Cu  Cu0  1  0.34653000  0.03086000  0.50993000  1.0
  Cu  Cu1  1  0.96901000  0.65396000  0.98994000  1.0
  Cu  Cu2  1  0.65388000  0.96904000  0.48996000  1.0
  Cu  Cu3  1  0.03084000  0.34660000  0.00992000  1.0
  H  H4  1  0.96053000  0.11652000  0.53952000  1.0
  H  H5  1  0.06429000  0.07780000  0.62501000  1.0
  H  H6  1  0.63608000  0.45595000  0.58155000  1.0
  H  H7  1  0.42035000  0.47472000  0.58852000  1.0
  H  H8  1  0.77628000  0.59751000  0.69333000  1.0
  H  H9  1  0.66164000  0.71520000  0.77929000  1.0
  H  H10  1  0.25378000  0.64766000  0.71075000  1.0
  H  H11  1  0.71228000  0.19226000  0.79645000  1.0
  H  H12  1  0.88587000  0.03776000  0.96153000  1.0
  H  H13  1  0.92132000  0.93613000  0.87509000  1.0
  H  H14  1  0.54406000  0.36397000  0.91839000  1.0
  H  H15  1  0.52524000  0.57971000  0.91141000  1.0
  H  H16  1  0.40252000  0.22371000  0.80662000  1.0
  H  H17  1  0.28485000  0.33833000  0.72063000  1.0
  H  H18  1  0.35234000  0.74624000  0.78916000  1.0
  H  H19  1  0.80781000  0.28770000  0.70358000  1.0
  H  H20  1  0.03806000  0.88546000  0.46135000  1.0
  H  H21  1  0.93608000  0.92145000  0.37507000  1.0
  H  H22  1  0.36396000  0.54405000  0.41839000  1.0
  H  H23  1  0.57970000  0.52525000  0.41142000  1.0
  H  H24  1  0.22371000  0.40253000  0.30661000  1.0
  H  H25  1  0.33834000  0.28487000  0.22063000  1.0
  H  H26  1  0.74623000  0.35235000  0.28917000  1.0
  H  H27  1  0.28772000  0.80784000  0.20358000  1.0
  H  H28  1  0.11686000  0.96019000  0.03970000  1.0
  H  H29  1  0.07765000  0.06429000  0.12504000  1.0
  H  H30  1  0.45597000  0.63609000  0.08155000  1.0
  H  H31  1  0.47473000  0.42036000  0.08852000  1.0
  H  H32  1  0.59751000  0.77630000  0.19333000  1.0
  H  H33  1  0.71519000  0.66165000  0.27930000  1.0
  H  H34  1  0.64767000  0.25379000  0.21075000  1.0
  H  H35  1  0.19225000  0.71229000  0.29644000  1.0
  C  C36  1  0.50359000  0.76270000  0.61495000  1.0
  C  C37  1  0.51517000  0.62017000  0.68471000  1.0
  C  C38  1  0.52903000  0.46673000  0.62894000  1.0
  C  C39  1  0.54506000  0.31480000  0.69466000  1.0
  C  C40  1  0.54713000  0.17714000  0.62977000  1.0
  C  C41  1  0.66860000  0.60583000  0.73991000  1.0
  C  C42  1  0.23732000  0.49648000  0.88499000  1.0
  C  C43  1  0.37984000  0.48485000  0.81523000  1.0
  C  C44  1  0.53326000  0.47102000  0.87100000  1.0
  C  C45  1  0.68519000  0.45501000  0.80529000  1.0
  C  C46  1  0.82287000  0.45304000  0.87016000  1.0
  C  C47  1  0.39420000  0.33140000  0.76002000  1.0
  C  C48  1  0.49648000  0.23731000  0.38498000  1.0
  C  C49  1  0.48485000  0.37985000  0.31522000  1.0
  C  C50  1  0.47101000  0.53330000  0.37100000  1.0
  C  C51  1  0.45501000  0.68520000  0.30530000  1.0
  C  C52  1  0.45301000  0.82287000  0.37017000  1.0
  C  C53  1  0.33140000  0.39421000  0.26002000  1.0
  C  C54  1  0.76271000  0.50360000  0.11495000  1.0
  C  C55  1  0.62017000  0.51517000  0.18471000  1.0
  C  C56  1  0.46675000  0.52904000  0.12894000  1.0
  C  C57  1  0.31480000  0.54507000  0.19465000  1.0
  C  C58  1  0.17715000  0.54714000  0.12976000  1.0
  C  C59  1  0.60583000  0.66861000  0.23992000  1.0
  C  C60  1  0.36416000  0.63584000  0.74996000  1.0
  C  C61  1  0.69939000  0.30064000  0.75000000  1.0
  C  C62  1  0.63584000  0.36416000  0.24996000  1.0
  C  C63  1  0.30063000  0.69939000  0.24999000  1.0
  O  O64  1  0.36189000  0.83861000  0.59513000  1.0
  O  O65  1  0.63819000  0.79009000  0.57938000  1.0
  O  O66  1  0.68277000  0.10859000  0.59302000  1.0
  O  O67  1  0.40722000  0.15175000  0.61144000  1.0
  O  O68  1  0.07045000  0.11050000  0.56057000  1.0
  O  O69  1  0.16144000  0.63819000  0.90479000  1.0
  O  O70  1  0.20995000  0.36191000  0.92060000  1.0
  O  O71  1  0.89160000  0.31743000  0.90684000  1.0
  O  O72  1  0.84806000  0.59300000  0.88854000  1.0
  O  O73  1  0.88796000  0.92921000  0.93940000  1.0
  O  O74  1  0.63818000  0.16145000  0.40480000  1.0
  O  O75  1  0.36190000  0.20993000  0.42058000  1.0
  O  O76  1  0.31738000  0.89157000  0.40686000  1.0
  O  O77  1  0.59295000  0.84811000  0.38853000  1.0
  O  O78  1  0.92929000  0.88817000  0.43940000  1.0
  O  O79  1  0.83860000  0.36191000  0.09512000  1.0
  O  O80  1  0.79010000  0.63821000  0.07938000  1.0
  O  O81  1  0.10860000  0.68280000  0.09300000  1.0
  O  O82  1  0.15173000  0.40726000  0.11144000  1.0
  O  O83  1  0.11014000  0.07034000  0.06057000  1.0
