# generated using pymatgen
data_LaPH7C3O10
_symmetry_space_group_name_H-M   'P 1'
_cell_length_a   6.94776000
_cell_length_b   10.20570000
_cell_length_c   13.61640000
_cell_angle_alpha   89.99990000
_cell_angle_beta   89.99970000
_cell_angle_gamma   80.10140000
_symmetry_Int_Tables_number   1
_chemical_formula_structural   LaPH7C3O10
_chemical_formula_sum   'La4 P4 H28 C12 O40'
_cell_volume   951.12191699
_cell_formula_units_Z   4
loop_
 _symmetry_equiv_pos_site_id
 _symmetry_equiv_pos_as_xyz
  1  'x, y, z'
loop_
 _atom_site_type_symbol
 _atom_site_label
 _atom_site_symmetry_multiplicity
 _atom_site_fract_x
 _atom_site_fract_y
 _atom_site_fract_z
 _atom_site_occupancy
  La  La0  1  0.84060000  0.27743000  0.10373000  1.0
  La  La1  1  0.15941000  0.22256000  0.60373000  1.0
  La  La2  1  0.15940000  0.72256000  0.89627000  1.0
  La  La3  1  0.84060000  0.77744000  0.39627000  1.0
  P  P4  1  0.22035000  0.07871000  0.94603000  1.0
  P  P5  1  0.77965000  0.42130000  0.44604000  1.0
  P  P6  1  0.77964000  0.92129000  0.05396000  1.0
  P  P7  1  0.22035000  0.57871000  0.55396000  1.0
  H  H8  1  0.45570000  0.20244000  0.94364000  1.0
  H  H9  1  0.54429000  0.29757000  0.44363000  1.0
  H  H10  1  0.54428000  0.79756000  0.05637000  1.0
  H  H11  1  0.45571000  0.70244000  0.55637000  1.0
  H  H12  1  0.08922000  0.99177000  0.74666000  1.0
  H  H13  1  0.91078000  0.50824000  0.24666000  1.0
  H  H14  1  0.91079000  0.00824000  0.25334000  1.0
  H  H15  1  0.08920000  0.49177000  0.75334000  1.0
  H  H16  1  0.21768000  0.33929000  0.05967000  1.0
  H  H17  1  0.78231000  0.16072000  0.55966000  1.0
  H  H18  1  0.78231000  0.66070000  0.94034000  1.0
  H  H19  1  0.21768000  0.83930000  0.44034000  1.0
  H  H20  1  0.13531000  0.48601000  0.10184000  1.0
  H  H21  1  0.86469000  0.01400000  0.60184000  1.0
  H  H22  1  0.86468000  0.51398000  0.89816000  1.0
  H  H23  1  0.13532000  0.98601000  0.39816000  1.0
  H  H24  1  0.39470000  0.33223000  0.18709000  1.0
  H  H25  1  0.60531000  0.16776000  0.68709000  1.0
  H  H26  1  0.60530000  0.66776000  0.81292000  1.0
  H  H27  1  0.39470000  0.83223000  0.31292000  1.0
  H  H28  1  0.53931000  0.34003000  0.27702000  1.0
  H  H29  1  0.46069000  0.15996000  0.77702000  1.0
  H  H30  1  0.46069000  0.65996000  0.72298000  1.0
  H  H31  1  0.53931000  0.84003000  0.22298000  1.0
  H  H32  1  0.90558000  0.09825000  0.86663000  1.0
  H  H33  1  0.09442000  0.40176000  0.36663000  1.0
  H  H34  1  0.09442000  0.90175000  0.13336000  1.0
  H  H35  1  0.90558000  0.59826000  0.63335000  1.0
  C  C36  1  0.04050000  0.13634000  0.84793000  1.0
  C  C37  1  0.95951000  0.36366000  0.34793000  1.0
  C  C38  1  0.95950000  0.86366000  0.15206000  1.0
  C  C39  1  0.04049000  0.63635000  0.65207000  1.0
  C  C40  1  0.99416000  0.28714000  0.84214000  1.0
  C  C41  1  0.00586000  0.21286000  0.34214000  1.0
  C  C42  1  0.00584000  0.71285000  0.15787000  1.0
  C  C43  1  0.99416000  0.78715000  0.65785000  1.0
  C  C44  1  0.54733000  0.55500000  0.02521000  1.0
  C  C45  1  0.45268000  0.94499000  0.52520000  1.0
  C  C46  1  0.45264000  0.44499000  0.97480000  1.0
  C  C47  1  0.54736000  0.05501000  0.47479000  1.0
  O  O48  1  0.41431000  0.12508000  0.90657000  1.0
  O  O49  1  0.58568000  0.37493000  0.40657000  1.0
  O  O50  1  0.58568000  0.87492000  0.09343000  1.0
  O  O51  1  0.41431000  0.62509000  0.59343000  1.0
  O  O52  1  0.15442000  0.14648000  0.04231000  1.0
  O  O53  1  0.84560000  0.35352000  0.54231000  1.0
  O  O54  1  0.84557000  0.85351000  0.95769000  1.0
  O  O55  1  0.15443000  0.64648000  0.45769000  1.0
  O  O56  1  0.24817000  0.92844000  0.94305000  1.0
  O  O57  1  0.75184000  0.57156000  0.44305000  1.0
  O  O58  1  0.75181000  0.07156000  0.05695000  1.0
  O  O59  1  0.24818000  0.42844000  0.55695000  1.0
  O  O60  1  0.12399000  0.08226000  0.75820000  1.0
  O  O61  1  0.87602000  0.41775000  0.25821000  1.0
  O  O62  1  0.87602000  0.91775000  0.24178000  1.0
  O  O63  1  0.12398000  0.58226000  0.74179000  1.0
  O  O64  1  0.91785000  0.35010000  0.91685000  1.0
  O  O65  1  0.08215000  0.14990000  0.41685000  1.0
  O  O66  1  0.08213000  0.64990000  0.08315000  1.0
  O  O67  1  0.91787000  0.85011000  0.58314000  1.0
  O  O68  1  0.03804000  0.34146000  0.76254000  1.0
  O  O69  1  0.96198000  0.15856000  0.26254000  1.0
  O  O70  1  0.96196000  0.65855000  0.23746000  1.0
  O  O71  1  0.03806000  0.84146000  0.73746000  1.0
  O  O72  1  0.69631000  0.52008000  0.07743000  1.0
  O  O73  1  0.30369000  0.97991000  0.57743000  1.0
  O  O74  1  0.30367000  0.47991000  0.92257000  1.0
  O  O75  1  0.69633000  0.02009000  0.42256000  1.0
  O  O76  1  0.46766000  0.67463000  0.00664000  1.0
  O  O77  1  0.53233000  0.82537000  0.50663000  1.0
  O  O78  1  0.53231000  0.32536000  0.99337000  1.0
  O  O79  1  0.46767000  0.17463000  0.49336000  1.0
  O  O80  1  0.15993000  0.38792000  0.11741000  1.0
  O  O81  1  0.84006000  0.11208000  0.61741000  1.0
  O  O82  1  0.84005000  0.61208000  0.88259000  1.0
  O  O83  1  0.15995000  0.88792000  0.38259000  1.0
  O  O84  1  0.52905000  0.30211000  0.21096000  1.0
  O  O85  1  0.47096000  0.19788000  0.71096000  1.0
  O  O86  1  0.47095000  0.69788000  0.78904000  1.0
  O  O87  1  0.52905000  0.80211000  0.28904000  1.0
