# generated using pymatgen
data_Co2H15C20N12ClO
_symmetry_space_group_name_H-M   'P 1'
_cell_length_a   6.40442000
_cell_length_b   16.22430000
_cell_length_c   24.11760000
_cell_angle_alpha   74.02400000
_cell_angle_beta   82.35290000
_cell_angle_gamma   78.60940000
_symmetry_Int_Tables_number   1
_chemical_formula_structural   Co2H15C20N12ClO
_chemical_formula_sum   'Co8 H60 C80 N48 Cl4 O4'
_cell_volume   2353.49973169
_cell_formula_units_Z   4
loop_
 _symmetry_equiv_pos_site_id
 _symmetry_equiv_pos_as_xyz
  1  'x, y, z'
loop_
 _atom_site_type_symbol
 _atom_site_label
 _atom_site_symmetry_multiplicity
 _atom_site_fract_x
 _atom_site_fract_y
 _atom_site_fract_z
 _atom_site_occupancy
  Co  Co0  1  0.04543000  0.31401000  0.50951000  1.0
  Co  Co1  1  0.86856000  0.18612000  0.99042000  1.0
  Co  Co2  1  0.95457000  0.68600000  0.49050000  1.0
  Co  Co3  1  0.13144000  0.81389000  0.00958000  1.0
  Co  Co4  1  0.79731000  0.47540000  0.53510000  1.0
  Co  Co5  1  0.80808000  0.02464000  0.96487000  1.0
  Co  Co6  1  0.20264000  0.52463000  0.46490000  1.0
  Co  Co7  1  0.19191000  0.97536000  0.03513000  1.0
  H  H8  1  0.80649000  0.99991000  0.34112000  1.0
  H  H9  1  0.14794000  0.50008000  0.15897000  1.0
  H  H10  1  0.19359000  0.00007000  0.65889000  1.0
  H  H11  1  0.85203000  0.49994000  0.84103000  1.0
  H  H12  1  0.91419000  0.82064000  0.35630000  1.0
  H  H13  1  0.09166000  0.67942000  0.14369000  1.0
  H  H14  1  0.08585000  0.17934000  0.64371000  1.0
  H  H15  1  0.90833000  0.32060000  0.85630000  1.0
  H  H16  1  0.79856000  0.87000000  0.52067000  1.0
  H  H17  1  0.18908000  0.62986000  0.97939000  1.0
  H  H18  1  0.20146000  0.12998000  0.47934000  1.0
  H  H19  1  0.81088000  0.37016000  0.02060000  1.0
  H  H20  1  0.23963000  0.45919000  0.72217000  1.0
  H  H21  1  0.42076000  0.04050000  0.77809000  1.0
  H  H22  1  0.76033000  0.54081000  0.27784000  1.0
  H  H23  1  0.57927000  0.95950000  0.22191000  1.0
  H  H24  1  0.37206000  0.40708000  0.62162000  1.0
  H  H25  1  0.40067000  0.09272000  0.87857000  1.0
  H  H26  1  0.62788000  0.59293000  0.37839000  1.0
  H  H27  1  0.59935000  0.90729000  0.12142000  1.0
  H  H28  1  0.76473000  0.58000000  0.63515000  1.0
  H  H29  1  0.98039000  0.92015000  0.86480000  1.0
  H  H30  1  0.23527000  0.41999000  0.36487000  1.0
  H  H31  1  0.01961000  0.07985000  0.13520000  1.0
  H  H32  1  0.81246000  0.98263000  0.53873000  1.0
  H  H33  1  0.33437000  0.51730000  0.96142000  1.0
  H  H34  1  0.18761000  0.01737000  0.46128000  1.0
  H  H35  1  0.66552000  0.48271000  0.03857000  1.0
  H  H36  1  0.71624000  0.11979000  0.56893000  1.0
  H  H37  1  0.40523000  0.38021000  0.93115000  1.0
  H  H38  1  0.28380000  0.88019000  0.43108000  1.0
  H  H39  1  0.59467000  0.61982000  0.06884000  1.0
  H  H40  1  0.53912000  0.25572000  0.39769000  1.0
  H  H41  1  0.19197000  0.24424000  0.10231000  1.0
  H  H42  1  0.46089000  0.74425000  0.60231000  1.0
  H  H43  1  0.80805000  0.75577000  0.89769000  1.0
  H  H44  1  0.62993000  0.11889000  0.36701000  1.0
  H  H45  1  0.11538000  0.38102000  0.13307000  1.0
  H  H46  1  0.37010000  0.88109000  0.63301000  1.0
  H  H47  1  0.88463000  0.61899000  0.86693000  1.0
  H  H48  1  0.61055000  0.68751000  0.67594000  1.0
  H  H49  1  0.97391000  0.81241000  0.82418000  1.0
  H  H50  1  0.38947000  0.31247000  0.32407000  1.0
  H  H51  1  0.02614000  0.18758000  0.17582000  1.0
  H  H52  1  0.55089000  0.77700000  0.74638000  1.0
  H  H53  1  0.07423000  0.72284000  0.75379000  1.0
  H  H54  1  0.44914000  0.22299000  0.25363000  1.0
  H  H55  1  0.92582000  0.27715000  0.24621000  1.0
  H  H56  1  0.34582000  0.48333000  0.80410000  1.0
  H  H57  1  0.63387000  0.01665000  0.69595000  1.0
  H  H58  1  0.65413000  0.51666000  0.19590000  1.0
  H  H59  1  0.36614000  0.98332000  0.30405000  1.0
  H  H60  1  0.28368000  0.57439000  0.87381000  1.0
  H  H61  1  0.73256000  0.92553000  0.62628000  1.0
  H  H62  1  0.71627000  0.42562000  0.12619000  1.0
  H  H63  1  0.26744000  0.07444000  0.37372000  1.0
  H  H64  1  0.91883000  0.45059000  0.43025000  1.0
  H  H65  1  0.79936000  0.04954000  0.06968000  1.0
  H  H66  1  0.08115000  0.54944000  0.56975000  1.0
  H  H67  1  0.20064000  0.95047000  0.93032000  1.0
  C  C68  1  0.81633000  0.94706000  0.38005000  1.0
  C  C69  1  0.14368000  0.55292000  0.12003000  1.0
  C  C70  1  0.18372000  0.05293000  0.61996000  1.0
  C  C71  1  0.85629000  0.44710000  0.87996000  1.0
  C  C72  1  0.87139000  0.85861000  0.38800000  1.0
  C  C73  1  0.11840000  0.64137000  0.11203000  1.0
  C  C74  1  0.12866000  0.14138000  0.61200000  1.0
  C  C75  1  0.88157000  0.35864000  0.88796000  1.0
  C  C76  1  0.81380000  0.88140000  0.47389000  1.0
  C  C77  1  0.16910000  0.61850000  0.02617000  1.0
  C  C78  1  0.18622000  0.11859000  0.52612000  1.0
  C  C79  1  0.83086000  0.38151000  0.97382000  1.0
  C  C80  1  0.37085000  0.47431000  0.69003000  1.0
  C  C81  1  0.53510000  0.02549000  0.81015000  1.0
  C  C82  1  0.62911000  0.52570000  0.30998000  1.0
  C  C83  1  0.46493000  0.97451000  0.18984000  1.0
  C  C84  1  0.43696000  0.45021000  0.63947000  1.0
  C  C85  1  0.52662000  0.04962000  0.86069000  1.0
  C  C86  1  0.56298000  0.54981000  0.36053000  1.0
  C  C87  1  0.47340000  0.95038000  0.13931000  1.0
  C  C88  1  0.63846000  0.54133000  0.64386000  1.0
  C  C89  1  0.82400000  0.95872000  0.85617000  1.0
  C  C90  1  0.36151000  0.45867000  0.35615000  1.0
  C  C91  1  0.17600000  0.04128000  0.14383000  1.0
  C  C92  1  0.72425000  0.04099000  0.45121000  1.0
  C  C93  1  0.21644000  0.45893000  0.04889000  1.0
  C  C94  1  0.27580000  0.95899000  0.54880000  1.0
  C  C95  1  0.78351000  0.54108000  0.95110000  1.0
  C  C96  1  0.74830000  0.04215000  0.50800000  1.0
  C  C97  1  0.29866000  0.45779000  0.99211000  1.0
  C  C98  1  0.25176000  0.95785000  0.49201000  1.0
  C  C99  1  0.70127000  0.54222000  0.00788000  1.0
  C  C100  1  0.69592000  0.11942000  0.52484000  1.0
  C  C101  1  0.34023000  0.38055000  0.97523000  1.0
  C  C102  1  0.30412000  0.88057000  0.47516000  1.0
  C  C103  1  0.65971000  0.61946000  0.02476000  1.0
  C  C104  1  0.61718000  0.19697000  0.48535000  1.0
  C  C105  1  0.29925000  0.30302000  0.01469000  1.0
  C  C106  1  0.38285000  0.80304000  0.51466000  1.0
  C  C107  1  0.70074000  0.69698000  0.98531000  1.0
  C  C108  1  0.59468000  0.19526000  0.42877000  1.0
  C  C109  1  0.21835000  0.30470000  0.07126000  1.0
  C  C110  1  0.40535000  0.80473000  0.57123000  1.0
  C  C111  1  0.78166000  0.69531000  0.92873000  1.0
  C  C112  1  0.64772000  0.11817000  0.41141000  1.0
  C  C113  1  0.17708000  0.38175000  0.08867000  1.0
  C  C114  1  0.35230000  0.88181000  0.58860000  1.0
  C  C115  1  0.82292000  0.61825000  0.91133000  1.0
  C  C116  1  0.56536000  0.28032000  0.50094000  1.0
  C  C117  1  0.34643000  0.21970000  0.99906000  1.0
  C  C118  1  0.43465000  0.71970000  0.49906000  1.0
  C  C119  1  0.65357000  0.78031000  0.00093000  1.0
  C  C120  1  0.47917000  0.58005000  0.73485000  1.0
  C  C121  1  0.79438000  0.91990000  0.76523000  1.0
  C  C122  1  0.52081000  0.41994000  0.26516000  1.0
  C  C123  1  0.20564000  0.08009000  0.23477000  1.0
  C  C124  1  0.54178000  0.66185000  0.71951000  1.0
  C  C125  1  0.92329000  0.83807000  0.78059000  1.0
  C  C126  1  0.45823000  0.33813000  0.28049000  1.0
  C  C127  1  0.07674000  0.16192000  0.21941000  1.0
  C  C128  1  0.50928000  0.71216000  0.75899000  1.0
  C  C129  1  0.98063000  0.78772000  0.74113000  1.0
  C  C130  1  0.49074000  0.28783000  0.24102000  1.0
  C  C131  1  0.01941000  0.21226000  0.25887000  1.0
  C  C132  1  0.39007000  0.54788000  0.79109000  1.0
  C  C133  1  0.72958000  0.95209000  0.70898000  1.0
  C  C134  1  0.60990000  0.45212000  0.20892000  1.0
  C  C135  1  0.27044000  0.04789000  0.29102000  1.0
  C  C136  1  0.35741000  0.59878000  0.83053000  1.0
  C  C137  1  0.78732000  0.90115000  0.66956000  1.0
  C  C138  1  0.64257000  0.40122000  0.16948000  1.0
  C  C139  1  0.21271000  0.09883000  0.33044000  1.0
  C  C140  1  0.41363000  0.68211000  0.81494000  1.0
  C  C141  1  0.91104000  0.81777000  0.68518000  1.0
  C  C142  1  0.58638000  0.31789000  0.18507000  1.0
  C  C143  1  0.08898000  0.18221000  0.31482000  1.0
  C  C144  1  0.36464000  0.73904000  0.85397000  1.0
  C  C145  1  0.95780000  0.76085000  0.64614000  1.0
  C  C146  1  0.63536000  0.26097000  0.14603000  1.0
  C  C147  1  0.04223000  0.23913000  0.35386000  1.0
  N  N148  1  0.70838000  0.31919000  0.51606000  1.0
  N  N149  1  0.54352000  0.18085000  0.98391000  1.0
  N  N150  1  0.29160000  0.68083000  0.48394000  1.0
  N  N151  1  0.45647000  0.81915000  0.01609000  1.0
  N  N152  1  0.60199000  0.39757000  0.52032000  1.0
  N  N153  1  0.51986000  0.10248000  0.97963000  1.0
  N  N154  1  0.39798000  0.60245000  0.47967000  1.0
  N  N155  1  0.48015000  0.89752000  0.02038000  1.0
  N  N156  1  0.40265000  0.40657000  0.50846000  1.0
  N  N157  1  0.31765000  0.09346000  0.99151000  1.0
  N  N158  1  0.59734000  0.59344000  0.49153000  1.0
  N  N159  1  0.68235000  0.90655000  0.00849000  1.0
  N  N160  1  0.37385000  0.33297000  0.49728000  1.0
  N  N161  1  0.20399000  0.16702000  0.00273000  1.0
  N  N162  1  0.62615000  0.66704000  0.50271000  1.0
  N  N163  1  0.79600000  0.83299000  0.99727000  1.0
  N  N164  1  0.86950000  0.81855000  0.44683000  1.0
  N  N165  1  0.13518000  0.68139000  0.05320000  1.0
  N  N166  1  0.13053000  0.18144000  0.55318000  1.0
  N  N167  1  0.86479000  0.31862000  0.94680000  1.0
  N  N168  1  0.60400000  0.49244000  0.61119000  1.0
  N  N169  1  0.70787000  0.00755000  0.88887000  1.0
  N  N170  1  0.39595000  0.50758000  0.38881000  1.0
  N  N171  1  0.29213000  0.99245000  0.11113000  1.0
  N  N172  1  0.26500000  0.71738000  0.90741000  1.0
  N  N173  1  0.88980000  0.78255000  0.59272000  1.0
  N  N174  1  0.73498000  0.28263000  0.09258000  1.0
  N  N175  1  0.11022000  0.21744000  0.40728000  1.0
  N  N176  1  0.24518000  0.78806000  0.92721000  1.0
  N  N177  1  0.96030000  0.71187000  0.57290000  1.0
  N  N178  1  0.75481000  0.21195000  0.07279000  1.0
  N  N179  1  0.03972000  0.28813000  0.42709000  1.0
  N  N180  1  0.32913000  0.85072000  0.88722000  1.0
  N  N181  1  0.06696000  0.64917000  0.61285000  1.0
  N  N182  1  0.67088000  0.14928000  0.11277000  1.0
  N  N183  1  0.93306000  0.35082000  0.38714000  1.0
  N  N184  1  0.40481000  0.82153000  0.84064000  1.0
  N  N185  1  0.06706000  0.67833000  0.65943000  1.0
  N  N186  1  0.59521000  0.17847000  0.15936000  1.0
  N  N187  1  0.93297000  0.32166000  0.34056000  1.0
  N  N188  1  0.78039000  0.96106000  0.43529000  1.0
  N  N189  1  0.17673000  0.53887000  0.06481000  1.0
  N  N190  1  0.21965000  0.03894000  0.56472000  1.0
  N  N191  1  0.82323000  0.46114000  0.93519000  1.0
  N  N192  1  0.49966000  0.53240000  0.69269000  1.0
  N  N193  1  0.72492000  0.96753000  0.80741000  1.0
  N  N194  1  0.50031000  0.46759000  0.30732000  1.0
  N  N195  1  0.27510000  0.03246000  0.19259000  1.0
  Cl  Cl196  1  0.00405000  0.35353000  0.59957000  1.0
  Cl  Cl197  1  0.95737000  0.14655000  0.90034000  1.0
  Cl  Cl198  1  0.99590000  0.64651000  0.40043000  1.0
  Cl  Cl199  1  0.04262000  0.85346000  0.09967000  1.0
  O  O200  1  0.98990000  0.44427000  0.46511000  1.0
  O  O201  1  0.89907000  0.05585000  0.03482000  1.0
  O  O202  1  0.01008000  0.55575000  0.53489000  1.0
  O  O203  1  0.10093000  0.94416000  0.96518000  1.0
