# generated using pymatgen
data_CuH7C11S(NO2)2
_symmetry_space_group_name_H-M   'P 1'
_cell_length_a   8.29277000
_cell_length_b   10.30790000
_cell_length_c   16.57010000
_cell_angle_alpha   89.99980000
_cell_angle_beta   83.30660000
_cell_angle_gamma   89.99960000
_symmetry_Int_Tables_number   1
_chemical_formula_structural   CuH7C11S(NO2)2
_chemical_formula_sum   'Cu4 H28 C44 S4 N8 O16'
_cell_volume   1406.77517890
_cell_formula_units_Z   4
loop_
 _symmetry_equiv_pos_site_id
 _symmetry_equiv_pos_as_xyz
  1  'x, y, z'
loop_
 _atom_site_type_symbol
 _atom_site_label
 _atom_site_symmetry_multiplicity
 _atom_site_fract_x
 _atom_site_fract_y
 _atom_site_fract_z
 _atom_site_occupancy
  Cu  Cu0  1  0.98845000  0.67167000  0.09448000  1.0
  Cu  Cu1  1  0.51157000  0.17167000  0.40551000  1.0
  Cu  Cu2  1  0.01155000  0.32832000  0.90551000  1.0
  Cu  Cu3  1  0.48846000  0.82832000  0.59450000  1.0
  H  H4  1  0.56041000  0.37926000  0.00650000  1.0
  H  H5  1  0.93960000  0.87927000  0.49350000  1.0
  H  H6  1  0.43959000  0.62070000  0.99350000  1.0
  H  H7  1  0.06043000  0.12071000  0.50650000  1.0
  H  H8  1  0.49642000  0.26609000  0.14133000  1.0
  H  H9  1  0.00358000  0.76607000  0.35867000  1.0
  H  H10  1  0.50358000  0.73390000  0.85867000  1.0
  H  H11  1  0.99642000  0.23390000  0.64132000  1.0
  H  H12  1  0.85192000  0.51158000  0.23516000  1.0
  H  H13  1  0.64808000  0.01158000  0.26484000  1.0
  H  H14  1  0.14808000  0.48843000  0.76483000  1.0
  H  H15  1  0.35192000  0.98843000  0.73517000  1.0
  H  H16  1  0.29288000  0.73274000  0.15723000  1.0
  H  H17  1  0.20712000  0.23274000  0.34276000  1.0
  H  H18  1  0.70710000  0.26726000  0.84276000  1.0
  H  H19  1  0.79290000  0.76725000  0.65724000  1.0
  H  H20  1  0.53438000  0.86920000  0.11613000  1.0
  H  H21  1  0.96562000  0.36921000  0.38386000  1.0
  H  H22  1  0.46558000  0.13084000  0.88387000  1.0
  H  H23  1  0.03441000  0.63082000  0.61612000  1.0
  H  H24  1  0.27506000  0.02123000  0.92251000  1.0
  H  H25  1  0.22492000  0.52122000  0.57750000  1.0
  H  H26  1  0.72486000  0.97882000  0.07752000  1.0
  H  H27  1  0.77511000  0.47881000  0.42249000  1.0
  H  H28  1  0.05154000  0.87198000  0.97044000  1.0
  H  H29  1  0.44845000  0.37198000  0.52956000  1.0
  H  H30  1  0.94842000  0.12800000  0.02956000  1.0
  H  H31  1  0.55156000  0.62800000  0.47045000  1.0
  C  C32  1  0.73423000  0.50614000  0.05251000  1.0
  C  C33  1  0.76578000  0.00614000  0.44749000  1.0
  C  C34  1  0.26576000  0.49383000  0.94749000  1.0
  C  C35  1  0.23425000  0.99384000  0.55251000  1.0
  C  C36  1  0.61987000  0.40711000  0.05904000  1.0
  C  C37  1  0.88014000  0.90711000  0.44096000  1.0
  C  C38  1  0.38012000  0.59287000  0.94096000  1.0
  C  C39  1  0.11989000  0.09288000  0.55903000  1.0
  C  C40  1  0.58625000  0.34349000  0.13320000  1.0
  C  C41  1  0.91376000  0.84349000  0.36680000  1.0
  C  C42  1  0.41374000  0.65650000  0.86681000  1.0
  C  C43  1  0.08627000  0.15651000  0.63319000  1.0
  C  C44  1  0.66999000  0.37985000  0.19820000  1.0
  C  C45  1  0.83002000  0.87985000  0.30180000  1.0
  C  C46  1  0.33000000  0.62015000  0.80181000  1.0
  C  C47  1  0.17000000  0.12016000  0.69819000  1.0
  C  C48  1  0.64162000  0.31580000  0.28013000  1.0
  C  C49  1  0.85838000  0.81579000  0.21986000  1.0
  C  C50  1  0.35837000  0.68421000  0.71987000  1.0
  C  C51  1  0.14162000  0.18421000  0.78013000  1.0
  C  C52  1  0.78319000  0.48036000  0.18650000  1.0
  C  C53  1  0.71681000  0.98036000  0.31350000  1.0
  C  C54  1  0.21680000  0.51963000  0.81350000  1.0
  C  C55  1  0.28321000  0.01965000  0.68650000  1.0
  C  C56  1  0.29586000  0.79864000  0.10573000  1.0
  C  C57  1  0.20415000  0.29864000  0.39427000  1.0
  C  C58  1  0.70412000  0.20138000  0.89427000  1.0
  C  C59  1  0.79588000  0.70136000  0.60573000  1.0
  C  C60  1  0.43019000  0.87595000  0.08182000  1.0
  C  C61  1  0.06980000  0.37594000  0.41817000  1.0
  C  C62  1  0.56976000  0.12410000  0.91819000  1.0
  C  C63  1  0.93023000  0.62408000  0.58181000  1.0
  C  C64  1  0.42921000  0.95869000  0.01425000  1.0
  C  C65  1  0.07078000  0.45868000  0.48575000  1.0
  C  C66  1  0.57072000  0.04137000  0.98577000  1.0
  C  C67  1  0.92926000  0.54135000  0.51423000  1.0
  C  C68  1  0.28831000  0.95921000  0.97459000  1.0
  C  C69  1  0.21167000  0.45920000  0.52541000  1.0
  C  C70  1  0.71162000  0.04083000  0.02543000  1.0
  C  C71  1  0.78836000  0.54081000  0.47458000  1.0
  C  C72  1  0.16004000  0.87767000  0.00146000  1.0
  C  C73  1  0.33995000  0.37766000  0.49854000  1.0
  C  C74  1  0.83992000  0.12235000  0.99855000  1.0
  C  C75  1  0.66007000  0.62235000  0.50146000  1.0
  S  S76  1  0.78466000  0.59711000  0.95716000  1.0
  S  S77  1  0.71535000  0.09711000  0.54284000  1.0
  S  S78  1  0.21532000  0.40287000  0.04284000  1.0
  S  S79  1  0.28469000  0.90287000  0.45716000  1.0
  N  N80  1  0.16366000  0.79804000  0.06554000  1.0
  N  N81  1  0.33635000  0.29804000  0.43446000  1.0
  N  N82  1  0.83632000  0.20196000  0.93446000  1.0
  N  N83  1  0.66368000  0.70196000  0.56554000  1.0
  N  N84  1  0.81255000  0.54273000  0.11526000  1.0
  N  N85  1  0.68746000  0.04273000  0.38474000  1.0
  N  N86  1  0.18745000  0.45725000  0.88473000  1.0
  N  N87  1  0.31256000  0.95726000  0.61527000  1.0
  O  O88  1  0.52928000  0.22828000  0.28810000  1.0
  O  O89  1  0.97074000  0.72827000  0.21190000  1.0
  O  O90  1  0.47073000  0.77171000  0.71191000  1.0
  O  O91  1  0.02926000  0.27171000  0.78809000  1.0
  O  O92  1  0.72493000  0.34956000  0.33506000  1.0
  O  O93  1  0.77509000  0.84955000  0.16494000  1.0
  O  O94  1  0.27508000  0.65044000  0.66494000  1.0
  O  O95  1  0.22492000  0.15045000  0.83505000  1.0
  O  O96  1  0.81874000  0.49016000  0.89560000  1.0
  O  O97  1  0.68126000  0.99016000  0.60440000  1.0
  O  O98  1  0.18123000  0.50983000  0.10440000  1.0
  O  O99  1  0.31877000  0.00983000  0.39560000  1.0
  O  O100  1  0.94184000  0.66302000  0.97769000  1.0
  O  O101  1  0.55817000  0.16302000  0.52231000  1.0
  O  O102  1  0.05813000  0.33697000  0.02230000  1.0
  O  O103  1  0.44188000  0.83698000  0.47770000  1.0
