# generated using pymatgen
data_DyH21(C9O2)3
_symmetry_space_group_name_H-M   'P 1'
_cell_length_a   7.57349000
_cell_length_b   13.18130000
_cell_length_c   13.18113219
_cell_angle_alpha   116.19890339
_cell_angle_beta   100.76275576
_cell_angle_gamma   100.76500000
_symmetry_Int_Tables_number   1
_chemical_formula_structural   DyH21(C9O2)3
_chemical_formula_sum   'Dy2 H42 C54 O12'
_cell_volume   1104.47672489
_cell_formula_units_Z   2
loop_
 _symmetry_equiv_pos_site_id
 _symmetry_equiv_pos_as_xyz
  1  'x, y, z'
loop_
 _atom_site_type_symbol
 _atom_site_label
 _atom_site_symmetry_multiplicity
 _atom_site_fract_x
 _atom_site_fract_y
 _atom_site_fract_z
 _atom_site_occupancy
  Dy  Dy0  1  0.49705000  0.00056000  0.00005000  1.0
  Dy  Dy1  1  0.99707000  0.00017000  0.00058000  1.0
  H  H2  1  0.77433000  0.17515000  0.35004000  1.0
  H  H3  1  0.42745000  0.65281000  0.82509000  1.0
  H  H4  1  0.27435000  0.35008000  0.17524000  1.0
  H  H5  1  0.60014000  0.17520000  0.82587000  1.0
  H  H6  1  0.10016000  0.82590000  0.17523000  1.0
  H  H7  1  0.92748000  0.82505000  0.65286000  1.0
  H  H8  1  0.14123000  0.34772000  0.37960000  1.0
  H  H9  1  0.75991000  0.61788000  0.96720000  1.0
  H  H10  1  0.64133000  0.37942000  0.34761000  1.0
  H  H11  1  0.79436000  0.03201000  0.65109000  1.0
  H  H12  1  0.29440000  0.65114000  0.03204000  1.0
  H  H13  1  0.25976000  0.96725000  0.61788000  1.0
  H  H14  1  0.80385000  0.28368000  0.54213000  1.0
  H  H15  1  0.26401000  0.45973000  0.74182000  1.0
  H  H16  1  0.30400000  0.54197000  0.28362000  1.0
  H  H17  1  0.52049000  0.25845000  0.71651000  1.0
  H  H18  1  0.02048000  0.71654000  0.25850000  1.0
  H  H19  1  0.76385000  0.74190000  0.45969000  1.0
  H  H20  1  0.79141000  0.43714000  0.73263000  1.0
  H  H21  1  0.06272000  0.26967000  0.70598000  1.0
  H  H22  1  0.29161000  0.73249000  0.43709000  1.0
  H  H23  1  0.35405000  0.29547000  0.56275000  1.0
  H  H24  1  0.85401000  0.56280000  0.29550000  1.0
  H  H25  1  0.56263000  0.70603000  0.26959000  1.0
  H  H26  1  0.99179000  0.64787000  0.82370000  1.0
  H  H27  1  0.17048000  0.17667000  0.82560000  1.0
  H  H28  1  0.49187000  0.82350000  0.64781000  1.0
  H  H29  1  0.34342000  0.17571000  0.35116000  1.0
  H  H30  1  0.84329000  0.35117000  0.17571000  1.0
  H  H31  1  0.67052000  0.82562000  0.17657000  1.0
  H  H32  1  0.20723000  0.70073000  0.72127000  1.0
  H  H33  1  0.48521000  0.27667000  0.97974000  1.0
  H  H34  1  0.70727000  0.72107000  0.70070000  1.0
  H  H35  1  0.50608000  0.02035000  0.29757000  1.0
  H  H36  1  0.00603000  0.29762000  0.02042000  1.0
  H  H37  1  0.98531000  0.97974000  0.27662000  1.0
  H  H38  1  0.22279000  0.54669000  0.53122000  1.0
  H  H39  1  0.68915000  0.46621000  0.01473000  1.0
  H  H40  1  0.72290000  0.53103000  0.54663000  1.0
  H  H41  1  0.67563000  0.98418000  0.45187000  1.0
  H  H42  1  0.17572000  0.45189000  0.98428000  1.0
  H  H43  1  0.18907000  0.01480000  0.46622000  1.0
  C  C44  1  0.92163000  0.13308000  0.21668000  1.0
  C  C45  1  0.70645000  0.78383000  0.91653000  1.0
  C  C46  1  0.42146000  0.21663000  0.13299000  1.0
  C  C47  1  0.79027000  0.08446000  0.86748000  1.0
  C  C48  1  0.29028000  0.86756000  0.08448000  1.0
  C  C49  1  0.20649000  0.91654000  0.78380000  1.0
  C  C50  1  0.89960000  0.20921000  0.33174000  1.0
  C  C51  1  0.56962000  0.66912000  0.87711000  1.0
  C  C52  1  0.39961000  0.33169000  0.20918000  1.0
  C  C53  1  0.69178000  0.12308000  0.79117000  1.0
  C  C54  1  0.19179000  0.79122000  0.12311000  1.0
  C  C55  1  0.06959000  0.87713000  0.66914000  1.0
  C  C56  1  0.02380000  0.31829000  0.40761000  1.0
  C  C57  1  0.61593000  0.59155000  0.90997000  1.0
  C  C58  1  0.52391000  0.40748000  0.31824000  1.0
  C  C59  1  0.70629000  0.08949000  0.68111000  1.0
  C  C60  1  0.20632000  0.68115000  0.08952000  1.0
  C  C61  1  0.11580000  0.91002000  0.59156000  1.0
  C  C62  1  0.01317000  0.40422000  0.52174000  1.0
  C  C63  1  0.49137000  0.47786000  0.88213000  1.0
  C  C64  1  0.51331000  0.52160000  0.40418000  1.0
  C  C65  1  0.60887000  0.11740000  0.59505000  1.0
  C  C66  1  0.10888000  0.59510000  0.11745000  1.0
  C  C67  1  0.99123000  0.88223000  0.47789000  1.0
  C  C68  1  0.89211000  0.37499000  0.58065000  1.0
  C  C69  1  0.31309000  0.42040000  0.79466000  1.0
  C  C70  1  0.39222000  0.58048000  0.37493000  1.0
  C  C71  1  0.51699000  0.20555000  0.62477000  1.0
  C  C72  1  0.01702000  0.62480000  0.20561000  1.0
  C  C73  1  0.81295000  0.79477000  0.42040000  1.0
  C  C74  1  0.88566000  0.46171000  0.68846000  1.0
  C  C75  1  0.19974000  0.31282000  0.77424000  1.0
  C  C76  1  0.38580000  0.68830000  0.46167000  1.0
  C  C77  1  0.42360000  0.22661000  0.53787000  1.0
  C  C78  1  0.92359000  0.53792000  0.22667000  1.0
  C  C79  1  0.69964000  0.77435000  0.31280000  1.0
  C  C80  1  0.99813000  0.57973000  0.73984000  1.0
  C  C81  1  0.25997000  0.26033000  0.84085000  1.0
  C  C82  1  0.49822000  0.73964000  0.57967000  1.0
  C  C83  1  0.41802000  0.15997000  0.41938000  1.0
  C  C84  1  0.91794000  0.41941000  0.16000000  1.0
  C  C85  1  0.75994000  0.84091000  0.26027000  1.0
  C  C86  1  0.11865000  0.60952000  0.68218000  1.0
  C  C87  1  0.43636000  0.31663000  0.92767000  1.0
  C  C88  1  0.61878000  0.68201000  0.60948000  1.0
  C  C89  1  0.50868000  0.07244000  0.38915000  1.0
  C  C90  1  0.00864000  0.38919000  0.07248000  1.0
  C  C91  1  0.93634000  0.92772000  0.31661000  1.0
  C  C92  1  0.12766000  0.52282000  0.57520000  1.0
  C  C93  1  0.55144000  0.42330000  0.94733000  1.0
  C  C94  1  0.62783000  0.57504000  0.52277000  1.0
  C  C95  1  0.60448000  0.05212000  0.47594000  1.0
  C  C96  1  0.10448000  0.47598000  0.05218000  1.0
  C  C97  1  0.05135000  0.94741000  0.42331000  1.0
  O  O98  1  0.78866000  0.03522000  0.13869000  1.0
  O  O99  1  0.65165000  0.86320000  0.89707000  1.0
  O  O100  1  0.28841000  0.13871000  0.03516000  1.0
  O  O101  1  0.75333000  0.10376000  0.96574000  1.0
  O  O102  1  0.25335000  0.96583000  0.10380000  1.0
  O  O103  1  0.15185000  0.89706000  0.86321000  1.0
  O  O104  1  0.07227000  0.16002000  0.19177000  1.0
  O  O105  1  0.88060000  0.80738000  0.96835000  1.0
  O  O106  1  0.57208000  0.19166000  0.15985000  1.0
  O  O107  1  0.91524000  0.03341000  0.84067000  1.0
  O  O108  1  0.41526000  0.84076000  0.03343000  1.0
  O  O109  1  0.38061000  0.96845000  0.80734000  1.0
