# generated using pymatgen
data_GdH6C7(NO4)2
_symmetry_space_group_name_H-M   'P 1'
_cell_length_a   6.14007000
_cell_length_b   6.62379156
_cell_length_c   13.21380000
_cell_angle_alpha   91.80898931
_cell_angle_beta   99.91850000
_cell_angle_gamma   111.53946516
_symmetry_Int_Tables_number   1
_chemical_formula_structural   GdH6C7(NO4)2
_chemical_formula_sum   'Gd2 H12 C14 N4 O16'
_cell_volume   489.76778604
_cell_formula_units_Z   2
loop_
 _symmetry_equiv_pos_site_id
 _symmetry_equiv_pos_as_xyz
  1  'x, y, z'
loop_
 _atom_site_type_symbol
 _atom_site_label
 _atom_site_symmetry_multiplicity
 _atom_site_fract_x
 _atom_site_fract_y
 _atom_site_fract_z
 _atom_site_occupancy
  Gd  Gd0  1  0.56712000  0.38431000  0.22552000  1.0
  Gd  Gd1  1  0.43288000  0.61569000  0.77448000  1.0
  H  H2  1  0.61260000  0.95842000  0.03347000  1.0
  H  H3  1  0.05227000  0.82128000  0.61024000  1.0
  H  H4  1  0.35915000  0.07668000  0.38580000  1.0
  H  H5  1  0.47356000  0.94515000  0.32445000  1.0
  H  H6  1  0.08498000  0.58572000  0.22222000  1.0
  H  H7  1  0.08902000  0.80606000  0.26692000  1.0
  H  H8  1  0.38741000  0.04159000  0.96653000  1.0
  H  H9  1  0.94767000  0.17867000  0.38977000  1.0
  H  H10  1  0.64084000  0.92331000  0.61420000  1.0
  H  H11  1  0.52643000  0.05484000  0.67554000  1.0
  H  H12  1  0.91503000  0.41431000  0.77777000  1.0
  H  H13  1  0.91097000  0.19395000  0.73308000  1.0
  C  C14  1  0.97446000  0.18687000  0.19129000  1.0
  C  C15  1  0.98886000  0.08006000  0.09224000  1.0
  C  C16  1  0.78443000  0.97733000  0.01605000  1.0
  C  C17  1  0.69837000  0.73136000  0.43386000  1.0
  C  C18  1  0.85684000  0.60847000  0.47003000  1.0
  C  C19  1  0.02911000  0.67771000  0.56119000  1.0
  C  C20  1  0.41779000  0.55779000  0.01343000  1.0
  C  C21  1  0.02555000  0.81314000  0.80871000  1.0
  C  C22  1  0.01115000  0.91996000  0.90776000  1.0
  C  C23  1  0.21558000  0.02269000  0.98395000  1.0
  C  C24  1  0.30161000  0.26862000  0.56615000  1.0
  C  C25  1  0.14314000  0.39151000  0.52997000  1.0
  C  C26  1  0.97085000  0.32225000  0.43881000  1.0
  C  C27  1  0.58224000  0.44223000  0.98657000  1.0
  N  N28  1  0.20673000  0.10403000  0.07644000  1.0
  N  N29  1  0.82971000  0.43142000  0.40885000  1.0
  N  N30  1  0.79329000  0.89599000  0.92357000  1.0
  N  N31  1  0.17025000  0.56855000  0.59115000  1.0
  O  O32  1  0.16949000  0.32208000  0.24492000  1.0
  O  O33  1  0.77052000  0.14492000  0.21317000  1.0
  O  O34  1  0.58983000  0.68445000  0.33888000  1.0
  O  O35  1  0.68493000  0.87170000  0.49587000  1.0
  O  O36  1  0.41035000  0.58541000  0.10790000  1.0
  O  O37  1  0.30880000  0.61941000  0.93847000  1.0
  O  O38  1  0.37933000  0.03856000  0.31494000  1.0
  O  O39  1  0.97806000  0.66081000  0.23285000  1.0
  O  O40  1  0.83053000  0.67792000  0.75508000  1.0
  O  O41  1  0.22948000  0.85508000  0.78683000  1.0
  O  O42  1  0.41018000  0.31555000  0.66112000  1.0
  O  O43  1  0.31507000  0.12828000  0.50414000  1.0
  O  O44  1  0.58969000  0.41461000  0.89210000  1.0
  O  O45  1  0.69124000  0.38062000  0.06153000  1.0
  O  O46  1  0.62066000  0.96143000  0.68506000  1.0
  O  O47  1  0.02194000  0.33919000  0.76716000  1.0
