# generated using pymatgen
data_ErH22C27N3O8
_symmetry_space_group_name_H-M   'P 1'
_cell_length_a   10.15990000
_cell_length_b   12.09290000
_cell_length_c   12.47320000
_cell_angle_alpha   93.93110000
_cell_angle_beta   101.49300000
_cell_angle_gamma   95.74800000
_symmetry_Int_Tables_number   1
_chemical_formula_structural   ErH22C27N3O8
_chemical_formula_sum   'Er2 H44 C54 N6 O16'
_cell_volume   1488.04214024
_cell_formula_units_Z   2
loop_
 _symmetry_equiv_pos_site_id
 _symmetry_equiv_pos_as_xyz
  1  'x, y, z'
loop_
 _atom_site_type_symbol
 _atom_site_label
 _atom_site_symmetry_multiplicity
 _atom_site_fract_x
 _atom_site_fract_y
 _atom_site_fract_z
 _atom_site_occupancy
  Er  Er0  1  0.34156000  0.59475000  0.92212000  1.0
  Er  Er1  1  0.65845000  0.40526000  0.07786000  1.0
  H  H2  1  0.18390000  0.75683000  0.33381000  1.0
  H  H3  1  0.81605000  0.24314000  0.66617000  1.0
  H  H4  1  0.28428000  0.68879000  0.18178000  1.0
  H  H5  1  0.71567000  0.31115000  0.81820000  1.0
  H  H6  1  0.59995000  0.56596000  0.40928000  1.0
  H  H7  1  0.40003000  0.43405000  0.59072000  1.0
  H  H8  1  0.49887000  0.62986000  0.56341000  1.0
  H  H9  1  0.50111000  0.37012000  0.43657000  1.0
  H  H10  1  0.14105000  0.15859000  0.82144000  1.0
  H  H11  1  0.85902000  0.84141000  0.17859000  1.0
  H  H12  1  0.02610000  0.29602000  0.91649000  1.0
  H  H13  1  0.97390000  0.70401000  0.08353000  1.0
  H  H14  1  0.73234000  0.03326000  0.96440000  1.0
  H  H15  1  0.26768000  0.96673000  0.03560000  1.0
  H  H16  1  0.84630000  0.89450000  0.87024000  1.0
  H  H17  1  0.15374000  0.10554000  0.12979000  1.0
  H  H18  1  0.39812000  0.03955000  0.43130000  1.0
  H  H19  1  0.60187000  0.96042000  0.56869000  1.0
  H  H20  1  0.52636000  0.11925000  0.30282000  1.0
  H  H21  1  0.47365000  0.88071000  0.69716000  1.0
  H  H22  1  0.23620000  0.35259000  0.22158000  1.0
  H  H23  1  0.76384000  0.64742000  0.77847000  1.0
  H  H24  1  0.10609000  0.27384000  0.35298000  1.0
  H  H25  1  0.89397000  0.72617000  0.64708000  1.0
  H  H26  1  0.26023000  0.91429000  0.42751000  1.0
  H  H27  1  0.73971000  0.08569000  0.57249000  1.0
  H  H28  1  0.07856000  0.10333000  0.65319000  1.0
  H  H29  1  0.92149000  0.89668000  0.34684000  1.0
  H  H30  1  0.17381000  0.77078000  0.71676000  1.0
  H  H31  1  0.82621000  0.22922000  0.28321000  1.0
  H  H32  1  0.32414000  0.70399000  0.62359000  1.0
  H  H33  1  0.67576000  0.29600000  0.37639000  1.0
  H  H34  1  0.03704000  0.85799000  0.80958000  1.0
  H  H35  1  0.96301000  0.14202000  0.19045000  1.0
  H  H36  1  0.08834000  0.15671000  0.48289000  1.0
  H  H37  1  0.91168000  0.84331000  0.51714000  1.0
  H  H38  1  0.06567000  0.52590000  0.81436000  1.0
  H  H39  1  0.93431000  0.47413000  0.18563000  1.0
  H  H40  1  0.15167000  0.49399000  0.72674000  1.0
  H  H41  1  0.84833000  0.50603000  0.27327000  1.0
  H  H42  1  0.27277000  0.37153000  0.89207000  1.0
  H  H43  1  0.72724000  0.62846000  0.10793000  1.0
  H  H44  1  0.30350000  0.38097000  0.01960000  1.0
  H  H45  1  0.69650000  0.61903000  0.98040000  1.0
  C  C46  1  0.33589000  0.70091000  0.46121000  1.0
  C  C47  1  0.66407000  0.29913000  0.53876000  1.0
  C  C48  1  0.27628000  0.71681000  0.35181000  1.0
  C  C49  1  0.72366000  0.28318000  0.64815000  1.0
  C  C50  1  0.33282000  0.67858000  0.26576000  1.0
  C  C51  1  0.66711000  0.32137000  0.73422000  1.0
  C  C52  1  0.45078000  0.62504000  0.28447000  1.0
  C  C53  1  0.54920000  0.37498000  0.71551000  1.0
  C  C54  1  0.50884000  0.60777000  0.39338000  1.0
  C  C55  1  0.49110000  0.39219000  0.60660000  1.0
  C  C56  1  0.45188000  0.64342000  0.47963000  1.0
  C  C57  1  0.54804000  0.35657000  0.52034000  1.0
  C  C58  1  0.51039000  0.58456000  0.19278000  1.0
  C  C59  1  0.48961000  0.41544000  0.80719000  1.0
  C  C60  1  0.99868000  0.01749000  0.83631000  1.0
  C  C61  1  0.00136000  0.98251000  0.16373000  1.0
  C  C62  1  0.04892000  0.13161000  0.84920000  1.0
  C  C63  1  0.95112000  0.86840000  0.15083000  1.0
  C  C64  1  0.98552000  0.20816000  0.90312000  1.0
  C  C65  1  0.01448000  0.79187000  0.09688000  1.0
  C  C66  1  0.87080000  0.17346000  0.94435000  1.0
  C  C67  1  0.12921000  0.82655000  0.05566000  1.0
  C  C68  1  0.82126000  0.05966000  0.93194000  1.0
  C  C69  1  0.17878000  0.94034000  0.06807000  1.0
  C  C70  1  0.88460000  0.98283000  0.87932000  1.0
  C  C71  1  0.11545000  0.01718000  0.12070000  1.0
  C  C72  1  0.80149000  0.25543000  0.99863000  1.0
  C  C73  1  0.19852000  0.74458000  0.00138000  1.0
  C  C74  1  0.24065000  0.14949000  0.40065000  1.0
  C  C75  1  0.75937000  0.85052000  0.59935000  1.0
  C  C76  1  0.35993000  0.10627000  0.38460000  1.0
  C  C77  1  0.64009000  0.89373000  0.61540000  1.0
  C  C78  1  0.43308000  0.15217000  0.31270000  1.0
  C  C79  1  0.56694000  0.84783000  0.68729000  1.0
  C  C80  1  0.39043000  0.24098000  0.25301000  1.0
  C  C81  1  0.60957000  0.75902000  0.74697000  1.0
  C  C82  1  0.27004000  0.28287000  0.26660000  1.0
  C  C83  1  0.72999000  0.71713000  0.73340000  1.0
  C  C84  1  0.19753000  0.23901000  0.34013000  1.0
  C  C85  1  0.80252000  0.76102000  0.65988000  1.0
  C  C86  1  0.48051000  0.29634000  0.18902000  1.0
  C  C87  1  0.51950000  0.70366000  0.81099000  1.0
  C  C88  1  0.22400000  0.83173000  0.56955000  1.0
  C  C89  1  0.77595000  0.16825000  0.43043000  1.0
  C  C90  1  0.22330000  0.92140000  0.50312000  1.0
  C  C91  1  0.77667000  0.07859000  0.49688000  1.0
  C  C92  1  0.17413000  0.01979000  0.53655000  1.0
  C  C93  1  0.82587000  0.98022000  0.46346000  1.0
  C  C94  1  0.12263000  0.02834000  0.63281000  1.0
  C  C95  1  0.87738000  0.97167000  0.36719000  1.0
  C  C96  1  0.11958000  0.93768000  0.69673000  1.0
  C  C97  1  0.88042000  0.06232000  0.30327000  1.0
  C  C98  1  0.17109000  0.83990000  0.66508000  1.0
  C  C99  1  0.82889000  0.16011000  0.33490000  1.0
  N  N100  1  0.28369000  0.73474000  0.55075000  1.0
  N  N101  1  0.71621000  0.26523000  0.44922000  1.0
  N  N102  1  0.06075000  0.93586000  0.78829000  1.0
  N  N103  1  0.93928000  0.06416000  0.21174000  1.0
  N  N104  1  0.16612000  0.11234000  0.47462000  1.0
  N  N105  1  0.83391000  0.88769000  0.52541000  1.0
  O  O106  1  0.44865000  0.58996000  0.09318000  1.0
  O  O107  1  0.55133000  0.41001000  0.90678000  1.0
  O  O108  1  0.62291000  0.54235000  0.21381000  1.0
  O  O109  1  0.37705000  0.45761000  0.78619000  1.0
  O  O110  1  0.69289000  0.22360000  0.03144000  1.0
  O  O111  1  0.30714000  0.77640000  0.96858000  1.0
  O  O112  1  0.84752000  0.36002000  0.01095000  1.0
  O  O113  1  0.15248000  0.63999000  0.98907000  1.0
  O  O114  1  0.43552000  0.33994000  0.09942000  1.0
  O  O115  1  0.56453000  0.66009000  0.90059000  1.0
  O  O116  1  0.60863000  0.30471000  0.22492000  1.0
  O  O117  1  0.39138000  0.69531000  0.77506000  1.0
  O  O118  1  0.13720000  0.55394000  0.77798000  1.0
  O  O119  1  0.86279000  0.44607000  0.22202000  1.0
  O  O120  1  0.24887000  0.41212000  0.95467000  1.0
  O  O121  1  0.75111000  0.58787000  0.04532000  1.0
