# generated using pymatgen
data_CuH8C8(ClO2)4
_symmetry_space_group_name_H-M   'P 1'
_cell_length_a   7.10423000
_cell_length_b   8.39885000
_cell_length_c   8.44819000
_cell_angle_alpha   118.79630000
_cell_angle_beta   99.52230000
_cell_angle_gamma   92.97880000
_symmetry_Int_Tables_number   1
_chemical_formula_structural   CuH8C8(ClO2)4
_chemical_formula_sum   'Cu1 H8 C8 Cl4 O8'
_cell_volume   430.57437136
_cell_formula_units_Z   1
loop_
 _symmetry_equiv_pos_site_id
 _symmetry_equiv_pos_as_xyz
  1  'x, y, z'
loop_
 _atom_site_type_symbol
 _atom_site_label
 _atom_site_symmetry_multiplicity
 _atom_site_fract_x
 _atom_site_fract_y
 _atom_site_fract_z
 _atom_site_occupancy
  Cu  Cu0  1  0.00000000  0.00001000  0.00001000  1.0
  H  H1  1  0.31085000  0.14278000  0.20578000  1.0
  H  H2  1  0.68916000  0.85723000  0.79422000  1.0
  H  H3  1  0.21506000  0.30141000  0.18097000  1.0
  H  H4  1  0.78494000  0.69858000  0.81899000  1.0
  H  H5  1  0.31950000  0.02375000  0.80131000  1.0
  H  H6  1  0.68051000  0.97625000  0.19870000  1.0
  H  H7  1  0.13920000  0.09960000  0.74164000  1.0
  H  H8  1  0.86078000  0.90033000  0.25830000  1.0
  C  C9  1  0.31559000  0.82370000  0.07349000  1.0
  C  C10  1  0.68440000  0.17633000  0.92652000  1.0
  C  C11  1  0.40267000  0.65107000  0.03324000  1.0
  C  C12  1  0.59731000  0.34893000  0.96676000  1.0
  C  C13  1  0.42866000  0.53259000  0.85459000  1.0
  C  C14  1  0.57132000  0.46740000  0.14540000  1.0
  C  C15  1  0.52821000  0.38298000  0.82233000  1.0
  C  C16  1  0.47178000  0.61701000  0.17767000  1.0
  Cl  Cl17  1  0.33954000  0.57146000  0.67679000  1.0
  Cl  Cl18  1  0.66045000  0.42855000  0.32321000  1.0
  Cl  Cl19  1  0.56933000  0.24192000  0.60611000  1.0
  Cl  Cl20  1  0.43067000  0.75810000  0.39390000  1.0
  O  O21  1  0.13386000  0.80406000  0.01778000  1.0
  O  O22  1  0.86614000  0.19596000  0.98223000  1.0
  O  O23  1  0.43215000  0.97281000  0.15737000  1.0
  O  O24  1  0.56788000  0.02720000  0.84263000  1.0
  O  O25  1  0.19177000  0.20503000  0.21134000  1.0
  O  O26  1  0.80825000  0.79498000  0.78866000  1.0
  O  O27  1  0.17657000  0.01286000  0.78167000  1.0
  O  O28  1  0.82345000  0.98715000  0.21836000  1.0
