# generated using pymatgen
data_ZnH18C30NO4
_symmetry_space_group_name_H-M   'P 1'
_cell_length_a   15.69180000
_cell_length_b   15.80110000
_cell_length_c   15.80110000
_cell_angle_alpha   118.40800000
_cell_angle_beta   92.28660000
_cell_angle_gamma   92.28670000
_symmetry_Int_Tables_number   1
_chemical_formula_structural   ZnH18C30NO4
_chemical_formula_sum   'Zn4 H72 C120 N4 O16'
_cell_volume   3435.58764763
_cell_formula_units_Z   4
loop_
 _symmetry_equiv_pos_site_id
 _symmetry_equiv_pos_as_xyz
  1  'x, y, z'
loop_
 _atom_site_type_symbol
 _atom_site_label
 _atom_site_symmetry_multiplicity
 _atom_site_fract_x
 _atom_site_fract_y
 _atom_site_fract_z
 _atom_site_occupancy
  Zn  Zn0  1  0.93330000  0.06124000  0.05134000  1.0
  Zn  Zn1  1  0.56670000  0.94866000  0.93876000  1.0
  Zn  Zn2  1  0.06670000  0.93876000  0.94866000  1.0
  Zn  Zn3  1  0.43330000  0.05134000  0.06124000  1.0
  H  H4  1  0.93464000  0.19488000  0.25839000  1.0
  H  H5  1  0.56535000  0.74161000  0.80512000  1.0
  H  H6  1  0.06535000  0.80512000  0.74161000  1.0
  H  H7  1  0.43465000  0.25839000  0.19488000  1.0
  H  H8  1  0.83752000  0.30879000  0.37589000  1.0
  H  H9  1  0.66248000  0.62411000  0.69121000  1.0
  H  H10  1  0.16248000  0.69121000  0.62411000  1.0
  H  H11  1  0.33752000  0.37589000  0.30879000  1.0
  H  H12  1  0.66061000  0.24520000  0.13300000  1.0
  H  H13  1  0.83939000  0.86700000  0.75480000  1.0
  H  H14  1  0.33939000  0.75480000  0.86700000  1.0
  H  H15  1  0.16061000  0.13300000  0.24520000  1.0
  H  H16  1  0.76360000  0.13220000  0.02634000  1.0
  H  H17  1  0.73640000  0.97366000  0.86780000  1.0
  H  H18  1  0.23640000  0.86780000  0.97366000  1.0
  H  H19  1  0.26360000  0.02634000  0.13220000  1.0
  H  H20  1  0.67631000  0.38124000  0.52492000  1.0
  H  H21  1  0.82369000  0.47508000  0.61876000  1.0
  H  H22  1  0.32369000  0.61876000  0.47508000  1.0
  H  H23  1  0.17631000  0.52492000  0.38124000  1.0
  H  H24  1  0.67730000  0.40989000  0.69374000  1.0
  H  H25  1  0.82269000  0.30626000  0.59011000  1.0
  H  H26  1  0.32269000  0.59011000  0.30625000  1.0
  H  H27  1  0.17731000  0.69374000  0.40989000  1.0
  H  H28  1  0.56645000  0.50509000  0.80101000  1.0
  H  H29  1  0.93355000  0.19899000  0.49491000  1.0
  H  H30  1  0.43355000  0.49491000  0.19899000  1.0
  H  H31  1  0.06645000  0.80101000  0.50509000  1.0
  H  H32  1  0.45307000  0.57108000  0.73965000  1.0
  H  H33  1  0.04693000  0.26035000  0.42892000  1.0
  H  H34  1  0.54693000  0.42892000  0.26035000  1.0
  H  H35  1  0.95307000  0.73965000  0.57108000  1.0
  H  H36  1  0.73380000  0.84101000  0.01989000  1.0
  H  H37  1  0.76620000  0.98011000  0.15899000  1.0
  H  H38  1  0.26620000  0.15899000  0.98011000  1.0
  H  H39  1  0.23380000  0.01989000  0.84101000  1.0
  H  H40  1  0.65877000  0.69410000  0.00658000  1.0
  H  H41  1  0.84123000  0.99342000  0.30590000  1.0
  H  H42  1  0.34123000  0.30590000  0.99342000  1.0
  H  H43  1  0.15877000  0.00658000  0.69410000  1.0
  H  H44  1  0.85252000  0.52232000  0.82708000  1.0
  H  H45  1  0.64748000  0.17292000  0.47768000  1.0
  H  H46  1  0.14748000  0.47768000  0.17292000  1.0
  H  H47  1  0.35252000  0.82708000  0.52231000  1.0
  H  H48  1  0.92922000  0.67207000  0.84555000  1.0
  H  H49  1  0.57078000  0.15445000  0.32793000  1.0
  H  H50  1  0.07078000  0.32793000  0.15445000  1.0
  H  H51  1  0.42922000  0.84555000  0.67207000  1.0
  H  H52  1  0.74665000  0.44407000  0.86481000  1.0
  H  H53  1  0.75335000  0.13519000  0.55592000  1.0
  H  H54  1  0.25335000  0.55593000  0.13519000  1.0
  H  H55  1  0.24665000  0.86481000  0.44407000  1.0
  H  H56  1  0.63153000  0.56592000  0.02668000  1.0
  H  H57  1  0.86847000  0.97331000  0.43408000  1.0
  H  H58  1  0.36847000  0.43408000  0.97331000  1.0
  H  H59  1  0.13153000  0.02668000  0.56592000  1.0
  H  H60  1  0.53460000  0.47790000  0.07180000  1.0
  H  H61  1  0.96540000  0.92820000  0.52210000  1.0
  H  H62  1  0.46540000  0.52210000  0.92820000  1.0
  H  H63  1  0.03460000  0.07180000  0.47790000  1.0
  H  H64  1  0.48610000  0.32677000  0.07476000  1.0
  H  H65  1  0.01390000  0.92524000  0.67323000  1.0
  H  H66  1  0.51390000  0.67323000  0.92525000  1.0
  H  H67  1  0.98610000  0.07475000  0.32677000  1.0
  H  H68  1  0.67998000  0.17573000  0.88635000  1.0
  H  H69  1  0.82002000  0.11365000  0.82427000  1.0
  H  H70  1  0.32002000  0.82427000  0.11365000  1.0
  H  H71  1  0.17998000  0.88635000  0.17573000  1.0
  H  H72  1  0.72959000  0.32428000  0.88223000  1.0
  H  H73  1  0.77041000  0.11777000  0.67571000  1.0
  H  H74  1  0.27041000  0.67572000  0.11777000  1.0
  H  H75  1  0.22959000  0.88223000  0.32428000  1.0
  C  C76  1  0.87342000  0.20903000  0.23433000  1.0
  C  C77  1  0.62658000  0.76567000  0.79097000  1.0
  C  C78  1  0.12658000  0.79097000  0.76567000  1.0
  C  C79  1  0.37342000  0.23433000  0.20903000  1.0
  C  C80  1  0.81965000  0.27213000  0.29897000  1.0
  C  C81  1  0.68035000  0.70103000  0.72787000  1.0
  C  C82  1  0.18035000  0.72787000  0.70103000  1.0
  C  C83  1  0.31965000  0.29897000  0.27213000  1.0
  C  C84  1  0.74067000  0.28621000  0.26352000  1.0
  C  C85  1  0.75933000  0.73648000  0.71380000  1.0
  C  C86  1  0.25933000  0.71379000  0.73648000  1.0
  C  C87  1  0.24067000  0.26352000  0.28621000  1.0
  C  C88  1  0.72096000  0.23656000  0.16322000  1.0
  C  C89  1  0.77904000  0.83678000  0.76344000  1.0
  C  C90  1  0.27904000  0.76344000  0.83678000  1.0
  C  C91  1  0.22096000  0.16322000  0.23656000  1.0
  C  C92  1  0.77813000  0.17388000  0.10389000  1.0
  C  C93  1  0.72187000  0.89611000  0.82612000  1.0
  C  C94  1  0.22187000  0.82612000  0.89611000  1.0
  C  C95  1  0.27813000  0.10389000  0.17388000  1.0
  C  C96  1  0.68133000  0.34546000  0.32620000  1.0
  C  C97  1  0.81867000  0.67381000  0.65455000  1.0
  C  C98  1  0.31867000  0.65454000  0.67381000  1.0
  C  C99  1  0.18133000  0.32619000  0.34545000  1.0
  C  C100  1  0.62706000  0.39296000  0.37871000  1.0
  C  C101  1  0.87295000  0.62128000  0.60705000  1.0
  C  C102  1  0.37294000  0.60705000  0.62129000  1.0
  C  C103  1  0.12705000  0.37872000  0.39295000  1.0
  C  C104  1  0.56402000  0.44631000  0.43897000  1.0
  C  C105  1  0.93598000  0.56104000  0.55370000  1.0
  C  C106  1  0.43598000  0.55369000  0.56104000  1.0
  C  C107  1  0.06402000  0.43896000  0.44630000  1.0
  C  C108  1  0.56471000  0.46122000  0.53534000  1.0
  C  C109  1  0.93529000  0.46466000  0.53878000  1.0
  C  C110  1  0.43529000  0.53878000  0.46466000  1.0
  C  C111  1  0.06471000  0.53534000  0.46122000  1.0
  C  C112  1  0.62796000  0.42306000  0.57239000  1.0
  C  C113  1  0.87204000  0.42761000  0.57694000  1.0
  C  C114  1  0.37204000  0.57694000  0.42761000  1.0
  C  C115  1  0.12796000  0.57239000  0.42306000  1.0
  C  C116  1  0.62812000  0.43870000  0.66582000  1.0
  C  C117  1  0.87188000  0.33418000  0.56130000  1.0
  C  C118  1  0.37188000  0.56130000  0.33418000  1.0
  C  C119  1  0.12812000  0.66582000  0.43870000  1.0
  C  C120  1  0.56472000  0.49281000  0.72696000  1.0
  C  C121  1  0.93528000  0.27304000  0.50719000  1.0
  C  C122  1  0.43528000  0.50719000  0.27304000  1.0
  C  C123  1  0.06472000  0.72696000  0.49281000  1.0
  C  C124  1  0.50221000  0.52982000  0.69314000  1.0
  C  C125  1  0.99778000  0.30686000  0.47018000  1.0
  C  C126  1  0.49779000  0.47018000  0.30686000  1.0
  C  C127  1  0.00221000  0.69314000  0.52982000  1.0
  C  C128  1  0.50021000  0.51554000  0.59702000  1.0
  C  C129  1  0.99979000  0.40298000  0.48446000  1.0
  C  C130  1  0.49979000  0.48446000  0.40298000  1.0
  C  C131  1  0.00021000  0.59702000  0.51554000  1.0
  C  C132  1  0.88984000  0.85500000  0.95486000  1.0
  C  C133  1  0.61016000  0.04514000  0.14500000  1.0
  C  C134  1  0.11016000  0.14500000  0.04514000  1.0
  C  C135  1  0.38984000  0.95486000  0.85500000  1.0
  C  C136  1  0.83802000  0.76568000  0.93656000  1.0
  C  C137  1  0.66198000  0.06344000  0.23432000  1.0
  C  C138  1  0.16198000  0.23432000  0.06344000  1.0
  C  C139  1  0.33802000  0.93656000  0.76568000  1.0
  C  C140  1  0.76027000  0.77104000  0.97942000  1.0
  C  C141  1  0.73973000  0.02058000  0.22896000  1.0
  C  C142  1  0.23973000  0.22896000  0.02058000  1.0
  C  C143  1  0.26027000  0.97942000  0.77104000  1.0
  C  C144  1  0.71816000  0.68812000  0.97110000  1.0
  C  C145  1  0.78184000  0.02890000  0.31188000  1.0
  C  C146  1  0.28184000  0.31188000  0.02890000  1.0
  C  C147  1  0.21816000  0.97110000  0.68812000  1.0
  C  C148  1  0.75209000  0.59733000  0.91866000  1.0
  C  C149  1  0.74791000  0.08134000  0.40267000  1.0
  C  C150  1  0.24791000  0.40267000  0.08134000  1.0
  C  C151  1  0.25209000  0.91866000  0.59733000  1.0
  C  C152  1  0.82663000  0.59240000  0.86987000  1.0
  C  C153  1  0.67337000  0.13013000  0.40760000  1.0
  C  C154  1  0.17337000  0.40760000  0.13013000  1.0
  C  C155  1  0.32663000  0.86987000  0.59240000  1.0
  C  C156  1  0.86969000  0.67534000  0.87977000  1.0
  C  C157  1  0.63031000  0.12023000  0.32466000  1.0
  C  C158  1  0.13031000  0.32466000  0.12023000  1.0
  C  C159  1  0.36969000  0.87977000  0.67534000  1.0
  C  C160  1  0.71789000  0.50936000  0.91632000  1.0
  C  C161  1  0.78211000  0.08368000  0.49064000  1.0
  C  C162  1  0.28211000  0.49064000  0.08368000  1.0
  C  C163  1  0.21789000  0.91632000  0.50936000  1.0
  C  C164  1  0.66038000  0.50133000  0.97413000  1.0
  C  C165  1  0.83962000  0.02587000  0.49867000  1.0
  C  C166  1  0.33962000  0.49868000  0.02587000  1.0
  C  C167  1  0.16038000  0.97413000  0.50132000  1.0
  C  C168  1  0.63410000  0.41219000  0.97476000  1.0
  C  C169  1  0.86590000  0.02524000  0.58781000  1.0
  C  C170  1  0.36590000  0.58781000  0.02524000  1.0
  C  C171  1  0.13410000  0.97476000  0.41219000  1.0
  C  C172  1  0.56613000  0.41129000  0.03022000  1.0
  C  C173  1  0.93387000  0.96978000  0.58871000  1.0
  C  C174  1  0.43387000  0.58871000  0.96978000  1.0
  C  C175  1  0.06613000  0.03022000  0.41129000  1.0
  C  C176  1  0.53897000  0.32754000  0.03241000  1.0
  C  C177  1  0.96103000  0.96759000  0.67246000  1.0
  C  C178  1  0.46102000  0.67246000  0.96759000  1.0
  C  C179  1  0.03897000  0.03241000  0.32753000  1.0
  C  C180  1  0.57949000  0.24191000  0.98001000  1.0
  C  C181  1  0.92050000  0.01999000  0.75809000  1.0
  C  C182  1  0.42050000  0.75809000  0.01999000  1.0
  C  C183  1  0.07950000  0.98001000  0.24191000  1.0
  C  C184  1  0.64810000  0.24227000  0.92584000  1.0
  C  C185  1  0.85190000  0.07416000  0.75773000  1.0
  C  C186  1  0.35190000  0.75773000  0.07416000  1.0
  C  C187  1  0.14810000  0.92584000  0.24227000  1.0
  C  C188  1  0.67494000  0.32563000  0.92327000  1.0
  C  C189  1  0.82506000  0.07673000  0.67437000  1.0
  C  C190  1  0.32506000  0.67438000  0.07673000  1.0
  C  C191  1  0.17494000  0.92327000  0.32562000  1.0
  C  C192  1  0.55131000  0.15220000  0.98401000  1.0
  C  C193  1  0.94869000  0.01598000  0.84780000  1.0
  C  C194  1  0.44869000  0.84780000  0.01599000  1.0
  C  C195  1  0.05131000  0.98401000  0.15220000  1.0
  N  N196  1  0.85299000  0.15993000  0.13856000  1.0
  N  N197  1  0.64701000  0.86145000  0.84007000  1.0
  N  N198  1  0.14701000  0.84007000  0.86145000  1.0
  N  N199  1  0.35299000  0.13856000  0.15993000  1.0
  O  O200  1  0.85838000  0.93582000  0.00538000  1.0
  O  O201  1  0.64162000  0.99462000  0.06418000  1.0
  O  O202  1  0.14162000  0.06418000  0.99462000  1.0
  O  O203  1  0.35838000  0.00538000  0.93582000  1.0
  O  O204  1  0.96294000  0.84306000  0.91994000  1.0
  O  O205  1  0.53706000  0.08006000  0.15694000  1.0
  O  O206  1  0.03706000  0.15694000  0.08006000  1.0
  O  O207  1  0.46294000  0.91994000  0.84306000  1.0
  O  O208  1  0.48691000  0.15735000  0.03221000  1.0
  O  O209  1  0.01309000  0.96779000  0.84265000  1.0
  O  O210  1  0.51308000  0.84265000  0.96779000  1.0
  O  O211  1  0.98692000  0.03221000  0.15735000  1.0
  O  O212  1  0.59467000  0.07860000  0.94019000  1.0
  O  O213  1  0.90533000  0.05981000  0.92140000  1.0
  O  O214  1  0.40533000  0.92140000  0.05981000  1.0
  O  O215  1  0.09467000  0.94019000  0.07860000  1.0
