# generated using pymatgen
data_Zn4H32C40O21
_symmetry_space_group_name_H-M   'P 1'
_cell_length_a   17.81840000
_cell_length_b   18.65280000
_cell_length_c   23.28840000
_cell_angle_alpha   66.56160000
_cell_angle_beta   69.67700000
_cell_angle_gamma   89.95400000
_symmetry_Int_Tables_number   1
_chemical_formula_structural   Zn4H32C40O21
_chemical_formula_sum   'Zn8 H64 C80 O42'
_cell_volume   6574.07245789
_cell_formula_units_Z   2
loop_
 _symmetry_equiv_pos_site_id
 _symmetry_equiv_pos_as_xyz
  1  'x, y, z'
loop_
 _atom_site_type_symbol
 _atom_site_label
 _atom_site_symmetry_multiplicity
 _atom_site_fract_x
 _atom_site_fract_y
 _atom_site_fract_z
 _atom_site_occupancy
  Zn  Zn0  1  0.11929000  0.53210000  0.94342000  1.0
  Zn  Zn1  1  0.97508000  0.56190000  0.05003000  1.0
  Zn  Zn2  1  0.97607000  0.38859000  0.04930000  1.0
  Zn  Zn3  1  0.93644000  0.52806000  0.93714000  1.0
  Zn  Zn4  1  0.38498000  0.97981000  0.04908000  1.0
  Zn  Zn5  1  0.52786000  0.11661000  0.93837000  1.0
  Zn  Zn6  1  0.52423000  0.94421000  0.93887000  1.0
  Zn  Zn7  1  0.56946000  0.97193000  0.04988000  1.0
  H  H8  1  0.43097000  0.82279000  0.39004000  1.0
  H  H9  1  0.19772000  0.79068000  0.37830000  1.0
  H  H10  1  0.31429000  0.67389000  0.61242000  1.0
  H  H11  1  0.08163000  0.71843000  0.59950000  1.0
  H  H12  1  0.68038000  0.08394000  0.60320000  1.0
  H  H13  1  0.71494000  0.31090000  0.60673000  1.0
  H  H14  1  0.82747000  0.19339000  0.38441000  1.0
  H  H15  1  0.78839000  0.42220000  0.38330000  1.0
  H  H16  1  0.19605000  0.30327000  0.91128000  1.0
  H  H17  1  0.12558000  0.23084000  0.98860000  1.0
  H  H18  1  0.21561000  0.14039000  0.98352000  1.0
  H  H19  1  0.28659000  0.21402000  0.90741000  1.0
  H  H20  1  0.21463000  0.12606000  0.09541000  1.0
  H  H21  1  0.28716000  0.18600000  0.09991000  1.0
  H  H22  1  0.12738000  0.21951000  0.09997000  1.0
  H  H23  1  0.20187000  0.28037000  0.10103000  1.0
  H  H24  1  0.30166000  0.39264000  0.91264000  1.0
  H  H25  1  0.30341000  0.38546000  0.98970000  1.0
  H  H26  1  0.39098000  0.29216000  0.99015000  1.0
  H  H27  1  0.39171000  0.30180000  0.91185000  1.0
  H  H28  1  0.89014000  0.79638000  0.90967000  1.0
  H  H29  1  0.88294000  0.78287000  0.99120000  1.0
  H  H30  1  0.79549000  0.87675000  0.98847000  1.0
  H  H31  1  0.80022000  0.88668000  0.90843000  1.0
  H  H32  1  0.69332000  0.77215000  0.09440000  1.0
  H  H33  1  0.62018000  0.71154000  0.09108000  1.0
  H  H34  1  0.77711000  0.67513000  0.09580000  1.0
  H  H35  1  0.70623000  0.61833000  0.08718000  1.0
  H  H36  1  0.79037000  0.71204000  0.89780000  1.0
  H  H37  1  0.71723000  0.63701000  0.96976000  1.0
  H  H38  1  0.62570000  0.72607000  0.97525000  1.0
  H  H39  1  0.69699000  0.79974000  0.90113000  1.0
  H  H40  1  0.16304000  0.79527000  0.93698000  1.0
  H  H41  1  0.24716000  0.75943000  0.89536000  1.0
  H  H42  1  0.33523000  0.85456000  0.89259000  1.0
  H  H43  1  0.25073000  0.89050000  0.93345000  1.0
  H  H44  1  0.39573000  0.74739000  0.96112000  1.0
  H  H45  1  0.35287000  0.70608000  0.05037000  1.0
  H  H46  1  0.30859000  0.65263000  0.96211000  1.0
  H  H47  1  0.26766000  0.61089000  0.05129000  1.0
  H  H48  1  0.10274000  0.73519000  0.06630000  1.0
  H  H49  1  0.14701000  0.66131000  0.11243000  1.0
  H  H50  1  0.23181000  0.75916000  0.10976000  1.0
  H  H51  1  0.18964000  0.83282000  0.06155000  1.0
  H  H52  1  0.89734000  0.26484000  0.93097000  1.0
  H  H53  1  0.85378000  0.34138000  0.88516000  1.0
  H  H54  1  0.76629000  0.24696000  0.88665000  1.0
  H  H55  1  0.80997000  0.17088000  0.93267000  1.0
  H  H56  1  0.64649000  0.29581000  0.94808000  1.0
  H  H57  1  0.60532000  0.25489000  0.03727000  1.0
  H  H58  1  0.73488000  0.39048000  0.94586000  1.0
  H  H59  1  0.69283000  0.34952000  0.03493000  1.0
  H  H60  1  0.83743000  0.20430000  0.06015000  1.0
  H  H61  1  0.75352000  0.23841000  0.10247000  1.0
  H  H62  1  0.66666667  0.14316000  0.10414000  1.0
  H  H63  1  0.75059000  0.11010000  0.06090000  1.0
  H  H64  1  0.54345000  0.79801000  0.26152000  1.0
  H  H65  1  0.21742000  0.94619000  0.24604000  1.0
  H  H66  1  0.29352000  0.69867000  0.74346000  1.0
  H  H67  1  0.96823000  0.56485000  0.72847000  1.0
  H  H68  1  0.70489000  0.97319000  0.73878000  1.0
  H  H69  1  0.55646000  0.29326000  0.73079000  1.0
  H  H70  1  0.79904000  0.21438000  0.25142000  1.0
  H  H71  1  0.94385000  0.53017000  0.25694000  1.0
  C  C72  1  0.14383000  0.63754000  0.00286000  1.0
  C  C73  1  0.91055000  0.41187000  0.17464000  1.0
  C  C74  1  0.14471000  0.36575000  0.00105000  1.0
  C  C75  1  0.86006000  0.36412000  0.99082000  1.0
  C  C76  1  0.08960000  0.59305000  0.81525000  1.0
  C  C77  1  0.85912000  0.64006000  0.99196000  1.0
  C  C78  1  0.36010000  0.14429000  0.99593000  1.0
  C  C79  1  0.58719000  0.09241000  0.81380000  1.0
  C  C80  1  0.35618000  0.86654000  0.99732000  1.0
  C  C81  1  0.64197000  0.86079000  0.99448000  1.0
  C  C82  1  0.42051000  0.91405000  0.17475000  1.0
  C  C83  1  0.64575000  0.13832000  0.99383000  1.0
  C  C84  1  0.38296000  0.87472000  0.25028000  1.0
  C  C85  1  0.43028000  0.86529000  0.28951000  1.0
  C  C86  1  0.39417000  0.82914000  0.35995000  1.0
  C  C87  1  0.30988000  0.80256000  0.39283000  1.0
  C  C88  1  0.26273000  0.81221000  0.35334000  1.0
  C  C89  1  0.29882000  0.84731000  0.28297000  1.0
  C  C90  1  0.27282000  0.76672000  0.46428000  1.0
  C  C91  1  0.23997000  0.73593000  0.52585000  1.0
  C  C92  1  0.20251000  0.70044000  0.59727000  1.0
  C  C93  1  0.24918000  0.67052000  0.63713000  1.0
  C  C94  1  0.21260000  0.63528000  0.70747000  1.0
  C  C95  1  0.12832000  0.62996000  0.73979000  1.0
  C  C96  1  0.08148000  0.66013000  0.70021000  1.0
  C  C97  1  0.11813000  0.69448000  0.62981000  1.0
  C  C98  1  0.62733000  0.13012000  0.73866000  1.0
  C  C99  1  0.63671000  0.08408000  0.70189000  1.0
  C  C100  1  0.67398000  0.11951000  0.63162000  1.0
  C  C101  1  0.70170000  0.20171000  0.59652000  1.0
  C  C102  1  0.69225000  0.24755000  0.63353000  1.0
  C  C103  1  0.65599000  0.21211000  0.70388000  1.0
  C  C104  1  0.73811000  0.23758000  0.52519000  1.0
  C  C105  1  0.76859000  0.26817000  0.46356000  1.0
  C  C106  1  0.80373000  0.30365000  0.39218000  1.0
  C  C107  1  0.83187000  0.25700000  0.35646000  1.0
  C  C108  1  0.86687000  0.29192000  0.28607000  1.0
  C  C109  1  0.87328000  0.37422000  0.24996000  1.0
  C  C110  1  0.84483000  0.42103000  0.28543000  1.0
  C  C111  1  0.81098000  0.38609000  0.35585000  1.0
  C  C112  1  0.18873000  0.26114000  0.96263000  1.0
  C  C113  1  0.24847000  0.20102000  0.96008000  1.0
  C  C114  1  0.30356000  0.20513000  0.99788000  1.0
  C  C115  1  0.24875000  0.18612000  0.07172000  1.0
  C  C116  1  0.19103000  0.24799000  0.07347000  1.0
  C  C117  1  0.20447000  0.30762000  0.00078000  1.0
  C  C118  1  0.29261000  0.35031000  0.96422000  1.0
  C  C119  1  0.35134000  0.28934000  0.96372000  1.0
  C  C120  1  0.84716000  0.78229000  0.96128000  1.0
  C  C121  1  0.78807000  0.84343000  0.96057000  1.0
  C  C122  1  0.69952000  0.80056000  0.99308000  1.0
  C  C123  1  0.68397000  0.74016000  0.06613000  1.0
  C  C124  1  0.74122000  0.67781000  0.06529000  1.0
  C  C125  1  0.79902000  0.69803000  0.99190000  1.0
  C  C126  1  0.74918000  0.69730000  0.94997000  1.0
  C  C127  1  0.68860000  0.75650000  0.95231000  1.0
  C  C128  1  0.21997000  0.77367000  0.93894000  1.0
  C  C129  1  0.27829000  0.83689000  0.93689000  1.0
  C  C130  1  0.29759000  0.80372000  0.00169000  1.0
  C  C131  1  0.33816000  0.72966000  0.00479000  1.0
  C  C132  1  0.28075000  0.66655000  0.00573000  1.0
  C  C133  1  0.20050000  0.69685000  0.00464000  1.0
  C  C134  1  0.16105000  0.71597000  0.06590000  1.0
  C  C135  1  0.21825000  0.78012000  0.06375000  1.0
  C  C136  1  0.83965000  0.28590000  0.93098000  1.0
  C  C137  1  0.78137000  0.22337000  0.93195000  1.0
  C  C138  1  0.70216000  0.19797000  0.99549000  1.0
  C  C139  1  0.66240000  0.27231000  0.99292000  1.0
  C  C140  1  0.72078000  0.33501000  0.99155000  1.0
  C  C141  1  0.80011000  0.30337000  0.99375000  1.0
  C  C142  1  0.78072000  0.22576000  0.05797000  1.0
  C  C143  1  0.72292000  0.16322000  0.05890000  1.0
  C  C144  1  0.51932000  0.89969000  0.25848000  1.0
  C  C145  1  0.24526000  0.84706000  0.24488000  1.0
  C  C146  1  0.26606000  0.59758000  0.74580000  1.0
  C  C147  1  0.99234000  0.66392000  0.73077000  1.0
  C  C148  1  0.60132000  0.99721000  0.73488000  1.0
  C  C149  1  0.65650000  0.26383000  0.73997000  1.0
  C  C150  1  0.90348000  0.23906000  0.25203000  1.0
  C  C151  1  0.84244000  0.50834000  0.25027000  1.0
  O  O152  1  0.00146000  0.50327000  0.99382000  1.0
  O  O153  1  0.17469000  0.60568000  0.96229000  1.0
  O  O154  1  0.93601000  0.48591000  0.14680000  1.0
  O  O155  1  0.07149000  0.33713000  0.04224000  1.0
  O  O156  1  0.06914000  0.62560000  0.04051000  1.0
  O  O157  1  0.17140000  0.43801000  0.95925000  1.0
  O  O158  1  0.91349000  0.36655000  0.14528000  1.0
  O  O159  1  0.90325000  0.33733000  0.02599000  1.0
  O  O160  1  0.01353000  0.56892000  0.84118000  1.0
  O  O161  1  0.86445000  0.43693000  0.95250000  1.0
  O  O162  1  0.13681000  0.58945000  0.84630000  1.0
  O  O163  1  0.89629000  0.63038000  0.03195000  1.0
  O  O164  1  0.86869000  0.60647000  0.95228000  1.0
  O  O165  1  0.50181000  0.00243000  0.99538000  1.0
  O  O166  1  0.32848000  0.07134000  0.03136000  1.0
  O  O167  1  0.55867000  0.13799000  0.84188000  1.0
  O  O168  1  0.42625000  0.88566000  0.94994000  1.0
  O  O169  1  0.43481000  0.17030000  0.95867000  1.0
  O  O170  1  0.33141000  0.89585000  0.04034000  1.0
  O  O171  1  0.58501000  0.01803000  0.84292000  1.0
  O  O172  1  0.59843000  0.86999000  0.95947000  1.0
  O  O173  1  0.49620000  0.91493000  0.14729000  1.0
  O  O174  1  0.64142000  0.89772000  0.03058000  1.0
  O  O175  1  0.37238000  0.94320000  0.14510000  1.0
  O  O176  1  0.61626000  0.16528000  0.94798000  1.0
  O  O177  1  0.63267000  0.06655000  0.03721000  1.0
  O  O178  1  0.57233000  0.84795000  0.25301000  1.0
  O  O179  1  0.54281000  0.96774000  0.24456000  1.0
  O  O180  1  0.19837000  0.90505000  0.23607000  1.0
  O  O181  1  0.23811000  0.79388000  0.22873000  1.0
  O  O182  1  0.31213000  0.64737000  0.75473000  1.0
  O  O183  1  0.27386000  0.52848000  0.76220000  1.0
  O  O184  1  0.93945000  0.60684000  0.73611000  1.0
  O  O185  1  0.96874000  0.71849000  0.74417000  1.0
  O  O186  1  0.65410000  0.94526000  0.74537000  1.0
  O  O187  1  0.53190000  0.97455000  0.74574000  1.0
  O  O188  1  0.59773000  0.31036000  0.74344000  1.0
  O  O189  1  0.71037000  0.26959000  0.75922000  1.0
  O  O190  1  0.85111000  0.19529000  0.24310000  1.0
  O  O191  1  0.97392000  0.23007000  0.23905000  1.0
  O  O192  1  0.90136000  0.55900000  0.24578000  1.0
  O  O193  1  0.78712000  0.53246000  0.23281000  1.0
