# generated using pymatgen
data_ZnH12C12S2(NO)10
_symmetry_space_group_name_H-M   'P 1'
_cell_length_a   6.72843000
_cell_length_b   8.83579000
_cell_length_c   10.04930000
_cell_angle_alpha   64.20070000
_cell_angle_beta   76.24780000
_cell_angle_gamma   82.75690000
_symmetry_Int_Tables_number   1
_chemical_formula_structural   ZnH12C12S2(NO)10
_chemical_formula_sum   'Zn1 H12 C12 S2 N10 O10'
_cell_volume   522.29591106
_cell_formula_units_Z   1
loop_
 _symmetry_equiv_pos_site_id
 _symmetry_equiv_pos_as_xyz
  1  'x, y, z'
loop_
 _atom_site_type_symbol
 _atom_site_label
 _atom_site_symmetry_multiplicity
 _atom_site_fract_x
 _atom_site_fract_y
 _atom_site_fract_z
 _atom_site_occupancy
  Zn  Zn0  1  0.50000000  0.00000000  0.50000000  1.0
  H  H1  1  0.20650000  0.30988000  0.52967000  1.0
  H  H2  1  0.79350000  0.69012000  0.47033000  1.0
  H  H3  1  0.16828000  0.08772000  0.00667000  1.0
  H  H4  1  0.83172000  0.91228000  0.99333000  1.0
  H  H5  1  0.40642000  0.88312000  0.88042000  1.0
  H  H6  1  0.59358000  0.11688000  0.11958000  1.0
  H  H7  1  0.14259000  0.74749000  0.54548000  1.0
  H  H8  1  0.85741000  0.25251000  0.45451000  1.0
  H  H9  1  0.33407000  0.38288000  0.94419000  1.0
  H  H10  1  0.66593000  0.61713000  0.05581000  1.0
  H  H11  1  0.59781000  0.65518000  0.79983000  1.0
  H  H12  1  0.40219000  0.34483000  0.20016000  1.0
  C  C13  1  0.23284000  0.22026000  0.63958000  1.0
  C  C14  1  0.76716000  0.77974000  0.36042000  1.0
  C  C15  1  0.21226000  0.09937000  0.89145000  1.0
  C  C16  1  0.78774000  0.90062000  0.10855000  1.0
  C  C17  1  0.33097000  0.00304000  0.82597000  1.0
  C  C18  1  0.66903000  0.99696000  0.17403000  1.0
  C  C19  1  0.23135000  0.68834000  0.63327000  1.0
  C  C20  1  0.76864000  0.31166000  0.36673000  1.0
  C  C21  1  0.33863000  0.49722000  0.84130000  1.0
  C  C22  1  0.66137000  0.50278000  0.15870000  1.0
  C  C23  1  0.46274000  0.63249000  0.77042000  1.0
  C  C24  1  0.53726000  0.36751000  0.22958000  1.0
  S  S25  1  0.00536000  0.40340000  0.78376000  1.0
  S  S26  1  0.99463000  0.59660000  0.21625000  1.0
  N  N27  1  0.34271000  0.07935000  0.67074000  1.0
  N  N28  1  0.65729000  0.92065000  0.32926000  1.0
  N  N29  1  0.14861000  0.23742000  0.77143000  1.0
  N  N30  1  0.85140000  0.76258000  0.22857000  1.0
  N  N31  1  0.19162000  0.53361000  0.75323000  1.0
  N  N32  1  0.80838000  0.46640000  0.24677000  1.0
  N  N33  1  0.39366000  0.74952000  0.64280000  1.0
  N  N34  1  0.60633000  0.25048000  0.35720000  1.0
  N  N35  1  0.19088000  0.06523000  0.29012000  1.0
  N  N36  1  0.80912000  0.93477000  0.70988000  1.0
  O  O37  1  0.91144000  0.47963000  0.65592000  1.0
  O  O38  1  0.08856000  0.52037000  0.34408000  1.0
  O  O39  1  0.89694000  0.34900000  0.93604000  1.0
  O  O40  1  0.10306000  0.65100000  0.06396000  1.0
  O  O41  1  0.22025000  0.07992000  0.40637000  1.0
  O  O42  1  0.77975000  0.92008000  0.59363000  1.0
  O  O43  1  0.16740000  0.19791000  0.17480000  1.0
  O  O44  1  0.83261000  0.80209000  0.82520000  1.0
  O  O45  1  0.18523000  0.92238000  0.29328000  1.0
  O  O46  1  0.81477000  0.07762000  0.70672000  1.0
