# generated using pymatgen
data_CdH4C9(NO2)2
_symmetry_space_group_name_H-M   'P 1'
_cell_length_a   5.79928000
_cell_length_b   10.74400000
_cell_length_c   13.73380000
_cell_angle_alpha   95.34440000
_cell_angle_beta   89.99970000
_cell_angle_gamma   89.99980000
_symmetry_Int_Tables_number   1
_chemical_formula_structural   CdH4C9(NO2)2
_chemical_formula_sum   'Cd4 H16 C36 N8 O16'
_cell_volume   851.99829118
_cell_formula_units_Z   4
loop_
 _symmetry_equiv_pos_site_id
 _symmetry_equiv_pos_as_xyz
  1  'x, y, z'
loop_
 _atom_site_type_symbol
 _atom_site_label
 _atom_site_symmetry_multiplicity
 _atom_site_fract_x
 _atom_site_fract_y
 _atom_site_fract_z
 _atom_site_occupancy
  Cd  Cd0  1  0.78529000  0.25393000  0.34338000  1.0
  Cd  Cd1  1  0.28529000  0.24607000  0.15662000  1.0
  Cd  Cd2  1  0.21471000  0.74607000  0.65662000  1.0
  Cd  Cd3  1  0.71471000  0.75393000  0.84338000  1.0
  H  H4  1  0.18272000  0.91466000  0.94554000  1.0
  H  H5  1  0.68272000  0.58534000  0.55446000  1.0
  H  H6  1  0.81728000  0.08534000  0.05446000  1.0
  H  H7  1  0.31727000  0.41465000  0.44554000  1.0
  H  H8  1  0.40459000  0.85821000  0.09238000  1.0
  H  H9  1  0.90459000  0.64179000  0.40763000  1.0
  H  H10  1  0.59541000  0.14179000  0.90762000  1.0
  H  H11  1  0.09541000  0.35821000  0.59237000  1.0
  H  H12  1  0.34457000  0.66976000  0.23430000  1.0
  H  H13  1  0.84457000  0.83024000  0.26571000  1.0
  H  H14  1  0.65543000  0.33025000  0.76570000  1.0
  H  H15  1  0.15542000  0.16976000  0.73429000  1.0
  H  H16  1  0.63866000  0.57391000  0.02617000  1.0
  H  H17  1  0.13865000  0.92609000  0.47383000  1.0
  H  H18  1  0.36134000  0.42609000  0.97383000  1.0
  H  H19  1  0.86134000  0.07391000  0.52617000  1.0
  C  C20  1  0.94613000  0.68765000  0.04891000  1.0
  C  C21  1  0.44611000  0.81234000  0.45108000  1.0
  C  C22  1  0.05389000  0.31235000  0.95108000  1.0
  C  C23  1  0.55389000  0.18766000  0.54892000  1.0
  C  C24  1  0.12927000  0.84094000  0.99000000  1.0
  C  C25  1  0.62926000  0.65906000  0.51001000  1.0
  C  C26  1  0.87074000  0.15906000  0.01000000  1.0
  C  C27  1  0.37074000  0.34094000  0.48999000  1.0
  C  C28  1  0.66307000  0.43573000  0.17838000  1.0
  C  C29  1  0.16306000  0.06427000  0.32162000  1.0
  C  C30  1  0.33694000  0.56427000  0.82162000  1.0
  C  C31  1  0.83694000  0.93574000  0.67839000  1.0
  C  C32  1  0.19231000  0.64967000  0.18901000  1.0
  C  C33  1  0.69231000  0.85033000  0.31099000  1.0
  C  C34  1  0.80770000  0.35033000  0.81099000  1.0
  C  C35  1  0.30769000  0.14967000  0.68901000  1.0
  C  C36  1  0.14358000  0.71482000  0.10809000  1.0
  C  C37  1  0.64357000  0.78517000  0.39191000  1.0
  C  C38  1  0.85643000  0.28518000  0.89191000  1.0
  C  C39  1  0.35642000  0.21483000  0.60810000  1.0
  C  C40  1  0.83895000  0.52866000  0.15108000  1.0
  C  C41  1  0.33894000  0.97134000  0.34892000  1.0
  C  C42  1  0.16106000  0.47134000  0.84892000  1.0
  C  C43  1  0.66104000  0.02866000  0.65108000  1.0
  C  C44  1  0.03869000  0.55547000  0.20959000  1.0
  C  C45  1  0.53869000  0.94452000  0.29040000  1.0
  C  C46  1  0.96131000  0.44453000  0.79041000  1.0
  C  C47  1  0.46130000  0.05547000  0.70959000  1.0
  C  C48  1  0.08861000  0.48294000  0.29545000  1.0
  C  C49  1  0.58860000  0.01706000  0.20454000  1.0
  C  C50  1  0.91140000  0.51706000  0.70455000  1.0
  C  C51  1  0.41140000  0.98294000  0.79545000  1.0
  C  C52  1  0.79269000  0.59416000  0.07015000  1.0
  C  C53  1  0.29267000  0.90583000  0.42985000  1.0
  C  C54  1  0.20732000  0.40584000  0.92985000  1.0
  C  C55  1  0.70732000  0.09417000  0.57015000  1.0
  N  N56  1  0.25351000  0.81183000  0.06807000  1.0
  N  N57  1  0.75350000  0.68817000  0.43193000  1.0
  N  N58  1  0.74649000  0.18817000  0.93193000  1.0
  N  N59  1  0.24649000  0.31184000  0.56807000  1.0
  N  N60  1  0.94337000  0.76837000  0.97531000  1.0
  N  N61  1  0.44336000  0.73162000  0.52469000  1.0
  N  N62  1  0.05664000  0.23163000  0.02469000  1.0
  N  N63  1  0.55664000  0.26838000  0.47531000  1.0
  O  O64  1  0.63270000  0.41922000  0.26822000  1.0
  O  O65  1  0.13270000  0.08079000  0.23178000  1.0
  O  O66  1  0.36730000  0.58079000  0.73178000  1.0
  O  O67  1  0.86728000  0.91922000  0.76822000  1.0
  O  O68  1  0.11753000  0.54095000  0.37803000  1.0
  O  O69  1  0.61751000  0.95905000  0.12197000  1.0
  O  O70  1  0.88248000  0.45905000  0.62197000  1.0
  O  O71  1  0.38248000  0.04094000  0.87803000  1.0
  O  O72  1  0.54554000  0.38092000  0.10815000  1.0
  O  O73  1  0.04552000  0.11908000  0.39185000  1.0
  O  O74  1  0.45447000  0.61909000  0.89186000  1.0
  O  O75  1  0.95448000  0.88092000  0.60816000  1.0
  O  O76  1  0.09970000  0.36152000  0.28099000  1.0
  O  O77  1  0.59970000  0.13847000  0.21901000  1.0
  O  O78  1  0.90030000  0.63847000  0.71901000  1.0
  O  O79  1  0.40029000  0.86152000  0.78099000  1.0
