# generated using pymatgen
data_CoH19C26N3O5
_symmetry_space_group_name_H-M   'P 1'
_cell_length_a   8.71945000
_cell_length_b   8.74241000
_cell_length_c   15.50000000
_cell_angle_alpha   80.54980000
_cell_angle_beta   89.86750000
_cell_angle_gamma   67.88600000
_symmetry_Int_Tables_number   1
_chemical_formula_structural   CoH19C26N3O5
_chemical_formula_sum   'Co2 H38 C52 N6 O10'
_cell_volume   1077.48448442
_cell_formula_units_Z   2
loop_
 _symmetry_equiv_pos_site_id
 _symmetry_equiv_pos_as_xyz
  1  'x, y, z'
loop_
 _atom_site_type_symbol
 _atom_site_label
 _atom_site_symmetry_multiplicity
 _atom_site_fract_x
 _atom_site_fract_y
 _atom_site_fract_z
 _atom_site_occupancy
  Co  Co0  1  0.66394000  0.87364000  0.37450000  1.0
  Co  Co1  1  0.33606000  0.12636000  0.62550000  1.0
  H  H2  1  0.22354000  0.43864000  0.34487000  1.0
  H  H3  1  0.77647000  0.56135000  0.65513000  1.0
  H  H4  1  0.76236000  0.96369000  0.55339000  1.0
  H  H5  1  0.23764000  0.03632000  0.44660000  1.0
  H  H6  1  0.01841000  0.86486000  0.65341000  1.0
  H  H7  1  0.98160000  0.13515000  0.34658000  1.0
  H  H8  1  0.27502000  0.63492000  0.61723000  1.0
  H  H9  1  0.72498000  0.36508000  0.38277000  1.0
  H  H10  1  0.26815000  0.52131000  0.48062000  1.0
  H  H11  1  0.73186000  0.47869000  0.51938000  1.0
  H  H12  1  0.19879000  0.31334000  0.18771000  1.0
  H  H13  1  0.80121000  0.68666000  0.81229000  1.0
  H  H14  1  0.00131000  0.37360000  0.05871000  1.0
  H  H15  1  0.99869000  0.62640000  0.94128000  1.0
  H  H16  1  0.72275000  0.59685000  0.04716000  1.0
  H  H17  1  0.27724000  0.40315000  0.95284000  1.0
  H  H18  1  0.62138000  0.76105000  0.16839000  1.0
  H  H19  1  0.37862000  0.23895000  0.83161000  1.0
  H  H20  1  0.68731000  0.09049000  0.18888000  1.0
  H  H21  1  0.31269000  0.90951000  0.81113000  1.0
  H  H22  1  0.67189000  0.21261000  0.03315000  1.0
  H  H23  1  0.32811000  0.78739000  0.96686000  1.0
  H  H24  1  0.33598000  0.69007000  0.08824000  1.0
  H  H25  1  0.66401000  0.30993000  0.91177000  1.0
  H  H26  1  0.35560000  0.56674000  0.24267000  1.0
  H  H27  1  0.64439000  0.43326000  0.75733000  1.0
  H  H28  1  0.38627000  0.05076000  0.11883000  1.0
  H  H29  1  0.61373000  0.94924000  0.88118000  1.0
  H  H30  1  0.21907000  0.09925000  0.98224000  1.0
  H  H31  1  0.78094000  0.90076000  0.01776000  1.0
  H  H32  1  0.90501000  0.87802000  0.12521000  1.0
  H  H33  1  0.09499000  0.12198000  0.87479000  1.0
  H  H34  1  0.06855000  0.84136000  0.26127000  1.0
  H  H35  1  0.93145000  0.15864000  0.73873000  1.0
  H  H36  1  0.54340000  0.75969000  0.52574000  1.0
  H  H37  1  0.45660000  0.24030000  0.47426000  1.0
  H  H38  1  0.43267000  0.79364000  0.42692000  1.0
  H  H39  1  0.56733000  0.20636000  0.57308000  1.0
  C  C40  1  0.87648000  0.86606000  0.53949000  1.0
  C  C41  1  0.12353000  0.13395000  0.46051000  1.0
  C  C42  1  0.01942000  0.80981000  0.59522000  1.0
  C  C43  1  0.98059000  0.19020000  0.40477000  1.0
  C  C44  1  0.16197000  0.68327000  0.57470000  1.0
  C  C45  1  0.83803000  0.31673000  0.42530000  1.0
  C  C46  1  0.15860000  0.61902000  0.49866000  1.0
  C  C47  1  0.84140000  0.38097000  0.50134000  1.0
  C  C48  1  0.01094000  0.68293000  0.44601000  1.0
  C  C49  1  0.98907000  0.31707000  0.55398000  1.0
  C  C50  1  0.98798000  0.62992000  0.36490000  1.0
  C  C51  1  0.01202000  0.37008000  0.63510000  1.0
  C  C52  1  0.02002000  0.50781000  0.24847000  1.0
  C  C53  1  0.97998000  0.49218000  0.75153000  1.0
  C  C54  1  0.07509000  0.41091000  0.18303000  1.0
  C  C55  1  0.92491000  0.58908000  0.81697000  1.0
  C  C56  1  0.96396000  0.44612000  0.11135000  1.0
  C  C57  1  0.03604000  0.55388000  0.88864000  1.0
  C  C58  1  0.80373000  0.57276000  0.10531000  1.0
  C  C59  1  0.19627000  0.42724000  0.89469000  1.0
  C  C60  1  0.74630000  0.66578000  0.17170000  1.0
  C  C61  1  0.25371000  0.33422000  0.82830000  1.0
  C  C62  1  0.85685000  0.63197000  0.24426000  1.0
  C  C63  1  0.14315000  0.36803000  0.75574000  1.0
  C  C64  1  0.53182000  0.23991000  0.32006000  1.0
  C  C65  1  0.46818000  0.76009000  0.67994000  1.0
  C  C66  1  0.52212000  0.31907000  0.22650000  1.0
  C  C67  1  0.47788000  0.68093000  0.77351000  1.0
  C  C68  1  0.61089000  0.22205000  0.16586000  1.0
  C  C69  1  0.38910000  0.77796000  0.83415000  1.0
  C  C70  1  0.60080000  0.29206000  0.07798000  1.0
  C  C71  1  0.39919000  0.70794000  0.92202000  1.0
  C  C72  1  0.50270000  0.46228000  0.04673000  1.0
  C  C73  1  0.49728000  0.53772000  0.95327000  1.0
  C  C74  1  0.41347000  0.55799000  0.10836000  1.0
  C  C75  1  0.58652000  0.44201000  0.89164000  1.0
  C  C76  1  0.42357000  0.48840000  0.19647000  1.0
  C  C77  1  0.57642000  0.51160000  0.80354000  1.0
  C  C78  1  0.34550000  0.89898000  0.28267000  1.0
  C  C79  1  0.65451000  0.10102000  0.71733000  1.0
  C  C80  1  0.24007000  0.93949000  0.19920000  1.0
  C  C81  1  0.75993000  0.06051000  0.80080000  1.0
  C  C82  1  0.27983000  0.01374000  0.11961000  1.0
  C  C83  1  0.72018000  0.98626000  0.88039000  1.0
  C  C84  1  0.18487000  0.03982000  0.04246000  1.0
  C  C85  1  0.81513000  0.96018000  0.95753000  1.0
  C  C86  1  0.04851000  0.98995000  0.04123000  1.0
  C  C87  1  0.95149000  0.01006000  0.95877000  1.0
  C  C88  1  0.00858000  0.91896000  0.12206000  1.0
  C  C89  1  0.99142000  0.08105000  0.87794000  1.0
  C  C90  1  0.10110000  0.89605000  0.19930000  1.0
  C  C91  1  0.89891000  0.10395000  0.80070000  1.0
  N  N92  1  0.87086000  0.80388000  0.46652000  1.0
  N  N93  1  0.12915000  0.19612000  0.53348000  1.0
  N  N94  1  0.84077000  0.70512000  0.31838000  1.0
  N  N95  1  0.15923000  0.29488000  0.68162000  1.0
  N  N96  1  0.09846000  0.51095000  0.32526000  1.0
  N  N97  1  0.90154000  0.48905000  0.67474000  1.0
  O  O98  1  0.65516000  0.10229000  0.34693000  1.0
  O  O99  1  0.34484000  0.89771000  0.65307000  1.0
  O  O100  1  0.42139000  0.31185000  0.37042000  1.0
  O  O101  1  0.57861000  0.68815000  0.62959000  1.0
  O  O102  1  0.47274000  0.93921000  0.27864000  1.0
  O  O103  1  0.52726000  0.06080000  0.72136000  1.0
  O  O104  1  0.30354000  0.82518000  0.35087000  1.0
  O  O105  1  0.69646000  0.17482000  0.64913000  1.0
  O  O106  1  0.53639000  0.78963000  0.45979000  1.0
  O  O107  1  0.46362000  0.21037000  0.54021000  1.0
