# generated using pymatgen
data_CeCdH17C21N3O16
_symmetry_space_group_name_H-M   'P 1'
_cell_length_a   9.57252000
_cell_length_b   11.81640000
_cell_length_c   13.43560000
_cell_angle_alpha   88.52300000
_cell_angle_beta   69.63660000
_cell_angle_gamma   85.75200000
_symmetry_Int_Tables_number   1
_chemical_formula_structural   CeCdH17C21N3O16
_chemical_formula_sum   'Ce2 Cd2 H34 C42 N6 O32'
_cell_volume   1420.84638844
_cell_formula_units_Z   2
loop_
 _symmetry_equiv_pos_site_id
 _symmetry_equiv_pos_as_xyz
  1  'x, y, z'
loop_
 _atom_site_type_symbol
 _atom_site_label
 _atom_site_symmetry_multiplicity
 _atom_site_fract_x
 _atom_site_fract_y
 _atom_site_fract_z
 _atom_site_occupancy
  Ce  Ce0  1  0.05056000  0.27178000  0.26283000  1.0
  Ce  Ce1  1  0.31234000  0.76982000  0.73721000  1.0
  Cd  Cd2  1  0.56484000  0.48867000  0.12097000  1.0
  Cd  Cd3  1  0.68646000  0.98795000  0.87838000  1.0
  H  H4  1  0.98707000  0.60441000  0.56442000  1.0
  H  H5  1  0.54696000  0.10398000  0.43786000  1.0
  H  H6  1  0.79845000  0.74031000  0.51828000  1.0
  H  H7  1  0.31372000  0.24022000  0.48345000  1.0
  H  H8  1  0.70774000  0.68617000  0.37452000  1.0
  H  H9  1  0.08128000  0.18559000  0.62580000  1.0
  H  H10  1  0.31549000  0.86342000  0.35167000  1.0
  H  H11  1  0.66907000  0.36354000  0.64864000  1.0
  H  H12  1  0.10385000  0.80936000  0.51140000  1.0
  H  H13  1  0.61773000  0.30993000  0.48705000  1.0
  H  H14  1  0.87453000  0.94540000  0.58046000  1.0
  H  H15  1  0.45650000  0.44536000  0.41705000  1.0
  H  H16  1  0.41212000  0.36005000  0.84763000  1.0
  H  H17  1  0.26108000  0.86099000  0.15337000  1.0
  H  H18  1  0.32167000  0.21240000  0.75615000  1.0
  H  H19  1  0.07777000  0.71544000  0.24462000  1.0
  H  H20  1  0.11165000  0.09558000  0.86847000  1.0
  H  H21  1  0.98034000  0.59745000  0.13149000  1.0
  H  H22  1  0.85256000  0.41366000  0.99282000  1.0
  H  H23  1  0.85015000  0.91358000  0.00507000  1.0
  H  H24  1  0.81584000  0.36193000  0.10607000  1.0
  H  H25  1  0.92362000  0.86103000  0.89204000  1.0
  H  H26  1  0.36737000  0.34354000  0.28662000  1.0
  H  H27  1  0.65265000  0.84162000  0.71308000  1.0
  H  H28  1  0.47823000  0.26822000  0.19832000  1.0
  H  H29  1  0.67678000  0.76770000  0.80246000  1.0
  H  H30  1  0.38196000  0.64049000  0.29181000  1.0
  H  H31  1  0.67566000  0.14041000  0.70683000  1.0
  H  H32  1  0.47406000  0.70888000  0.19077000  1.0
  H  H33  1  0.66404000  0.20862000  0.80910000  1.0
  H  H34  1  0.77526000  0.60117000  0.96083000  1.0
  H  H35  1  0.73414000  0.09882000  0.04172000  1.0
  H  H36  1  0.65295000  0.57139000  0.91345000  1.0
  H  H37  1  0.56500000  0.06984000  0.08710000  1.0
  C  C38  1  0.99884000  0.48833000  0.44086000  1.0
  C  C39  1  0.43656000  0.98714000  0.56011000  1.0
  C  C40  1  0.94512000  0.58699000  0.50111000  1.0
  C  C41  1  0.44261000  0.08630000  0.50046000  1.0
  C  C42  1  0.84095000  0.66046000  0.47641000  1.0
  C  C43  1  0.31450000  0.15996000  0.52487000  1.0
  C  C44  1  0.78894000  0.63096000  0.39610000  1.0
  C  C45  1  0.18339000  0.13020000  0.60433000  1.0
  C  C46  1  0.84377000  0.52824000  0.34300000  1.0
  C  C47  1  0.18541000  0.02693000  0.65681000  1.0
  C  C48  1  0.79180000  0.48336000  0.25907000  1.0
  C  C49  1  0.05060000  0.98188000  0.74000000  1.0
  C  C50  1  0.11698000  0.40528000  0.45595000  1.0
  C  C51  1  0.56942000  0.90421000  0.54559000  1.0
  C  C52  1  0.20021000  0.02138000  0.33142000  1.0
  C  C53  1  0.53196000  0.52054000  0.66894000  1.0
  C  C54  1  0.21335000  0.91832000  0.38151000  1.0
  C  C55  1  0.59627000  0.41815000  0.61837000  1.0
  C  C56  1  0.09407000  0.88865000  0.47076000  1.0
  C  C57  1  0.56671000  0.38872000  0.52803000  1.0
  C  C58  1  0.96768000  0.96341000  0.50917000  1.0
  C  C59  1  0.47808000  0.46317000  0.48914000  1.0
  C  C60  1  0.96297000  0.06415000  0.45399000  1.0
  C  C61  1  0.41710000  0.56323000  0.54489000  1.0
  C  C62  1  0.83562000  0.15351000  0.48630000  1.0
  C  C63  1  0.32095000  0.65206000  0.51231000  1.0
  C  C64  1  0.32159000  0.06676000  0.23718000  1.0
  C  C65  1  0.55873000  0.56586000  0.76411000  1.0
  C  C66  1  0.25121000  0.32373000  0.00020000  1.0
  C  C67  1  0.25302000  0.82299000  0.00004000  1.0
  C  C68  1  0.31967000  0.30925000  0.89084000  1.0
  C  C69  1  0.21174000  0.80994000  0.10973000  1.0
  C  C70  1  0.26929000  0.22693000  0.84129000  1.0
  C  C71  1  0.11106000  0.72874000  0.15918000  1.0
  C  C72  1  0.15402000  0.16178000  0.90245000  1.0
  C  C73  1  0.05701000  0.66297000  0.09760000  1.0
  C  C74  1  0.09324000  0.18073000  0.01170000  1.0
  C  C75  1  0.10583000  0.68046000  0.98808000  1.0
  C  C76  1  0.97431000  0.11300000  0.08874000  1.0
  C  C77  1  0.06358000  0.61216000  0.91069000  1.0
  C  C78  1  0.30025000  0.40164000  0.06635000  1.0
  C  C79  1  0.36825000  0.89989000  0.93397000  1.0
  N  N80  1  0.94904000  0.46075000  0.36380000  1.0
  N  N81  1  0.31074000  0.95920000  0.63628000  1.0
  N  N82  1  0.07591000  0.09066000  0.36661000  1.0
  N  N83  1  0.44219000  0.58941000  0.63327000  1.0
  N  N84  1  0.14071000  0.26093000  0.05812000  1.0
  N  N85  1  0.20016000  0.75976000  0.94178000  1.0
  O  O86  1  0.17023000  0.32924000  0.37966000  1.0
  O  O87  1  0.54708000  0.82740000  0.62129000  1.0
  O  O88  1  0.15646000  0.41107000  0.53378000  1.0
  O  O89  1  0.68611000  0.91096000  0.46891000  1.0
  O  O90  1  0.85701000  0.38752000  0.21751000  1.0
  O  O91  1  0.07459000  0.88558000  0.78116000  1.0
  O  O92  1  0.69218000  0.54022000  0.23487000  1.0
  O  O93  1  0.92751000  0.03895000  0.76415000  1.0
  O  O94  1  0.28565000  0.16409000  0.20241000  1.0
  O  O95  1  0.48752000  0.66274000  0.79888000  1.0
  O  O96  1  0.44538000  0.01250000  0.20006000  1.0
  O  O97  1  0.64589000  0.51204000  0.80187000  1.0
  O  O98  1  0.84705000  0.23356000  0.41669000  1.0
  O  O99  1  0.26211000  0.73137000  0.58234000  1.0
  O  O100  1  0.73122000  0.14935000  0.57326000  1.0
  O  O101  1  0.30310000  0.64811000  0.42478000  1.0
  O  O102  1  0.21626000  0.41079000  0.16420000  1.0
  O  O103  1  0.38031000  0.90915000  0.83601000  1.0
  O  O104  1  0.42133000  0.44766000  0.02367000  1.0
  O  O105  1  0.44831000  0.94505000  0.97659000  1.0
  O  O106  1  0.94990000  0.13402000  0.18728000  1.0
  O  O107  1  0.13771000  0.63207000  0.81223000  1.0
  O  O108  1  0.90874000  0.04392000  0.05456000  1.0
  O  O109  1  0.96385000  0.54368000  0.94454000  1.0
  O  O110  1  0.78127000  0.36569000  0.04393000  1.0
  O  O111  1  0.82850000  0.86521000  0.95434000  1.0
  O  O112  1  0.47389000  0.33576000  0.24039000  1.0
  O  O113  1  0.71365000  0.83477000  0.75966000  1.0
  O  O114  1  0.41326000  0.64400000  0.21280000  1.0
  O  O115  1  0.62703000  0.14341000  0.78568000  1.0
  O  O116  1  0.66630000  0.60664000  0.97671000  1.0
  O  O117  1  0.64171000  0.10448000  0.02448000  1.0
