# generated using pymatgen
data_ZnH10C15N4
_symmetry_space_group_name_H-M   'P 1'
_cell_length_a   17.35840000
_cell_length_b   18.02680000
_cell_length_c   19.39870000
_cell_angle_alpha   98.13440000
_cell_angle_beta   89.98890000
_cell_angle_gamma   89.92340000
_symmetry_Int_Tables_number   1
_chemical_formula_structural   ZnH10C15N4
_chemical_formula_sum   'Zn8 H80 C120 N32'
_cell_volume   6009.09294374
_cell_formula_units_Z   8
loop_
 _symmetry_equiv_pos_site_id
 _symmetry_equiv_pos_as_xyz
  1  'x, y, z'
loop_
 _atom_site_type_symbol
 _atom_site_label
 _atom_site_symmetry_multiplicity
 _atom_site_fract_x
 _atom_site_fract_y
 _atom_site_fract_z
 _atom_site_occupancy
  Zn  Zn0  1  0.05010000  0.02410000  0.39134000  1.0
  Zn  Zn1  1  0.94991000  0.97589000  0.60866000  1.0
  Zn  Zn2  1  0.44983000  0.52351000  0.89010000  1.0
  Zn  Zn3  1  0.55015000  0.47651000  0.10990000  1.0
  Zn  Zn4  1  0.89639000  0.07871000  0.52176000  1.0
  Zn  Zn5  1  0.10361000  0.92128000  0.47825000  1.0
  Zn  Zn6  1  0.39857000  0.42030000  0.97762000  1.0
  Zn  Zn7  1  0.60142000  0.57971000  0.02237000  1.0
  H  H8  1  0.95689000  0.89399000  0.30961000  1.0
  H  H9  1  0.98168000  0.62603000  0.81378000  1.0
  H  H10  1  0.69811000  0.94810000  0.89586000  1.0
  H  H11  1  0.30191000  0.05191000  0.10415000  1.0
  H  H12  1  0.19732000  0.54956000  0.60356000  1.0
  H  H13  1  0.80267000  0.45042000  0.39644000  1.0
  H  H14  1  0.51916000  0.12399000  0.31358000  1.0
  H  H15  1  0.48080000  0.87607000  0.68646000  1.0
  H  H16  1  0.94391000  0.81453000  0.66524000  1.0
  H  H17  1  0.05606000  0.18546000  0.33475000  1.0
  H  H18  1  0.19867000  0.10171000  0.33155000  1.0
  H  H19  1  0.04312000  0.10597000  0.69041000  1.0
  H  H20  1  0.80132000  0.89827000  0.66845000  1.0
  H  H21  1  0.69881000  0.39708000  0.16714000  1.0
  H  H22  1  0.30118000  0.60293000  0.83285000  1.0
  H  H23  1  0.44771000  0.68322000  0.82931000  1.0
  H  H24  1  0.55228000  0.31681000  0.17070000  1.0
  H  H25  1  0.68914000  0.08019000  0.58435000  1.0
  H  H26  1  0.31086000  0.91979000  0.41566000  1.0
  H  H27  1  0.87337000  0.24010000  0.48481000  1.0
  H  H28  1  0.12664000  0.75989000  0.51519000  1.0
  H  H29  1  0.38125000  0.25744000  0.01058000  1.0
  H  H30  1  0.87281000  0.08749000  0.77333000  1.0
  H  H31  1  0.61874000  0.74257000  0.98943000  1.0
  H  H32  1  0.18984000  0.41935000  0.91473000  1.0
  H  H33  1  0.81017000  0.58064000  0.08526000  1.0
  H  H34  1  0.22386000  0.66973000  0.31354000  1.0
  H  H35  1  0.77615000  0.33028000  0.68643000  1.0
  H  H36  1  0.21767000  0.25719000  0.58894000  1.0
  H  H37  1  0.78235000  0.74277000  0.41106000  1.0
  H  H38  1  0.72411000  0.24806000  0.91249000  1.0
  H  H39  1  0.27588000  0.75195000  0.08749000  1.0
  H  H40  1  0.72168000  0.83093000  0.18924000  1.0
  H  H41  1  0.12720000  0.91253000  0.22667000  1.0
  H  H42  1  0.27833000  0.16907000  0.81077000  1.0
  H  H43  1  0.37133000  0.70408000  0.26387000  1.0
  H  H44  1  0.62867000  0.29593000  0.73610000  1.0
  H  H45  1  0.36814000  0.22540000  0.63492000  1.0
  H  H46  1  0.63187000  0.77457000  0.36509000  1.0
  H  H47  1  0.87244000  0.28036000  0.86200000  1.0
  H  H48  1  0.12755000  0.71965000  0.13798000  1.0
  H  H49  1  0.87131000  0.79704000  0.23449000  1.0
  H  H50  1  0.12871000  0.20296000  0.76551000  1.0
  H  H51  1  0.02163000  0.29903000  0.28551000  1.0
  H  H52  1  0.37225000  0.41387000  0.72643000  1.0
  H  H53  1  0.97837000  0.70096000  0.71450000  1.0
  H  H54  1  0.72645000  0.99035000  0.78154000  1.0
  H  H55  1  0.27355000  0.00965000  0.21847000  1.0
  H  H56  1  0.22633000  0.50871000  0.71860000  1.0
  H  H57  1  0.77365000  0.49128000  0.28140000  1.0
  H  H58  1  0.52337000  0.19930000  0.21452000  1.0
  H  H59  1  0.47660000  0.80073000  0.78553000  1.0
  H  H60  1  0.86327000  0.35423000  0.45671000  1.0
  H  H61  1  0.13672000  0.64575000  0.54328000  1.0
  H  H62  1  0.56447000  0.94380000  0.61312000  1.0
  H  H63  1  0.62775000  0.58613000  0.27356000  1.0
  H  H64  1  0.43552000  0.05621000  0.38690000  1.0
  H  H65  1  0.06528000  0.55830000  0.88745000  1.0
  H  H66  1  0.93472000  0.44171000  0.11257000  1.0
  H  H67  1  0.36310000  0.14802000  0.04447000  1.0
  H  H68  1  0.63693000  0.85198000  0.95554000  1.0
  H  H69  1  0.13943000  0.76358000  0.38291000  1.0
  H  H70  1  0.86059000  0.23641000  0.61707000  1.0
  H  H71  1  0.20889000  0.06498000  0.52381000  1.0
  H  H72  1  0.79111000  0.93501000  0.47620000  1.0
  H  H73  1  0.71293000  0.44251000  0.97293000  1.0
  H  H74  1  0.45772000  0.60959000  0.18810000  1.0
  H  H75  1  0.28707000  0.55749000  0.02706000  1.0
  H  H76  1  0.64072000  0.73632000  0.11854000  1.0
  H  H77  1  0.35931000  0.26368000  0.88147000  1.0
  H  H78  1  0.68962000  0.16448000  0.78068000  1.0
  H  H79  1  0.31038000  0.83553000  0.21930000  1.0
  H  H80  1  0.68872000  0.90912000  0.32293000  1.0
  H  H81  1  0.31129000  0.09085000  0.67709000  1.0
  H  H82  1  0.18854000  0.58763000  0.18214000  1.0
  H  H83  1  0.81146000  0.41238000  0.81785000  1.0
  H  H84  1  0.18566000  0.33685000  0.72290000  1.0
  H  H85  1  0.54228000  0.39044000  0.81188000  1.0
  H  H86  1  0.81436000  0.66314000  0.27710000  1.0
  H  H87  1  0.01832000  0.37399000  0.18623000  1.0
  C  C88  1  0.92437000  0.91364000  0.35626000  1.0
  C  C89  1  0.68306000  0.29258000  0.76417000  1.0
  C  C90  1  0.76815000  0.76170000  0.36137000  1.0
  C  C91  1  0.73636000  0.26554000  0.86179000  1.0
  C  C92  1  0.26363000  0.73447000  0.13820000  1.0
  C  C93  1  0.73517000  0.81096000  0.23864000  1.0
  C  C94  1  0.26484000  0.18903000  0.76137000  1.0
  C  C95  1  0.71626000  0.22009000  0.78923000  1.0
  C  C96  1  0.28374000  0.77993000  0.21075000  1.0
  C  C97  1  0.71618000  0.85395000  0.31249000  1.0
  C  C98  1  0.28384000  0.14603000  0.68752000  1.0
  C  C99  1  0.21518000  0.64321000  0.19057000  1.0
  C  C100  1  0.31460000  0.21993000  0.66369000  1.0
  C  C101  1  0.78481000  0.35679000  0.80941000  1.0
  C  C102  1  0.21308000  0.28163000  0.71243000  1.0
  C  C103  1  0.78694000  0.71836000  0.28757000  1.0
  C  C104  1  0.79849000  0.23845000  0.76049000  1.0
  C  C105  1  0.20150000  0.76155000  0.23949000  1.0
  C  C106  1  0.80002000  0.83635000  0.33769000  1.0
  C  C107  1  0.19999000  0.16363000  0.66231000  1.0
  C  C108  1  0.29783000  0.66119000  0.16296000  1.0
  C  C109  1  0.70215000  0.33882000  0.83701000  1.0
  C  C110  1  0.29655000  0.26347000  0.73871000  1.0
  C  C111  1  0.68542000  0.78005000  0.33632000  1.0
  C  C112  1  0.70347000  0.73651000  0.26129000  1.0
  C  C113  1  0.81790000  0.28425000  0.83431000  1.0
  C  C114  1  0.18209000  0.71576000  0.16567000  1.0
  C  C115  1  0.81789000  0.79223000  0.26361000  1.0
  C  C116  1  0.18213000  0.20775000  0.73639000  1.0
  C  C117  1  0.94355000  0.31551000  0.37284000  1.0
  C  C118  1  0.05644000  0.68448000  0.62715000  1.0
  C  C119  1  0.65389000  0.96783000  0.69147000  1.0
  C  C120  1  0.07563000  0.08634000  0.64375000  1.0
  C  C121  1  0.34611000  0.03217000  0.30854000  1.0
  C  C122  1  0.15418000  0.53282000  0.80878000  1.0
  C  C123  1  0.84581000  0.46718000  0.19123000  1.0
  C  C124  1  0.44451000  0.18470000  0.12778000  1.0
  C  C125  1  0.55547000  0.81534000  0.87226000  1.0
  C  C126  1  0.14951000  0.58297000  0.62781000  1.0
  C  C127  1  0.85048000  0.41702000  0.37219000  1.0
  C  C128  1  0.46536000  0.09884000  0.29258000  1.0
  C  C129  1  0.53462000  0.90119000  0.70745000  1.0
  C  C130  1  0.96473000  0.39977000  0.20725000  1.0
  C  C131  1  0.87693000  0.11516000  0.72715000  1.0
  C  C132  1  0.03526000  0.60023000  0.79276000  1.0
  C  C133  1  0.64971000  0.91564000  0.87170000  1.0
  C  C134  1  0.35028000  0.08439000  0.12832000  1.0
  C  C135  1  0.11580000  0.63702000  0.59451000  1.0
  C  C136  1  0.88419000  0.36297000  0.40549000  1.0
  C  C137  1  0.41899000  0.06055000  0.33333333  1.0
  C  C138  1  0.58100000  0.93945000  0.66666667  1.0
  C  C139  1  0.91841000  0.43796000  0.16630000  1.0
  C  C140  1  0.08157000  0.56205000  0.83371000  1.0
  C  C141  1  0.61556000  0.86173000  0.90477000  1.0
  C  C142  1  0.12306000  0.88486000  0.27285000  1.0
  C  C143  1  0.38444000  0.13829000  0.09526000  1.0
  C  C144  1  0.02547000  0.66732000  0.68911000  1.0
  C  C145  1  0.97452000  0.33267000  0.31089000  1.0
  C  C146  1  0.32786000  0.03407000  0.23906000  1.0
  C  C147  1  0.67214000  0.96593000  0.76095000  1.0
  C  C148  1  0.82780000  0.46624000  0.26089000  1.0
  C  C149  1  0.17219000  0.53376000  0.73912000  1.0
  C  C150  1  0.52444000  0.83336000  0.81063000  1.0
  C  C151  1  0.47553000  0.16667000  0.18941000  1.0
  C  C152  1  0.05930000  0.61231000  0.72508000  1.0
  C  C153  1  0.37624000  0.38578000  0.77236000  1.0
  C  C154  1  0.94069000  0.38769000  0.27493000  1.0
  C  C155  1  0.37368000  0.07356000  0.19634000  1.0
  C  C156  1  0.62631000  0.92645000  0.80368000  1.0
  C  C157  1  0.87354000  0.42681000  0.30382000  1.0
  C  C158  1  0.12645000  0.57318000  0.69619000  1.0
  C  C159  1  0.55871000  0.88827000  0.77487000  1.0
  C  C160  1  0.44127000  0.11176000  0.22515000  1.0
  C  C161  1  0.98744000  0.81239000  0.62477000  1.0
  C  C162  1  0.01254000  0.18760000  0.37521000  1.0
  C  C163  1  0.21432000  0.05528000  0.35889000  1.0
  C  C164  1  0.62377000  0.61422000  0.22764000  1.0
  C  C165  1  0.78567000  0.94471000  0.64112000  1.0
  C  C166  1  0.71428000  0.44401000  0.14042000  1.0
  C  C167  1  0.28572000  0.55600000  0.85957000  1.0
  C  C168  1  0.48829000  0.68651000  0.87225000  1.0
  C  C169  1  0.51170000  0.31352000  0.12777000  1.0
  C  C170  1  0.72765000  0.03701000  0.59798000  1.0
  C  C171  1  0.27235000  0.96298000  0.40203000  1.0
  C  C172  1  0.91987000  0.21545000  0.45174000  1.0
  C  C173  1  0.08014000  0.78454000  0.54826000  1.0
  C  C174  1  0.42482000  0.28324000  0.04629000  1.0
  C  C175  1  0.42435000  0.58751000  0.14270000  1.0
  C  C176  1  0.57517000  0.71677000  0.95371000  1.0
  C  C177  1  0.22814000  0.46287000  0.90161000  1.0
  C  C178  1  0.77185000  0.53713000  0.09838000  1.0
  C  C179  1  0.12918000  0.80864000  0.35226000  1.0
  C  C180  1  0.87082000  0.19136000  0.64773000  1.0
  C  C181  1  0.15997000  0.06573000  0.55839000  1.0
  C  C182  1  0.84003000  0.93426000  0.44162000  1.0
  C  C183  1  0.66268000  0.43882000  0.93967000  1.0
  C  C184  1  0.33731000  0.56117000  0.06032000  1.0
  C  C185  1  0.63017000  0.69107000  0.14885000  1.0
  C  C186  1  0.57565000  0.41251000  0.85729000  1.0
  C  C187  1  0.36986000  0.30892000  0.85115000  1.0
  C  C188  1  0.85188000  0.89114000  0.37672000  1.0
  C  C189  1  0.14811000  0.10885000  0.62329000  1.0
  C  C190  1  0.84722000  0.18537000  0.71571000  1.0
  C  C191  1  0.15278000  0.81463000  0.28428000  1.0
  C  C192  1  0.34589000  0.31580000  0.78347000  1.0
  C  C193  1  0.65413000  0.68419000  0.21653000  1.0
  C  C194  1  0.35007000  0.60668000  0.12386000  1.0
  C  C195  1  0.64993000  0.39333000  0.87612000  1.0
  C  C196  1  0.03836000  0.75401000  0.59963000  1.0
  C  C197  1  0.31695000  0.70744000  0.23580000  1.0
  C  C198  1  0.96163000  0.24598000  0.40037000  1.0
  C  C199  1  0.28377000  0.01501000  0.35517000  1.0
  C  C200  1  0.71624000  0.98499000  0.64484000  1.0
  C  C201  1  0.78348000  0.48447000  0.14461000  1.0
  C  C202  1  0.21651000  0.51554000  0.85540000  1.0
  C  C203  1  0.53660000  0.74602000  0.89976000  1.0
  C  C204  1  0.46338000  0.25401000  0.10027000  1.0
  C  C205  1  0.23543000  0.68839000  0.26320000  1.0
  C  C206  1  0.76457000  0.31161000  0.73678000  1.0
  C  C207  1  0.23187000  0.23826000  0.63863000  1.0
  N  N208  1  0.95376000  0.96638000  0.40567000  1.0
  N  N209  1  0.00084000  0.12743000  0.40806000  1.0
  N  N210  1  0.16587000  0.02933000  0.40404000  1.0
  N  N211  1  0.83413000  0.97066000  0.59598000  1.0
  N  N212  1  0.66575000  0.47046000  0.09551000  1.0
  N  N213  1  0.33425000  0.52955000  0.90449000  1.0
  N  N214  1  0.49865000  0.62689000  0.90614000  1.0
  N  N215  1  0.50134000  0.37313000  0.09386000  1.0
  N  N216  1  0.79868000  0.02851000  0.56974000  1.0
  N  N217  1  0.20133000  0.97148000  0.43027000  1.0
  N  N218  1  0.94275000  0.14487000  0.45577000  1.0
  N  N219  1  0.04624000  0.03360000  0.59434000  1.0
  N  N220  1  0.05727000  0.85511000  0.54424000  1.0
  N  N221  1  0.44691000  0.35415000  0.04300000  1.0
  N  N222  1  0.55309000  0.64586000  0.95700000  1.0
  N  N223  1  0.29907000  0.47120000  0.92998000  1.0
  N  N224  1  0.70093000  0.52880000  0.07001000  1.0
  N  N225  1  0.08874000  0.87036000  0.37905000  1.0
  N  N226  1  0.91126000  0.12964000  0.62095000  1.0
  N  N227  1  0.09846000  0.02045000  0.54137000  1.0
  N  N228  1  0.90155000  0.97953000  0.45864000  1.0
  N  N229  1  0.59992000  0.48221000  0.95740000  1.0
  N  N230  1  0.91488000  0.08256000  0.67040000  1.0
  N  N231  1  0.40009000  0.51780000  0.04258000  1.0
  N  N232  1  0.58897000  0.63008000  0.12188000  1.0
  N  N233  1  0.41105000  0.36992000  0.87811000  1.0
  N  N234  1  0.08512000  0.91744000  0.32960000  1.0
  N  N235  1  0.41485000  0.41745000  0.82902000  1.0
  N  N236  1  0.58516000  0.58255000  0.17097000  1.0
  N  N237  1  0.45403000  0.53432000  0.09362000  1.0
  N  N238  1  0.54598000  0.46570000  0.90635000  1.0
  N  N239  1  0.99916000  0.87255000  0.59193000  1.0
