# generated using pymatgen
data_KH21C20S2(ClO2)2
_symmetry_space_group_name_H-M   'P 1'
_cell_length_a   7.28114000
_cell_length_b   9.35502000
_cell_length_c   16.97225622
_cell_angle_alpha   99.88592229
_cell_angle_beta   101.69865816
_cell_angle_gamma   95.12430000
_symmetry_Int_Tables_number   1
_chemical_formula_structural   KH21C20S2(ClO2)2
_chemical_formula_sum   'K2 H42 C40 S4 Cl4 O8'
_cell_volume   1105.97429468
_cell_formula_units_Z   2
loop_
 _symmetry_equiv_pos_site_id
 _symmetry_equiv_pos_as_xyz
  1  'x, y, z'
loop_
 _atom_site_type_symbol
 _atom_site_label
 _atom_site_symmetry_multiplicity
 _atom_site_fract_x
 _atom_site_fract_y
 _atom_site_fract_z
 _atom_site_occupancy
  K  K0  1  0.39796000  0.68813000  0.03620000  1.0
  K  K1  1  0.60204000  0.31187000  0.96380000  1.0
  H  H2  1  0.05313000  0.91300000  0.44123000  1.0
  H  H3  1  0.94688000  0.08699000  0.55876000  1.0
  H  H4  1  0.82927000  0.82774000  0.37995000  1.0
  H  H5  1  0.17075000  0.17224000  0.62004000  1.0
  H  H6  1  0.03574000  0.79970000  0.34418000  1.0
  H  H7  1  0.96429000  0.20030000  0.65581000  1.0
  H  H8  1  0.09616000  0.16748000  0.44866000  1.0
  H  H9  1  0.90385000  0.83251000  0.55133000  1.0
  H  H10  1  0.00606000  0.43863000  0.21186000  1.0
  H  H11  1  0.99394000  0.56138000  0.78815000  1.0
  H  H12  1  0.75903000  0.37994000  0.17763000  1.0
  H  H13  1  0.24097000  0.62008000  0.82238000  1.0
  H  H14  1  0.84983000  0.49510000  0.27538000  1.0
  H  H15  1  0.15017000  0.50490000  0.72463000  1.0
  H  H16  1  0.75069000  0.11855000  0.16049000  1.0
  H  H17  1  0.24930000  0.88146000  0.83951000  1.0
  H  H18  1  0.03094000  0.86070000  0.13781000  1.0
  H  H19  1  0.96907000  0.13929000  0.86219000  1.0
  H  H20  1  0.05875000  0.74262000  0.20988000  1.0
  H  H21  1  0.94125000  0.25737000  0.79012000  1.0
  H  H22  1  0.56728000  0.60941000  0.25505000  1.0
  H  H23  1  0.43272000  0.39061000  0.74496000  1.0
  H  H24  1  0.33070000  0.60270000  0.26634000  1.0
  H  H25  1  0.66929000  0.39730000  0.73366000  1.0
  H  H26  1  0.52022000  0.65692000  0.35428000  1.0
  H  H27  1  0.47979000  0.34308000  0.64573000  1.0
  H  H28  1  0.59933000  0.48233000  0.43465000  1.0
  H  H29  1  0.40068000  0.51766000  0.56535000  1.0
  H  H30  1  0.58126000  0.94989000  0.37029000  1.0
  H  H31  1  0.41876000  0.05011000  0.62970000  1.0
  H  H32  1  0.39192000  0.89997000  0.28205000  1.0
  H  H33  1  0.60810000  0.10004000  0.71795000  1.0
  H  H34  1  0.34678000  0.95584000  0.38132000  1.0
  H  H35  1  0.65324000  0.04415000  0.61867000  1.0
  H  H36  1  0.32916000  0.07233000  0.20176000  1.0
  H  H37  1  0.67084000  0.92768000  0.79823000  1.0
  H  H38  1  0.07691000  0.14269000  0.12209000  1.0
  H  H39  1  0.92308000  0.85731000  0.87792000  1.0
  H  H40  1  0.07989000  0.21310000  0.03225000  1.0
  H  H41  1  0.92007000  0.78689000  0.96775000  1.0
  H  H42  1  0.00000000  0.49999000  0.00000000  1.0
  H  H43  1  0.49999000  0.00001000  0.00001000  1.0
  C  C44  1  0.85300000  0.00403000  0.25676000  1.0
  C  C45  1  0.14701000  0.99597000  0.74324000  1.0
  C  C46  1  0.94795000  0.01461000  0.33915000  1.0
  C  C47  1  0.05205000  0.98539000  0.66085000  1.0
  C  C48  1  0.96815000  0.88263000  0.37826000  1.0
  C  C49  1  0.03187000  0.11737000  0.62173000  1.0
  C  C50  1  0.02065000  0.15445000  0.38494000  1.0
  C  C51  1  0.97936000  0.84555000  0.61506000  1.0
  C  C52  1  0.99782000  0.27888000  0.35062000  1.0
  C  C53  1  0.00219000  0.72112000  0.64939000  1.0
  C  C54  1  0.90137000  0.27054000  0.26919000  1.0
  C  C55  1  0.09862000  0.72947000  0.73081000  1.0
  C  C56  1  0.87698000  0.40318000  0.23155000  1.0
  C  C57  1  0.12302000  0.59682000  0.76846000  1.0
  C  C58  1  0.82989000  0.13007000  0.22366000  1.0
  C  C59  1  0.17011000  0.86993000  0.77634000  1.0
  C  C60  1  0.95766000  0.77223000  0.15950000  1.0
  C  C61  1  0.04234000  0.22776000  0.84050000  1.0
  C  C62  1  0.90227000  0.64070000  0.08968000  1.0
  C  C63  1  0.09773000  0.35929000  0.91032000  1.0
  C  C64  1  0.39373000  0.30823000  0.23944000  1.0
  C  C65  1  0.60626000  0.69177000  0.76056000  1.0
  C  C66  1  0.47040000  0.42584000  0.30565000  1.0
  C  C67  1  0.52959000  0.57417000  0.69435000  1.0
  C  C68  1  0.47308000  0.58165000  0.29492000  1.0
  C  C69  1  0.52691000  0.41836000  0.70508000  1.0
  C  C70  1  0.54025000  0.39341000  0.38253000  1.0
  C  C71  1  0.45976000  0.60659000  0.61747000  1.0
  C  C72  1  0.53071000  0.24923000  0.39397000  1.0
  C  C73  1  0.46930000  0.75077000  0.60603000  1.0
  C  C74  1  0.45431000  0.13115000  0.32933000  1.0
  C  C75  1  0.54570000  0.86885000  0.67067000  1.0
  C  C76  1  0.44280000  0.97588000  0.34103000  1.0
  C  C77  1  0.55722000  0.02412000  0.65897000  1.0
  C  C78  1  0.38757000  0.16410000  0.25216000  1.0
  C  C79  1  0.61244000  0.83590000  0.74784000  1.0
  C  C80  1  0.17076000  0.18425000  0.08579000  1.0
  C  C81  1  0.82923000  0.81576000  0.91422000  1.0
  C  C82  1  0.27940000  0.06281000  0.05439000  1.0
  C  C83  1  0.72058000  0.93720000  0.94561000  1.0
  S  S84  1  0.75158000  0.83148000  0.19433000  1.0
  S  S85  1  0.24843000  0.16852000  0.80567000  1.0
  S  S86  1  0.30880000  0.35332000  0.14303000  1.0
  S  S87  1  0.69118000  0.64668000  0.85697000  1.0
  Cl  Cl88  1  0.09028000  0.44828000  0.41164000  1.0
  Cl  Cl89  1  0.90972000  0.55171000  0.58836000  1.0
  Cl  Cl90  1  0.61196000  0.21668000  0.49222000  1.0
  Cl  Cl91  1  0.38806000  0.78331000  0.50777000  1.0
  O  O92  1  0.73599000  0.57874000  0.06581000  1.0
  O  O93  1  0.26398000  0.42124000  0.93418000  1.0
  O  O94  1  0.04300000  0.60214000  0.05792000  1.0
  O  O95  1  0.95699000  0.39785000  0.94208000  1.0
  O  O96  1  0.22139000  0.93317000  0.05448000  1.0
  O  O97  1  0.77860000  0.06684000  0.94553000  1.0
  O  O98  1  0.42641000  0.10357000  0.02728000  1.0
  O  O99  1  0.57357000  0.89643000  0.97272000  1.0
