# generated using pymatgen
data_ZnH20C26(NO)6
_symmetry_space_group_name_H-M   'P 1'
_cell_length_a   10.36170000
_cell_length_b   13.41180000
_cell_length_c   20.32870000
_cell_angle_alpha   89.99990000
_cell_angle_beta   90.00000000
_cell_angle_gamma   93.69300000
_symmetry_Int_Tables_number   1
_chemical_formula_structural   ZnH20C26(NO)6
_chemical_formula_sum   'Zn4 H80 C104 N24 O24'
_cell_volume   2819.19383571
_cell_formula_units_Z   4
loop_
 _symmetry_equiv_pos_site_id
 _symmetry_equiv_pos_as_xyz
  1  'x, y, z'
loop_
 _atom_site_type_symbol
 _atom_site_label
 _atom_site_symmetry_multiplicity
 _atom_site_fract_x
 _atom_site_fract_y
 _atom_site_fract_z
 _atom_site_occupancy
  Zn  Zn0  1  0.74775000  0.43846000  0.90126000  1.0
  Zn  Zn1  1  0.75225000  0.06154000  0.40126000  1.0
  Zn  Zn2  1  0.25225000  0.56154000  0.09874000  1.0
  Zn  Zn3  1  0.24775000  0.93846000  0.59874000  1.0
  H  H4  1  0.50196000  0.44276000  0.11737000  1.0
  H  H5  1  0.99804000  0.05724000  0.61737000  1.0
  H  H6  1  0.49804000  0.55724000  0.88263000  1.0
  H  H7  1  0.00195000  0.94276000  0.38263000  1.0
  H  H8  1  0.54109000  0.26075000  0.94827000  1.0
  H  H9  1  0.95891000  0.23925000  0.44827000  1.0
  H  H10  1  0.45891000  0.73925000  0.05173000  1.0
  H  H11  1  0.04110000  0.76075000  0.55173000  1.0
  H  H12  1  0.29631000  0.23271000  0.97488000  1.0
  H  H13  1  0.20369000  0.26729000  0.47488000  1.0
  H  H14  1  0.70369000  0.76729000  0.02513000  1.0
  H  H15  1  0.79631000  0.73271000  0.52513000  1.0
  H  H16  1  0.13250000  0.06832000  0.14103000  1.0
  H  H17  1  0.36750000  0.43168000  0.64103000  1.0
  H  H18  1  0.86750000  0.93168000  0.85897000  1.0
  H  H19  1  0.63250000  0.56832000  0.35897000  1.0
  H  H20  1  0.29796000  0.15121000  0.21350000  1.0
  H  H21  1  0.20203000  0.34879000  0.71350000  1.0
  H  H22  1  0.70204000  0.84879000  0.78650000  1.0
  H  H23  1  0.79797000  0.65121000  0.28650000  1.0
  H  H24  1  0.46933000  0.26999000  0.16772000  1.0
  H  H25  1  0.03067000  0.23001000  0.66772000  1.0
  H  H26  1  0.53067000  0.73001000  0.83228000  1.0
  H  H27  1  0.96933000  0.77000000  0.33228000  1.0
  H  H28  1  0.96666000  0.04478000  0.06719000  1.0
  H  H29  1  0.53334000  0.45523000  0.56719000  1.0
  H  H30  1  0.03334000  0.95522000  0.93281000  1.0
  H  H31  1  0.46666000  0.54478000  0.43281000  1.0
  H  H32  1  0.09143000  0.96077000  0.05256000  1.0
  H  H33  1  0.40857000  0.53923000  0.55256000  1.0
  H  H34  1  0.90857000  0.03923000  0.94744000  1.0
  H  H35  1  0.59143000  0.46077000  0.44744000  1.0
  H  H36  1  0.03353000  0.68132000  0.03542000  1.0
  H  H37  1  0.46647000  0.81868000  0.53542000  1.0
  H  H38  1  0.96647000  0.31868000  0.96458000  1.0
  H  H39  1  0.53353000  0.18132000  0.46458000  1.0
  H  H40  1  0.94318000  0.60816000  0.83590000  1.0
  H  H41  1  0.55683000  0.89184000  0.33590000  1.0
  H  H42  1  0.05683000  0.39184000  0.16410000  1.0
  H  H43  1  0.44318000  0.10816000  0.66410000  1.0
  H  H44  1  0.19118000  0.77694000  0.00613000  1.0
  H  H45  1  0.30882000  0.72306000  0.50613000  1.0
  H  H46  1  0.80882000  0.22306000  0.99387000  1.0
  H  H47  1  0.69118000  0.27694000  0.49387000  1.0
  H  H48  1  0.38429000  0.94733000  0.85059000  1.0
  H  H49  1  0.11571000  0.55267000  0.35059000  1.0
  H  H50  1  0.61571000  0.05267000  0.14941000  1.0
  H  H51  1  0.88429000  0.44733000  0.64941000  1.0
  H  H52  1  0.24614000  0.85692000  0.76922000  1.0
  H  H53  1  0.25386000  0.64308000  0.26922000  1.0
  H  H54  1  0.75386000  0.14308000  0.23078000  1.0
  H  H55  1  0.74614000  0.35692000  0.73078000  1.0
  H  H56  1  0.07666000  0.73001000  0.80233000  1.0
  H  H57  1  0.42334000  0.76999000  0.30233000  1.0
  H  H58  1  0.92334000  0.26999000  0.19767000  1.0
  H  H59  1  0.57666000  0.23001000  0.69767000  1.0
  H  H60  1  0.42467000  0.04948000  0.94468000  1.0
  H  H61  1  0.07533000  0.45052000  0.44468000  1.0
  H  H62  1  0.57533000  0.95052000  0.05532000  1.0
  H  H63  1  0.92467000  0.54948000  0.55532000  1.0
  H  H64  1  0.53813000  0.95559000  0.93331000  1.0
  H  H65  1  0.96187000  0.54441000  0.43331000  1.0
  H  H66  1  0.46187000  0.04441000  0.06669000  1.0
  H  H67  1  0.03813000  0.45559000  0.56669000  1.0
  H  H68  1  0.06460000  0.26510000  0.86757000  1.0
  H  H69  1  0.43540000  0.23491000  0.36758000  1.0
  H  H70  1  0.93541000  0.73490000  0.13243000  1.0
  H  H71  1  0.56459000  0.76509000  0.63242000  1.0
  H  H72  1  0.22586000  0.16306000  0.80991000  1.0
  H  H73  1  0.27414000  0.33694000  0.30991000  1.0
  H  H74  1  0.77414000  0.83694000  0.19009000  1.0
  H  H75  1  0.72586000  0.66306000  0.69009000  1.0
  H  H76  1  0.91520000  0.99081000  0.71587000  1.0
  H  H77  1  0.58480000  0.50919000  0.21587000  1.0
  H  H78  1  0.08480000  0.00919000  0.28413000  1.0
  H  H79  1  0.41520000  0.49081000  0.78413000  1.0
  H  H80  1  0.75334000  0.08968000  0.77611000  1.0
  H  H81  1  0.74666000  0.41032000  0.27611000  1.0
  H  H82  1  0.24666000  0.91032000  0.22389000  1.0
  H  H83  1  0.25334000  0.58968000  0.72389000  1.0
  C  C84  1  0.53823000  0.41376000  0.07141000  1.0
  C  C85  1  0.96177000  0.08624000  0.57141000  1.0
  C  C86  1  0.46177000  0.58624000  0.92859000  1.0
  C  C87  1  0.03823000  0.91376000  0.42859000  1.0
  C  C88  1  0.55164000  0.32136000  0.98367000  1.0
  C  C89  1  0.94836000  0.17864000  0.48367000  1.0
  C  C90  1  0.44836000  0.67864000  0.01633000  1.0
  C  C91  1  0.05164000  0.82136000  0.51633000  1.0
  C  C92  1  0.39250000  0.25752000  0.06873000  1.0
  C  C93  1  0.10750000  0.24248000  0.56873000  1.0
  C  C94  1  0.60750000  0.74248000  0.93127000  1.0
  C  C95  1  0.89250000  0.75752000  0.43127000  1.0
  C  C96  1  0.29950000  0.21305000  0.02682000  1.0
  C  C97  1  0.20050000  0.28695000  0.52682000  1.0
  C  C98  1  0.70050000  0.78695000  0.97318000  1.0
  C  C99  1  0.79950000  0.71305000  0.47318000  1.0
  C  C100  1  0.20661000  0.14314000  0.05270000  1.0
  C  C101  1  0.29339000  0.35686000  0.55270000  1.0
  C  C102  1  0.79339000  0.85686000  0.94730000  1.0
  C  C103  1  0.70661000  0.64314000  0.44730000  1.0
  C  C104  1  0.20506000  0.12136000  0.12017000  1.0
  C  C105  1  0.29494000  0.37864000  0.62017000  1.0
  C  C106  1  0.79494000  0.87864000  0.87983000  1.0
  C  C107  1  0.70506000  0.62136000  0.37983000  1.0
  C  C108  1  0.29868000  0.16845000  0.16107000  1.0
  C  C109  1  0.20132000  0.33155000  0.66107000  1.0
  C  C110  1  0.70132000  0.83155000  0.83893000  1.0
  C  C111  1  0.79868000  0.66845000  0.33893000  1.0
  C  C112  1  0.39414000  0.23589000  0.13606000  1.0
  C  C113  1  0.10586000  0.26410000  0.63606000  1.0
  C  C114  1  0.60586000  0.76411000  0.86394000  1.0
  C  C115  1  0.89414000  0.73590000  0.36394000  1.0
  C  C116  1  0.03556000  0.01943000  0.03045000  1.0
  C  C117  1  0.46444000  0.48057000  0.53046000  1.0
  C  C118  1  0.96444000  0.98057000  0.96954000  1.0
  C  C119  1  0.53555000  0.51943000  0.46955000  1.0
  C  C120  1  0.98745000  0.64908000  0.99160000  1.0
  C  C121  1  0.51255000  0.85092000  0.49160000  1.0
  C  C122  1  0.01255000  0.35092000  0.00840000  1.0
  C  C123  1  0.48745000  0.14908000  0.50840000  1.0
  C  C124  1  0.94522000  0.61163000  0.88920000  1.0
  C  C125  1  0.55478000  0.88837000  0.38920000  1.0
  C  C126  1  0.05478000  0.38837000  0.11080000  1.0
  C  C127  1  0.44522000  0.11163000  0.61080000  1.0
  C  C128  1  0.12155000  0.74542000  0.90682000  1.0
  C  C129  1  0.37845000  0.75458000  0.40682000  1.0
  C  C130  1  0.87845000  0.25458000  0.09318000  1.0
  C  C131  1  0.62155000  0.24542000  0.59318000  1.0
  C  C132  1  0.20041000  0.79411000  0.95397000  1.0
  C  C133  1  0.29959000  0.70589000  0.45397000  1.0
  C  C134  1  0.79959000  0.20589000  0.04603000  1.0
  C  C135  1  0.70041000  0.29411000  0.54603000  1.0
  C  C136  1  0.29595000  0.86674000  0.93403000  1.0
  C  C137  1  0.20405000  0.63326000  0.43403000  1.0
  C  C138  1  0.70405000  0.13326000  0.06597000  1.0
  C  C139  1  0.79595000  0.36674000  0.56597000  1.0
  C  C140  1  0.31226000  0.89036000  0.86733000  1.0
  C  C141  1  0.18774000  0.60964000  0.36733000  1.0
  C  C142  1  0.68774000  0.10963000  0.13267000  1.0
  C  C143  1  0.81226000  0.39036000  0.63267000  1.0
  C  C144  1  0.23301000  0.83932000  0.82113000  1.0
  C  C145  1  0.26699000  0.66068000  0.32113000  1.0
  C  C146  1  0.76699000  0.16068000  0.17888000  1.0
  C  C147  1  0.73301000  0.33932000  0.67887000  1.0
  C  C148  1  0.13732000  0.76729000  0.83980000  1.0
  C  C149  1  0.36269000  0.73271000  0.33980000  1.0
  C  C150  1  0.86269000  0.23271000  0.16020000  1.0
  C  C151  1  0.63732000  0.26729000  0.66020000  1.0
  C  C152  1  0.46754000  0.98488000  0.96767000  1.0
  C  C153  1  0.03246000  0.51513000  0.46767000  1.0
  C  C154  1  0.53246000  0.01513000  0.03233000  1.0
  C  C155  1  0.96754000  0.48488000  0.53233000  1.0
  C  C156  1  0.89962000  0.18318000  0.82485000  1.0
  C  C157  1  0.60039000  0.31683000  0.32486000  1.0
  C  C158  1  0.10039000  0.81682000  0.17515000  1.0
  C  C159  1  0.39961000  0.68317000  0.67514000  1.0
  C  C160  1  0.03263000  0.20337000  0.83548000  1.0
  C  C161  1  0.46737000  0.29664000  0.33548000  1.0
  C  C162  1  0.96737000  0.79663000  0.16452000  1.0
  C  C163  1  0.53263000  0.70336000  0.66452000  1.0
  C  C164  1  0.12205000  0.14757000  0.80346000  1.0
  C  C165  1  0.37795000  0.35243000  0.30346000  1.0
  C  C166  1  0.87796000  0.85243000  0.19654000  1.0
  C  C167  1  0.62204000  0.64757000  0.69654000  1.0
  C  C168  1  0.07980000  0.07260000  0.75907000  1.0
  C  C169  1  0.42020000  0.42740000  0.25908000  1.0
  C  C170  1  0.92020000  0.92740000  0.24092000  1.0
  C  C171  1  0.57980000  0.57260000  0.74092000  1.0
  C  C172  1  0.94673000  0.05011000  0.75003000  1.0
  C  C173  1  0.55327000  0.44989000  0.25003000  1.0
  C  C174  1  0.05327000  0.94989000  0.24997000  1.0
  C  C175  1  0.44672000  0.55011000  0.74997000  1.0
  C  C176  1  0.85711000  0.10467000  0.78312000  1.0
  C  C177  1  0.64289000  0.39533000  0.28312000  1.0
  C  C178  1  0.14289000  0.89533000  0.21688000  1.0
  C  C179  1  0.35711000  0.60467000  0.71688000  1.0
  C  C180  1  0.80315000  0.24849000  0.85500000  1.0
  C  C181  1  0.69685000  0.25151000  0.35500000  1.0
  C  C182  1  0.19686000  0.75151000  0.14500000  1.0
  C  C183  1  0.30315000  0.74849000  0.64500000  1.0
  C  C184  1  0.17763000  0.02514000  0.71705000  1.0
  C  C185  1  0.32237000  0.47486000  0.21705000  1.0
  C  C186  1  0.82237000  0.97486000  0.28295000  1.0
  C  C187  1  0.67763000  0.52514000  0.78295000  1.0
  N  N188  1  0.63371000  0.40056000  0.97830000  1.0
  N  N189  1  0.86629000  0.09944000  0.47830000  1.0
  N  N190  1  0.36629000  0.59944000  0.02170000  1.0
  N  N191  1  0.13371000  0.90056000  0.52170000  1.0
  N  N192  1  0.62541000  0.45977000  0.03336000  1.0
  N  N193  1  0.87459000  0.04023000  0.53336000  1.0
  N  N194  1  0.37459000  0.54023000  0.96664000  1.0
  N  N195  1  0.12540000  0.95977000  0.46664000  1.0
  N  N196  1  0.48890000  0.32670000  0.04231000  1.0
  N  N197  1  0.01110000  0.17330000  0.54231000  1.0
  N  N198  1  0.51110000  0.67330000  0.95769000  1.0
  N  N199  1  0.98890000  0.82670000  0.45769000  1.0
  N  N200  1  0.86756000  0.55532000  0.92758000  1.0
  N  N201  1  0.63244000  0.94468000  0.42758000  1.0
  N  N202  1  0.13244000  0.44468000  0.07242000  1.0
  N  N203  1  0.36756000  0.05532000  0.57242000  1.0
  N  N204  1  0.89378000  0.57850000  0.99251000  1.0
  N  N205  1  0.60622000  0.92150000  0.49251000  1.0
  N  N206  1  0.10622000  0.42150000  0.00749000  1.0
  N  N207  1  0.39378000  0.07849000  0.50749000  1.0
  N  N208  1  0.02357000  0.67267000  0.92781000  1.0
  N  N209  1  0.47643000  0.82732000  0.42781000  1.0
  N  N210  1  0.97643000  0.32733000  0.07219000  1.0
  N  N211  1  0.52357000  0.17267000  0.57219000  1.0
  O  O212  1  0.12070000  0.10109000  0.00825000  1.0
  O  O213  1  0.37929000  0.39891000  0.50825000  1.0
  O  O214  1  0.87930000  0.89891000  0.99175000  1.0
  O  O215  1  0.62070000  0.60109000  0.49175000  1.0
  O  O216  1  0.36876000  0.90926000  0.98412000  1.0
  O  O217  1  0.13124000  0.59074000  0.48411000  1.0
  O  O218  1  0.63124000  0.09074000  0.01589000  1.0
  O  O219  1  0.86876000  0.40926000  0.51589000  1.0
  O  O220  1  0.85699000  0.32857000  0.88312000  1.0
  O  O221  1  0.64301000  0.17143000  0.38312000  1.0
  O  O222  1  0.14301000  0.67144000  0.11688000  1.0
  O  O223  1  0.35699000  0.82856000  0.61688000  1.0
  O  O224  1  0.68465000  0.22699000  0.85160000  1.0
  O  O225  1  0.81535000  0.27301000  0.35160000  1.0
  O  O226  1  0.31535000  0.77301000  0.14840000  1.0
  O  O227  1  0.18465000  0.72698000  0.64840000  1.0
  O  O228  1  0.29589000  0.03875000  0.72836000  1.0
  O  O229  1  0.20411000  0.46125000  0.22836000  1.0
  O  O230  1  0.70411000  0.96125000  0.27164000  1.0
  O  O231  1  0.79589000  0.53875000  0.77164000  1.0
  O  O232  1  0.12750000  0.97391000  0.66774000  1.0
  O  O233  1  0.37250000  0.52608000  0.16774000  1.0
  O  O234  1  0.87250000  0.02608000  0.33226000  1.0
  O  O235  1  0.62750000  0.47391000  0.83226000  1.0
