# generated using pymatgen
data_Ag2H6C11N3O4F3
_symmetry_space_group_name_H-M   'P 1'
_cell_length_a   7.29802000
_cell_length_b   10.94220000
_cell_length_c   17.09670000
_cell_angle_alpha   90.00000000
_cell_angle_beta   90.00000000
_cell_angle_gamma   91.99320000
_symmetry_Int_Tables_number   1
_chemical_formula_structural   Ag2H6C11N3O4F3
_chemical_formula_sum   'Ag8 H24 C44 N12 O16 F12'
_cell_volume   1364.45477203
_cell_formula_units_Z   4
loop_
 _symmetry_equiv_pos_site_id
 _symmetry_equiv_pos_as_xyz
  1  'x, y, z'
loop_
 _atom_site_type_symbol
 _atom_site_label
 _atom_site_symmetry_multiplicity
 _atom_site_fract_x
 _atom_site_fract_y
 _atom_site_fract_z
 _atom_site_occupancy
  Ag  Ag0  1  0.46261000  0.74308000  0.14832000  1.0
  Ag  Ag1  1  0.03740000  0.25692000  0.64832000  1.0
  Ag  Ag2  1  0.53740000  0.25692000  0.85169000  1.0
  Ag  Ag3  1  0.96260000  0.74308000  0.35169000  1.0
  Ag  Ag4  1  0.27408000  0.00734000  0.82857000  1.0
  Ag  Ag5  1  0.22592000  0.99266000  0.32857000  1.0
  Ag  Ag6  1  0.72591000  0.99265000  0.17143000  1.0
  Ag  Ag7  1  0.77408000  0.00734000  0.67143000  1.0
  H  H8  1  0.11035000  0.16039000  0.10147000  1.0
  H  H9  1  0.38965000  0.83961000  0.60147000  1.0
  H  H10  1  0.88964000  0.83961000  0.89853000  1.0
  H  H11  1  0.61035000  0.16039000  0.39853000  1.0
  H  H12  1  0.47945000  0.74852000  0.32147000  1.0
  H  H13  1  0.02056000  0.25148000  0.82146000  1.0
  H  H14  1  0.52057000  0.25149000  0.67854000  1.0
  H  H15  1  0.97945000  0.74852000  0.17854000  1.0
  H  H16  1  0.66621000  0.40368000  0.40629000  1.0
  H  H17  1  0.83380000  0.59632000  0.90629000  1.0
  H  H18  1  0.33380000  0.59632000  0.59371000  1.0
  H  H19  1  0.16620000  0.40369000  0.09371000  1.0
  H  H20  1  0.54420000  0.61410000  0.43291000  1.0
  H  H21  1  0.95581000  0.38590000  0.93291000  1.0
  H  H22  1  0.45582000  0.38590000  0.56709000  1.0
  H  H23  1  0.04420000  0.61411000  0.06709000  1.0
  H  H24  1  0.64862000  0.49179000  0.16054000  1.0
  H  H25  1  0.85138000  0.50821000  0.66054000  1.0
  H  H26  1  0.35138000  0.50821000  0.83946000  1.0
  H  H27  1  0.14862000  0.49179000  0.33946000  1.0
  H  H28  1  0.71802000  0.34295000  0.26648000  1.0
  H  H29  1  0.78198000  0.65705000  0.76648000  1.0
  H  H30  1  0.28198000  0.65706000  0.73352000  1.0
  H  H31  1  0.21801000  0.34295000  0.23352000  1.0
  C  C32  1  0.23422000  0.02186000  0.00641000  1.0
  C  C33  1  0.26579000  0.97814000  0.50641000  1.0
  C  C34  1  0.76577000  0.97813000  0.99359000  1.0
  C  C35  1  0.73422000  0.02186000  0.49359000  1.0
  C  C36  1  0.53468000  0.65902000  0.31131000  1.0
  C  C37  1  0.96533000  0.34098000  0.81130000  1.0
  C  C38  1  0.46533000  0.34098000  0.68870000  1.0
  C  C39  1  0.03467000  0.65903000  0.18870000  1.0
  C  C40  1  0.63863000  0.46673000  0.35875000  1.0
  C  C41  1  0.86138000  0.53327000  0.85875000  1.0
  C  C42  1  0.36138000  0.53327000  0.64125000  1.0
  C  C43  1  0.13862000  0.46673000  0.14125000  1.0
  C  C44  1  0.26220000  0.96045000  0.07741000  1.0
  C  C45  1  0.23780000  0.03955000  0.57741000  1.0
  C  C46  1  0.73779000  0.03954000  0.92259000  1.0
  C  C47  1  0.76220000  0.96045000  0.42259000  1.0
  C  C48  1  0.57146000  0.58211000  0.37387000  1.0
  C  C49  1  0.92855000  0.41789000  0.87387000  1.0
  C  C50  1  0.42855000  0.41789000  0.62613000  1.0
  C  C51  1  0.07146000  0.58212000  0.12613000  1.0
  C  C52  1  0.62783000  0.51455000  0.22168000  1.0
  C  C53  1  0.87217000  0.48545000  0.72168000  1.0
  C  C54  1  0.37217000  0.48545000  0.77832000  1.0
  C  C55  1  0.12783000  0.51455000  0.27832000  1.0
  C  C56  1  0.66731000  0.43264000  0.28109000  1.0
  C  C57  1  0.83270000  0.56736000  0.78109000  1.0
  C  C58  1  0.33270000  0.56736000  0.71891000  1.0
  C  C59  1  0.16730000  0.43264000  0.21890000  1.0
  C  C60  1  0.34744000  0.84624000  0.98199000  1.0
  C  C61  1  0.15256000  0.15376000  0.48199000  1.0
  C  C62  1  0.65256000  0.15375000  0.01801000  1.0
  C  C63  1  0.84744000  0.84625000  0.51801000  1.0
  C  C64  1  0.16618000  0.14475000  0.98868000  1.0
  C  C65  1  0.33381000  0.85524000  0.48868000  1.0
  C  C66  1  0.83381000  0.85523000  0.01132000  1.0
  C  C67  1  0.66620000  0.14476000  0.51132000  1.0
  C  C68  1  0.39916000  0.73485000  0.93741000  1.0
  C  C69  1  0.10083000  0.26515000  0.43742000  1.0
  C  C70  1  0.60083000  0.26514000  0.06259000  1.0
  C  C71  1  0.89916000  0.73486000  0.56259000  1.0
  C  C72  1  0.22269000  0.99785000  0.15858000  1.0
  C  C73  1  0.27732000  0.00215000  0.65858000  1.0
  C  C74  1  0.77730000  0.00214000  0.84142000  1.0
  C  C75  1  0.72268000  0.99785000  0.34142000  1.0
  N  N76  1  0.33608000  0.84990000  0.06058000  1.0
  N  N77  1  0.16393000  0.15010000  0.56058000  1.0
  N  N78  1  0.66392000  0.15010000  0.93942000  1.0
  N  N79  1  0.83607000  0.84990000  0.43942000  1.0
  N  N80  1  0.56179000  0.62608000  0.23629000  1.0
  N  N81  1  0.93822000  0.37392000  0.73629000  1.0
  N  N82  1  0.43822000  0.37393000  0.76371000  1.0
  N  N83  1  0.06178000  0.62608000  0.26371000  1.0
  N  N84  1  0.28954000  0.94777000  0.94676000  1.0
  N  N85  1  0.21046000  0.05222000  0.44676000  1.0
  N  N86  1  0.71045000  0.05221000  0.05325000  1.0
  N  N87  1  0.78954000  0.94778000  0.55324000  1.0
  O  O88  1  0.10035000  0.20855000  0.04696000  1.0
  O  O89  1  0.39965000  0.79144000  0.54696000  1.0
  O  O90  1  0.89964000  0.79144000  0.95303000  1.0
  O  O91  1  0.60035000  0.20856000  0.45304000  1.0
  O  O92  1  0.17249000  0.18625000  0.92117000  1.0
  O  O93  1  0.32749000  0.81374000  0.42118000  1.0
  O  O94  1  0.82751000  0.81374000  0.07882000  1.0
  O  O95  1  0.67252000  0.18626000  0.57883000  1.0
  O  O96  1  0.13749000  0.09574000  0.17075000  1.0
  O  O97  1  0.36251000  0.90426000  0.67075000  1.0
  O  O98  1  0.86249000  0.90426000  0.82924000  1.0
  O  O99  1  0.63749000  0.09574000  0.32925000  1.0
  O  O100  1  0.27523000  0.92748000  0.21322000  1.0
  O  O101  1  0.22478000  0.07252000  0.71323000  1.0
  O  O102  1  0.72477000  0.07252000  0.78677000  1.0
  O  O103  1  0.77522000  0.92748000  0.28677000  1.0
  F  F104  1  0.48822000  0.76398000  0.86949000  1.0
  F  F105  1  0.01177000  0.23602000  0.36949000  1.0
  F  F106  1  0.51178000  0.23600000  0.13051000  1.0
  F  F107  1  0.98822000  0.76399000  0.63051000  1.0
  F  F108  1  0.50879000  0.66119000  0.97971000  1.0
  F  F109  1  0.99121000  0.33881000  0.47971000  1.0
  F  F110  1  0.49119000  0.33880000  0.02030000  1.0
  F  F111  1  0.00878000  0.66119000  0.52030000  1.0
  F  F112  1  0.24738000  0.66404000  0.91701000  1.0
  F  F113  1  0.25262000  0.33596000  0.41701000  1.0
  F  F114  1  0.75261000  0.33596000  0.08299000  1.0
  F  F115  1  0.74737000  0.66405000  0.58300000  1.0
