# generated using pymatgen
data_ZnH17C28NO5
_symmetry_space_group_name_H-M   'P 1'
_cell_length_a   16.16590000
_cell_length_b   16.49600000
_cell_length_c   17.82070000
_cell_angle_alpha   89.88470000
_cell_angle_beta   89.68100000
_cell_angle_gamma   89.93370000
_symmetry_Int_Tables_number   1
_chemical_formula_structural   ZnH17C28NO5
_chemical_formula_sum   'Zn2 H34 C56 N2 O10'
_cell_volume   4752.20754377
_cell_formula_units_Z   2
loop_
 _symmetry_equiv_pos_site_id
 _symmetry_equiv_pos_as_xyz
  1  'x, y, z'
loop_
 _atom_site_type_symbol
 _atom_site_label
 _atom_site_symmetry_multiplicity
 _atom_site_fract_x
 _atom_site_fract_y
 _atom_site_fract_z
 _atom_site_occupancy
  Zn  Zn0  1  0.49440000  0.58409000  0.50001000  1.0
  Zn  Zn1  1  0.49749000  0.41538000  0.50000000  1.0
  H  H2  1  0.04842000  0.42161000  0.60632000  1.0
  H  H3  1  0.94388000  0.57914000  0.39378000  1.0
  H  H4  1  0.59501000  0.71043000  0.42780000  1.0
  H  H5  1  0.39801000  0.28644000  0.57187000  1.0
  H  H6  1  0.60248000  0.86299000  0.42417000  1.0
  H  H7  1  0.39532000  0.13378000  0.57627000  1.0
  H  H8  1  0.53744000  0.63060000  0.12234000  1.0
  H  H9  1  0.53943000  0.36928000  0.87686000  1.0
  H  H10  1  0.51741000  0.62981000  0.26178000  1.0
  H  H11  1  0.52074000  0.37039000  0.73744000  1.0
  H  H12  1  0.51769000  0.37002000  0.26225000  1.0
  H  H13  1  0.52005000  0.63017000  0.73743000  1.0
  H  H14  1  0.53770000  0.36922000  0.12281000  1.0
  H  H15  1  0.53913000  0.63072000  0.87683000  1.0
  H  H16  1  0.39189000  0.86667000  0.57529000  1.0
  H  H17  1  0.60636000  0.13543000  0.42563000  1.0
  H  H18  1  0.39305000  0.71398000  0.57107000  1.0
  H  H19  1  0.60079000  0.28806000  0.42952000  1.0
  H  H20  1  0.02470000  0.63781000  0.66303000  1.0
  H  H21  1  0.02586000  0.53638000  0.70014000  1.0
  H  H22  1  0.94907000  0.60740000  0.73177000  1.0
  H  H23  1  0.96596000  0.46429000  0.30013000  1.0
  H  H24  1  0.96733000  0.36287000  0.33729000  1.0
  H  H25  1  0.04268000  0.39331000  0.26832000  1.0
  H  H26  1  0.07880000  0.29807000  0.48891000  1.0
  H  H27  1  0.05034000  0.15109000  0.47627000  1.0
  H  H28  1  0.90487000  0.10154000  0.46902000  1.0
  H  H29  1  0.78845000  0.20069000  0.47477000  1.0
  H  H30  1  0.81674000  0.34763000  0.48679000  1.0
  H  H31  1  0.91502000  0.70468000  0.51119000  1.0
  H  H32  1  0.94610000  0.85117000  0.52363000  1.0
  H  H33  1  0.09237000  0.89835000  0.53057000  1.0
  H  H34  1  0.20711000  0.79718000  0.52487000  1.0
  H  H35  1  0.17612000  0.65077000  0.51324000  1.0
  C  C36  1  0.50512000  0.50047000  0.64653000  1.0
  C  C37  1  0.50308000  0.49992000  0.35328000  1.0
  C  C38  1  0.52215000  0.57330000  0.23050000  1.0
  C  C39  1  0.52443000  0.42681000  0.76891000  1.0
  C  C40  1  0.51593000  0.49992000  0.27001000  1.0
  C  C41  1  0.51792000  0.50029000  0.72965000  1.0
  C  C42  1  0.52231000  0.42653000  0.23077000  1.0
  C  C43  1  0.52407000  0.57362000  0.76891000  1.0
  C  C44  1  0.53344000  0.42619000  0.15346000  1.0
  C  C45  1  0.53483000  0.57380000  0.84615000  1.0
  C  C46  1  0.53825000  0.49990000  0.11318000  1.0
  C  C47  1  0.53937000  0.49999000  0.88627000  1.0
  C  C48  1  0.54452000  0.49990000  0.03399000  1.0
  C  C49  1  0.54489000  0.49989000  0.96545000  1.0
  C  C50  1  0.43764000  0.83422000  0.54178000  1.0
  C  C51  1  0.55956000  0.16667000  0.45893000  1.0
  C  C52  1  0.43809000  0.75013000  0.53985000  1.0
  C  C53  1  0.55662000  0.25073000  0.46054000  1.0
  C  C54  1  0.55140000  0.74821000  0.45893000  1.0
  C  C55  1  0.44294000  0.24984000  0.54105000  1.0
  C  C56  1  0.55532000  0.83222000  0.45742000  1.0
  C  C57  1  0.44158000  0.16577000  0.54295000  1.0
  C  C58  1  0.33379000  0.49754000  0.50377000  1.0
  C  C59  1  0.65883000  0.50123000  0.49650000  1.0
  C  C60  1  0.49749000  0.87709000  0.49980000  1.0
  C  C61  1  0.50082000  0.12234000  0.50086000  1.0
  C  C62  1  0.49938000  0.96276000  0.50023000  1.0
  C  C63  1  0.50069000  0.03664000  0.50053000  1.0
  C  C64  1  0.96520000  0.53194000  0.56405000  1.0
  C  C65  1  0.02719000  0.46886000  0.43603000  1.0
  C  C66  1  0.02461000  0.45710000  0.55924000  1.0
  C  C67  1  0.96779000  0.54370000  0.44085000  1.0
  C  C68  1  0.24444000  0.49725000  0.50410000  1.0
  C  C69  1  0.74811000  0.50206000  0.49616000  1.0
  C  C70  1  0.02191000  0.58060000  0.50538000  1.0
  C  C71  1  0.97057000  0.42018000  0.49471000  1.0
  C  C72  1  0.08170000  0.50392000  0.50162000  1.0
  C  C73  1  0.91079000  0.49678000  0.49847000  1.0
  C  C74  1  0.16918000  0.50138000  0.50299000  1.0
  C  C75  1  0.82337000  0.49883000  0.49717000  1.0
  C  C76  1  0.53330000  0.57363000  0.15319000  1.0
  C  C77  1  0.53505000  0.42633000  0.84617000  1.0
  C  C78  1  0.98595000  0.58748000  0.68346000  1.0
  C  C79  1  0.00596000  0.41323000  0.31673000  1.0
  C  C80  1  0.94974000  0.33319000  0.48870000  1.0
  C  C81  1  0.01503000  0.27661000  0.48593000  1.0
  C  C82  1  0.99899000  0.19401000  0.47867000  1.0
  C  C83  1  0.91741000  0.16621000  0.47447000  1.0
  C  C84  1  0.85233000  0.22186000  0.47752000  1.0
  C  C85  1  0.86805000  0.30479000  0.48442000  1.0
  C  C86  1  0.04350000  0.66741000  0.51135000  1.0
  C  C87  1  0.97917000  0.72503000  0.51410000  1.0
  C  C88  1  0.99669000  0.80737000  0.52121000  1.0
  C  C89  1  0.07873000  0.83388000  0.52526000  1.0
  C  C90  1  0.14284000  0.77717000  0.52227000  1.0
  C  C91  1  0.12563000  0.69453000  0.51555000  1.0
  N  N92  1  0.49395000  0.70815000  0.49933000  1.0
  N  N93  1  0.49930000  0.29131000  0.50062000  1.0
  O  O94  1  0.49805000  0.56926000  0.61442000  1.0
  O  O95  1  0.49831000  0.43111000  0.38576000  1.0
  O  O96  1  0.50250000  0.43175000  0.61398000  1.0
  O  O97  1  0.49818000  0.56867000  0.38558000  1.0
  O  O98  1  0.36797000  0.56721000  0.50265000  1.0
  O  O99  1  0.62502000  0.43143000  0.49562000  1.0
  O  O100  1  0.37009000  0.42898000  0.50436000  1.0
  O  O101  1  0.62235000  0.56968000  0.49787000  1.0
  O  O102  1  0.92794000  0.56272000  0.62715000  1.0
  O  O103  1  0.06422000  0.43806000  0.37282000  1.0
