# generated using pymatgen
data_SrH6C7O4
_symmetry_space_group_name_H-M   'P 1'
_cell_length_a   5.06529000
_cell_length_b   6.97016000
_cell_length_c   22.74590000
_cell_angle_alpha   90.00090000
_cell_angle_beta   90.00040000
_cell_angle_gamma   70.38900000
_symmetry_Int_Tables_number   1
_chemical_formula_structural   SrH6C7O4
_chemical_formula_sum   'Sr4 H24 C28 O16'
_cell_volume   756.48074563
_cell_formula_units_Z   4
loop_
 _symmetry_equiv_pos_site_id
 _symmetry_equiv_pos_as_xyz
  1  'x, y, z'
loop_
 _atom_site_type_symbol
 _atom_site_label
 _atom_site_symmetry_multiplicity
 _atom_site_fract_x
 _atom_site_fract_y
 _atom_site_fract_z
 _atom_site_occupancy
  Sr  Sr0  1  0.20602000  0.20319000  0.02472000  1.0
  Sr  Sr1  1  0.29398000  0.29681000  0.52472000  1.0
  Sr  Sr2  1  0.79398000  0.79681000  0.97528000  1.0
  Sr  Sr3  1  0.70602000  0.70319000  0.47528000  1.0
  H  H4  1  0.86025000  0.91255000  0.18362000  1.0
  H  H5  1  0.63976000  0.58745000  0.68363000  1.0
  H  H6  1  0.13976000  0.08745000  0.81638000  1.0
  H  H7  1  0.36024000  0.41255000  0.31637000  1.0
  H  H8  1  0.84982000  0.66094000  0.26034000  1.0
  H  H9  1  0.65020000  0.83907000  0.76034000  1.0
  H  H10  1  0.15019000  0.33907000  0.73966000  1.0
  H  H11  1  0.34980000  0.16093000  0.23966000  1.0
  H  H12  1  0.58367000  0.42370000  0.24284000  1.0
  H  H13  1  0.91633000  0.07631000  0.74284000  1.0
  H  H14  1  0.41633000  0.57631000  0.75716000  1.0
  H  H15  1  0.08367000  0.92369000  0.25716000  1.0
  H  H16  1  0.31580000  0.45071000  0.14936000  1.0
  H  H17  1  0.18419000  0.04930000  0.64936000  1.0
  H  H18  1  0.68419000  0.54929000  0.85065000  1.0
  H  H19  1  0.81581000  0.95070000  0.35064000  1.0
  H  H20  1  0.82813000  0.28863000  0.13901000  1.0
  H  H21  1  0.67187000  0.21137000  0.63901000  1.0
  H  H22  1  0.17186000  0.71137000  0.86099000  1.0
  H  H23  1  0.32813000  0.78863000  0.36099000  1.0
  H  H24  1  0.81215000  0.09280000  0.10473000  1.0
  H  H25  1  0.68785000  0.40720000  0.60473000  1.0
  H  H26  1  0.18785000  0.90720000  0.89527000  1.0
  H  H27  1  0.31215000  0.59280000  0.39527000  1.0
  C  C28  1  0.44774000  0.68739000  0.11239000  1.0
  C  C29  1  0.05226000  0.81262000  0.61239000  1.0
  C  C30  1  0.55225000  0.31261000  0.88761000  1.0
  C  C31  1  0.94775000  0.18738000  0.38761000  1.0
  C  C32  1  0.60260000  0.82338000  0.12179000  1.0
  C  C33  1  0.89740000  0.67662000  0.62179000  1.0
  C  C34  1  0.39739000  0.17662000  0.87821000  1.0
  C  C35  1  0.10260000  0.32338000  0.37821000  1.0
  C  C36  1  0.74182000  0.80978000  0.17669000  1.0
  C  C37  1  0.75820000  0.69024000  0.67669000  1.0
  C  C38  1  0.25818000  0.19023000  0.82331000  1.0
  C  C39  1  0.24181000  0.30976000  0.32331000  1.0
  C  C40  1  0.73630000  0.66922000  0.21913000  1.0
  C  C41  1  0.76372000  0.83079000  0.71913000  1.0
  C  C42  1  0.26370000  0.33079000  0.78088000  1.0
  C  C43  1  0.23629000  0.16921000  0.28087000  1.0
  C  C44  1  0.58632000  0.53496000  0.20954000  1.0
  C  C45  1  0.91369000  0.96506000  0.70955000  1.0
  C  C46  1  0.41368000  0.46505000  0.79046000  1.0
  C  C47  1  0.08632000  0.03494000  0.29045000  1.0
  C  C48  1  0.44172000  0.54808000  0.15709000  1.0
  C  C49  1  0.05828000  0.95192000  0.65708000  1.0
  C  C50  1  0.55826000  0.45193000  0.84292000  1.0
  C  C51  1  0.94173000  0.04807000  0.34292000  1.0
  C  C52  1  0.29150000  0.68596000  0.05784000  1.0
  C  C53  1  0.20850000  0.81404000  0.55784000  1.0
  C  C54  1  0.70849000  0.31404000  0.94216000  1.0
  C  C55  1  0.79150000  0.18596000  0.44216000  1.0
  O  O56  1  0.16534000  0.55570000  0.05127000  1.0
  O  O57  1  0.33465000  0.94430000  0.55126000  1.0
  O  O58  1  0.83465000  0.44430000  0.94874000  1.0
  O  O59  1  0.66535000  0.05569000  0.44873000  1.0
  O  O60  1  0.27619000  0.81669000  0.01646000  1.0
  O  O61  1  0.22381000  0.68330000  0.51646000  1.0
  O  O62  1  0.72380000  0.18330000  0.98354000  1.0
  O  O63  1  0.77619000  0.31669000  0.48353000  1.0
  O  O64  1  0.62570000  0.95633000  0.08207000  1.0
  O  O65  1  0.87430000  0.54368000  0.58207000  1.0
  O  O66  1  0.37430000  0.04367000  0.91793000  1.0
  O  O67  1  0.12569000  0.45633000  0.41793000  1.0
  O  O68  1  0.94007000  0.17327000  0.11512000  1.0
  O  O69  1  0.55993000  0.32673000  0.61512000  1.0
  O  O70  1  0.05993000  0.82673000  0.88488000  1.0
  O  O71  1  0.44007000  0.67327000  0.38488000  1.0
