# generated using pymatgen
data_Cu2H6C4IN3
_symmetry_space_group_name_H-M   'P 1'
_cell_length_a   15.18388918
_cell_length_b   15.19410000
_cell_length_c   15.20920000
_cell_angle_alpha   68.94200000
_cell_angle_beta   74.37792835
_cell_angle_gamma   110.89134681
_symmetry_Int_Tables_number   1
_chemical_formula_structural   Cu2H6C4IN3
_chemical_formula_sum   'Cu16 H48 C32 I8 N24'
_cell_volume   2722.93503235
_cell_formula_units_Z   8
loop_
 _symmetry_equiv_pos_site_id
 _symmetry_equiv_pos_as_xyz
  1  'x, y, z'
loop_
 _atom_site_type_symbol
 _atom_site_label
 _atom_site_symmetry_multiplicity
 _atom_site_fract_x
 _atom_site_fract_y
 _atom_site_fract_z
 _atom_site_occupancy
  Cu  Cu0  1  0.10081000  0.18312000  0.56600000  1.0
  Cu  Cu1  1  0.24919000  0.31243000  0.58550000  1.0
  Cu  Cu2  1  0.93838000  0.83571000  0.24720000  1.0
  Cu  Cu3  1  0.91647000  0.66723000  0.39780000  1.0
  Cu  Cu4  1  0.89918000  0.81686000  0.43402000  1.0
  Cu  Cu5  1  0.75081000  0.68757000  0.41450000  1.0
  Cu  Cu6  1  0.06162000  0.16430000  0.75280000  1.0
  Cu  Cu7  1  0.08353000  0.33277000  0.60220000  1.0
  Cu  Cu8  1  0.09306000  0.06031000  0.23301000  1.0
  Cu  Cu9  1  0.70417000  0.43893000  0.47219000  1.0
  Cu  Cu10  1  0.26635000  0.17270000  0.79446000  1.0
  Cu  Cu11  1  0.03171000  0.32572000  0.40892000  1.0
  Cu  Cu12  1  0.90693000  0.93968000  0.76700000  1.0
  Cu  Cu13  1  0.29584000  0.56108000  0.52780000  1.0
  Cu  Cu14  1  0.73365000  0.82730000  0.20554000  1.0
  Cu  Cu15  1  0.96829000  0.67428000  0.59109000  1.0
  H  H16  1  0.00964000  0.30487000  0.23702000  1.0
  H  H17  1  0.46043000  0.19594000  0.79603000  1.0
  H  H18  1  0.26327000  0.25145000  0.04261000  1.0
  H  H19  1  0.70609000  0.24873000  0.48851000  1.0
  H  H20  1  0.99036000  0.69513000  0.76298000  1.0
  H  H21  1  0.53958000  0.80407000  0.20396000  1.0
  H  H22  1  0.73673000  0.74856000  0.95739000  1.0
  H  H23  1  0.29391000  0.75126000  0.51149000  1.0
  H  H24  1  0.95199000  0.17540000  0.24419000  1.0
  H  H25  1  0.58080000  0.32511000  0.72521000  1.0
  H  H26  1  0.25346000  0.30081000  0.92151000  1.0
  H  H27  1  0.77848000  0.19928000  0.54723000  1.0
  H  H28  1  0.04801000  0.82460000  0.75581000  1.0
  H  H29  1  0.41919000  0.67488000  0.27480000  1.0
  H  H30  1  0.74654000  0.69920000  0.07849000  1.0
  H  H31  1  0.22152000  0.80071000  0.45278000  1.0
  H  H32  1  0.08486000  0.27635000  0.14980000  1.0
  H  H33  1  0.57491000  0.22219000  0.69390000  1.0
  H  H34  1  0.35010000  0.26296000  0.92763000  1.0
  H  H35  1  0.80881000  0.23504000  0.41418000  1.0
  H  H36  1  0.91514000  0.72365000  0.85021000  1.0
  H  H37  1  0.42509000  0.77781000  0.30610000  1.0
  H  H38  1  0.64990000  0.73704000  0.07237000  1.0
  H  H39  1  0.19119000  0.76495000  0.58582000  1.0
  H  H40  1  0.20927000  0.06894000  0.47622000  1.0
  H  H41  1  0.45284000  0.42729000  0.36390000  1.0
  H  H42  1  0.02655000  0.81641000  0.04392000  1.0
  H  H43  1  0.13584000  0.68232000  0.29121000  1.0
  H  H44  1  0.79072000  0.93106000  0.52378000  1.0
  H  H45  1  0.54717000  0.57272000  0.63610000  1.0
  H  H46  1  0.97345000  0.18359000  0.95608000  1.0
  H  H47  1  0.86416000  0.31768000  0.70878000  1.0
  H  H48  1  0.22155000  0.04750000  0.36586000  1.0
  H  H49  1  0.58363000  0.44700000  0.33210000  1.0
  H  H50  1  0.13600000  0.91177000  0.91404000  1.0
  H  H51  1  0.16931000  0.58392000  0.27888000  1.0
  H  H52  1  0.77844000  0.95249000  0.63415000  1.0
  H  H53  1  0.41637000  0.55301000  0.66789000  1.0
  H  H54  1  0.86399000  0.08823000  0.08597000  1.0
  H  H55  1  0.83069000  0.41608000  0.72111000  1.0
  H  H56  1  0.10552000  0.95575000  0.48763000  1.0
  H  H57  1  0.55295000  0.54034000  0.35600000  1.0
  H  H58  1  0.01361000  0.90766000  0.94225000  1.0
  H  H59  1  0.14756000  0.59215000  0.39498000  1.0
  H  H60  1  0.89448000  0.04424000  0.51237000  1.0
  H  H61  1  0.44705000  0.45966000  0.64399000  1.0
  H  H62  1  0.98639000  0.09234000  0.05775000  1.0
  H  H63  1  0.85244000  0.40785000  0.60501000  1.0
  C  C64  1  0.12101000  0.11105000  0.39892000  1.0
  C  C65  1  0.48783000  0.38543000  0.49421000  1.0
  C  C66  1  0.10298000  0.98039000  0.00932000  1.0
  C  C67  1  0.00755000  0.51903000  0.37912000  1.0
  C  C68  1  0.87899000  0.88895000  0.60108000  1.0
  C  C69  1  0.51217000  0.61457000  0.50580000  1.0
  C  C70  1  0.89702000  0.01961000  0.99067000  1.0
  C  C71  1  0.99245000  0.48097000  0.62087000  1.0
  C  C72  1  0.06104000  0.19856000  0.30930000  1.0
  C  C73  1  0.49194000  0.29993000  0.64021000  1.0
  C  C74  1  0.19141000  0.12862000  0.00816000  1.0
  C  C75  1  0.86199000  0.37096000  0.43854000  1.0
  C  C76  1  0.93896000  0.80143000  0.69071000  1.0
  C  C77  1  0.50806000  0.70008000  0.35979000  1.0
  C  C78  1  0.80859000  0.87139000  0.99184000  1.0
  C  C79  1  0.13801000  0.62904000  0.56146000  1.0
  C  C80  1  0.02485000  0.24143000  0.23071000  1.0
  C  C81  1  0.52891000  0.25830000  0.71844000  1.0
  C  C82  1  0.26883000  0.24222000  0.97331000  1.0
  C  C83  1  0.78429000  0.25721000  0.47402000  1.0
  C  C84  1  0.97515000  0.75857000  0.76929000  1.0
  C  C85  1  0.47110000  0.74171000  0.28154000  1.0
  C  C86  1  0.73117000  0.75779000  0.02669000  1.0
  C  C87  1  0.21571000  0.74278000  0.52598000  1.0
  C  C88  1  0.16707000  0.04214000  0.43438000  1.0
  C  C89  1  0.52068000  0.45358000  0.38034000  1.0
  C  C90  1  0.06761000  0.89921000  0.97587000  1.0
  C  C91  1  0.12137000  0.59916000  0.33340000  1.0
  C  C92  1  0.83292000  0.95785000  0.56563000  1.0
  C  C93  1  0.47932000  0.54642000  0.61967000  1.0
  C  C94  1  0.93239000  0.10080000  0.02413000  1.0
  C  C95  1  0.87863000  0.40084000  0.66659000  1.0
  I  I96  1  0.24739000  0.42659000  0.41212000  1.0
  I  I97  1  0.16089000  0.07015000  0.68187000  1.0
  I  I98  1  0.08939000  0.84041000  0.33875000  1.0
  I  I99  1  0.82089000  0.66137000  0.24945000  1.0
  I  I100  1  0.75261000  0.57342000  0.58788000  1.0
  I  I101  1  0.83911000  0.92985000  0.31813000  1.0
  I  I102  1  0.91062000  0.15959000  0.66125000  1.0
  I  I103  1  0.17911000  0.33863000  0.75055000  1.0
  N  N104  1  0.10209000  0.17029000  0.44030000  1.0
  N  N105  1  0.38815000  0.32588000  0.57098000  1.0
  N  N106  1  0.06233000  0.95866000  0.10915000  1.0
  N  N107  1  0.92972000  0.54196000  0.39774000  1.0
  N  N108  1  0.89790000  0.82971000  0.55971000  1.0
  N  N109  1  0.61185000  0.67412000  0.42901000  1.0
  N  N110  1  0.93767000  0.04134000  0.89085000  1.0
  N  N111  1  0.07028000  0.45804000  0.60226000  1.0
  N  N112  1  0.09516000  0.12564000  0.31735000  1.0
  N  N113  1  0.55537000  0.37228000  0.53468000  1.0
  N  N114  1  0.18343000  0.08651000  0.94338000  1.0
  N  N115  1  0.96808000  0.41225000  0.40493000  1.0
  N  N116  1  0.90484000  0.87435000  0.68266000  1.0
  N  N117  1  0.44464000  0.62772000  0.46531000  1.0
  N  N118  1  0.81657000  0.91349000  0.05662000  1.0
  N  N119  1  0.03192000  0.58775000  0.59507000  1.0
  N  N120  1  0.06466000  0.22655000  0.38261000  1.0
  N  N121  1  0.39083000  0.27086000  0.66387000  1.0
  N  N122  1  0.11928000  0.05302000  0.10833000  1.0
  N  N123  1  0.83710000  0.44770000  0.43500000  1.0
  N  N124  1  0.93534000  0.77345000  0.61739000  1.0
  N  N125  1  0.60916000  0.72913000  0.33613000  1.0
  N  N126  1  0.88072000  0.94698000  0.89167000  1.0
  N  N127  1  0.16290000  0.55230000  0.56499000  1.0
