# generated using pymatgen
data_ZnHC4O3
_symmetry_space_group_name_H-M   'P 1'
_cell_length_a   6.66841000
_cell_length_b   15.17700000
_cell_length_c   15.17770000
_cell_angle_alpha   117.88600000
_cell_angle_beta   98.42530000
_cell_angle_gamma   98.41420000
_symmetry_Int_Tables_number   1
_chemical_formula_structural   ZnHC4O3
_chemical_formula_sum   'Zn6 H6 C24 O18'
_cell_volume   1301.87593776
_cell_formula_units_Z   6
loop_
 _symmetry_equiv_pos_site_id
 _symmetry_equiv_pos_as_xyz
  1  'x, y, z'
loop_
 _atom_site_type_symbol
 _atom_site_label
 _atom_site_symmetry_multiplicity
 _atom_site_fract_x
 _atom_site_fract_y
 _atom_site_fract_z
 _atom_site_occupancy
  Zn  Zn0  1  0.03559000  0.41032000  0.73586000  1.0
  Zn  Zn1  1  0.62529000  0.32549000  0.58965000  1.0
  Zn  Zn2  1  0.29970000  0.26411000  0.67448000  1.0
  Zn  Zn3  1  0.96441000  0.58968000  0.26414000  1.0
  Zn  Zn4  1  0.37471000  0.67451000  0.41035000  1.0
  Zn  Zn5  1  0.70030000  0.73589000  0.32552000  1.0
  H  H6  1  0.31339000  0.46021000  0.43650000  1.0
  H  H7  1  0.85317000  0.97632000  0.53991000  1.0
  H  H8  1  0.87682000  0.56359000  0.02364000  1.0
  H  H9  1  0.68662000  0.53980000  0.56350000  1.0
  H  H10  1  0.14683000  0.02368000  0.46009000  1.0
  H  H11  1  0.12318000  0.43641000  0.97636000  1.0
  C  C12  1  0.27135000  0.40188000  0.57089000  1.0
  C  C13  1  0.86934000  0.16894000  0.59810000  1.0
  C  C14  1  0.70036000  0.42913000  0.83100000  1.0
  C  C15  1  0.72865000  0.59812000  0.42911000  1.0
  C  C16  1  0.13066000  0.83106000  0.40190000  1.0
  C  C17  1  0.29964000  0.57087000  0.16900000  1.0
  C  C18  1  0.12578000  0.45094000  0.53663000  1.0
  C  C19  1  0.67472000  0.08567000  0.54907000  1.0
  C  C20  1  0.58908000  0.46339000  0.91432000  1.0
  C  C21  1  0.87422000  0.54906000  0.46337000  1.0
  C  C22  1  0.32528000  0.91433000  0.45093000  1.0
  C  C23  1  0.41092000  0.53661000  0.08568000  1.0
  C  C24  1  0.94338000  0.47266000  0.57338000  1.0
  C  C25  1  0.47064000  0.10070000  0.52729000  1.0
  C  C26  1  0.36998000  0.42660000  0.89931000  1.0
  C  C27  1  0.05662000  0.52734000  0.42662000  1.0
  C  C28  1  0.52936000  0.89930000  0.47271000  1.0
  C  C29  1  0.63002000  0.57340000  0.10069000  1.0
  C  C30  1  0.17494000  0.47791000  0.46429000  1.0
  C  C31  1  0.69703000  0.98640000  0.52219000  1.0
  C  C32  1  0.71063000  0.53578000  0.01360000  1.0
  C  C33  1  0.82506000  0.52209000  0.53571000  1.0
  C  C34  1  0.30297000  0.01360000  0.47781000  1.0
  C  C35  1  0.28938000  0.46423000  0.98640000  1.0
  O  O36  1  0.25799000  0.39125000  0.64973000  1.0
  O  O37  1  0.86666000  0.25840000  0.60867000  1.0
  O  O38  1  0.60821000  0.35026000  0.74156000  1.0
  O  O39  1  0.74201000  0.60875000  0.35027000  1.0
  O  O40  1  0.13333000  0.74160000  0.39133000  1.0
  O  O41  1  0.39179000  0.64974000  0.25844000  1.0
  O  O42  1  0.41322000  0.37278000  0.52387000  1.0
  O  O43  1  0.04031000  0.15101000  0.62720000  1.0
  O  O44  1  0.88924000  0.47616000  0.84891000  1.0
  O  O45  1  0.58678000  0.62722000  0.47613000  1.0
  O  O46  1  0.95969000  0.84899000  0.37280000  1.0
  O  O47  1  0.11076000  0.52384000  0.15109000  1.0
  O  O48  1  0.87414000  0.44766000  0.64036000  1.0
  O  O49  1  0.42631000  0.19269000  0.55230000  1.0
  O  O50  1  0.23373000  0.35961000  0.80732000  1.0
  O  O51  1  0.12586000  0.55234000  0.35964000  1.0
  O  O52  1  0.57369000  0.80731000  0.44770000  1.0
  O  O53  1  0.76627000  0.64039000  0.19268000  1.0
