# generated using pymatgen
data_CsH2C3(SN)3
_symmetry_space_group_name_H-M   'P 1'
_cell_length_a   5.03155000
_cell_length_b   8.02270000
_cell_length_c   10.87130000
_cell_angle_alpha   96.98490000
_cell_angle_beta   102.35000000
_cell_angle_gamma   103.97400000
_symmetry_Int_Tables_number   1
_chemical_formula_structural   CsH2C3(SN)3
_chemical_formula_sum   'Cs2 H4 C6 S6 N6'
_cell_volume   408.98875341
_cell_formula_units_Z   2
loop_
 _symmetry_equiv_pos_site_id
 _symmetry_equiv_pos_as_xyz
  1  'x, y, z'
loop_
 _atom_site_type_symbol
 _atom_site_label
 _atom_site_symmetry_multiplicity
 _atom_site_fract_x
 _atom_site_fract_y
 _atom_site_fract_z
 _atom_site_occupancy
  Cs  Cs0  1  0.35500000  0.21686000  0.42365000  1.0
  Cs  Cs1  1  0.64500000  0.78314000  0.57636000  1.0
  H  H2  1  0.31358000  0.45736000  0.88138000  1.0
  H  H3  1  0.68642000  0.54264000  0.11863000  1.0
  H  H4  1  0.73950000  0.12137000  0.01693000  1.0
  H  H5  1  0.26050000  0.87863000  0.98307000  1.0
  C  C6  1  0.93913000  0.32039000  0.74532000  1.0
  C  C7  1  0.06087000  0.67961000  0.25468000  1.0
  C  C8  1  0.61567000  0.12660000  0.82079000  1.0
  C  C9  1  0.38433000  0.87340000  0.17921000  1.0
  C  C10  1  0.06075000  0.29246000  0.96782000  1.0
  C  C11  1  0.93925000  0.70754000  0.03218000  1.0
  S  S12  1  0.03616000  0.42732000  0.63058000  1.0
  S  S13  1  0.96384000  0.57268000  0.36941000  1.0
  S  S14  1  0.30691000  0.97292000  0.80059000  1.0
  S  S15  1  0.69309000  0.02708000  0.19941000  1.0
  S  S16  1  0.29083000  0.33963000  0.11080000  1.0
  S  S17  1  0.70917000  0.66037000  0.88920000  1.0
  N  N18  1  0.12035000  0.36429000  0.86622000  1.0
  N  N19  1  0.87965000  0.63571000  0.13378000  1.0
  N  N20  1  0.69065000  0.19625000  0.72221000  1.0
  N  N21  1  0.30935000  0.80375000  0.27779000  1.0
  N  N22  1  0.79788000  0.17848000  0.94213000  1.0
  N  N23  1  0.20212000  0.82152000  0.05787000  1.0
