# generated using pymatgen
data_Cd2B2H48C55N6(O2F)4
_symmetry_space_group_name_H-M   'P 1'
_cell_length_a   13.86640000
_cell_length_b   19.72750000
_cell_length_c   21.26690000
_cell_angle_alpha   90.00020000
_cell_angle_beta   90.00030000
_cell_angle_gamma   97.43780000
_symmetry_Int_Tables_number   1
_chemical_formula_structural   Cd2B2H48C55N6(O2F)4
_chemical_formula_sum   'Cd8 B8 H192 C220 N24 O32 F16'
_cell_volume   5768.59887316
_cell_formula_units_Z   4
loop_
 _symmetry_equiv_pos_site_id
 _symmetry_equiv_pos_as_xyz
  1  'x, y, z'
loop_
 _atom_site_type_symbol
 _atom_site_label
 _atom_site_symmetry_multiplicity
 _atom_site_fract_x
 _atom_site_fract_y
 _atom_site_fract_z
 _atom_site_occupancy
  Cd  Cd0  1  0.49877000  0.40013000  0.09452000  1.0
  Cd  Cd1  1  0.30141000  0.51254000  0.97809000  1.0
  Cd  Cd2  1  0.00126000  0.09988000  0.59453000  1.0
  Cd  Cd3  1  0.19859000  0.98746000  0.47808000  1.0
  Cd  Cd4  1  0.50124000  0.59987000  0.90549000  1.0
  Cd  Cd5  1  0.69860000  0.48747000  0.02192000  1.0
  Cd  Cd6  1  0.99877000  0.90014000  0.40548000  1.0
  Cd  Cd7  1  0.80140000  0.01253000  0.52193000  1.0
  B  B8  1  0.16371000  0.15773000  0.14369000  1.0
  B  B9  1  0.63285000  0.14714000  0.84795000  1.0
  B  B10  1  0.33628000  0.34227000  0.64368000  1.0
  B  B11  1  0.86716000  0.35286000  0.34795000  1.0
  B  B12  1  0.83629000  0.84226000  0.85631000  1.0
  B  B13  1  0.36715000  0.85286000  0.15205000  1.0
  B  B14  1  0.66371000  0.65774000  0.35631000  1.0
  B  B15  1  0.13285000  0.64714000  0.65205000  1.0
  H  H16  1  0.54766000  0.32572000  0.68459000  1.0
  H  H17  1  0.58469000  0.42918000  0.61938000  1.0
  H  H18  1  0.74566000  0.50163000  0.62890000  1.0
  H  H19  1  0.86874000  0.46976000  0.70461000  1.0
  H  H20  1  0.82979000  0.36482000  0.77040000  1.0
  H  H21  1  0.59665000  0.97247000  0.45319000  1.0
  H  H22  1  0.45539000  0.02488000  0.41090000  1.0
  H  H23  1  0.62405000  0.22264000  0.44053000  1.0
  H  H24  1  0.75640000  0.16157000  0.48324000  1.0
  H  H25  1  0.38645000  0.15833000  0.43229000  1.0
  H  H26  1  0.46859000  0.21817000  0.39056000  1.0
  H  H27  1  0.34290000  0.15721000  0.31904000  1.0
  H  H28  1  0.37040000  0.07771000  0.34516000  1.0
  H  H29  1  0.46058000  0.08411000  0.25334000  1.0
  H  H30  1  0.54943000  0.12417000  0.30484000  1.0
  H  H31  1  0.58177000  0.26034000  0.30122000  1.0
  H  H32  1  0.57545000  0.36093000  0.23042000  1.0
  H  H33  1  0.40610000  0.24440000  0.10029000  1.0
  H  H34  1  0.39640000  0.14038000  0.16746000  1.0
  H  H35  1  0.13642000  0.20408000  0.02043000  1.0
  H  H36  1  0.26419000  0.21324000  0.01184000  1.0
  H  H37  1  0.20010000  0.28099000  0.98786000  1.0
  H  H38  1  0.36021000  0.40949000  0.22409000  1.0
  H  H39  1  0.23829000  0.41625000  0.24393000  1.0
  H  H40  1  0.29021000  0.45428000  0.17348000  1.0
  H  H41  1  0.08318000  0.32075000  0.32229000  1.0
  H  H42  1  0.12295000  0.39414000  0.41493000  1.0
  H  H43  1  0.29363000  0.41438000  0.45549000  1.0
  H  H44  1  0.42509000  0.36542000  0.39782000  1.0
  H  H45  1  0.38483000  0.29283000  0.30358000  1.0
  H  H46  1  0.24063000  0.20750000  0.39016000  1.0
  H  H47  1  0.16840000  0.13274000  0.42021000  1.0
  H  H48  1  0.11523000  0.20701000  0.40138000  1.0
  H  H49  1  0.09948000  0.02813000  0.14768000  1.0
  H  H50  1  0.00278000  0.00329000  0.20209000  1.0
  H  H51  1  0.11494000  0.97308000  0.21307000  1.0
  H  H52  1  0.47165000  0.17866000  0.98250000  1.0
  H  H53  1  0.58179000  0.20684000  0.02024000  1.0
  H  H54  1  0.57624000  0.13741000  0.96529000  1.0
  H  H55  1  0.70113000  0.42848000  0.84667000  1.0
  H  H56  1  0.59058000  0.43961000  0.88473000  1.0
  H  H57  1  0.59247000  0.41797000  0.80301000  1.0
  H  H58  1  0.71176000  0.02501000  0.81194000  1.0
  H  H59  1  0.70616000  0.99462000  0.73207000  1.0
  H  H60  1  0.59899000  0.00984000  0.77334000  1.0
  H  H61  1  0.70500000  0.27855000  0.61891000  1.0
  H  H62  1  0.77718000  0.21563000  0.59063000  1.0
  H  H63  1  0.82450000  0.27788000  0.64653000  1.0
  H  H64  1  0.95233000  0.17427000  0.18459000  1.0
  H  H65  1  0.91529000  0.07080000  0.11938000  1.0
  H  H66  1  0.75432000  0.99836000  0.12892000  1.0
  H  H67  1  0.63125000  0.03024000  0.20463000  1.0
  H  H68  1  0.67022000  0.13518000  0.27041000  1.0
  H  H69  1  0.90334000  0.52753000  0.95319000  1.0
  H  H70  1  0.04460000  0.47512000  0.91089000  1.0
  H  H71  1  0.87596000  0.27735000  0.94053000  1.0
  H  H72  1  0.74360000  0.33843000  0.98325000  1.0
  H  H73  1  0.11355000  0.34166000  0.93229000  1.0
  H  H74  1  0.03140000  0.28183000  0.89056000  1.0
  H  H75  1  0.15710000  0.34279000  0.81904000  1.0
  H  H76  1  0.12959000  0.42228000  0.84516000  1.0
  H  H77  1  0.03942000  0.41589000  0.75334000  1.0
  H  H78  1  0.95057000  0.37582000  0.80484000  1.0
  H  H79  1  0.91824000  0.23965000  0.80122000  1.0
  H  H80  1  0.92456000  0.13907000  0.73042000  1.0
  H  H81  1  0.09389000  0.25560000  0.60029000  1.0
  H  H82  1  0.10359000  0.35962000  0.66746000  1.0
  H  H83  1  0.36358000  0.29592000  0.52043000  1.0
  H  H84  1  0.23581000  0.28676000  0.51184000  1.0
  H  H85  1  0.29989000  0.21900000  0.48785000  1.0
  H  H86  1  0.13979000  0.09051000  0.72409000  1.0
  H  H87  1  0.26171000  0.08375000  0.74394000  1.0
  H  H88  1  0.20979000  0.04572000  0.67348000  1.0
  H  H89  1  0.41683000  0.17925000  0.82229000  1.0
  H  H90  1  0.37706000  0.10586000  0.91493000  1.0
  H  H91  1  0.20638000  0.08562000  0.95548000  1.0
  H  H92  1  0.07491000  0.13458000  0.89781000  1.0
  H  H93  1  0.11517000  0.20716000  0.80358000  1.0
  H  H94  1  0.25938000  0.29251000  0.89016000  1.0
  H  H95  1  0.33161000  0.36727000  0.92020000  1.0
  H  H96  1  0.38478000  0.29300000  0.90137000  1.0
  H  H97  1  0.40052000  0.47187000  0.64768000  1.0
  H  H98  1  0.49722000  0.49671000  0.70208000  1.0
  H  H99  1  0.38506000  0.52692000  0.71306000  1.0
  H  H100  1  0.02836000  0.32134000  0.48250000  1.0
  H  H101  1  0.91822000  0.29317000  0.52024000  1.0
  H  H102  1  0.92376000  0.36259000  0.46529000  1.0
  H  H103  1  0.79887000  0.07152000  0.34667000  1.0
  H  H104  1  0.90942000  0.06040000  0.38473000  1.0
  H  H105  1  0.90754000  0.08203000  0.30302000  1.0
  H  H106  1  0.78824000  0.47498000  0.31194000  1.0
  H  H107  1  0.79385000  0.50537000  0.23207000  1.0
  H  H108  1  0.90102000  0.49016000  0.27334000  1.0
  H  H109  1  0.79502000  0.22145000  0.11891000  1.0
  H  H110  1  0.72281000  0.28436000  0.09063000  1.0
  H  H111  1  0.67551000  0.22211000  0.14653000  1.0
  H  H112  1  0.45233000  0.67427000  0.31541000  1.0
  H  H113  1  0.41530000  0.57082000  0.38062000  1.0
  H  H114  1  0.25434000  0.49837000  0.37110000  1.0
  H  H115  1  0.13125000  0.53025000  0.29539000  1.0
  H  H116  1  0.17021000  0.63518000  0.22960000  1.0
  H  H117  1  0.40335000  0.02753000  0.54681000  1.0
  H  H118  1  0.54461000  0.97511000  0.58910000  1.0
  H  H119  1  0.37595000  0.77735000  0.55947000  1.0
  H  H120  1  0.24360000  0.83843000  0.51676000  1.0
  H  H121  1  0.61355000  0.84166000  0.56771000  1.0
  H  H122  1  0.53140000  0.78183000  0.60944000  1.0
  H  H123  1  0.65710000  0.84279000  0.68096000  1.0
  H  H124  1  0.62959000  0.92228000  0.65483000  1.0
  H  H125  1  0.53942000  0.91590000  0.74665000  1.0
  H  H126  1  0.45057000  0.87582000  0.69515000  1.0
  H  H127  1  0.41824000  0.73965000  0.69878000  1.0
  H  H128  1  0.42456000  0.63907000  0.76958000  1.0
  H  H129  1  0.59389000  0.75561000  0.89972000  1.0
  H  H130  1  0.60359000  0.85962000  0.83255000  1.0
  H  H131  1  0.86358000  0.79592000  0.97957000  1.0
  H  H132  1  0.73581000  0.78676000  0.98815000  1.0
  H  H133  1  0.79989000  0.71900000  0.01214000  1.0
  H  H134  1  0.63979000  0.59051000  0.77591000  1.0
  H  H135  1  0.76172000  0.58375000  0.75606000  1.0
  H  H136  1  0.70979000  0.54572000  0.82652000  1.0
  H  H137  1  0.91682000  0.67925000  0.67771000  1.0
  H  H138  1  0.87706000  0.60585000  0.58507000  1.0
  H  H139  1  0.70638000  0.58562000  0.54452000  1.0
  H  H140  1  0.57491000  0.63458000  0.60218000  1.0
  H  H141  1  0.61517000  0.70717000  0.69641000  1.0
  H  H142  1  0.75938000  0.79251000  0.60984000  1.0
  H  H143  1  0.83161000  0.86727000  0.57980000  1.0
  H  H144  1  0.88477000  0.79300000  0.59863000  1.0
  H  H145  1  0.90053000  0.97187000  0.85233000  1.0
  H  H146  1  0.99722000  0.99671000  0.79791000  1.0
  H  H147  1  0.88506000  0.02691000  0.78694000  1.0
  H  H148  1  0.52835000  0.82134000  0.01750000  1.0
  H  H149  1  0.41821000  0.79317000  0.97976000  1.0
  H  H150  1  0.42375000  0.86259000  0.03471000  1.0
  H  H151  1  0.29887000  0.57152000  0.15334000  1.0
  H  H152  1  0.40942000  0.56040000  0.11527000  1.0
  H  H153  1  0.40754000  0.58203000  0.19699000  1.0
  H  H154  1  0.28824000  0.97499000  0.18806000  1.0
  H  H155  1  0.29384000  0.00538000  0.26793000  1.0
  H  H156  1  0.40102000  0.99016000  0.22667000  1.0
  H  H157  1  0.29500000  0.72145000  0.38109000  1.0
  H  H158  1  0.22282000  0.78436000  0.40937000  1.0
  H  H159  1  0.17550000  0.72211000  0.35347000  1.0
  H  H160  1  0.04767000  0.82573000  0.81541000  1.0
  H  H161  1  0.08471000  0.92920000  0.88061000  1.0
  H  H162  1  0.24567000  0.00164000  0.87108000  1.0
  H  H163  1  0.36875000  0.96976000  0.79538000  1.0
  H  H164  1  0.32978000  0.86482000  0.72959000  1.0
  H  H165  1  0.09665000  0.47247000  0.04680000  1.0
  H  H166  1  0.95539000  0.52488000  0.08910000  1.0
  H  H167  1  0.12404000  0.72264000  0.05947000  1.0
  H  H168  1  0.25640000  0.66157000  0.01675000  1.0
  H  H169  1  0.88644000  0.65833000  0.06770000  1.0
  H  H170  1  0.96859000  0.71816000  0.10943000  1.0
  H  H171  1  0.84289000  0.65721000  0.18096000  1.0
  H  H172  1  0.87041000  0.57771000  0.15484000  1.0
  H  H173  1  0.96058000  0.58410000  0.24666000  1.0
  H  H174  1  0.04944000  0.62417000  0.19516000  1.0
  H  H175  1  0.08176000  0.76035000  0.19878000  1.0
  H  H176  1  0.07544000  0.86093000  0.26958000  1.0
  H  H177  1  0.90611000  0.74439000  0.39971000  1.0
  H  H178  1  0.89641000  0.64038000  0.33254000  1.0
  H  H179  1  0.63642000  0.70408000  0.47957000  1.0
  H  H180  1  0.76419000  0.71324000  0.48816000  1.0
  H  H181  1  0.70011000  0.78100000  0.51214000  1.0
  H  H182  1  0.86021000  0.90949000  0.27591000  1.0
  H  H183  1  0.73828000  0.91625000  0.25607000  1.0
  H  H184  1  0.79021000  0.95428000  0.32652000  1.0
  H  H185  1  0.58317000  0.82075000  0.17771000  1.0
  H  H186  1  0.62294000  0.89415000  0.08507000  1.0
  H  H187  1  0.79363000  0.91438000  0.04452000  1.0
  H  H188  1  0.92509000  0.86542000  0.10218000  1.0
  H  H189  1  0.88483000  0.79284000  0.19642000  1.0
  H  H190  1  0.74062000  0.70750000  0.10984000  1.0
  H  H191  1  0.66840000  0.63273000  0.07980000  1.0
  H  H192  1  0.61523000  0.70701000  0.09863000  1.0
  H  H193  1  0.59948000  0.52813000  0.35232000  1.0
  H  H194  1  0.50278000  0.50329000  0.29791000  1.0
  H  H195  1  0.61494000  0.47309000  0.28693000  1.0
  H  H196  1  0.97164000  0.67866000  0.51750000  1.0
  H  H197  1  0.08178000  0.70684000  0.47976000  1.0
  H  H198  1  0.07624000  0.63742000  0.53471000  1.0
  H  H199  1  0.20114000  0.92848000  0.65333000  1.0
  H  H200  1  0.09058000  0.93961000  0.61527000  1.0
  H  H201  1  0.09246000  0.91797000  0.69699000  1.0
  H  H202  1  0.21175000  0.52501000  0.68806000  1.0
  H  H203  1  0.20615000  0.49463000  0.76793000  1.0
  H  H204  1  0.09898000  0.50984000  0.72667000  1.0
  H  H205  1  0.20500000  0.77856000  0.88109000  1.0
  H  H206  1  0.27718000  0.71564000  0.90937000  1.0
  H  H207  1  0.32450000  0.77789000  0.85347000  1.0
  C  C208  1  0.68741000  0.33865000  0.73148000  1.0
  C  C209  1  0.61794000  0.35709000  0.68923000  1.0
  C  C210  1  0.63922000  0.41566000  0.65235000  1.0
  C  C211  1  0.72942000  0.45592000  0.65754000  1.0
  C  C212  1  0.79848000  0.43809000  0.70015000  1.0
  C  C213  1  0.77711000  0.37960000  0.73693000  1.0
  C  C214  1  0.59923000  0.02780000  0.44927000  1.0
  C  C215  1  0.52103000  0.05750000  0.42592000  1.0
  C  C216  1  0.52737000  0.12904000  0.42219000  1.0
  C  C217  1  0.61413000  0.16689000  0.44274000  1.0
  C  C218  1  0.68870000  0.13333000  0.46629000  1.0
  C  C219  1  0.44458000  0.16315000  0.39664000  1.0
  C  C220  1  0.40273000  0.13039000  0.33540000  1.0
  C  C221  1  0.47925000  0.12952000  0.28279000  1.0
  C  C222  1  0.48749000  0.19125000  0.24107000  1.0
  C  C223  1  0.53965000  0.25443000  0.25779000  1.0
  C  C224  1  0.53763000  0.31068000  0.21844000  1.0
  C  C225  1  0.44161000  0.24584000  0.14601000  1.0
  C  C226  1  0.43826000  0.18788000  0.18338000  1.0
  C  C227  1  0.27482000  0.39689000  0.05665000  1.0
  C  C228  1  0.25082000  0.34058000  0.10223000  1.0
  C  C229  1  0.21486000  0.27197000  0.08649000  1.0
  C  C230  1  0.20248000  0.24100000  0.02310000  1.0
  C  C231  1  0.25526000  0.34588000  0.16819000  1.0
  C  C232  1  0.22109000  0.27906000  0.19165000  1.0
  C  C233  1  0.28687000  0.40968000  0.20437000  1.0
  C  C234  1  0.20726000  0.25411000  0.25321000  1.0
  C  C235  1  0.23135000  0.30087000  0.30747000  1.0
  C  C236  1  0.15809000  0.33013000  0.33883000  1.0
  C  C237  1  0.18077000  0.37132000  0.39150000  1.0
  C  C238  1  0.27644000  0.38333000  0.41352000  1.0
  C  C239  1  0.35002000  0.35555000  0.38145000  1.0
  C  C240  1  0.32764000  0.31476000  0.32851000  1.0
  C  C241  1  0.17121000  0.18526000  0.26445000  1.0
  C  C242  1  0.15265000  0.14831000  0.32202000  1.0
  C  C243  1  0.17051000  0.17501000  0.38693000  1.0
  C  C244  1  0.11618000  0.08081000  0.30496000  1.0
  C  C245  1  0.11410000  0.07740000  0.23781000  1.0
  C  C246  1  0.08175000  0.01756000  0.19711000  1.0
  C  C247  1  0.08222000  0.02270000  0.34659000  1.0
  C  C248  1  0.53741000  0.34547000  0.97923000  1.0
  C  C249  1  0.57294000  0.30881000  0.92519000  1.0
  C  C250  1  0.57661000  0.23682000  0.92429000  1.0
  C  C251  1  0.55083000  0.18647000  0.97551000  1.0
  C  C252  1  0.60929000  0.33586000  0.86735000  1.0
  C  C253  1  0.62311000  0.40940000  0.84939000  1.0
  C  C254  1  0.63241000  0.27896000  0.83132000  1.0
  C  C255  1  0.68619000  0.21294000  0.74373000  1.0
  C  C256  1  0.68758000  0.09949000  0.74244000  1.0
  C  C257  1  0.67646000  0.02807000  0.76599000  1.0
  C  C258  1  0.72226000  0.12519000  0.68293000  1.0
  C  C259  1  0.74904000  0.08316000  0.62951000  1.0
  C  C260  1  0.72334000  0.19664000  0.68350000  1.0
  C  C261  1  0.75850000  0.24462000  0.63172000  1.0
  C  C262  1  0.66805000  0.27536000  0.76979000  1.0
  C  C263  1  0.81259000  0.16135000  0.23149000  1.0
  C  C264  1  0.88205000  0.14291000  0.18923000  1.0
  C  C265  1  0.86077000  0.08433000  0.15235000  1.0
  C  C266  1  0.77056000  0.04407000  0.15755000  1.0
  C  C267  1  0.70151000  0.06191000  0.20017000  1.0
  C  C268  1  0.72289000  0.12040000  0.23694000  1.0
  C  C269  1  0.90077000  0.47220000  0.94927000  1.0
  C  C270  1  0.97896000  0.44249000  0.92592000  1.0
  C  C271  1  0.97263000  0.37096000  0.92219000  1.0
  C  C272  1  0.88587000  0.33311000  0.94274000  1.0
  C  C273  1  0.81129000  0.36667000  0.96629000  1.0
  C  C274  1  0.05541000  0.33685000  0.89663000  1.0
  C  C275  1  0.09727000  0.36960000  0.83540000  1.0
  C  C276  1  0.02075000  0.37048000  0.78279000  1.0
  C  C277  1  0.01251000  0.30875000  0.74107000  1.0
  C  C278  1  0.96035000  0.24556000  0.75779000  1.0
  C  C279  1  0.96238000  0.18932000  0.71844000  1.0
  C  C280  1  0.05839000  0.25416000  0.64600000  1.0
  C  C281  1  0.06173000  0.31212000  0.68337000  1.0
  C  C282  1  0.22518000  0.10311000  0.55665000  1.0
  C  C283  1  0.24918000  0.15942000  0.60223000  1.0
  C  C284  1  0.28513000  0.22802000  0.58649000  1.0
  C  C285  1  0.29751000  0.25900000  0.52310000  1.0
  C  C286  1  0.24474000  0.15411000  0.66819000  1.0
  C  C287  1  0.27891000  0.22094000  0.69165000  1.0
  C  C288  1  0.21313000  0.09032000  0.70438000  1.0
  C  C289  1  0.29275000  0.24589000  0.75321000  1.0
  C  C290  1  0.26865000  0.19913000  0.80747000  1.0
  C  C291  1  0.34192000  0.16987000  0.83883000  1.0
  C  C292  1  0.31923000  0.12868000  0.89150000  1.0
  C  C293  1  0.22356000  0.11666000  0.91352000  1.0
  C  C294  1  0.14999000  0.14444000  0.88144000  1.0
  C  C295  1  0.17236000  0.18524000  0.82851000  1.0
  C  C296  1  0.32880000  0.31474000  0.76444000  1.0
  C  C297  1  0.34736000  0.35170000  0.82202000  1.0
  C  C298  1  0.32949000  0.32500000  0.88693000  1.0
  C  C299  1  0.38382000  0.41920000  0.80496000  1.0
  C  C300  1  0.38589000  0.42260000  0.73781000  1.0
  C  C301  1  0.41825000  0.48244000  0.69710000  1.0
  C  C302  1  0.41779000  0.47731000  0.84659000  1.0
  C  C303  1  0.96260000  0.15453000  0.47924000  1.0
  C  C304  1  0.92707000  0.19119000  0.42519000  1.0
  C  C305  1  0.92340000  0.26319000  0.42429000  1.0
  C  C306  1  0.94918000  0.31353000  0.47551000  1.0
  C  C307  1  0.89072000  0.16414000  0.36736000  1.0
  C  C308  1  0.87690000  0.09061000  0.34939000  1.0
  C  C309  1  0.86760000  0.22104000  0.33132000  1.0
  C  C310  1  0.81381000  0.28706000  0.24373000  1.0
  C  C311  1  0.81243000  0.40051000  0.24244000  1.0
  C  C312  1  0.82354000  0.47192000  0.26599000  1.0
  C  C313  1  0.77774000  0.37481000  0.18293000  1.0
  C  C314  1  0.75096000  0.41684000  0.12952000  1.0
  C  C315  1  0.77667000  0.30336000  0.18350000  1.0
  C  C316  1  0.74151000  0.25538000  0.13172000  1.0
  C  C317  1  0.83195000  0.22464000  0.26979000  1.0
  C  C318  1  0.31259000  0.66135000  0.26852000  1.0
  C  C319  1  0.38205000  0.64291000  0.31077000  1.0
  C  C320  1  0.36078000  0.58434000  0.34765000  1.0
  C  C321  1  0.27057000  0.54408000  0.34246000  1.0
  C  C322  1  0.20152000  0.56191000  0.29984000  1.0
  C  C323  1  0.22289000  0.62040000  0.26307000  1.0
  C  C324  1  0.40077000  0.97220000  0.55073000  1.0
  C  C325  1  0.47897000  0.94249000  0.57408000  1.0
  C  C326  1  0.47263000  0.87096000  0.57781000  1.0
  C  C327  1  0.38587000  0.83311000  0.55726000  1.0
  C  C328  1  0.31129000  0.86667000  0.53371000  1.0
  C  C329  1  0.55541000  0.83685000  0.60336000  1.0
  C  C330  1  0.59727000  0.86960000  0.66460000  1.0
  C  C331  1  0.52075000  0.87048000  0.71721000  1.0
  C  C332  1  0.51250000  0.80876000  0.75893000  1.0
  C  C333  1  0.46035000  0.74557000  0.74221000  1.0
  C  C334  1  0.46238000  0.68933000  0.78156000  1.0
  C  C335  1  0.55839000  0.75417000  0.85400000  1.0
  C  C336  1  0.56174000  0.81213000  0.81663000  1.0
  C  C337  1  0.72517000  0.60311000  0.94335000  1.0
  C  C338  1  0.74918000  0.65941000  0.89777000  1.0
  C  C339  1  0.78513000  0.72802000  0.91351000  1.0
  C  C340  1  0.79751000  0.75900000  0.97690000  1.0
  C  C341  1  0.74474000  0.65411000  0.83180000  1.0
  C  C342  1  0.77891000  0.72094000  0.80834000  1.0
  C  C343  1  0.71313000  0.59032000  0.79562000  1.0
  C  C344  1  0.79274000  0.74589000  0.74679000  1.0
  C  C345  1  0.76865000  0.69913000  0.69253000  1.0
  C  C346  1  0.84192000  0.66987000  0.66117000  1.0
  C  C347  1  0.81923000  0.62868000  0.60849000  1.0
  C  C348  1  0.72356000  0.61667000  0.58648000  1.0
  C  C349  1  0.64999000  0.64445000  0.61855000  1.0
  C  C350  1  0.67236000  0.68524000  0.67149000  1.0
  C  C351  1  0.82879000  0.81474000  0.73555000  1.0
  C  C352  1  0.84736000  0.85169000  0.67798000  1.0
  C  C353  1  0.82949000  0.82500000  0.61307000  1.0
  C  C354  1  0.88382000  0.91919000  0.69504000  1.0
  C  C355  1  0.88590000  0.92260000  0.76219000  1.0
  C  C356  1  0.91826000  0.98243000  0.80290000  1.0
  C  C357  1  0.91779000  0.97730000  0.65341000  1.0
  C  C358  1  0.46259000  0.65453000  0.02077000  1.0
  C  C359  1  0.42706000  0.69119000  0.07481000  1.0
  C  C360  1  0.42339000  0.76318000  0.07571000  1.0
  C  C361  1  0.44917000  0.81353000  0.02449000  1.0
  C  C362  1  0.39070000  0.66414000  0.13265000  1.0
  C  C363  1  0.37689000  0.59060000  0.15061000  1.0
  C  C364  1  0.36759000  0.72104000  0.16868000  1.0
  C  C365  1  0.31381000  0.78706000  0.25627000  1.0
  C  C366  1  0.31242000  0.90051000  0.25756000  1.0
  C  C367  1  0.32354000  0.97192000  0.23402000  1.0
  C  C368  1  0.27773000  0.87481000  0.31707000  1.0
  C  C369  1  0.25095000  0.91683000  0.37048000  1.0
  C  C370  1  0.27666000  0.80336000  0.31650000  1.0
  C  C371  1  0.24150000  0.75538000  0.36828000  1.0
  C  C372  1  0.33194000  0.72464000  0.23021000  1.0
  C  C373  1  0.18741000  0.83865000  0.76852000  1.0
  C  C374  1  0.11795000  0.85709000  0.81077000  1.0
  C  C375  1  0.13923000  0.91567000  0.84765000  1.0
  C  C376  1  0.22944000  0.95593000  0.84245000  1.0
  C  C377  1  0.29849000  0.93809000  0.79983000  1.0
  C  C378  1  0.27711000  0.87960000  0.76306000  1.0
  C  C379  1  0.09922000  0.52780000  0.05073000  1.0
  C  C380  1  0.02103000  0.55751000  0.07408000  1.0
  C  C381  1  0.02736000  0.62904000  0.07781000  1.0
  C  C382  1  0.11412000  0.66689000  0.05726000  1.0
  C  C383  1  0.18870000  0.63333000  0.03371000  1.0
  C  C384  1  0.94458000  0.66315000  0.10336000  1.0
  C  C385  1  0.90273000  0.63039000  0.16460000  1.0
  C  C386  1  0.97926000  0.62952000  0.21721000  1.0
  C  C387  1  0.98749000  0.69125000  0.25892000  1.0
  C  C388  1  0.03964000  0.75443000  0.24221000  1.0
  C  C389  1  0.03761000  0.81067000  0.28156000  1.0
  C  C390  1  0.94161000  0.74583000  0.35400000  1.0
  C  C391  1  0.93826000  0.68787000  0.31663000  1.0
  C  C392  1  0.77482000  0.89689000  0.44336000  1.0
  C  C393  1  0.75081000  0.84059000  0.39777000  1.0
  C  C394  1  0.71487000  0.77198000  0.41351000  1.0
  C  C395  1  0.70249000  0.74100000  0.47690000  1.0
  C  C396  1  0.75526000  0.84589000  0.33181000  1.0
  C  C397  1  0.72109000  0.77906000  0.30835000  1.0
  C  C398  1  0.78686000  0.90968000  0.29563000  1.0
  C  C399  1  0.70725000  0.75411000  0.24679000  1.0
  C  C400  1  0.73135000  0.80088000  0.19253000  1.0
  C  C401  1  0.65808000  0.83013000  0.16117000  1.0
  C  C402  1  0.68077000  0.87132000  0.10850000  1.0
  C  C403  1  0.77644000  0.88334000  0.08648000  1.0
  C  C404  1  0.85001000  0.85556000  0.11856000  1.0
  C  C405  1  0.82764000  0.81477000  0.17149000  1.0
  C  C406  1  0.67121000  0.68526000  0.23555000  1.0
  C  C407  1  0.65264000  0.64831000  0.17798000  1.0
  C  C408  1  0.67051000  0.67501000  0.11307000  1.0
  C  C409  1  0.61618000  0.58081000  0.19504000  1.0
  C  C410  1  0.61410000  0.57740000  0.26219000  1.0
  C  C411  1  0.58175000  0.51757000  0.30289000  1.0
  C  C412  1  0.58222000  0.52270000  0.15340000  1.0
  C  C413  1  0.03741000  0.84547000  0.52077000  1.0
  C  C414  1  0.07293000  0.80882000  0.57481000  1.0
  C  C415  1  0.07660000  0.73682000  0.57571000  1.0
  C  C416  1  0.05082000  0.68647000  0.52449000  1.0
  C  C417  1  0.10929000  0.83586000  0.63265000  1.0
  C  C418  1  0.12311000  0.90940000  0.65061000  1.0
  C  C419  1  0.13241000  0.77896000  0.66868000  1.0
  C  C420  1  0.18619000  0.71294000  0.75627000  1.0
  C  C421  1  0.18757000  0.59949000  0.75756000  1.0
  C  C422  1  0.17645000  0.52808000  0.73401000  1.0
  C  C423  1  0.22226000  0.62519000  0.81707000  1.0
  C  C424  1  0.24905000  0.58317000  0.87049000  1.0
  C  C425  1  0.22334000  0.69665000  0.81650000  1.0
  C  C426  1  0.25850000  0.74462000  0.86828000  1.0
  C  C427  1  0.16805000  0.77536000  0.73021000  1.0
  N  N428  1  0.48919000  0.30671000  0.16351000  1.0
  N  N429  1  0.68204000  0.06480000  0.46935000  1.0
  N  N430  1  0.14768000  0.13963000  0.21435000  1.0
  N  N431  1  0.19841000  0.23561000  0.14008000  1.0
  N  N432  1  0.61250000  0.21977000  0.86823000  1.0
  N  N433  1  0.66730000  0.15227000  0.77845000  1.0
  N  N434  1  0.01081000  0.19329000  0.66351000  1.0
  N  N435  1  0.81796000  0.43519000  0.96935000  1.0
  N  N436  1  0.35232000  0.36037000  0.71435000  1.0
  N  N437  1  0.30158000  0.26439000  0.64008000  1.0
  N  N438  1  0.88751000  0.28023000  0.36823000  1.0
  N  N439  1  0.83271000  0.34773000  0.27845000  1.0
  N  N440  1  0.51082000  0.69330000  0.83649000  1.0
  N  N441  1  0.31796000  0.93519000  0.53065000  1.0
  N  N442  1  0.85232000  0.86037000  0.78565000  1.0
  N  N443  1  0.80159000  0.76439000  0.85992000  1.0
  N  N444  1  0.38750000  0.78023000  0.13177000  1.0
  N  N445  1  0.33270000  0.84773000  0.22156000  1.0
  N  N446  1  0.98918000  0.80671000  0.33649000  1.0
  N  N447  1  0.18203000  0.56480000  0.03065000  1.0
  N  N448  1  0.64768000  0.63963000  0.28565000  1.0
  N  N449  1  0.69841000  0.73561000  0.35992000  1.0
  N  N450  1  0.11249000  0.71978000  0.63177000  1.0
  N  N451  1  0.16729000  0.65227000  0.72155000  1.0
  O  O452  1  0.09150000  0.02779000  0.40635000  1.0
  O  O453  1  0.04006000  0.96811000  0.32050000  1.0
  O  O454  1  0.35308000  0.43919000  0.06459000  1.0
  O  O455  1  0.21695000  0.40447000  0.01159000  1.0
  O  O456  1  0.56426000  0.40978000  0.98699000  1.0
  O  O457  1  0.48038000  0.31140000  0.01819000  1.0
  O  O458  1  0.81728000  0.10924000  0.59235000  1.0
  O  O459  1  0.70330000  0.02379000  0.62072000  1.0
  O  O460  1  0.40851000  0.47223000  0.90635000  1.0
  O  O461  1  0.45995000  0.53190000  0.82049000  1.0
  O  O462  1  0.14692000  0.06081000  0.56459000  1.0
  O  O463  1  0.28304000  0.09552000  0.51159000  1.0
  O  O464  1  0.93575000  0.09023000  0.48700000  1.0
  O  O465  1  0.01963000  0.18860000  0.51819000  1.0
  O  O466  1  0.68272000  0.39076000  0.09235000  1.0
  O  O467  1  0.79670000  0.47621000  0.12071000  1.0
  O  O468  1  0.90850000  0.97221000  0.59365000  1.0
  O  O469  1  0.95995000  0.03189000  0.67950000  1.0
  O  O470  1  0.64692000  0.56081000  0.93541000  1.0
  O  O471  1  0.78305000  0.59552000  0.98841000  1.0
  O  O472  1  0.43573000  0.59022000  0.01301000  1.0
  O  O473  1  0.51962000  0.68860000  0.98182000  1.0
  O  O474  1  0.18270000  0.89076000  0.40764000  1.0
  O  O475  1  0.29669000  0.97620000  0.37929000  1.0
  O  O476  1  0.59150000  0.52779000  0.09365000  1.0
  O  O477  1  0.54006000  0.46811000  0.17950000  1.0
  O  O478  1  0.85307000  0.93919000  0.43541000  1.0
  O  O479  1  0.71695000  0.90447000  0.48842000  1.0
  O  O480  1  0.06426000  0.90978000  0.51301000  1.0
  O  O481  1  0.98038000  0.81141000  0.48181000  1.0
  O  O482  1  0.31730000  0.60924000  0.90764000  1.0
  O  O483  1  0.20331000  0.52380000  0.87929000  1.0
  F  F484  1  0.07587000  0.14215000  0.10985000  1.0
  F  F485  1  0.23505000  0.12069000  0.11776000  1.0
  F  F486  1  0.70651000  0.12568000  0.88619000  1.0
  F  F487  1  0.54689000  0.10030000  0.85292000  1.0
  F  F488  1  0.42411000  0.35785000  0.60984000  1.0
  F  F489  1  0.26495000  0.37931000  0.61776000  1.0
  F  F490  1  0.79350000  0.37432000  0.38619000  1.0
  F  F491  1  0.95312000  0.39970000  0.35292000  1.0
  F  F492  1  0.92413000  0.85785000  0.89015000  1.0
  F  F493  1  0.76495000  0.87931000  0.88224000  1.0
  F  F494  1  0.29350000  0.87432000  0.11382000  1.0
  F  F495  1  0.45312000  0.89970000  0.14708000  1.0
  F  F496  1  0.57588000  0.64214000  0.39016000  1.0
  F  F497  1  0.73505000  0.62069000  0.38224000  1.0
  F  F498  1  0.20651000  0.62568000  0.61381000  1.0
  F  F499  1  0.04688000  0.60030000  0.64707000  1.0
