# generated using pymatgen
data_Co2H28C40(N2O3)3
_symmetry_space_group_name_H-M   'P 1'
_cell_length_a   9.45478000
_cell_length_b   19.47150000
_cell_length_c   19.47130000
_cell_angle_alpha   117.42300000
_cell_angle_beta   99.33300000
_cell_angle_gamma   99.30950000
_symmetry_Int_Tables_number   1
_chemical_formula_structural   Co2H28C40(N2O3)3
_chemical_formula_sum   'Co6 H84 C120 N18 O27'
_cell_volume   3023.14110819
_cell_formula_units_Z   3
loop_
 _symmetry_equiv_pos_site_id
 _symmetry_equiv_pos_as_xyz
  1  'x, y, z'
loop_
 _atom_site_type_symbol
 _atom_site_label
 _atom_site_symmetry_multiplicity
 _atom_site_fract_x
 _atom_site_fract_y
 _atom_site_fract_z
 _atom_site_occupancy
  Co  Co0  1  0.35216000  0.54020000  0.38168000  1.0
  Co  Co1  1  0.97042000  0.61836000  0.15843000  1.0
  Co  Co2  1  0.81198000  0.84160000  0.45991000  1.0
  Co  Co3  1  0.17408000  0.26325000  0.13231000  1.0
  Co  Co4  1  0.04137000  0.86778000  0.13114000  1.0
  Co  Co5  1  0.91055000  0.86894000  0.73675000  1.0
  H  H6  1  0.63790000  0.65923000  0.38547000  1.0
  H  H7  1  0.25242000  0.61451000  0.27359000  1.0
  H  H8  1  0.97972000  0.72679000  0.34113000  1.0
  H  H9  1  0.30514000  0.45914000  0.19490000  1.0
  H  H10  1  0.10958000  0.80521000  0.26471000  1.0
  H  H11  1  0.84568000  0.73567000  0.54063000  1.0
  H  H12  1  0.65930000  0.65271000  0.24160000  1.0
  H  H13  1  0.41720000  0.75822000  0.41131000  1.0
  H  H14  1  0.00713000  0.58919000  0.34729000  1.0
  H  H15  1  0.92454000  0.30094000  0.26145000  1.0
  H  H16  1  0.66227000  0.73837000  0.03952000  1.0
  H  H17  1  0.62321000  0.96045000  0.69891000  1.0
  H  H18  1  0.20388000  0.45968000  0.08570000  1.0
  H  H19  1  0.11774000  0.91427000  0.37437000  1.0
  H  H20  1  0.74418000  0.62607000  0.54013000  1.0
  H  H21  1  0.64732000  0.58956000  0.11785000  1.0
  H  H22  1  0.52904000  0.88202000  0.47213000  1.0
  H  H23  1  0.05736000  0.52814000  0.41007000  1.0
  H  H24  1  0.62276000  0.42412000  0.14005000  1.0
  H  H25  1  0.48175000  0.85945000  0.28398000  1.0
  H  H26  1  0.19794000  0.71605000  0.57546000  1.0
  H  H27  1  0.64560000  0.25890000  0.22732000  1.0
  H  H28  1  0.41737000  0.77241000  0.03156000  1.0
  H  H29  1  0.38632000  0.96844000  0.74089000  1.0
  H  H30  1  0.14314000  0.12068000  0.99211000  1.0
  H  H31  1  0.15069000  0.00778000  0.12854000  1.0
  H  H32  1  0.02207000  0.87129000  0.87932000  1.0
  H  H33  1  0.20726000  0.12747000  0.07643000  1.0
  H  H34  1  0.13060000  0.92343000  0.05113000  1.0
  H  H35  1  0.07988000  0.94873000  0.87247000  1.0
  H  H36  1  0.14430000  0.41757000  0.94144000  1.0
  H  H37  1  0.20299000  0.05861000  0.47624000  1.0
  H  H38  1  0.72696000  0.52404000  0.58237000  1.0
  H  H39  1  0.58562000  0.54953000  0.97439000  1.0
  H  H40  1  0.61135000  0.02558000  0.57524000  1.0
  H  H41  1  0.03595000  0.42484000  0.45026000  1.0
  H  H42  1  0.12178000  0.39359000  0.72548000  1.0
  H  H43  1  0.39687000  0.27451000  0.66800000  1.0
  H  H44  1  0.72846000  0.33205000  0.60631000  1.0
  H  H45  1  0.38252000  0.33086000  0.87987000  1.0
  H  H46  1  0.50245000  0.12000000  0.45073000  1.0
  H  H47  1  0.05207000  0.54915000  0.66922000  1.0
  H  H48  1  0.32406000  0.60764000  0.92206000  1.0
  H  H49  1  0.40203000  0.07808000  0.68552000  1.0
  H  H50  1  0.71666000  0.31433000  0.39226000  1.0
  H  H51  1  0.48029000  0.41905000  0.75563000  1.0
  H  H52  1  0.72516000  0.24449000  0.66353000  1.0
  H  H53  1  0.06185000  0.33696000  0.58112000  1.0
  H  H54  1  0.00149000  0.25032000  0.62970000  1.0
  H  H55  1  0.37192000  0.37018000  0.62038000  1.0
  H  H56  1  0.75117000  0.37956000  0.74957000  1.0
  H  H57  1  0.26941000  0.18798000  0.78288000  1.0
  H  H58  1  0.48596000  0.21693000  0.40477000  1.0
  H  H59  1  0.08164000  0.59498000  0.81206000  1.0
  H  H60  1  0.44634000  0.70070000  0.88226000  1.0
  H  H61  1  0.56409000  0.11767000  0.81832000  1.0
  H  H62  1  0.74655000  0.18163000  0.29937000  1.0
  H  H63  1  0.60272000  0.51115000  0.71576000  1.0
  H  H64  1  0.88733000  0.28425000  0.79552000  1.0
  H  H65  1  0.09270000  0.20509000  0.48919000  1.0
  H  H66  1  0.12685000  0.07605000  0.72113000  1.0
  H  H67  1  0.40614000  0.27902000  0.35480000  1.0
  H  H68  1  0.05089000  0.64507000  0.92392000  1.0
  H  H69  1  0.95804000  0.13431000  0.53890000  1.0
  H  H70  1  0.41862000  0.46084000  0.59522000  1.0
  H  H71  1  0.82332000  0.40469000  0.86564000  1.0
  H  H72  1  0.45421000  0.74393000  0.79325000  1.0
  H  H73  1  0.66109000  0.20636000  0.95050000  1.0
  H  H74  1  0.71120000  0.04974000  0.25646000  1.0
  H  H75  1  0.78811000  0.61251000  0.74591000  1.0
  H  H76  1  0.04261000  0.25419000  0.86682000  1.0
  H  H77  1  0.17668000  0.13336000  0.38768000  1.0
  H  H78  1  0.01399000  0.93547000  0.62201000  1.0
  H  H79  1  0.39279000  0.37832000  0.31355000  1.0
  H  H80  1  0.07849000  0.68654000  0.06449000  1.0
  H  H81  1  0.84664000  0.98911000  0.44676000  1.0
  H  H82  1  0.39974000  0.55317000  0.54238000  1.0
  H  H83  1  0.85729000  0.45771000  0.01081000  1.0
  H  H84  1  0.60454000  0.84129000  0.76711000  1.0
  H  H85  1  0.83746000  0.23268000  0.07413000  1.0
  H  H86  1  0.76362000  0.92608000  0.15910000  1.0
  H  H87  1  0.92073000  0.71394000  0.71788000  1.0
  H  H88  1  0.20309000  0.28240000  0.99642000  1.0
  H  H89  1  0.20718000  0.00368000  0.28630000  1.0
  C  C90  1  0.57389000  0.61661000  0.32423000  1.0
  C  C91  1  0.24946000  0.67577000  0.29242000  1.0
  C  C92  1  0.95790000  0.70797000  0.38356000  1.0
  C  C93  1  0.39658000  0.51309000  0.22790000  1.0
  C  C94  1  0.16818000  0.77215000  0.28550000  1.0
  C  C95  1  0.88342000  0.71484000  0.48678000  1.0
  C  C96  1  0.09502000  0.41802000  0.25343000  1.0
  C  C97  1  0.84103000  0.74651000  0.16468000  1.0
  C  C98  1  0.67665000  0.83534000  0.58187000  1.0
  C  C99  1  0.58377000  0.61461000  0.25409000  1.0
  C  C100  1  0.32924000  0.74582000  0.36071000  1.0
  C  C101  1  0.96957000  0.63973000  0.38539000  1.0
  C  C102  1  0.92910000  0.38856000  0.22290000  1.0
  C  C103  1  0.70539000  0.77685000  0.16568000  1.0
  C  C104  1  0.54005000  0.83430000  0.61120000  1.0
  C  C105  1  0.43193000  0.52522000  0.11054000  1.0
  C  C106  1  0.32089000  0.88937000  0.41510000  1.0
  C  C107  1  0.90652000  0.58531000  0.47451000  1.0
  C  C108  1  0.84459000  0.42366000  0.18838000  1.0
  C  C109  1  0.65535000  0.81131000  0.23526000  1.0
  C  C110  1  0.42028000  0.76475000  0.57601000  1.0
  C  C111  1  0.85777000  0.32867000  0.23618000  1.0
  C  C112  1  0.62072000  0.76355000  0.09249000  1.0
  C  C113  1  0.52863000  0.90748000  0.67109000  1.0
  C  C114  1  0.28942000  0.47701000  0.06104000  1.0
  C  C115  1  0.22805000  0.93893000  0.41632000  1.0
  C  C116  1  0.81237000  0.58407000  0.52279000  1.0
  C  C117  1  0.53737000  0.55169000  0.07935000  1.0
  C  C118  1  0.45769000  0.92055000  0.47269000  1.0
  C  C119  1  0.98542000  0.52761000  0.44802000  1.0
  C  C120  1  0.91978000  0.48628000  0.17216000  1.0
  C  C121  1  0.74694000  0.82774000  0.31415000  1.0
  C  C122  1  0.43277000  0.68590000  0.51341000  1.0
  C  C123  1  0.68916000  0.39797000  0.16757000  1.0
  C  C124  1  0.52059000  0.83197000  0.23032000  1.0
  C  C125  1  0.29053000  0.76968000  0.60167000  1.0
  C  C126  1  0.70319000  0.30477000  0.21667000  1.0
  C  C127  1  0.48560000  0.78299000  0.08807000  1.0
  C  C128  1  0.39796000  0.91190000  0.69499000  1.0
  C  C129  1  0.25525000  0.45449000  0.98016000  1.0
  C  C130  1  0.27508000  0.01985000  0.47452000  1.0
  C  C131  1  0.80086000  0.52576000  0.54538000  1.0
  C  C132  1  0.50241000  0.52926000  0.99856000  1.0
  C  C133  1  0.50383000  0.00139000  0.53087000  1.0
  C  C134  1  0.97304000  0.46930000  0.47053000  1.0
  C  C135  1  0.61795000  0.33921000  0.18217000  1.0
  C  C136  1  0.43480000  0.81739000  0.15696000  1.0
  C  C137  1  0.27819000  0.84302000  0.66051000  1.0
  C  C138  1  0.36141000  0.47979000  0.94807000  1.0
  C  C139  1  0.41351000  0.05194000  0.53180000  1.0
  C  C140  1  0.88173000  0.46836000  0.52010000  1.0
  C  C141  1  0.45234000  0.31390000  0.16301000  1.0
  C  C142  1  0.28851000  0.83668000  0.15077000  1.0
  C  C143  1  0.13807000  0.84920000  0.68600000  1.0
  C  C144  1  0.26092000  0.37221000  0.80912000  1.0
  C  C145  1  0.45208000  0.19083000  0.56293000  1.0
  C  C146  1  0.88903000  0.43708000  0.62776000  1.0
  C  C147  1  0.38989000  0.50638000  0.83950000  1.0
  C  C148  1  0.55074000  0.16059000  0.66689000  1.0
  C  C149  1  0.88396000  0.33327000  0.49365000  1.0
  C  C150  1  0.15438000  0.34792000  0.73713000  1.0
  C  C151  1  0.41761000  0.26282000  0.61063000  1.0
  C  C152  1  0.80668000  0.38937000  0.65200000  1.0
  C  C153  1  0.29924000  0.31284000  0.82466000  1.0
  C  C154  1  0.47456000  0.17524000  0.48797000  1.0
  C  C155  1  0.98672000  0.51195000  0.68718000  1.0
  C  C156  1  0.38204000  0.58640000  0.87530000  1.0
  C  C157  1  0.50689000  0.12477000  0.71106000  1.0
  C  C158  1  0.79613000  0.28895000  0.41360000  1.0
  C  C159  1  0.46944000  0.48022000  0.78152000  1.0
  C  C160  1  0.68831000  0.21856000  0.69877000  1.0
  C  C161  1  0.98989000  0.30159000  0.51991000  1.0
  C  C162  1  0.08752000  0.26691000  0.68336000  1.0
  C  C163  1  0.40433000  0.31654000  0.58335000  1.0
  C  C164  1  0.82072000  0.41658000  0.73300000  1.0
  C  C165  1  0.23316000  0.23205000  0.76987000  1.0
  C  C166  1  0.46308000  0.23000000  0.46192000  1.0
  C  C167  1  0.00133000  0.53792000  0.76798000  1.0
  C  C168  1  0.45077000  0.63831000  0.85261000  1.0
  C  C169  1  0.59828000  0.14735000  0.78563000  1.0
  C  C170  1  0.81328000  0.21442000  0.36179000  1.0
  C  C171  1  0.53876000  0.53266000  0.75958000  1.0
  C  C172  1  0.77951000  0.24041000  0.77316000  1.0
  C  C173  1  0.00706000  0.22726000  0.46756000  1.0
  C  C174  1  0.12506000  0.20668000  0.69785000  1.0
  C  C175  1  0.42711000  0.30202000  0.50858000  1.0
  C  C176  1  0.91848000  0.49127000  0.79329000  1.0
  C  C177  1  0.53050000  0.61273000  0.79423000  1.0
  C  C178  1  0.73651000  0.20566000  0.81849000  1.0
  C  C179  1  0.91882000  0.18175000  0.38746000  1.0
  C  C180  1  0.05585000  0.12096000  0.64028000  1.0
  C  C181  1  0.41553000  0.35965000  0.48050000  1.0
  C  C182  1  0.93486000  0.51936000  0.87899000  1.0
  C  C183  1  0.60819000  0.66898000  0.77300000  1.0
  C  C184  1  0.83542000  0.22684000  0.89598000  1.0
  C  C185  1  0.94023000  0.10423000  0.33130000  1.0
  C  C186  1  0.06933000  0.06143000  0.66097000  1.0
  C  C187  1  0.40864000  0.33913000  0.40036000  1.0
  C  C188  1  0.00792000  0.59955000  0.93855000  1.0
  C  C189  1  0.97317000  0.09305000  0.56095000  1.0
  C  C190  1  0.41198000  0.43891000  0.53195000  1.0
  C  C191  1  0.87993000  0.46797000  0.90689000  1.0
  C  C192  1  0.55767000  0.73459000  0.77755000  1.0
  C  C193  1  0.78029000  0.22217000  0.95696000  1.0
  C  C194  1  0.82393000  0.04324000  0.26573000  1.0
  C  C195  1  0.74032000  0.66101000  0.74955000  1.0
  C  C196  1  0.99106000  0.25044000  0.91158000  1.0
  C  C197  1  0.08023000  0.08860000  0.33924000  1.0
  C  C198  1  0.00479000  0.98100000  0.60517000  1.0
  C  C199  1  0.40009000  0.39504000  0.37585000  1.0
  C  C200  1  0.02374000  0.62417000  0.01898000  1.0
  C  C201  1  0.91039000  0.01156000  0.50831000  1.0
  C  C202  1  0.40205000  0.49167000  0.50323000  1.0
  C  C203  1  0.89866000  0.49679000  0.98837000  1.0
  C  C204  1  0.64049000  0.78921000  0.76241000  1.0
  C  C205  1  0.87820000  0.23740000  0.02679000  1.0
  C  C206  1  0.85181000  0.97339000  0.21114000  1.0
  C  C207  1  0.81659000  0.71763000  0.73478000  1.0
  C  C208  1  0.08203000  0.26529000  0.98305000  1.0
  C  C209  1  0.09953000  0.01709000  0.28263000  1.0
  N  N210  1  0.92485000  0.95546000  0.52953000  1.0
  N  N211  1  0.39565000  0.47062000  0.42598000  1.0
  N  N212  1  0.96934000  0.57407000  0.04451000  1.0
  N  N213  1  0.45681000  0.55324000  0.30740000  1.0
  N  N214  1  0.14916000  0.69268000  0.24595000  1.0
  N  N215  1  0.90388000  0.75437000  0.44684000  1.0
  N  N216  1  0.47001000  0.54899000  0.19345000  1.0
  N  N217  1  0.27597000  0.80650000  0.35591000  1.0
  N  N218  1  0.92098000  0.64450000  0.45083000  1.0
  N  N219  1  0.76939000  0.78198000  0.74212000  1.0
  N  N220  1  0.02744000  0.25786000  0.03999000  1.0
  N  N221  1  0.98783000  0.96017000  0.21830000  1.0
  N  N222  1  0.05424000  0.13886000  0.17714000  1.0
  N  N223  1  0.87659000  0.82283000  0.96190000  1.0
  N  N224  1  0.91523000  0.03813000  0.86102000  1.0
  N  N225  1  0.32614000  0.45422000  0.86484000  1.0
  N  N226  1  0.46178000  0.13519000  0.58931000  1.0
  N  N227  1  0.87219000  0.41076000  0.54574000  1.0
  O  O228  1  0.84728000  0.53764000  0.17221000  1.0
  O  O229  1  0.67453000  0.82772000  0.36551000  1.0
  O  O230  1  0.30893000  0.63468000  0.46193000  1.0
  O  O231  1  0.14560000  0.49032000  0.31295000  1.0
  O  O232  1  0.83239000  0.68698000  0.17744000  1.0
  O  O233  1  0.65507000  0.82235000  0.50949000  1.0
  O  O234  1  0.17750000  0.37262000  0.22657000  1.0
  O  O235  1  0.95025000  0.77348000  0.14615000  1.0
  O  O236  1  0.80444000  0.85399000  0.62743000  1.0
  O  O237  1  0.05106000  0.20270000  0.17331000  1.0
  O  O238  1  0.87715000  0.82702000  0.02971000  1.0
  O  O239  1  0.84789000  0.97037000  0.79737000  1.0
  O  O240  1  0.21635000  0.15609000  0.04567000  1.0
  O  O241  1  0.17043000  0.95425000  0.11050000  1.0
  O  O242  1  0.06003000  0.88935000  0.84389000  1.0
  O  O243  1  0.37193000  0.32912000  0.11531000  1.0
  O  O244  1  0.25589000  0.88441000  0.21369000  1.0
  O  O245  1  0.04258000  0.78628000  0.67086000  1.0
  O  O246  1  0.39363000  0.27751000  0.19632000  1.0
  O  O247  1  0.19652000  0.80350000  0.08108000  1.0
  O  O248  1  0.11582000  0.91888000  0.72249000  1.0
  O  O249  1  0.04599000  0.48869000  0.15948000  1.0
  O  O250  1  0.88590000  0.84063000  0.32930000  1.0
  O  O251  1  0.55647000  0.67062000  0.51115000  1.0
  O  O252  1  0.14589000  0.10240000  0.14529000  1.0
  O  O253  1  0.00023000  0.85438000  0.95717000  1.0
  O  O254  1  0.04364000  0.04281000  0.89724000  1.0
