# generated using pymatgen
data_CdH20C23Br3(N2O3)2
_symmetry_space_group_name_H-M   'P 1'
_cell_length_a   10.08420000
_cell_length_b   11.65560000
_cell_length_c   13.69500000
_cell_angle_alpha   68.58040000
_cell_angle_beta   70.43230000
_cell_angle_gamma   70.37390000
_symmetry_Int_Tables_number   1
_chemical_formula_structural   CdH20C23Br3(N2O3)2
_chemical_formula_sum   'Cd2 H40 C46 Br6 N8 O12'
_cell_volume   1369.46233468
_cell_formula_units_Z   2
loop_
 _symmetry_equiv_pos_site_id
 _symmetry_equiv_pos_as_xyz
  1  'x, y, z'
loop_
 _atom_site_type_symbol
 _atom_site_label
 _atom_site_symmetry_multiplicity
 _atom_site_fract_x
 _atom_site_fract_y
 _atom_site_fract_z
 _atom_site_occupancy
  Cd  Cd0  1  0.41182000  0.69206000  0.57332000  1.0
  Cd  Cd1  1  0.58818000  0.30794000  0.42668000  1.0
  H  H2  1  0.78079000  0.39181000  0.13457000  1.0
  H  H3  1  0.21921000  0.60819000  0.86543000  1.0
  H  H4  1  0.33760000  0.59268000  0.42086000  1.0
  H  H5  1  0.66240000  0.40732000  0.57914000  1.0
  H  H6  1  0.76037000  0.15185000  0.24612000  1.0
  H  H7  1  0.23963000  0.84815000  0.75388000  1.0
  H  H8  1  0.13323000  0.52793000  0.67991000  1.0
  H  H9  1  0.86676000  0.47208000  0.32009000  1.0
  H  H10  1  0.50915000  0.36393000  0.89290000  1.0
  H  H11  1  0.49085000  0.63606000  0.10711000  1.0
  H  H12  1  0.77579000  0.74027000  0.58476000  1.0
  H  H13  1  0.22421000  0.25973000  0.41524000  1.0
  H  H14  1  0.81306000  0.70030000  0.46515000  1.0
  H  H15  1  0.18695000  0.29970000  0.53485000  1.0
  H  H16  1  0.06264000  0.79866000  0.69088000  1.0
  H  H17  1  0.93736000  0.20134000  0.30912000  1.0
  H  H18  1  0.89128000  0.83031000  0.66523000  1.0
  H  H19  1  0.10872000  0.16968000  0.33478000  1.0
  H  H20  1  0.00802000  0.93346000  0.58566000  1.0
  H  H21  1  0.99198000  0.06654000  0.41435000  1.0
  H  H22  1  0.59143000  0.89592000  0.65007000  1.0
  H  H23  1  0.40857000  0.10408000  0.34993000  1.0
  H  H24  1  0.68533000  0.00385000  0.64378000  1.0
  H  H25  1  0.31466000  0.99614000  0.35622000  1.0
  H  H26  1  0.51374000  0.06210000  0.61209000  1.0
  H  H27  1  0.48626000  0.93790000  0.38791000  1.0
  H  H28  1  0.20653000  0.16205000  0.00254000  1.0
  H  H29  1  0.79347000  0.83795000  0.99745000  1.0
  H  H30  1  0.12413000  0.64531000  0.27246000  1.0
  H  H31  1  0.87587000  0.35469000  0.72754000  1.0
  H  H32  1  0.99330000  0.56985000  0.37540000  1.0
  H  H33  1  0.00670000  0.43015000  0.62460000  1.0
  H  H34  1  0.18179000  0.49468000  0.36026000  1.0
  H  H35  1  0.81821000  0.50532000  0.63975000  1.0
  H  H36  1  0.02701000  0.87940000  0.23980000  1.0
  H  H37  1  0.97299000  0.12060000  0.76020000  1.0
  H  H38  1  0.88458000  0.81858000  0.24508000  1.0
  H  H39  1  0.11542000  0.18142000  0.75493000  1.0
  H  H40  1  0.89871000  0.97490000  0.16178000  1.0
  H  H41  1  0.10129000  0.02509000  0.83823000  1.0
  C  C42  1  0.48219000  0.62975000  0.95399000  1.0
  C  C43  1  0.51781000  0.37024000  0.04602000  1.0
  C  C44  1  0.68809000  0.99498000  0.48917000  1.0
  C  C45  1  0.31191000  0.00502000  0.51083000  1.0
  C  C46  1  0.47027000  0.60990000  0.77778000  1.0
  C  C47  1  0.52973000  0.39010000  0.22223000  1.0
  C  C48  1  0.28364000  0.35800000  0.74568000  1.0
  C  C49  1  0.71636000  0.64201000  0.25431000  1.0
  C  C50  1  0.48808000  0.55490000  0.89199000  1.0
  C  C51  1  0.51191000  0.44510000  0.10801000  1.0
  C  C52  1  0.78270000  0.89763000  0.44272000  1.0
  C  C53  1  0.21730000  0.10237000  0.55728000  1.0
  C  C54  1  0.15005000  0.44717000  0.75035000  1.0
  C  C55  1  0.84995000  0.55284000  0.24965000  1.0
  C  C56  1  0.99703000  0.72285000  0.49395000  1.0
  C  C57  1  0.00297000  0.27714000  0.50606000  1.0
  C  C58  1  0.03845000  0.43534000  0.84426000  1.0
  C  C59  1  0.96155000  0.56467000  0.15574000  1.0
  C  C60  1  0.40120000  0.37443000  0.64224000  1.0
  C  C61  1  0.59879000  0.62558000  0.35775000  1.0
  C  C62  1  0.50577000  0.42382000  0.93936000  1.0
  C  C63  1  0.49422000  0.57617000  0.06065000  1.0
  C  C64  1  0.06888000  0.75499000  0.54951000  1.0
  C  C65  1  0.93112000  0.24501000  0.45050000  1.0
  C  C66  1  0.81851000  0.95642000  0.33130000  1.0
  C  C67  1  0.18150000  0.04358000  0.66870000  1.0
  C  C68  1  0.10614000  0.64750000  0.43248000  1.0
  C  C69  1  0.89386000  0.35250000  0.56752000  1.0
  C  C70  1  0.05729000  0.33150000  0.93616000  1.0
  C  C71  1  0.94271000  0.66850000  0.06384000  1.0
  C  C72  1  0.83728000  0.76047000  0.49974000  1.0
  C  C73  1  0.16273000  0.23953000  0.50026000  1.0
  C  C74  1  0.00490000  0.83337000  0.62667000  1.0
  C  C75  1  0.99510000  0.16662000  0.37333000  1.0
  C  C76  1  0.61590000  0.98866000  0.60469000  1.0
  C  C77  1  0.38410000  0.01134000  0.39531000  1.0
  C  C78  1  0.19184000  0.24221000  0.93120000  1.0
  C  C79  1  0.80816000  0.75780000  0.06880000  1.0
  C  C80  1  0.30354000  0.25642000  0.83815000  1.0
  C  C81  1  0.69646000  0.74358000  0.16184000  1.0
  C  C82  1  0.94562000  0.30786000  0.04104000  1.0
  C  C83  1  0.05438000  0.69214000  0.95895000  1.0
  C  C84  1  0.10119000  0.58584000  0.35669000  1.0
  C  C85  1  0.89881000  0.41415000  0.64332000  1.0
  C  C86  1  0.91181000  0.90486000  0.23935000  1.0
  C  C87  1  0.08819000  0.09514000  0.76066000  1.0
  Br  Br88  1  0.86265000  0.56324000  0.83611000  1.0
  Br  Br89  1  0.13735000  0.43676000  0.16389000  1.0
  Br  Br90  1  0.45960000  0.80859000  0.89315000  1.0
  Br  Br91  1  0.54041000  0.19140000  0.10685000  1.0
  Br  Br92  1  0.48701000  0.13651000  0.83882000  1.0
  Br  Br93  1  0.51300000  0.86350000  0.16116000  1.0
  N  N94  1  0.66797000  0.10611000  0.41103000  1.0
  N  N95  1  0.33203000  0.89389000  0.58897000  1.0
  N  N96  1  0.21271000  0.70154000  0.52356000  1.0
  N  N97  1  0.78729000  0.29846000  0.47644000  1.0
  N  N98  1  0.23225000  0.63695000  0.45323000  1.0
  N  N99  1  0.76776000  0.36305000  0.54677000  1.0
  N  N100  1  0.74757000  0.08027000  0.31659000  1.0
  N  N101  1  0.25243000  0.91973000  0.68341000  1.0
  O  O102  1  0.34043000  0.63464000  0.76648000  1.0
  O  O103  1  0.65957000  0.36535000  0.23352000  1.0
  O  O104  1  0.41305000  0.30982000  0.58097000  1.0
  O  O105  1  0.58695000  0.69018000  0.41903000  1.0
  O  O106  1  0.57647000  0.62717000  0.69858000  1.0
  O  O107  1  0.42352000  0.37283000  0.30142000  1.0
  O  O108  1  0.47711000  0.45037000  0.62487000  1.0
  O  O109  1  0.52289000  0.54964000  0.37512000  1.0
  O  O110  1  0.86021000  0.41316000  0.06452000  1.0
  O  O111  1  0.13979000  0.58683000  0.93548000  1.0
  O  O112  1  0.93843000  0.19923000  0.09945000  1.0
  O  O113  1  0.06158000  0.80077000  0.90054000  1.0
