# generated using pymatgen
data_CuSiH11C8INO
_symmetry_space_group_name_H-M   'P 1'
_cell_length_a   10.66920000
_cell_length_b   16.17950000
_cell_length_c   16.29360000
_cell_angle_alpha   111.00800000
_cell_angle_beta   89.99990000
_cell_angle_gamma   89.99960000
_symmetry_Int_Tables_number   1
_chemical_formula_structural   CuSiH11C8INO
_chemical_formula_sum   'Cu8 Si8 H88 C64 I8 N8 O8'
_cell_volume   2625.68400604
_cell_formula_units_Z   8
loop_
 _symmetry_equiv_pos_site_id
 _symmetry_equiv_pos_as_xyz
  1  'x, y, z'
loop_
 _atom_site_type_symbol
 _atom_site_label
 _atom_site_symmetry_multiplicity
 _atom_site_fract_x
 _atom_site_fract_y
 _atom_site_fract_z
 _atom_site_occupancy
  Cu  Cu0  1  0.20029000  0.69516000  0.53782000  1.0
  Cu  Cu1  1  0.20027000  0.80484000  0.46217000  1.0
  Cu  Cu2  1  0.79968000  0.30485000  0.46220000  1.0
  Cu  Cu3  1  0.79970000  0.19516000  0.53782000  1.0
  Cu  Cu4  1  0.02798000  0.81612000  0.57329000  1.0
  Cu  Cu5  1  0.02799000  0.68387000  0.42671000  1.0
  Cu  Cu6  1  0.97198000  0.18388000  0.42671000  1.0
  Cu  Cu7  1  0.97200000  0.31612000  0.57330000  1.0
  Si  Si8  1  0.65282000  0.63545000  0.87875000  1.0
  Si  Si9  1  0.65281000  0.86456000  0.12125000  1.0
  Si  Si10  1  0.34718000  0.36456000  0.12125000  1.0
  Si  Si11  1  0.34718000  0.13544000  0.87875000  1.0
  Si  Si12  1  0.56431000  0.83863000  0.93213000  1.0
  Si  Si13  1  0.56431000  0.66138000  0.06787000  1.0
  Si  Si14  1  0.43570000  0.16138000  0.06788000  1.0
  Si  Si15  1  0.43570000  0.33861000  0.93212000  1.0
  H  H16  1  0.85755000  0.62737000  0.80527000  1.0
  H  H17  1  0.85755000  0.87264000  0.19473000  1.0
  H  H18  1  0.14245000  0.37263000  0.19473000  1.0
  H  H19  1  0.14244000  0.12737000  0.80528000  1.0
  H  H20  1  0.87756000  0.64872000  0.91940000  1.0
  H  H21  1  0.87755000  0.85129000  0.08060000  1.0
  H  H22  1  0.12244000  0.35128000  0.08060000  1.0
  H  H23  1  0.12244000  0.14873000  0.91941000  1.0
  H  H24  1  0.84203000  0.53962000  0.84558000  1.0
  H  H25  1  0.84202000  0.96039000  0.15442000  1.0
  H  H26  1  0.15797000  0.46038000  0.15441000  1.0
  H  H27  1  0.15796000  0.03963000  0.84559000  1.0
  H  H28  1  0.34605000  0.89293000  0.94970000  1.0
  H  H29  1  0.34605000  0.60706000  0.05030000  1.0
  H  H30  1  0.65396000  0.10705000  0.05030000  1.0
  H  H31  1  0.65396000  0.39292000  0.94971000  1.0
  H  H32  1  0.36292000  0.80082000  0.85024000  1.0
  H  H33  1  0.36293000  0.69918000  0.14975000  1.0
  H  H34  1  0.63708000  0.19917000  0.14975000  1.0
  H  H35  1  0.63710000  0.30081000  0.85026000  1.0
  H  H36  1  0.35227000  0.78386000  0.95219000  1.0
  H  H37  1  0.35227000  0.71614000  0.04781000  1.0
  H  H38  1  0.64775000  0.21613000  0.04781000  1.0
  H  H39  1  0.64774000  0.28385000  0.95220000  1.0
  H  H40  1  0.55856000  0.50128000  0.77003000  1.0
  H  H41  1  0.55856000  0.99874000  0.22997000  1.0
  H  H42  1  0.44143000  0.49874000  0.22996000  1.0
  H  H43  1  0.44141000  0.00125000  0.77003000  1.0
  H  H44  1  0.45408000  0.59160000  0.80376000  1.0
  H  H45  1  0.45407000  0.90841000  0.19624000  1.0
  H  H46  1  0.54592000  0.40842000  0.19623000  1.0
  H  H47  1  0.54591000  0.09156000  0.80376000  1.0
  H  H48  1  0.66784000  0.55736000  0.66965000  1.0
  H  H49  1  0.66784000  0.94264000  0.33035000  1.0
  H  H50  1  0.33216000  0.44265000  0.33034000  1.0
  H  H51  1  0.33216000  0.05735000  0.66965000  1.0
  H  H52  1  0.59779000  0.66316000  0.71529000  1.0
  H  H53  1  0.59779000  0.83684000  0.28470000  1.0
  H  H54  1  0.40222000  0.33686000  0.28470000  1.0
  H  H55  1  0.40221000  0.16315000  0.71530000  1.0
  H  H56  1  0.42119000  0.69627000  0.64745000  1.0
  H  H57  1  0.42117000  0.80372000  0.35254000  1.0
  H  H58  1  0.57879000  0.30375000  0.35257000  1.0
  H  H59  1  0.57880000  0.19626000  0.64745000  1.0
  H  H60  1  0.19259000  0.50333000  0.47828000  1.0
  H  H61  1  0.19259000  0.99667000  0.52172000  1.0
  H  H62  1  0.80740000  0.49669000  0.52173000  1.0
  H  H63  1  0.80741000  0.00332000  0.47828000  1.0
  H  H64  1  0.31265000  0.38234000  0.50320000  1.0
  H  H65  1  0.31264000  0.11766000  0.49681000  1.0
  H  H66  1  0.68739000  0.61767000  0.49677000  1.0
  H  H67  1  0.68737000  0.88234000  0.50321000  1.0
  H  H68  1  0.49874000  0.42235000  0.60564000  1.0
  H  H69  1  0.49874000  0.07765000  0.39437000  1.0
  H  H70  1  0.50130000  0.57767000  0.39433000  1.0
  H  H71  1  0.50129000  0.92233000  0.60566000  1.0
  H  H72  1  0.60826000  0.86727000  0.79813000  1.0
  H  H73  1  0.60825000  0.63273000  0.20186000  1.0
  H  H74  1  0.39175000  0.13274000  0.20187000  1.0
  H  H75  1  0.39176000  0.36724000  0.79812000  1.0
  H  H76  1  0.57898000  0.96773000  0.88507000  1.0
  H  H77  1  0.57899000  0.53227000  0.11491000  1.0
  H  H78  1  0.42102000  0.03227000  0.11493000  1.0
  H  H79  1  0.42103000  0.46771000  0.88506000  1.0
  H  H80  1  0.81832000  0.85827000  0.87778000  1.0
  H  H81  1  0.81832000  0.64175000  0.12222000  1.0
  H  H82  1  0.18169000  0.14175000  0.12223000  1.0
  H  H83  1  0.18170000  0.35824000  0.87777000  1.0
  H  H84  1  0.79058000  0.96929000  0.94592000  1.0
  H  H85  1  0.79060000  0.53072000  0.05408000  1.0
  H  H86  1  0.20941000  0.03073000  0.05409000  1.0
  H  H87  1  0.20942000  0.46926000  0.94591000  1.0
  H  H88  1  0.89523000  0.81796000  0.73229000  1.0
  H  H89  1  0.89527000  0.68205000  0.26771000  1.0
  H  H90  1  0.10472000  0.18205000  0.26771000  1.0
  H  H91  1  0.10473000  0.31795000  0.73229000  1.0
  H  H92  1  0.95871000  0.00309000  0.61548000  1.0
  H  H93  1  0.95871000  0.49692000  0.38452000  1.0
  H  H94  1  0.04127000  0.99692000  0.38452000  1.0
  H  H95  1  0.04129000  0.50308000  0.61548000  1.0
  H  H96  1  0.86017000  0.12329000  0.74017000  1.0
  H  H97  1  0.86020000  0.37670000  0.25982000  1.0
  H  H98  1  0.13983000  0.87672000  0.25983000  1.0
  H  H99  1  0.13984000  0.62328000  0.74017000  1.0
  H  H100  1  0.77316000  0.08693000  0.86756000  1.0
  H  H101  1  0.77320000  0.41308000  0.13243000  1.0
  H  H102  1  0.22684000  0.91309000  0.13245000  1.0
  H  H103  1  0.22686000  0.58690000  0.86755000  1.0
  C  C104  1  0.82307000  0.61032000  0.86081000  1.0
  C  C105  1  0.82306000  0.88968000  0.13918000  1.0
  C  C106  1  0.17694000  0.38967000  0.13918000  1.0
  C  C107  1  0.17693000  0.11033000  0.86083000  1.0
  C  C108  1  0.39045000  0.82757000  0.91995000  1.0
  C  C109  1  0.39046000  0.67243000  0.08004000  1.0
  C  C110  1  0.60956000  0.17242000  0.08005000  1.0
  C  C111  1  0.60956000  0.32757000  0.91996000  1.0
  C  C112  1  0.55181000  0.57286000  0.78348000  1.0
  C  C113  1  0.55180000  0.92714000  0.21653000  1.0
  C  C114  1  0.44819000  0.42715000  0.21652000  1.0
  C  C115  1  0.44818000  0.07284000  0.78348000  1.0
  C  C116  1  0.58100000  0.59195000  0.69948000  1.0
  C  C117  1  0.58099000  0.90805000  0.30052000  1.0
  C  C118  1  0.41901000  0.40807000  0.30051000  1.0
  C  C119  1  0.41900000  0.09193000  0.69948000  1.0
  C  C120  1  0.47522000  0.56284000  0.63470000  1.0
  C  C121  1  0.47521000  0.93716000  0.36530000  1.0
  C  C122  1  0.52480000  0.43718000  0.36529000  1.0
  C  C123  1  0.52479000  0.06283000  0.63471000  1.0
  C  C124  1  0.40154000  0.62545000  0.61672000  1.0
  C  C125  1  0.40153000  0.87455000  0.38328000  1.0
  C  C126  1  0.59845000  0.37457000  0.38329000  1.0
  C  C127  1  0.59846000  0.12544000  0.61672000  1.0
  C  C128  1  0.27364000  0.51792000  0.52190000  1.0
  C  C129  1  0.27363000  0.98208000  0.47810000  1.0
  C  C130  1  0.72635000  0.48210000  0.47811000  1.0
  C  C131  1  0.72636000  0.01791000  0.52190000  1.0
  C  C132  1  0.34135000  0.45094000  0.53638000  1.0
  C  C133  1  0.34135000  0.04906000  0.46363000  1.0
  C  C134  1  0.65867000  0.54908000  0.46360000  1.0
  C  C135  1  0.65866000  0.95093000  0.53639000  1.0
  C  C136  1  0.44308000  0.47342000  0.59346000  1.0
  C  C137  1  0.44308000  0.02657000  0.40655000  1.0
  C  C138  1  0.55694000  0.52659000  0.40652000  1.0
  C  C139  1  0.55694000  0.97341000  0.59347000  1.0
  C  C140  1  0.62914000  0.90427000  0.86810000  1.0
  C  C141  1  0.62914000  0.59573000  0.13190000  1.0
  C  C142  1  0.37087000  0.09574000  0.13191000  1.0
  C  C143  1  0.37087000  0.40425000  0.86809000  1.0
  C  C144  1  0.77164000  0.91984000  0.88026000  1.0
  C  C145  1  0.77165000  0.58017000  0.11975000  1.0
  C  C146  1  0.22835000  0.08017000  0.11975000  1.0
  C  C147  1  0.22837000  0.41982000  0.88025000  1.0
  C  C148  1  0.82698000  0.94906000  0.81016000  1.0
  C  C149  1  0.82699000  0.55095000  0.18984000  1.0
  C  C150  1  0.17301000  0.05096000  0.18984000  1.0
  C  C151  1  0.17303000  0.44904000  0.81015000  1.0
  C  C152  1  0.88501000  0.88684000  0.73729000  1.0
  C  C153  1  0.88504000  0.61316000  0.26271000  1.0
  C  C154  1  0.11495000  0.11316000  0.26271000  1.0
  C  C155  1  0.11497000  0.38683000  0.73729000  1.0
  C  C156  1  0.92087000  0.98985000  0.67168000  1.0
  C  C157  1  0.92088000  0.51015000  0.32832000  1.0
  C  C158  1  0.07912000  0.01016000  0.32833000  1.0
  C  C159  1  0.07913000  0.48984000  0.67167000  1.0
  C  C160  1  0.86527000  0.05659000  0.74178000  1.0
  C  C161  1  0.86530000  0.44342000  0.25822000  1.0
  C  C162  1  0.13472000  0.94342000  0.25823000  1.0
  C  C163  1  0.13474000  0.55657000  0.74177000  1.0
  C  C164  1  0.81770000  0.03605000  0.81179000  1.0
  C  C165  1  0.81774000  0.46396000  0.18820000  1.0
  C  C166  1  0.18229000  0.96397000  0.18821000  1.0
  C  C167  1  0.18231000  0.53602000  0.81179000  1.0
  I  I168  1  0.26284000  0.85397000  0.64483000  1.0
  I  I169  1  0.26284000  0.64603000  0.35516000  1.0
  I  I170  1  0.73713000  0.14605000  0.35516000  1.0
  I  I171  1  0.73714000  0.35396000  0.64484000  1.0
  I  I172  1  0.96158000  0.65766000  0.57580000  1.0
  I  I173  1  0.96158000  0.84233000  0.42420000  1.0
  I  I174  1  0.03839000  0.34234000  0.42421000  1.0
  I  I175  1  0.03840000  0.15766000  0.57579000  1.0
  N  N176  1  0.30282000  0.60403000  0.56162000  1.0
  N  N177  1  0.30281000  0.89597000  0.43838000  1.0
  N  N178  1  0.69717000  0.39599000  0.43839000  1.0
  N  N179  1  0.69717000  0.10402000  0.56162000  1.0
  N  N180  1  0.93112000  0.90609000  0.66935000  1.0
  N  N181  1  0.93113000  0.59391000  0.33066000  1.0
  N  N182  1  0.06884000  0.09391000  0.33065000  1.0
  N  N183  1  0.06886000  0.40608000  0.66935000  1.0
  O  O184  1  0.63401000  0.74161000  0.89636000  1.0
  O  O185  1  0.63400000  0.75840000  0.10364000  1.0
  O  O186  1  0.36601000  0.25840000  0.10364000  1.0
  O  O187  1  0.36601000  0.24159000  0.89636000  1.0
  O  O188  1  0.60097000  0.61147000  0.96328000  1.0
  O  O189  1  0.60096000  0.88854000  0.03672000  1.0
  O  O190  1  0.39902000  0.38853000  0.03672000  1.0
  O  O191  1  0.39903000  0.11146000  0.96328000  1.0
