# generated using pymatgen
data_Al2H7C22ClO10
_symmetry_space_group_name_H-M   'P 1'
_cell_length_a   6.69718000
_cell_length_b   20.51520000
_cell_length_c   22.87870000
_cell_angle_alpha   93.10440000
_cell_angle_beta   90.74280000
_cell_angle_gamma   90.21070000
_symmetry_Int_Tables_number   1
_chemical_formula_structural   Al2H7C22ClO10
_chemical_formula_sum   'Al4 H14 C44 Cl2 O20'
_cell_volume   3138.48896474
_cell_formula_units_Z   2
loop_
 _symmetry_equiv_pos_site_id
 _symmetry_equiv_pos_as_xyz
  1  'x, y, z'
loop_
 _atom_site_type_symbol
 _atom_site_label
 _atom_site_symmetry_multiplicity
 _atom_site_fract_x
 _atom_site_fract_y
 _atom_site_fract_z
 _atom_site_occupancy
  Al  Al0  1  0.87327000  0.48870000  0.49249000  1.0
  Al  Al1  1  0.37383000  0.48855000  0.49241000  1.0
  Al  Al2  1  0.34678000  0.02020000  0.01758000  1.0
  Al  Al3  1  0.84617000  0.02046000  0.01770000  1.0
  H  H4  1  0.41874000  0.32033000  0.73763000  1.0
  H  H5  1  0.81853000  0.26040000  0.68758000  1.0
  H  H6  1  0.81011000  0.18843000  0.77186000  1.0
  H  H7  1  0.30626000  0.76958000  0.19132000  1.0
  H  H8  1  0.90491000  0.82631000  0.24612000  1.0
  H  H9  1  0.90630000  0.73856000  0.31729000  1.0
  H  H10  1  0.29538000  0.70827000  0.71004000  1.0
  H  H11  1  0.28137000  0.79418000  0.79165000  1.0
  H  H12  1  0.92413000  0.80051000  0.79952000  1.0
  H  H13  1  0.93816000  0.71471000  0.71782000  1.0
  H  H14  1  0.62228000  0.40368000  0.47788000  1.0
  H  H15  1  0.12387000  0.57049000  0.47633000  1.0
  H  H16  1  0.59671000  0.10580000  0.01371000  1.0
  H  H17  1  0.09513000  0.93483000  0.01991000  1.0
  C  C18  1  0.62038000  0.56696000  0.41647000  1.0
  C  C19  1  0.62855000  0.56870000  0.57344000  1.0
  C  C20  1  0.12669000  0.41379000  0.56991000  1.0
  C  C21  1  0.11839000  0.40725000  0.41095000  1.0
  C  C22  1  0.11613000  0.36068000  0.36149000  1.0
  C  C23  1  0.11416000  0.31981000  0.32030000  1.0
  C  C24  1  0.11196000  0.27484000  0.27548000  1.0
  C  C25  1  0.10979000  0.23320000  0.23447000  1.0
  C  C26  1  0.10733000  0.18822000  0.18965000  1.0
  C  C27  1  0.10482000  0.14733000  0.14848000  1.0
  C  C28  1  0.28583000  0.29130000  0.74491000  1.0
  C  C29  1  0.11948000  0.29478000  0.70680000  1.0
  C  C30  1  0.94726000  0.25729000  0.71690000  1.0
  C  C31  1  0.94266000  0.21724000  0.76369000  1.0
  C  C32  1  0.10752000  0.21328000  0.80246000  1.0
  C  C33  1  0.27909000  0.25148000  0.79210000  1.0
  C  C34  1  0.12485000  0.33595000  0.65914000  1.0
  C  C35  1  0.10019000  0.17247000  0.85013000  1.0
  C  C36  1  0.09399000  0.13714000  0.89120000  1.0
  C  C37  1  0.12685000  0.37145000  0.61816000  1.0
  C  C38  1  0.43744000  0.76292000  0.21894000  1.0
  C  C39  1  0.60518000  0.80397000  0.21430000  1.0
  C  C40  1  0.77508000  0.79480000  0.25006000  1.0
  C  C41  1  0.77585000  0.74607000  0.28962000  1.0
  C  C42  1  0.60943000  0.70439000  0.29482000  1.0
  C  C43  1  0.44042000  0.71368000  0.25831000  1.0
  C  C44  1  0.60276000  0.85337000  0.17347000  1.0
  C  C45  1  0.61306000  0.65544000  0.33582000  1.0
  C  C46  1  0.61846000  0.61401000  0.37198000  1.0
  C  C47  1  0.60120000  0.89548000  0.13793000  1.0
  C  C48  1  0.42425000  0.77642000  0.77520000  1.0
  C  C49  1  0.60187000  0.80275000  0.80083000  1.0
  C  C50  1  0.78754000  0.78000000  0.77959000  1.0
  C  C51  1  0.79529000  0.73241000  0.73432000  1.0
  C  C52  1  0.61763000  0.70599000  0.70877000  1.0
  C  C53  1  0.43198000  0.72880000  0.72995000  1.0
  C  C54  1  0.59488000  0.85090000  0.84741000  1.0
  C  C55  1  0.62470000  0.65758000  0.66240000  1.0
  C  C56  1  0.62860000  0.61615000  0.62223000  1.0
  C  C57  1  0.59123000  0.89201000  0.88785000  1.0
  C  C58  1  0.59110000  0.93920000  0.93683000  1.0
  C  C59  1  0.60029000  0.94282000  0.09364000  1.0
  C  C60  1  0.10248000  0.10072000  0.09901000  1.0
  C  C61  1  0.09279000  0.09556000  0.93996000  1.0
  Cl  Cl62  1  0.48191000  0.24920000  0.83910000  1.0
  Cl  Cl63  1  0.23602000  0.66293000  0.26237000  1.0
  O  O64  1  0.45779000  0.55089000  0.55312000  1.0
  O  O65  1  0.79151000  0.54969000  0.43507000  1.0
  O  O66  1  0.94856000  0.42572000  0.42992000  1.0
  O  O67  1  0.79810000  0.54990000  0.55464000  1.0
  O  O68  1  0.95626000  0.42957000  0.54996000  1.0
  O  O69  1  0.45035000  0.54808000  0.43360000  1.0
  O  O70  1  0.62313000  0.44958000  0.49028000  1.0
  O  O71  1  0.29630000  0.43093000  0.55140000  1.0
  O  O72  1  0.29001000  0.42447000  0.43110000  1.0
  O  O73  1  0.12404000  0.52743000  0.49183000  1.0
  O  O74  1  0.77020000  0.96231000  0.07712000  1.0
  O  O75  1  0.42111000  0.95829000  0.95519000  1.0
  O  O76  1  0.26310000  0.08042000  0.96060000  1.0
  O  O77  1  0.42966000  0.95962000  0.07449000  1.0
  O  O78  1  0.27208000  0.08171000  0.08053000  1.0
  O  O79  1  0.76194000  0.95644000  0.95761000  1.0
  O  O80  1  0.59678000  0.05920000  0.01860000  1.0
  O  O81  1  0.93113000  0.08413000  0.07842000  1.0
  O  O82  1  0.92264000  0.07834000  0.95820000  1.0
  O  O83  1  0.09586000  0.98173000  0.01693000  1.0
