# generated using pymatgen
data_ZnPH7C9N2O3
_symmetry_space_group_name_H-M   'P 1'
_cell_length_a   5.16591000
_cell_length_b   11.25640000
_cell_length_c   17.74240000
_cell_angle_alpha   102.55500000
_cell_angle_beta   90.00000000
_cell_angle_gamma   90.00000000
_symmetry_Int_Tables_number   1
_chemical_formula_structural   ZnPH7C9N2O3
_chemical_formula_sum   'Zn4 P4 H28 C36 N8 O12'
_cell_volume   1007.04203667
_cell_formula_units_Z   4
loop_
 _symmetry_equiv_pos_site_id
 _symmetry_equiv_pos_as_xyz
  1  'x, y, z'
loop_
 _atom_site_type_symbol
 _atom_site_label
 _atom_site_symmetry_multiplicity
 _atom_site_fract_x
 _atom_site_fract_y
 _atom_site_fract_z
 _atom_site_occupancy
  Zn  Zn0  1  0.91126000  0.17750000  0.69598000  1.0
  Zn  Zn1  1  0.41126000  0.32250000  0.80402000  1.0
  Zn  Zn2  1  0.08874000  0.82250000  0.30401000  1.0
  Zn  Zn3  1  0.58874000  0.67750000  0.19598000  1.0
  P  P4  1  0.92301000  0.46330000  0.77447000  1.0
  P  P5  1  0.42301000  0.03670000  0.72553000  1.0
  P  P6  1  0.07699000  0.53670000  0.22553000  1.0
  P  P7  1  0.57699000  0.96330000  0.27447000  1.0
  H  H8  1  0.35045000  0.89553000  0.58346000  1.0
  H  H9  1  0.85045000  0.60447000  0.91654000  1.0
  H  H10  1  0.64955000  0.10447000  0.41654000  1.0
  H  H11  1  0.14955000  0.39553000  0.08346000  1.0
  H  H12  1  0.31930000  0.63978000  0.75303000  1.0
  H  H13  1  0.81931000  0.86022000  0.74697000  1.0
  H  H14  1  0.68069000  0.36022000  0.24697000  1.0
  H  H15  1  0.18069000  0.13978000  0.25303000  1.0
  H  H16  1  0.38015000  0.75956000  0.65343000  1.0
  H  H17  1  0.88015000  0.74044000  0.84657000  1.0
  H  H18  1  0.61985000  0.24044000  0.34657000  1.0
  H  H19  1  0.11985000  0.25956000  0.15343000  1.0
  H  H20  1  0.69467000  0.59510000  0.53522000  1.0
  H  H21  1  0.19468000  0.90490000  0.96478000  1.0
  H  H22  1  0.30532000  0.40490000  0.46478000  1.0
  H  H23  1  0.80533000  0.09510000  0.03522000  1.0
  H  H24  1  0.63533000  0.47625000  0.63596000  1.0
  H  H25  1  0.13533000  0.02376000  0.86404000  1.0
  H  H26  1  0.36467000  0.52376000  0.36404000  1.0
  H  H27  1  0.86467000  0.97625000  0.13596000  1.0
  H  H28  1  0.35972000  0.96360000  0.45346000  1.0
  H  H29  1  0.85972000  0.53640000  0.04654000  1.0
  H  H30  1  0.64028000  0.03640000  0.54654000  1.0
  H  H31  1  0.14028000  0.46360000  0.95346000  1.0
  H  H32  1  0.86362000  0.66100000  0.41977000  1.0
  H  H33  1  0.36362000  0.83900000  0.08023000  1.0
  H  H34  1  0.13638000  0.33900000  0.58023000  1.0
  H  H35  1  0.63638000  0.16100000  0.91977000  1.0
  C  C36  1  0.97591000  0.54798000  0.70043000  1.0
  C  C37  1  0.47591000  0.95202000  0.79957000  1.0
  C  C38  1  0.02409000  0.45202000  0.29957000  1.0
  C  C39  1  0.52410000  0.04798000  0.20043000  1.0
  C  C40  1  0.18314000  0.62967000  0.70510000  1.0
  C  C41  1  0.68314000  0.87033000  0.79490000  1.0
  C  C42  1  0.81686000  0.37033000  0.29490000  1.0
  C  C43  1  0.31686000  0.12967000  0.20510000  1.0
  C  C44  1  0.21624000  0.69754000  0.64887000  1.0
  C  C45  1  0.71624000  0.80246000  0.85113000  1.0
  C  C46  1  0.78376000  0.30246000  0.35113000  1.0
  C  C47  1  0.28376000  0.19754000  0.14887000  1.0
  C  C48  1  0.04335000  0.68526000  0.58628000  1.0
  C  C49  1  0.54335000  0.81474000  0.91372000  1.0
  C  C50  1  0.95665000  0.31474000  0.41372000  1.0
  C  C51  1  0.45665000  0.18526000  0.08628000  1.0
  C  C52  1  0.83466000  0.60377000  0.58212000  1.0
  C  C53  1  0.33466000  0.89623000  0.91788000  1.0
  C  C54  1  0.16534000  0.39623000  0.41788000  1.0
  C  C55  1  0.66534000  0.10377000  0.08212000  1.0
  C  C56  1  0.80143000  0.53655000  0.63848000  1.0
  C  C57  1  0.30143000  0.96345000  0.86152000  1.0
  C  C58  1  0.19857000  0.46345000  0.36152000  1.0
  C  C59  1  0.69857000  0.03655000  0.13848000  1.0
  C  C60  1  0.08188000  0.75250000  0.52569000  1.0
  C  C61  1  0.58188000  0.74750000  0.97431000  1.0
  C  C62  1  0.91812000  0.24750000  0.47431000  1.0
  C  C63  1  0.41812000  0.25250000  0.02569000  1.0
  C  C64  1  0.25051000  0.88820000  0.46619000  1.0
  C  C65  1  0.75051000  0.61180000  0.03381000  1.0
  C  C66  1  0.74949000  0.11180000  0.53381000  1.0
  C  C67  1  0.24949000  0.38820000  0.96619000  1.0
  C  C68  1  0.99033000  0.73187000  0.45044000  1.0
  C  C69  1  0.49033000  0.76813000  0.04956000  1.0
  C  C70  1  0.00967000  0.26813000  0.54956000  1.0
  C  C71  1  0.50967000  0.23187000  0.95044000  1.0
  N  N72  1  0.09909000  0.81639000  0.41409000  1.0
  N  N73  1  0.59909000  0.68361000  0.08591000  1.0
  N  N74  1  0.90091000  0.18361000  0.58591000  1.0
  N  N75  1  0.40091000  0.31639000  0.91409000  1.0
  N  N76  1  0.24524000  0.85201000  0.53343000  1.0
  N  N77  1  0.74524000  0.64799000  0.96657000  1.0
  N  N78  1  0.75476000  0.14799000  0.46657000  1.0
  N  N79  1  0.25476000  0.35201000  0.03343000  1.0
  O  O80  1  0.07303000  0.33670000  0.75111000  1.0
  O  O81  1  0.57303000  0.16330000  0.74889000  1.0
  O  O82  1  0.92697000  0.66330000  0.24889000  1.0
  O  O83  1  0.42697000  0.83670000  0.25111000  1.0
  O  O84  1  0.03238000  0.53257000  0.85074000  1.0
  O  O85  1  0.53238000  0.96743000  0.64926000  1.0
  O  O86  1  0.96762000  0.46743000  0.14926000  1.0
  O  O87  1  0.46762000  0.03257000  0.35074000  1.0
  O  O88  1  0.63121000  0.43853000  0.77062000  1.0
  O  O89  1  0.13121000  0.06147000  0.72938000  1.0
  O  O90  1  0.36878000  0.56147000  0.22938000  1.0
  O  O91  1  0.86879000  0.93853000  0.27062000  1.0
