# generated using pymatgen
data_MnH16C19N3O5
_symmetry_space_group_name_H-M   'P 1'
_cell_length_a   8.37959000
_cell_length_b   11.57190000
_cell_length_c   18.53650000
_cell_angle_alpha   77.44100000
_cell_angle_beta   89.99970000
_cell_angle_gamma   89.99980000
_symmetry_Int_Tables_number   1
_chemical_formula_structural   MnH16C19N3O5
_chemical_formula_sum   'Mn4 H64 C76 N12 O20'
_cell_volume   1754.43508711
_cell_formula_units_Z   4
loop_
 _symmetry_equiv_pos_site_id
 _symmetry_equiv_pos_as_xyz
  1  'x, y, z'
loop_
 _atom_site_type_symbol
 _atom_site_label
 _atom_site_symmetry_multiplicity
 _atom_site_fract_x
 _atom_site_fract_y
 _atom_site_fract_z
 _atom_site_occupancy
  Mn  Mn0  1  0.20505000  0.93786000  0.83205000  1.0
  Mn  Mn1  1  0.29495000  0.93786000  0.33205000  1.0
  Mn  Mn2  1  0.79496000  0.06214000  0.16795000  1.0
  Mn  Mn3  1  0.70505000  0.06215000  0.66796000  1.0
  H  H4  1  0.47454000  0.88713000  0.90236000  1.0
  H  H5  1  0.02548000  0.88714000  0.40236000  1.0
  H  H6  1  0.52548000  0.11287000  0.09763000  1.0
  H  H7  1  0.97452000  0.11287000  0.59763000  1.0
  H  H8  1  0.54351000  0.96960000  0.82459000  1.0
  H  H9  1  0.95650000  0.96960000  0.32459000  1.0
  H  H10  1  0.45652000  0.03041000  0.17542000  1.0
  H  H11  1  0.04350000  0.03041000  0.67541000  1.0
  H  H12  1  0.37379000  0.86643000  0.11776000  1.0
  H  H13  1  0.12624000  0.86644000  0.61776000  1.0
  H  H14  1  0.62624000  0.13355000  0.88224000  1.0
  H  H15  1  0.87375000  0.13357000  0.38224000  1.0
  H  H16  1  0.07931000  0.01574000  0.05532000  1.0
  H  H17  1  0.42072000  0.01576000  0.55532000  1.0
  H  H18  1  0.92073000  0.98424000  0.94469000  1.0
  H  H19  1  0.57927000  0.98425000  0.44468000  1.0
  H  H20  1  0.35763000  0.70598000  0.91807000  1.0
  H  H21  1  0.14238000  0.70598000  0.41807000  1.0
  H  H22  1  0.64238000  0.29403000  0.08194000  1.0
  H  H23  1  0.85762000  0.29403000  0.58193000  1.0
  H  H24  1  0.37534000  0.49420000  0.91728000  1.0
  H  H25  1  0.12466000  0.49421000  0.41727000  1.0
  H  H26  1  0.62466000  0.50580000  0.08273000  1.0
  H  H27  1  0.87533000  0.50581000  0.58273000  1.0
  H  H28  1  0.01365000  0.55276000  0.74619000  1.0
  H  H29  1  0.48634000  0.55278000  0.24619000  1.0
  H  H30  1  0.98638000  0.44725000  0.25380000  1.0
  H  H31  1  0.51364000  0.44724000  0.75381000  1.0
  H  H32  1  0.01129000  0.76379000  0.75512000  1.0
  H  H33  1  0.48871000  0.76380000  0.25512000  1.0
  H  H34  1  0.98874000  0.23622000  0.24487000  1.0
  H  H35  1  0.51128000  0.23622000  0.74488000  1.0
  H  H36  1  0.34873000  0.11089000  0.92589000  1.0
  H  H37  1  0.15128000  0.11090000  0.42589000  1.0
  H  H38  1  0.65128000  0.88911000  0.07411000  1.0
  H  H39  1  0.84872000  0.88911000  0.57412000  1.0
  H  H40  1  0.36231000  0.32021000  0.92548000  1.0
  H  H41  1  0.13769000  0.32022000  0.42547000  1.0
  H  H42  1  0.63771000  0.67979000  0.07452000  1.0
  H  H43  1  0.86231000  0.67979000  0.57453000  1.0
  H  H44  1  0.03009000  0.38225000  0.74124000  1.0
  H  H45  1  0.46989000  0.38226000  0.24123000  1.0
  H  H46  1  0.96991000  0.61775000  0.25877000  1.0
  H  H47  1  0.53010000  0.61775000  0.75877000  1.0
  H  H48  1  0.03345000  0.16804000  0.74815000  1.0
  H  H49  1  0.46656000  0.16806000  0.24815000  1.0
  H  H50  1  0.96655000  0.83196000  0.25185000  1.0
  H  H51  1  0.53345000  0.83196000  0.75185000  1.0
  H  H52  1  0.33124000  0.29484000  0.12322000  1.0
  H  H53  1  0.16874000  0.29486000  0.62323000  1.0
  H  H54  1  0.66875000  0.70513000  0.87677000  1.0
  H  H55  1  0.83124000  0.70513000  0.37678000  1.0
  H  H56  1  0.10263000  0.30383000  0.03881000  1.0
  H  H57  1  0.39735000  0.30385000  0.53882000  1.0
  H  H58  1  0.89737000  0.69613000  0.96118000  1.0
  H  H59  1  0.60262000  0.69615000  0.46119000  1.0
  H  H60  1  0.07851000  0.68085000  0.03134000  1.0
  H  H61  1  0.42147000  0.68087000  0.53134000  1.0
  H  H62  1  0.92147000  0.31911000  0.96866000  1.0
  H  H63  1  0.57850000  0.31913000  0.46866000  1.0
  H  H64  1  0.30428000  0.65372000  0.11818000  1.0
  H  H65  1  0.19570000  0.65375000  0.61819000  1.0
  H  H66  1  0.69569000  0.34624000  0.88181000  1.0
  H  H67  1  0.80427000  0.34625000  0.38181000  1.0
  C  C68  1  0.30839000  0.88109000  0.00146000  1.0
  C  C69  1  0.19165000  0.88110000  0.50145000  1.0
  C  C70  1  0.69165000  0.11890000  0.99855000  1.0
  C  C71  1  0.80833000  0.11890000  0.49855000  1.0
  C  C72  1  0.28428000  0.90444000  0.07662000  1.0
  C  C73  1  0.21576000  0.90446000  0.57662000  1.0
  C  C74  1  0.71575000  0.09555000  0.92339000  1.0
  C  C75  1  0.78423000  0.09556000  0.42338000  1.0
  C  C76  1  0.17112000  0.97542000  0.09461000  1.0
  C  C77  1  0.32892000  0.97544000  0.59461000  1.0
  C  C78  1  0.82892000  0.02456000  0.90540000  1.0
  C  C79  1  0.67107000  0.02457000  0.40539000  1.0
  C  C80  1  0.16555000  0.00342000  0.16912000  1.0
  C  C81  1  0.33447000  0.00343000  0.66912000  1.0
  C  C82  1  0.83448000  0.99657000  0.83088000  1.0
  C  C83  1  0.66553000  0.99658000  0.33087000  1.0
  C  C84  1  0.28401000  0.66857000  0.88030000  1.0
  C  C85  1  0.21600000  0.66858000  0.38030000  1.0
  C  C86  1  0.71601000  0.33143000  0.11970000  1.0
  C  C87  1  0.78400000  0.33143000  0.61970000  1.0
  C  C88  1  0.29251000  0.54908000  0.87973000  1.0
  C  C89  1  0.20748000  0.54910000  0.37972000  1.0
  C  C90  1  0.70750000  0.45092000  0.12028000  1.0
  C  C91  1  0.79251000  0.45092000  0.62027000  1.0
  C  C92  1  0.19432000  0.50187000  0.83205000  1.0
  C  C93  1  0.30568000  0.50189000  0.33204000  1.0
  C  C94  1  0.80570000  0.49813000  0.16796000  1.0
  C  C95  1  0.69431000  0.49813000  0.66796000  1.0
  C  C96  1  0.09325000  0.58193000  0.78507000  1.0
  C  C97  1  0.40674000  0.58195000  0.28506000  1.0
  C  C98  1  0.90678000  0.41807000  0.21493000  1.0
  C  C99  1  0.59324000  0.41807000  0.71493000  1.0
  C  C100  1  0.09143000  0.70029000  0.78928000  1.0
  C  C101  1  0.40857000  0.70031000  0.28928000  1.0
  C  C102  1  0.90860000  0.29971000  0.21071000  1.0
  C  C103  1  0.59142000  0.29971000  0.71071000  1.0
  C  C104  1  0.27956000  0.17289000  0.88509000  1.0
  C  C105  1  0.22045000  0.17290000  0.38509000  1.0
  C  C106  1  0.72045000  0.82711000  0.11491000  1.0
  C  C107  1  0.77955000  0.82711000  0.61491000  1.0
  C  C108  1  0.28625000  0.29304000  0.88455000  1.0
  C  C109  1  0.21375000  0.29305000  0.38454000  1.0
  C  C110  1  0.71376000  0.70697000  0.11545000  1.0
  C  C111  1  0.78625000  0.70697000  0.61546000  1.0
  C  C112  1  0.19469000  0.37380000  0.83326000  1.0
  C  C113  1  0.30530000  0.37381000  0.33325000  1.0
  C  C114  1  0.80532000  0.62621000  0.16674000  1.0
  C  C115  1  0.69469000  0.62620000  0.66674000  1.0
  C  C116  1  0.10135000  0.32608000  0.78392000  1.0
  C  C117  1  0.39865000  0.32609000  0.28391000  1.0
  C  C118  1  0.89866000  0.67392000  0.21609000  1.0
  C  C119  1  0.60134000  0.67392000  0.71609000  1.0
  C  C120  1  0.10328000  0.20513000  0.78733000  1.0
  C  C121  1  0.39672000  0.20514000  0.28733000  1.0
  C  C122  1  0.89672000  0.79488000  0.21267000  1.0
  C  C123  1  0.60328000  0.79488000  0.71267000  1.0
  C  C124  1  0.27174000  0.37948000  0.10176000  1.0
  C  C125  1  0.22823000  0.37950000  0.60177000  1.0
  C  C126  1  0.72824000  0.62048000  0.89823000  1.0
  C  C127  1  0.77174000  0.62049000  0.39824000  1.0
  C  C128  1  0.14290000  0.38507000  0.05368000  1.0
  C  C129  1  0.35707000  0.38510000  0.55369000  1.0
  C  C130  1  0.85708000  0.61489000  0.94631000  1.0
  C  C131  1  0.64290000  0.61490000  0.44632000  1.0
  C  C132  1  0.06770000  0.49430000  0.02613000  1.0
  C  C133  1  0.43227000  0.49432000  0.52614000  1.0
  C  C134  1  0.93228000  0.50566000  0.97385000  1.0
  C  C135  1  0.56769000  0.50568000  0.47386000  1.0
  C  C136  1  0.12811000  0.59256000  0.05035000  1.0
  C  C137  1  0.37187000  0.59258000  0.55036000  1.0
  C  C138  1  0.87187000  0.40740000  0.94964000  1.0
  C  C139  1  0.62809000  0.40742000  0.44964000  1.0
  C  C140  1  0.25669000  0.57786000  0.09893000  1.0
  C  C141  1  0.24328000  0.57789000  0.59894000  1.0
  C  C142  1  0.74328000  0.42210000  0.90106000  1.0
  C  C143  1  0.75668000  0.42211000  0.40106000  1.0
  N  N144  1  0.18411000  0.74370000  0.83663000  1.0
  N  N145  1  0.31589000  0.74370000  0.33663000  1.0
  N  N146  1  0.81591000  0.25631000  0.16337000  1.0
  N  N147  1  0.68411000  0.25631000  0.66337000  1.0
  N  N148  1  0.18960000  0.12821000  0.83744000  1.0
  N  N149  1  0.31041000  0.12822000  0.33744000  1.0
  N  N150  1  0.81040000  0.87179000  0.16256000  1.0
  N  N151  1  0.68960000  0.87179000  0.66256000  1.0
  N  N152  1  0.32955000  0.47374000  0.12458000  1.0
  N  N153  1  0.17042000  0.47377000  0.62459000  1.0
  N  N154  1  0.67042000  0.52622000  0.87541000  1.0
  N  N155  1  0.82955000  0.52623000  0.37542000  1.0
  O  O156  1  0.19323000  0.89885000  0.95520000  1.0
  O  O157  1  0.30681000  0.89888000  0.45519000  1.0
  O  O158  1  0.80681000  0.10113000  0.04481000  1.0
  O  O159  1  0.69318000  0.10112000  0.54481000  1.0
  O  O160  1  0.44860000  0.84681000  0.98849000  1.0
  O  O161  1  0.05144000  0.84682000  0.48849000  1.0
  O  O162  1  0.55144000  0.15319000  0.01151000  1.0
  O  O163  1  0.94855000  0.15318000  0.51151000  1.0
  O  O164  1  0.28247000  0.96788000  0.21370000  1.0
  O  O165  1  0.21755000  0.96790000  0.71369000  1.0
  O  O166  1  0.71756000  0.03211000  0.78631000  1.0
  O  O167  1  0.78246000  0.03212000  0.28631000  1.0
  O  O168  1  0.04861000  0.06190000  0.18586000  1.0
  O  O169  1  0.45141000  0.06191000  0.68586000  1.0
  O  O170  1  0.95141000  0.93809000  0.81415000  1.0
  O  O171  1  0.54860000  0.93811000  0.31413000  1.0
  O  O172  1  0.45815000  0.91332000  0.84676000  1.0
  O  O173  1  0.04187000  0.91332000  0.34676000  1.0
  O  O174  1  0.54187000  0.08669000  0.15324000  1.0
  O  O175  1  0.95814000  0.08669000  0.65324000  1.0
