# generated using pymatgen
data_Al2H8C25I(NO7)2
_symmetry_space_group_name_H-M   'P 1'
_cell_length_a   6.71464000
_cell_length_b   20.71000000
_cell_length_c   23.72700000
_cell_angle_alpha   90.27400000
_cell_angle_beta   92.61300000
_cell_angle_gamma   91.71280000
_symmetry_Int_Tables_number   1
_chemical_formula_structural   Al2H8C25I(NO7)2
_chemical_formula_sum   'Al4 H16 C50 I2 N4 O28'
_cell_volume   3294.51556598
_cell_formula_units_Z   2
loop_
 _symmetry_equiv_pos_site_id
 _symmetry_equiv_pos_as_xyz
  1  'x, y, z'
loop_
 _atom_site_type_symbol
 _atom_site_label
 _atom_site_symmetry_multiplicity
 _atom_site_fract_x
 _atom_site_fract_y
 _atom_site_fract_z
 _atom_site_occupancy
  Al  Al0  1  0.80010000  0.25162000  0.25336000  1.0
  Al  Al1  1  0.19990000  0.74838000  0.74664000  1.0
  Al  Al2  1  0.29994000  0.25175000  0.25233000  1.0
  Al  Al3  1  0.70006000  0.74825000  0.74767000  1.0
  H  H4  1  0.19898000  0.41293000  0.54117000  1.0
  H  H5  1  0.80099000  0.58707000  0.45883000  1.0
  H  H6  1  0.81016000  0.44558000  0.57298000  1.0
  H  H7  1  0.18981000  0.55442000  0.42702000  1.0
  H  H8  1  0.27690000  0.57570000  0.97632000  1.0
  H  H9  1  0.72314000  0.42429000  0.02368000  1.0
  H  H10  1  0.19939000  0.05102000  0.45651000  1.0
  H  H11  1  0.80066000  0.94898000  0.54350000  1.0
  H  H12  1  0.16371000  0.97014000  0.53357000  1.0
  H  H13  1  0.83632000  0.02986000  0.46643000  1.0
  H  H14  1  0.22510000  0.07201000  0.02221000  1.0
  H  H15  1  0.77487000  0.92799000  0.97778000  1.0
  H  H16  1  0.55729000  0.33656000  0.24822000  1.0
  H  H17  1  0.44270000  0.66344000  0.75178000  1.0
  H  H18  1  0.04049000  0.16769000  0.24196000  1.0
  H  H19  1  0.95950000  0.83231000  0.75804000  1.0
  C  C20  1  0.55468000  0.17468000  0.32851000  1.0
  C  C21  1  0.44532000  0.82531000  0.67149000  1.0
  C  C22  1  0.53111000  0.17372000  0.17627000  1.0
  C  C23  1  0.46889000  0.82627000  0.82373000  1.0
  C  C24  1  0.04290000  0.32864000  0.17624000  1.0
  C  C25  1  0.95711000  0.67136000  0.82376000  1.0
  C  C26  1  0.07139000  0.32896000  0.32908000  1.0
  C  C27  1  0.92862000  0.67105000  0.67093000  1.0
  C  C28  1  0.89549000  0.46918000  0.54041000  1.0
  C  C29  1  0.10448000  0.53082000  0.45959000  1.0
  C  C30  1  0.10966000  0.45161000  0.52326000  1.0
  C  C31  1  0.89031000  0.54840000  0.47674000  1.0
  C  C32  1  0.07925000  0.37351000  0.37595000  1.0
  C  C33  1  0.92074000  0.62650000  0.62404000  1.0
  C  C34  1  0.82766000  0.47512000  0.47685000  1.0
  C  C35  1  0.17230000  0.52489000  0.52315000  1.0
  C  C36  1  0.04326000  0.45644000  0.45861000  1.0
  C  C37  1  0.95672000  0.54356000  0.54138000  1.0
  C  C38  1  0.07560000  0.41189000  0.41498000  1.0
  C  C39  1  0.92437000  0.58812000  0.58503000  1.0
  C  C40  1  0.18010000  0.49945000  0.03028000  1.0
  C  C41  1  0.81993000  0.50055000  0.96972000  1.0
  C  C42  1  0.02745000  0.45502000  0.04537000  1.0
  C  C43  1  0.97257000  0.54499000  0.95463000  1.0
  C  C44  1  0.84591000  0.45692000  0.01336000  1.0
  C  C45  1  0.15412000  0.54308000  0.98663000  1.0
  C  C46  1  0.04272000  0.41111000  0.09055000  1.0
  C  C47  1  0.95731000  0.58889000  0.90945000  1.0
  C  C48  1  0.96114000  0.62729000  0.87083000  1.0
  C  C49  1  0.03887000  0.37271000  0.12917000  1.0
  C  C50  1  0.31010000  0.98353000  0.51856000  1.0
  C  C51  1  0.68993000  0.01647000  0.48144000  1.0
  C  C52  1  0.47999000  0.95450000  0.54339000  1.0
  C  C53  1  0.52005000  0.04549000  0.45661000  1.0
  C  C54  1  0.67031000  0.97165000  0.52416000  1.0
  C  C55  1  0.32973000  0.02834000  0.47585000  1.0
  C  C56  1  0.46124000  0.90902000  0.58722000  1.0
  C  C57  1  0.53878000  0.09097000  0.41278000  1.0
  C  C58  1  0.55117000  0.12990000  0.37469000  1.0
  C  C59  1  0.44884000  0.87009000  0.62531000  1.0
  C  C60  1  0.32204000  0.99666000  0.96857000  1.0
  C  C61  1  0.67793000  0.00334000  0.03143000  1.0
  C  C62  1  0.47408000  0.95438000  0.95434000  1.0
  C  C63  1  0.52587000  0.04562000  0.04565000  1.0
  C  C64  1  0.65320000  0.95907000  0.98752000  1.0
  C  C65  1  0.34675000  0.04093000  0.01248000  1.0
  C  C66  1  0.46224000  0.90995000  0.90895000  1.0
  C  C67  1  0.53773000  0.09005000  0.09104000  1.0
  C  C68  1  0.52670000  0.12876000  0.12944000  1.0
  C  C69  1  0.47329000  0.87123000  0.87057000  1.0
  I  I70  1  0.43269000  0.56731000  0.56295000  1.0
  I  I71  1  0.56728000  0.43268000  0.43706000  1.0
  N  N72  1  0.37790000  0.50013000  0.06014000  1.0
  N  N73  1  0.62213000  0.49988000  0.93986000  1.0
  N  N74  1  0.12607000  0.99425000  0.93773000  1.0
  N  N75  1  0.87389000  0.00575000  0.06226000  1.0
  O  O76  1  0.36418000  0.19171000  0.19300000  1.0
  O  O77  1  0.63581000  0.80828000  0.80700000  1.0
  O  O78  1  0.72470000  0.19273000  0.31160000  1.0
  O  O79  1  0.27530000  0.80727000  0.68840000  1.0
  O  O80  1  0.89725000  0.31209000  0.30985000  1.0
  O  O81  1  0.10275000  0.68792000  0.69015000  1.0
  O  O82  1  0.70438000  0.19004000  0.19640000  1.0
  O  O83  1  0.29562000  0.80996000  0.80360000  1.0
  O  O84  1  0.87436000  0.31123000  0.19442000  1.0
  O  O85  1  0.12564000  0.68878000  0.80558000  1.0
  O  O86  1  0.38464000  0.19117000  0.30838000  1.0
  O  O87  1  0.61538000  0.80882000  0.69162000  1.0
  O  O88  1  0.55345000  0.29001000  0.25212000  1.0
  O  O89  1  0.44655000  0.70999000  0.74788000  1.0
  O  O90  1  0.21482000  0.31258000  0.19507000  1.0
  O  O91  1  0.78518000  0.68742000  0.80492000  1.0
  O  O92  1  0.23657000  0.31131000  0.31074000  1.0
  O  O93  1  0.76345000  0.68869000  0.68926000  1.0
  O  O94  1  0.04649000  0.21320000  0.25179000  1.0
  O  O95  1  0.95351000  0.78680000  0.74822000  1.0
  O  O96  1  0.42848000  0.45034000  0.08483000  1.0
  O  O97  1  0.48262000  0.55041000  0.05744000  1.0
  O  O98  1  0.57154000  0.54966000  0.91518000  1.0
  O  O99  1  0.51743000  0.44959000  0.94255000  1.0
  O  O100  1  0.07435000  0.94347000  0.91278000  1.0
  O  O101  1  0.02356000  0.04307000  0.94000000  1.0
  O  O102  1  0.92564000  0.05653000  0.08721000  1.0
  O  O103  1  0.97640000  0.95693000  0.05999000  1.0
