# generated using pymatgen
data_CdH14C12(NCl)2
_symmetry_space_group_name_H-M   'P 1'
_cell_length_a   3.89256000
_cell_length_b   10.53880000
_cell_length_c   16.50591926
_cell_angle_alpha   97.62987253
_cell_angle_beta   96.66528297
_cell_angle_gamma   100.58400000
_symmetry_Int_Tables_number   1
_chemical_formula_structural   CdH14C12(NCl)2
_chemical_formula_sum   'Cd2 H28 C24 N4 Cl4'
_cell_volume   652.81645977
_cell_formula_units_Z   2
loop_
 _symmetry_equiv_pos_site_id
 _symmetry_equiv_pos_as_xyz
  1  'x, y, z'
loop_
 _atom_site_type_symbol
 _atom_site_label
 _atom_site_symmetry_multiplicity
 _atom_site_fract_x
 _atom_site_fract_y
 _atom_site_fract_z
 _atom_site_occupancy
  Cd  Cd0  1  0.31915000  0.24963000  0.25055000  1.0
  Cd  Cd1  1  0.68083000  0.75037000  0.74945000  1.0
  H  H2  1  0.92260000  0.96708000  0.27734000  1.0
  H  H3  1  0.17587000  0.53160000  0.22375000  1.0
  H  H4  1  0.07738000  0.03291000  0.72266000  1.0
  H  H5  1  0.82412000  0.46841000  0.77625000  1.0
  H  H6  1  0.71227000  0.73715000  0.20444000  1.0
  H  H7  1  0.26955000  0.76209000  0.29595000  1.0
  H  H8  1  0.28776000  0.26285000  0.79556000  1.0
  H  H9  1  0.73046000  0.23792000  0.70406000  1.0
  H  H10  1  0.19469000  0.85325000  0.99679000  1.0
  H  H11  1  0.84794000  0.64755000  0.50314000  1.0
  H  H12  1  0.80531000  0.14675000  0.00321000  1.0
  H  H13  1  0.15208000  0.35245000  0.49686000  1.0
  H  H14  1  0.39303000  0.07922000  0.07943000  1.0
  H  H15  1  0.73595000  0.42087000  0.42127000  1.0
  H  H16  1  0.60692000  0.92078000  0.92057000  1.0
  H  H17  1  0.26405000  0.57913000  0.57873000  1.0
  H  H18  1  0.93404000  0.62284000  0.99309000  1.0
  H  H19  1  0.81787000  0.87747000  0.50679000  1.0
  H  H20  1  0.06598000  0.37716000  0.00691000  1.0
  H  H21  1  0.18215000  0.12252000  0.49321000  1.0
  H  H22  1  0.80905000  0.56565000  0.08560000  1.0
  H  H23  1  0.66251000  0.93443000  0.41389000  1.0
  H  H24  1  0.19096000  0.43435000  0.91440000  1.0
  H  H25  1  0.33750000  0.06557000  0.58611000  1.0
  H  H26  1  0.51642000  0.63225000  0.02105000  1.0
  H  H27  1  0.36420000  0.86921000  0.47816000  1.0
  H  H28  1  0.48359000  0.36775000  0.97894000  1.0
  H  H29  1  0.63582000  0.13079000  0.52185000  1.0
  C  C30  1  0.98037000  0.93696000  0.21532000  1.0
  C  C31  1  0.32697000  0.56218000  0.28547000  1.0
  C  C32  1  0.01962000  0.06303000  0.78467000  1.0
  C  C33  1  0.67302000  0.43783000  0.71453000  1.0
  C  C34  1  0.86313000  0.80978000  0.17407000  1.0
  C  C35  1  0.37900000  0.68966000  0.32632000  1.0
  C  C36  1  0.13686000  0.19021000  0.82592000  1.0
  C  C37  1  0.62100000  0.31034000  0.67368000  1.0
  C  C38  1  0.93412000  0.77586000  0.09364000  1.0
  C  C39  1  0.56610000  0.72423000  0.40644000  1.0
  C  C40  1  0.06588000  0.22414000  0.90636000  1.0
  C  C41  1  0.43390000  0.27577000  0.59356000  1.0
  C  C42  1  0.13011000  0.87472000  0.05908000  1.0
  C  C43  1  0.69853000  0.62561000  0.44109000  1.0
  C  C44  1  0.86988000  0.12529000  0.94092000  1.0
  C  C45  1  0.30148000  0.37439000  0.55891000  1.0
  C  C46  1  0.23926000  0.99986000  0.10427000  1.0
  C  C47  1  0.63629000  0.50006000  0.39635000  1.0
  C  C48  1  0.76072000  0.00015000  0.89573000  1.0
  C  C49  1  0.36371000  0.49994000  0.60365000  1.0
  C  C50  1  0.79564000  0.64150000  0.04625000  1.0
  C  C51  1  0.60967000  0.85894000  0.45339000  1.0
  C  C52  1  0.20437000  0.35849000  0.95375000  1.0
  C  C53  1  0.39035000  0.14106000  0.54662000  1.0
  N  N54  1  0.16511000  0.03155000  0.18103000  1.0
  N  N55  1  0.45211000  0.46780000  0.31989000  1.0
  N  N56  1  0.83488000  0.96845000  0.81897000  1.0
  N  N57  1  0.54789000  0.53220000  0.68012000  1.0
  Cl  Cl58  1  0.79372000  0.30870000  0.14869000  1.0
  Cl  Cl59  1  0.83451000  0.19034000  0.35229000  1.0
  Cl  Cl60  1  0.20626000  0.69130000  0.85131000  1.0
  Cl  Cl61  1  0.16547000  0.80966000  0.64771000  1.0
