# generated using pymatgen
data_CdH10C9(NO3)2
_symmetry_space_group_name_H-M   'P 1'
_cell_length_a   7.31039000
_cell_length_b   7.52020000
_cell_length_c   29.34960000
_cell_angle_alpha   90.00000000
_cell_angle_beta   90.00000000
_cell_angle_gamma   94.40440000
_symmetry_Int_Tables_number   1
_chemical_formula_structural   CdH10C9(NO3)2
_chemical_formula_sum   'Cd4 H40 C36 N8 O24'
_cell_volume   1608.74678970
_cell_formula_units_Z   4
loop_
 _symmetry_equiv_pos_site_id
 _symmetry_equiv_pos_as_xyz
  1  'x, y, z'
loop_
 _atom_site_type_symbol
 _atom_site_label
 _atom_site_symmetry_multiplicity
 _atom_site_fract_x
 _atom_site_fract_y
 _atom_site_fract_z
 _atom_site_occupancy
  Cd  Cd0  1  0.79165000  0.17390000  0.78076000  1.0
  Cd  Cd1  1  0.70834000  0.32610000  0.28076000  1.0
  Cd  Cd2  1  0.20834000  0.82610000  0.21924000  1.0
  Cd  Cd3  1  0.29166000  0.67390000  0.71924000  1.0
  H  H4  1  0.31566000  0.83711000  0.97524000  1.0
  H  H5  1  0.18433000  0.66289000  0.47523000  1.0
  H  H6  1  0.68433000  0.16289000  0.02477000  1.0
  H  H7  1  0.81567000  0.33710000  0.52476000  1.0
  H  H8  1  0.11938000  0.89254000  0.00602000  1.0
  H  H9  1  0.38062000  0.60746000  0.50601000  1.0
  H  H10  1  0.88062000  0.10747000  0.99399000  1.0
  H  H11  1  0.61939000  0.39253000  0.49398000  1.0
  H  H12  1  0.06695000  0.06382000  0.73143000  1.0
  H  H13  1  0.43304000  0.43619000  0.23143000  1.0
  H  H14  1  0.93304000  0.93619000  0.26857000  1.0
  H  H15  1  0.56696000  0.56382000  0.76857000  1.0
  H  H16  1  0.07749000  0.27842000  0.73243000  1.0
  H  H17  1  0.42250000  0.22158000  0.23243000  1.0
  H  H18  1  0.92251000  0.72158000  0.26757000  1.0
  H  H19  1  0.57749000  0.77842000  0.76757000  1.0
  H  H20  1  0.54125000  0.18757000  0.64077000  1.0
  H  H21  1  0.95875000  0.31243000  0.14077000  1.0
  H  H22  1  0.45875000  0.81243000  0.35923000  1.0
  H  H23  1  0.04125000  0.68757000  0.85923000  1.0
  H  H24  1  0.75431000  0.19703000  0.67244000  1.0
  H  H25  1  0.74569000  0.30297000  0.17244000  1.0
  H  H26  1  0.24569000  0.80297000  0.32757000  1.0
  H  H27  1  0.25431000  0.69703000  0.82756000  1.0
  H  H28  1  0.36058000  0.23500000  0.80270000  1.0
  H  H29  1  0.13942000  0.26500000  0.30269000  1.0
  H  H30  1  0.63943000  0.76500000  0.19730000  1.0
  H  H31  1  0.86058000  0.73500000  0.69730000  1.0
  H  H32  1  0.12838000  0.18821000  0.86545000  1.0
  H  H33  1  0.37161000  0.31180000  0.36544000  1.0
  H  H34  1  0.87161000  0.81180000  0.13456000  1.0
  H  H35  1  0.62840000  0.68820000  0.63455000  1.0
  H  H36  1  0.55594000  0.97830000  0.94705000  1.0
  H  H37  1  0.94405000  0.52169000  0.44705000  1.0
  H  H38  1  0.44405000  0.02170000  0.05296000  1.0
  H  H39  1  0.05596000  0.47829000  0.55295000  1.0
  H  H40  1  0.76791000  0.03624000  0.88182000  1.0
  H  H41  1  0.73208000  0.46375000  0.38182000  1.0
  H  H42  1  0.23209000  0.96375000  0.11818000  1.0
  H  H43  1  0.26792000  0.53624000  0.61818000  1.0
  C  C44  1  0.54729000  0.00732000  0.69753000  1.0
  C  C45  1  0.95271000  0.49268000  0.19753000  1.0
  C  C46  1  0.45271000  0.99268000  0.30247000  1.0
  C  C47  1  0.04729000  0.50732000  0.80247000  1.0
  C  C48  1  0.60341000  0.18544000  0.67462000  1.0
  C  C49  1  0.89659000  0.31456000  0.17462000  1.0
  C  C50  1  0.39659000  0.81456000  0.32538000  1.0
  C  C51  1  0.10341000  0.68544000  0.82538000  1.0
  C  C52  1  0.54652000  0.34497000  0.70209000  1.0
  C  C53  1  0.95349000  0.15504000  0.20209000  1.0
  C  C54  1  0.45348000  0.65504000  0.29791000  1.0
  C  C55  1  0.04651000  0.84497000  0.79791000  1.0
  C  C56  1  0.39714000  0.17775000  0.83530000  1.0
  C  C57  1  0.10286000  0.32224000  0.33529000  1.0
  C  C58  1  0.60286000  0.82224000  0.16471000  1.0
  C  C59  1  0.89715000  0.67775000  0.66470000  1.0
  C  C60  1  0.26824000  0.15125000  0.87007000  1.0
  C  C61  1  0.23175000  0.34875000  0.37006000  1.0
  C  C62  1  0.73175000  0.84875000  0.12994000  1.0
  C  C63  1  0.76825000  0.65124000  0.62993000  1.0
  C  C64  1  0.32114000  0.07390000  0.91088000  1.0
  C  C65  1  0.17886000  0.42611000  0.41088000  1.0
  C  C66  1  0.67886000  0.92611000  0.08912000  1.0
  C  C67  1  0.82116000  0.57389000  0.58912000  1.0
  C  C68  1  0.50371000  0.03248000  0.91557000  1.0
  C  C69  1  0.99628000  0.46751000  0.41556000  1.0
  C  C70  1  0.49628000  0.96752000  0.08444000  1.0
  C  C71  1  0.00372000  0.53247000  0.58443000  1.0
  C  C72  1  0.62472000  0.06623000  0.87943000  1.0
  C  C73  1  0.87529000  0.43377000  0.37942000  1.0
  C  C74  1  0.37528000  0.93377000  0.12058000  1.0
  C  C75  1  0.12472000  0.56623000  0.62057000  1.0
  C  C76  1  0.18129000  0.04258000  0.94818000  1.0
  C  C77  1  0.31871000  0.45742000  0.44818000  1.0
  C  C78  1  0.81870000  0.95743000  0.05182000  1.0
  C  C79  1  0.68131000  0.54257000  0.55182000  1.0
  N  N80  1  0.57177000  0.13535000  0.83977000  1.0
  N  N81  1  0.92822000  0.36464000  0.33976000  1.0
  N  N82  1  0.42823000  0.86464000  0.16024000  1.0
  N  N83  1  0.07178000  0.63536000  0.66024000  1.0
  N  N84  1  0.21354000  0.91884000  0.97984000  1.0
  N  N85  1  0.28646000  0.58116000  0.47984000  1.0
  N  N86  1  0.78646000  0.08117000  0.02016000  1.0
  N  N87  1  0.71355000  0.41883000  0.52016000  1.0
  O  O88  1  0.04353000  0.13118000  0.94924000  1.0
  O  O89  1  0.45647000  0.36883000  0.44923000  1.0
  O  O90  1  0.95648000  0.86883000  0.05077000  1.0
  O  O91  1  0.54354000  0.63117000  0.55076000  1.0
  O  O92  1  0.61871000  0.97270000  0.73602000  1.0
  O  O93  1  0.88128000  0.52731000  0.23602000  1.0
  O  O94  1  0.38128000  0.02731000  0.26398000  1.0
  O  O95  1  0.11872000  0.47269000  0.76398000  1.0
  O  O96  1  0.61772000  0.37399000  0.74159000  1.0
  O  O97  1  0.88227000  0.12601000  0.24159000  1.0
  O  O98  1  0.38227000  0.62601000  0.25841000  1.0
  O  O99  1  0.11772000  0.87399000  0.75841000  1.0
  O  O100  1  0.43288000  0.44152000  0.68373000  1.0
  O  O101  1  0.06713000  0.05849000  0.18374000  1.0
  O  O102  1  0.56712000  0.55848000  0.31627000  1.0
  O  O103  1  0.93287000  0.94151000  0.81626000  1.0
  O  O104  1  0.43257000  0.90126000  0.67680000  1.0
  O  O105  1  0.06744000  0.59874000  0.17680000  1.0
  O  O106  1  0.56744000  0.09874000  0.32320000  1.0
  O  O107  1  0.93257000  0.40126000  0.82320000  1.0
  O  O108  1  0.00668000  0.17069000  0.72037000  1.0
  O  O109  1  0.49332000  0.32931000  0.22037000  1.0
  O  O110  1  0.99332000  0.82931000  0.27963000  1.0
  O  O111  1  0.50668000  0.67069000  0.77963000  1.0
