# generated using pymatgen
data_Er2H20C28N2O17
_symmetry_space_group_name_H-M   'P 1'
_cell_length_a   10.22560000
_cell_length_b   12.02330000
_cell_length_c   12.97010000
_cell_angle_alpha   74.71490000
_cell_angle_beta   76.27360000
_cell_angle_gamma   71.31150000
_symmetry_Int_Tables_number   1
_chemical_formula_structural   Er2H20C28N2O17
_chemical_formula_sum   'Er4 H40 C56 N4 O34'
_cell_volume   1436.58366886
_cell_formula_units_Z   2
loop_
 _symmetry_equiv_pos_site_id
 _symmetry_equiv_pos_as_xyz
  1  'x, y, z'
loop_
 _atom_site_type_symbol
 _atom_site_label
 _atom_site_symmetry_multiplicity
 _atom_site_fract_x
 _atom_site_fract_y
 _atom_site_fract_z
 _atom_site_occupancy
  Er  Er0  1  0.80343000  0.28001000  0.94867000  1.0
  Er  Er1  1  0.19657000  0.71999000  0.05133000  1.0
  Er  Er2  1  0.20816000  0.21937000  0.10655000  1.0
  Er  Er3  1  0.79184000  0.78063000  0.89345000  1.0
  H  H4  1  0.68277000  0.45956000  0.77054000  1.0
  H  H5  1  0.31723000  0.54044000  0.22946000  1.0
  H  H6  1  0.68889000  0.53238000  0.85796000  1.0
  H  H7  1  0.31111000  0.46762000  0.14204000  1.0
  H  H8  1  0.89024000  0.42081000  0.07059000  1.0
  H  H9  1  0.10976000  0.57919000  0.92941000  1.0
  H  H10  1  0.73974000  0.49446000  0.04905000  1.0
  H  H11  1  0.26026000  0.50554000  0.95095000  1.0
  H  H12  1  0.12524000  0.03828000  0.03982000  1.0
  H  H13  1  0.87476000  0.96173000  0.96018000  1.0
  H  H14  1  0.28482000  0.99197000  0.03168000  1.0
  H  H15  1  0.71518000  0.00802000  0.96833000  1.0
  H  H16  1  0.02588000  0.74627000  0.41137000  1.0
  H  H17  1  0.97412000  0.25373000  0.58863000  1.0
  H  H18  1  0.85735000  0.81850000  0.57335000  1.0
  H  H19  1  0.14265000  0.18150000  0.42665000  1.0
  H  H20  1  0.69770000  0.02646000  0.54471000  1.0
  H  H21  1  0.30229000  0.97354000  0.45529000  1.0
  H  H22  1  0.35981000  0.32128000  0.31242000  1.0
  H  H23  1  0.64019000  0.67872000  0.68758000  1.0
  H  H24  1  0.53369000  0.12129000  0.34100000  1.0
  H  H25  1  0.46631000  0.87871000  0.65899000  1.0
  H  H26  1  0.83355000  0.26382000  0.38350000  1.0
  H  H27  1  0.16645000  0.73618000  0.61650000  1.0
  H  H28  1  0.67061000  0.47047000  0.36208000  1.0
  H  H29  1  0.32939000  0.52953000  0.63792000  1.0
  H  H30  1  0.99085000  0.63334000  0.56864000  1.0
  H  H31  1  0.00915000  0.36666000  0.43136000  1.0
  H  H32  1  0.17418000  0.51425000  0.44190000  1.0
  H  H33  1  0.82582000  0.48574000  0.55810000  1.0
  H  H34  1  0.34105000  0.32552000  0.52087000  1.0
  H  H35  1  0.65895000  0.67448000  0.47913000  1.0
  H  H36  1  0.40073000  0.93934000  0.82513000  1.0
  H  H37  1  0.59927000  0.06066000  0.17487000  1.0
  H  H38  1  0.21567000  0.12720000  0.78882000  1.0
  H  H39  1  0.78433000  0.87280000  0.21118000  1.0
  H  H40  1  0.50628000  0.32855000  0.67272000  1.0
  H  H41  1  0.49372000  0.67145000  0.32728000  1.0
  H  H42  1  0.70443000  0.14733000  0.70413000  1.0
  H  H43  1  0.29557000  0.85267000  0.29587000  1.0
  C  C44  1  0.90165000  0.12390000  0.18291000  1.0
  C  C45  1  0.09835000  0.87610000  0.81708000  1.0
  C  C46  1  0.05933000  0.85735000  0.20907000  1.0
  C  C47  1  0.94067000  0.14265000  0.79093000  1.0
  C  C48  1  0.88331000  0.03243000  0.28707000  1.0
  C  C49  1  0.11669000  0.96757000  0.71293000  1.0
  C  C50  1  0.96803000  0.91298000  0.30176000  1.0
  C  C51  1  0.03198000  0.08702000  0.69824000  1.0
  C  C52  1  0.95787000  0.83761000  0.40455000  1.0
  C  C53  1  0.04213000  0.16239000  0.59546000  1.0
  C  C54  1  0.86348000  0.87691000  0.49310000  1.0
  C  C55  1  0.13652000  0.12309000  0.50690000  1.0
  C  C56  1  0.77430000  0.99304000  0.47776000  1.0
  C  C57  1  0.22570000  0.00696000  0.52224000  1.0
  C  C58  1  0.78468000  0.06849000  0.37584000  1.0
  C  C59  1  0.21532000  0.93151000  0.62416000  1.0
  C  C60  1  0.46288000  0.31331000  0.32827000  1.0
  C  C61  1  0.53712000  0.68669000  0.67173000  1.0
  C  C62  1  0.55686000  0.20268000  0.34348000  1.0
  C  C63  1  0.44314000  0.79732000  0.65652000  1.0
  C  C64  1  0.72735000  0.28356000  0.36842000  1.0
  C  C65  1  0.27265000  0.71644000  0.63158000  1.0
  C  C66  1  0.63713000  0.39590000  0.35572000  1.0
  C  C67  1  0.36287000  0.60410000  0.64428000  1.0
  C  C68  1  0.49955000  0.41853000  0.33163000  1.0
  C  C69  1  0.50045000  0.58147000  0.66837000  1.0
  C  C70  1  0.52361000  0.19913000  0.99480000  1.0
  C  C71  1  0.47639000  0.80088000  0.00520000  1.0
  C  C72  1  0.48278000  0.31052000  0.04537000  1.0
  C  C73  1  0.51722000  0.68948000  0.95463000  1.0
  C  C74  1  0.12446000  0.34538000  0.87611000  1.0
  C  C75  1  0.87553000  0.65462000  0.12389000  1.0
  C  C76  1  0.95470000  0.59879000  0.77972000  1.0
  C  C77  1  0.04530000  0.40121000  0.22028000  1.0
  C  C78  1  0.14127000  0.40152000  0.75697000  1.0
  C  C79  1  0.85873000  0.59848000  0.24303000  1.0
  C  C80  1  0.05163000  0.51137000  0.71230000  1.0
  C  C81  1  0.94837000  0.48863000  0.28770000  1.0
  C  C82  1  0.06313000  0.54904000  0.59961000  1.0
  C  C83  1  0.93687000  0.45096000  0.40039000  1.0
  C  C84  1  0.16440000  0.48295000  0.52951000  1.0
  C  C85  1  0.83560000  0.51705000  0.47049000  1.0
  C  C86  1  0.25801000  0.37790000  0.57315000  1.0
  C  C87  1  0.74199000  0.62210000  0.42685000  1.0
  C  C88  1  0.24692000  0.33875000  0.68540000  1.0
  C  C89  1  0.75308000  0.66125000  0.31460000  1.0
  C  C90  1  0.43054000  0.02194000  0.78841000  1.0
  C  C91  1  0.56946000  0.97806000  0.21159000  1.0
  C  C92  1  0.32557000  0.12559000  0.76899000  1.0
  C  C93  1  0.67443000  0.87441000  0.23101000  1.0
  C  C94  1  0.49001000  0.23919000  0.70151000  1.0
  C  C95  1  0.50999000  0.76081000  0.29849000  1.0
  C  C96  1  0.59861000  0.13811000  0.71969000  1.0
  C  C97  1  0.40139000  0.86189000  0.28031000  1.0
  C  C98  1  0.57451000  0.02242000  0.76189000  1.0
  C  C99  1  0.42549000  0.97758000  0.23811000  1.0
  N  N100  1  0.68860000  0.18707000  0.36198000  1.0
  N  N101  1  0.31140000  0.81293000  0.63801000  1.0
  N  N102  1  0.35419000  0.23301000  0.72349000  1.0
  N  N103  1  0.64580000  0.76699000  0.27651000  1.0
  O  O104  1  0.81706000  0.15082000  0.11749000  1.0
  O  O105  1  0.18294000  0.84918000  0.88251000  1.0
  O  O106  1  0.00013000  0.17050000  0.17303000  1.0
  O  O107  1  0.99987000  0.82950000  0.82697000  1.0
  O  O108  1  0.04546000  0.90971000  0.11098000  1.0
  O  O109  1  0.95455000  0.09029000  0.88902000  1.0
  O  O110  1  0.14291000  0.75328000  0.23107000  1.0
  O  O111  1  0.85709000  0.24672000  0.76893000  1.0
  O  O112  1  0.41671000  0.52399000  0.31553000  1.0
  O  O113  1  0.58329000  0.47602000  0.68447000  1.0
  O  O114  1  0.65072000  0.16799000  0.94846000  1.0
  O  O115  1  0.34927000  0.83201000  0.05154000  1.0
  O  O116  1  0.43206000  0.14628000  0.00576000  1.0
  O  O117  1  0.56794000  0.85372000  0.99424000  1.0
  O  O118  1  0.57613000  0.36023000  0.03809000  1.0
  O  O119  1  0.42387000  0.63977000  0.96190000  1.0
  O  O120  1  0.35612000  0.34130000  0.09330000  1.0
  O  O121  1  0.64388000  0.65870000  0.90670000  1.0
  O  O122  1  0.21720000  0.33758000  0.92894000  1.0
  O  O123  1  0.78280000  0.66242000  0.07106000  1.0
  O  O124  1  0.02286000  0.29951000  0.91432000  1.0
  O  O125  1  0.97714000  0.70049000  0.08568000  1.0
  O  O126  1  0.96349000  0.58380000  0.87958000  1.0
  O  O127  1  0.03651000  0.41620000  0.12042000  1.0
  O  O128  1  0.86959000  0.69197000  0.73460000  1.0
  O  O129  1  0.13040000  0.30803000  0.26540000  1.0
  O  O130  1  0.67640000  0.92617000  0.77380000  1.0
  O  O131  1  0.32360000  0.07383000  0.22620000  1.0
  O  O132  1  0.73115000  0.45563000  0.83174000  1.0
  O  O133  1  0.26885000  0.54437000  0.16826000  1.0
  O  O134  1  0.80347000  0.41386000  0.05436000  1.0
  O  O135  1  0.19652000  0.58614000  0.94564000  1.0
  O  O136  1  0.20860000  0.06794000  0.02433000  1.0
  O  O137  1  0.79141000  0.93206000  0.97567000  1.0
