# generated using pymatgen
data_NaPH17C8NO6
_symmetry_space_group_name_H-M   'P 1'
_cell_length_a   5.12255000
_cell_length_b   13.91430000
_cell_length_c   17.33200000
_cell_angle_alpha   100.44100000
_cell_angle_beta   90.00000000
_cell_angle_gamma   90.00000000
_symmetry_Int_Tables_number   1
_chemical_formula_structural   NaPH17C8NO6
_chemical_formula_sum   'Na4 P4 H68 C32 N4 O24'
_cell_volume   1214.91255389
_cell_formula_units_Z   4
loop_
 _symmetry_equiv_pos_site_id
 _symmetry_equiv_pos_as_xyz
  1  'x, y, z'
loop_
 _atom_site_type_symbol
 _atom_site_label
 _atom_site_symmetry_multiplicity
 _atom_site_fract_x
 _atom_site_fract_y
 _atom_site_fract_z
 _atom_site_occupancy
  Na  Na0  1  0.95512000  0.63242000  0.00219000  1.0
  Na  Na1  1  0.45512000  0.86758000  0.99781000  1.0
  Na  Na2  1  0.04487000  0.36758000  0.99781000  1.0
  Na  Na3  1  0.54487000  0.13242000  0.00219000  1.0
  P  P4  1  0.66947000  0.66958000  0.19896000  1.0
  P  P5  1  0.16945000  0.83042000  0.80104000  1.0
  P  P6  1  0.33053000  0.33043000  0.80104000  1.0
  P  P7  1  0.83053000  0.16957000  0.19896000  1.0
  H  H8  1  0.08577000  0.66930000  0.25288000  1.0
  H  H9  1  0.58575000  0.83070000  0.74712000  1.0
  H  H10  1  0.91424000  0.33070000  0.74712000  1.0
  H  H11  1  0.41423000  0.16930000  0.25288000  1.0
  H  H12  1  0.24016000  0.53911000  0.86971000  1.0
  H  H13  1  0.74016000  0.96089000  0.13029000  1.0
  H  H14  1  0.75983000  0.46089000  0.13029000  1.0
  H  H15  1  0.25983000  0.03910000  0.86971000  1.0
  H  H16  1  0.16761000  0.64939000  0.85622000  1.0
  H  H17  1  0.66762000  0.85061000  0.14378000  1.0
  H  H18  1  0.83238000  0.35061000  0.14378000  1.0
  H  H19  1  0.33238000  0.14939000  0.85622000  1.0
  H  H20  1  0.23182000  0.70961000  0.38418000  1.0
  H  H21  1  0.73179000  0.79038000  0.61582000  1.0
  H  H22  1  0.76820000  0.29039000  0.61582000  1.0
  H  H23  1  0.26819000  0.20962000  0.38418000  1.0
  H  H24  1  0.20170000  0.81949000  0.51210000  1.0
  H  H25  1  0.70166000  0.68051000  0.48790000  1.0
  H  H26  1  0.79833000  0.18051000  0.48790000  1.0
  H  H27  1  0.29833000  0.31950000  0.51211000  1.0
  H  H28  1  0.83773000  0.94132000  0.53908000  1.0
  H  H29  1  0.33769000  0.55868000  0.46092000  1.0
  H  H30  1  0.16230000  0.05868000  0.46091000  1.0
  H  H31  1  0.66231000  0.44132000  0.53908000  1.0
  H  H32  1  0.49992000  0.94604000  0.43625000  1.0
  H  H33  1  0.99988000  0.55396000  0.56375000  1.0
  H  H34  1  0.50011000  0.05396000  0.56374000  1.0
  H  H35  1  0.00011000  0.44604000  0.43625000  1.0
  H  H36  1  0.53139000  0.83558000  0.30768000  1.0
  H  H37  1  0.03137000  0.66442000  0.69232000  1.0
  H  H38  1  0.46862000  0.16441000  0.69232000  1.0
  H  H39  1  0.96862000  0.33558000  0.30767000  1.0
  H  H40  1  0.56987000  0.58027000  0.35014000  1.0
  H  H41  1  0.06986000  0.91973000  0.64986000  1.0
  H  H42  1  0.43013000  0.41974000  0.64986000  1.0
  H  H43  1  0.93014000  0.08027000  0.35014000  1.0
  H  H44  1  0.69975000  0.50785000  0.26371000  1.0
  H  H45  1  0.19975000  0.99214000  0.73629000  1.0
  H  H46  1  0.30025000  0.49215000  0.73630000  1.0
  H  H47  1  0.80025000  0.00785000  0.26371000  1.0
  H  H48  1  0.34769000  0.41871000  0.32341000  1.0
  H  H49  1  0.84770000  0.08129000  0.67659000  1.0
  H  H50  1  0.65230000  0.58130000  0.67660000  1.0
  H  H51  1  0.15230000  0.91871000  0.32340000  1.0
  H  H52  1  0.26471000  0.43469000  0.22703000  1.0
  H  H53  1  0.76471000  0.06532000  0.77297000  1.0
  H  H54  1  0.73530000  0.56532000  0.77297000  1.0
  H  H55  1  0.23529000  0.93469000  0.22703000  1.0
  H  H56  1  0.11987000  0.51090000  0.31007000  1.0
  H  H57  1  0.61986000  0.98910000  0.68993000  1.0
  H  H58  1  0.88013000  0.48910000  0.68993000  1.0
  H  H59  1  0.38013000  0.01090000  0.31007000  1.0
  H  H60  1  0.86792000  0.45151000  0.89355000  1.0
  H  H61  1  0.36792000  0.04848000  0.10644000  1.0
  H  H62  1  0.13207000  0.54848000  0.10645000  1.0
  H  H63  1  0.63207000  0.95152000  0.89355000  1.0
  H  H64  1  0.57517000  0.46011000  0.92117000  1.0
  H  H65  1  0.07518000  0.03988000  0.07883000  1.0
  H  H66  1  0.42483000  0.53988000  0.07883000  1.0
  H  H67  1  0.92482000  0.96011000  0.92117000  1.0
  H  H68  1  0.52867000  0.67569000  0.91469000  1.0
  H  H69  1  0.02868000  0.82431000  0.08532000  1.0
  H  H70  1  0.47132000  0.32431000  0.08532000  1.0
  H  H71  1  0.97132000  0.17569000  0.91468000  1.0
  H  H72  1  0.77811000  0.73370000  0.89095000  1.0
  H  H73  1  0.27812000  0.76630000  0.10905000  1.0
  H  H74  1  0.22188000  0.26629000  0.10905000  1.0
  H  H75  1  0.72188000  0.23370000  0.89095000  1.0
  C  C76  1  0.88337000  0.76496000  0.33686000  1.0
  C  C77  1  0.38335000  0.73503000  0.66314000  1.0
  C  C78  1  0.11664000  0.23503000  0.66313000  1.0
  C  C79  1  0.61663000  0.26496000  0.33686000  1.0
  C  C80  1  0.07049000  0.76115000  0.39560000  1.0
  C  C81  1  0.57046000  0.73884000  0.60439000  1.0
  C  C82  1  0.92954000  0.23884000  0.60440000  1.0
  C  C83  1  0.42954000  0.26116000  0.39561000  1.0
  C  C84  1  0.05348000  0.82411000  0.46776000  1.0
  C  C85  1  0.55346000  0.67589000  0.53223000  1.0
  C  C86  1  0.94652000  0.17589000  0.53223000  1.0
  C  C87  1  0.44653000  0.32411000  0.46776000  1.0
  C  C88  1  0.84948000  0.89145000  0.48301000  1.0
  C  C89  1  0.34945000  0.60855000  0.51699000  1.0
  C  C90  1  0.15055000  0.10855000  0.51699000  1.0
  C  C91  1  0.65056000  0.39146000  0.48301000  1.0
  C  C92  1  0.66170000  0.89453000  0.42521000  1.0
  C  C93  1  0.16168000  0.60546000  0.57479000  1.0
  C  C94  1  0.33831000  0.10547000  0.57479000  1.0
  C  C95  1  0.83832000  0.39453000  0.42520000  1.0
  C  C96  1  0.67663000  0.83205000  0.35284000  1.0
  C  C97  1  0.17661000  0.66795000  0.64716000  1.0
  C  C98  1  0.32340000  0.16795000  0.64716000  1.0
  C  C99  1  0.82340000  0.33205000  0.35284000  1.0
  C  C100  1  0.52227000  0.54459000  0.28978000  1.0
  C  C101  1  0.02226000  0.95541000  0.71022000  1.0
  C  C102  1  0.47773000  0.45542000  0.71022000  1.0
  C  C103  1  0.97773000  0.04459000  0.28978000  1.0
  C  C104  1  0.29975000  0.47326000  0.28721000  1.0
  C  C105  1  0.79975000  0.02674000  0.71279000  1.0
  C  C106  1  0.70025000  0.52674000  0.71280000  1.0
  C  C107  1  0.20026000  0.97326000  0.28721000  1.0
  N  N108  1  0.90846000  0.70309000  0.26365000  1.0
  N  N109  1  0.40844000  0.79691000  0.73635000  1.0
  N  N110  1  0.09156000  0.29690000  0.73635000  1.0
  N  N111  1  0.59155000  0.20309000  0.26365000  1.0
  O  O112  1  0.78287000  0.59149000  0.13482000  1.0
  O  O113  1  0.28286000  0.90851000  0.86518000  1.0
  O  O114  1  0.21713000  0.40851000  0.86518000  1.0
  O  O115  1  0.71712000  0.09149000  0.13482000  1.0
  O  O116  1  0.52994000  0.75520000  0.17561000  1.0
  O  O117  1  0.02993000  0.74480000  0.82439000  1.0
  O  O118  1  0.47007000  0.24480000  0.82439000  1.0
  O  O119  1  0.97006000  0.25520000  0.17561000  1.0
  O  O120  1  0.44670000  0.62072000  0.24656000  1.0
  O  O121  1  0.94669000  0.87928000  0.75344000  1.0
  O  O122  1  0.55330000  0.37928000  0.75344000  1.0
  O  O123  1  0.05330000  0.12072000  0.24656000  1.0
  O  O124  1  0.24969000  0.60949000  0.89194000  1.0
  O  O125  1  0.74970000  0.89051000  0.10806000  1.0
  O  O126  1  0.75030000  0.39051000  0.10806000  1.0
  O  O127  1  0.25030000  0.10949000  0.89194000  1.0
  O  O128  1  0.75419000  0.47715000  0.93831000  1.0
  O  O129  1  0.25419000  0.02285000  0.06169000  1.0
  O  O130  1  0.24581000  0.52285000  0.06169000  1.0
  O  O131  1  0.74581000  0.97715000  0.93831000  1.0
  O  O132  1  0.66679000  0.72385000  0.93559000  1.0
  O  O133  1  0.16680000  0.77616000  0.06441000  1.0
  O  O134  1  0.33320000  0.27615000  0.06441000  1.0
  O  O135  1  0.83320000  0.22384000  0.93559000  1.0
