# generated using pymatgen
data_CaH5C7NO5
_symmetry_space_group_name_H-M   'P 1'
_cell_length_a   7.87905000
_cell_length_b   9.99387000
_cell_length_c   11.28860000
_cell_angle_alpha   89.99970000
_cell_angle_beta   104.31500000
_cell_angle_gamma   89.99990000
_symmetry_Int_Tables_number   1
_chemical_formula_structural   CaH5C7NO5
_chemical_formula_sum   'Ca4 H20 C28 N4 O20'
_cell_volume   861.29012397
_cell_formula_units_Z   4
loop_
 _symmetry_equiv_pos_site_id
 _symmetry_equiv_pos_as_xyz
  1  'x, y, z'
loop_
 _atom_site_type_symbol
 _atom_site_label
 _atom_site_symmetry_multiplicity
 _atom_site_fract_x
 _atom_site_fract_y
 _atom_site_fract_z
 _atom_site_occupancy
  Ca  Ca0  1  0.48404000  0.84364000  0.10067000  1.0
  Ca  Ca1  1  0.01596000  0.34364000  0.89933000  1.0
  Ca  Ca2  1  0.51596000  0.15636000  0.89933000  1.0
  Ca  Ca3  1  0.98404000  0.65636000  0.10067000  1.0
  H  H4  1  0.18388000  0.93703000  0.46475000  1.0
  H  H5  1  0.31612000  0.43703000  0.53525000  1.0
  H  H6  1  0.81612000  0.06297000  0.53525000  1.0
  H  H7  1  0.68388000  0.56297000  0.46475000  1.0
  H  H8  1  0.49496000  0.27559000  0.51109000  1.0
  H  H9  1  0.00504000  0.77559000  0.48891000  1.0
  H  H10  1  0.50504000  0.72441000  0.48891000  1.0
  H  H11  1  0.99496000  0.22441000  0.51109000  1.0
  H  H12  1  0.46863000  0.29319000  0.28538000  1.0
  H  H13  1  0.03137000  0.79319000  0.71462000  1.0
  H  H14  1  0.53137000  0.70681000  0.71463000  1.0
  H  H15  1  0.96863000  0.20681000  0.28538000  1.0
  H  H16  1  0.80868000  0.91461000  0.26945000  1.0
  H  H17  1  0.69132000  0.41461000  0.73055000  1.0
  H  H18  1  0.19132000  0.08539000  0.73055000  1.0
  H  H19  1  0.30868000  0.58539000  0.26945000  1.0
  H  H20  1  0.67246000  0.91584000  0.35333000  1.0
  H  H21  1  0.82754000  0.41584000  0.64667000  1.0
  H  H22  1  0.32754000  0.08416000  0.64668000  1.0
  H  H23  1  0.17246000  0.58416000  0.35333000  1.0
  C  C24  1  0.28102000  0.13122000  0.10750000  1.0
  C  C25  1  0.21897000  0.63123000  0.89250000  1.0
  C  C26  1  0.71898000  0.86878000  0.89250000  1.0
  C  C27  1  0.78103000  0.36877000  0.10750000  1.0
  C  C28  1  0.23127000  0.01110000  0.29632000  1.0
  C  C29  1  0.26873000  0.51110000  0.70368000  1.0
  C  C30  1  0.76873000  0.98890000  0.70368000  1.0
  C  C31  1  0.73127000  0.48890000  0.29632000  1.0
  C  C32  1  0.31050000  0.11414000  0.24425000  1.0
  C  C33  1  0.18950000  0.61414000  0.75575000  1.0
  C  C34  1  0.68950000  0.88586000  0.75575000  1.0
  C  C35  1  0.81050000  0.38586000  0.24425000  1.0
  C  C36  1  0.13718000  0.89556000  0.22436000  1.0
  C  C37  1  0.36282000  0.39555000  0.77565000  1.0
  C  C38  1  0.86282000  0.10444000  0.77564000  1.0
  C  C39  1  0.63718000  0.60444000  0.22435000  1.0
  C  C40  1  0.24664000  0.01457000  0.42238000  1.0
  C  C41  1  0.25336000  0.51457000  0.57762000  1.0
  C  C42  1  0.75336000  0.98543000  0.57762000  1.0
  C  C43  1  0.74664000  0.48543000  0.42238000  1.0
  C  C44  1  0.41845000  0.20315000  0.44717000  1.0
  C  C45  1  0.08155000  0.70315000  0.55283000  1.0
  C  C46  1  0.58155000  0.79685000  0.55283000  1.0
  C  C47  1  0.91845000  0.29684000  0.44717000  1.0
  C  C48  1  0.40605000  0.21145000  0.32230000  1.0
  C  C49  1  0.09395000  0.71145000  0.67770000  1.0
  C  C50  1  0.59395000  0.78855000  0.67770000  1.0
  C  C51  1  0.90605000  0.28855000  0.32230000  1.0
  N  N52  1  0.33781000  0.10746000  0.49701000  1.0
  N  N53  1  0.16220000  0.60746000  0.50299000  1.0
  N  N54  1  0.66220000  0.89254000  0.50299000  1.0
  N  N55  1  0.83780000  0.39254000  0.49701000  1.0
  O  O56  1  0.19972000  0.84632000  0.13970000  1.0
  O  O57  1  0.30028000  0.34631000  0.86030000  1.0
  O  O58  1  0.80028000  0.15368000  0.86030000  1.0
  O  O59  1  0.69972000  0.65369000  0.13970000  1.0
  O  O60  1  0.00408000  0.84583000  0.25262000  1.0
  O  O61  1  0.49592000  0.34583000  0.74738000  1.0
  O  O62  1  0.99592000  0.15417000  0.74738000  1.0
  O  O63  1  0.50408000  0.65417000  0.25262000  1.0
  O  O64  1  0.38067000  0.07007000  0.05199000  1.0
  O  O65  1  0.11933000  0.57007000  0.94801000  1.0
  O  O66  1  0.61932000  0.92993000  0.94801000  1.0
  O  O67  1  0.88067000  0.42993000  0.05199000  1.0
  O  O68  1  0.15869000  0.20964000  0.06057000  1.0
  O  O69  1  0.34130000  0.70965000  0.93942000  1.0
  O  O70  1  0.84131000  0.79036000  0.93943000  1.0
  O  O71  1  0.65870000  0.29035000  0.06058000  1.0
  O  O72  1  0.68656000  0.93832000  0.26925000  1.0
  O  O73  1  0.81344000  0.43832000  0.73075000  1.0
  O  O74  1  0.31344000  0.06168000  0.73075000  1.0
  O  O75  1  0.18656000  0.56168000  0.26925000  1.0
