# generated using pymatgen
data_LaH40C40N6ClO10
_symmetry_space_group_name_H-M   'P 1'
_cell_length_a   15.75290000
_cell_length_b   17.93450000
_cell_length_c   17.97870000
_cell_angle_alpha   89.96530000
_cell_angle_beta   89.95550000
_cell_angle_gamma   89.91990000
_symmetry_Int_Tables_number   1
_chemical_formula_structural   LaH40C40N6ClO10
_chemical_formula_sum   'La4 H160 C160 N24 Cl4 O40'
_cell_volume   5079.34182293
_cell_formula_units_Z   4
loop_
 _symmetry_equiv_pos_site_id
 _symmetry_equiv_pos_as_xyz
  1  'x, y, z'
loop_
 _atom_site_type_symbol
 _atom_site_label
 _atom_site_symmetry_multiplicity
 _atom_site_fract_x
 _atom_site_fract_y
 _atom_site_fract_z
 _atom_site_occupancy
  La  La0  1  0.74423000  0.71545000  0.28399000  1.0
  La  La1  1  0.25694000  0.28440000  0.71495000  1.0
  La  La2  1  0.49825000  0.78539000  0.78542000  1.0
  La  La3  1  0.99515000  0.21554000  0.21517000  1.0
  H  H4  1  0.91820000  0.99780000  0.12427000  1.0
  H  H5  1  0.70981000  0.10312000  0.27590000  1.0
  H  H6  1  0.21199000  0.46525000  0.09197000  1.0
  H  H7  1  0.49423000  0.20378000  0.95121000  1.0
  H  H8  1  0.55860000  0.01684000  0.05892000  1.0
  H  H9  1  0.58741000  0.09770000  0.36298000  1.0
  H  H10  1  0.64293000  0.64760000  0.86495000  1.0
  H  H11  1  0.80966000  0.92857000  0.05418000  1.0
  H  H12  1  0.43883000  0.45288000  0.70210000  1.0
  H  H13  1  0.15730000  0.09448000  0.84190000  1.0
  H  H14  1  0.19568000  0.65090000  0.48324000  1.0
  H  H15  1  0.73008000  0.68664000  0.65058000  1.0
  H  H16  1  0.35571000  0.86496000  0.64777000  1.0
  H  H17  1  0.94071000  0.94494000  0.98252000  1.0
  H  H18  1  0.30994000  0.06617000  0.94668000  1.0
  H  H19  1  0.86842000  0.90628000  0.61074000  1.0
  H  H20  1  0.03387000  0.03502000  0.59468000  1.0
  H  H21  1  0.35807000  0.38470000  0.36886000  1.0
  H  H22  1  0.68765000  0.48280000  0.55749000  1.0
  H  H23  1  0.69702000  0.34529000  0.51429000  1.0
  H  H24  1  0.30990000  0.95137000  0.79814000  1.0
  H  H25  1  0.83360000  0.13747000  0.59602000  1.0
  H  H26  1  0.45541000  0.77769000  0.39915000  1.0
  H  H27  1  0.40671000  0.65726000  0.58938000  1.0
  H  H28  1  0.99831000  0.79556000  0.04935000  1.0
  H  H29  1  0.11690000  0.88601000  0.40612000  1.0
  H  H30  1  0.96005000  0.29810000  0.86880000  1.0
  H  H31  1  0.54270000  0.12980000  0.70524000  1.0
  H  H32  1  0.41495000  0.36225000  0.09677000  1.0
  H  H33  1  0.30214000  0.51371000  0.34469000  1.0
  H  H34  1  0.18951000  0.51658000  0.44160000  1.0
  H  H35  1  0.66745000  0.40744000  0.86224000  1.0
  H  H36  1  0.22519000  0.31282000  0.34893000  1.0
  H  H37  1  0.80252000  0.72011000  0.89751000  1.0
  H  H38  1  0.88756000  0.38943000  0.16041000  1.0
  H  H39  1  0.25261000  0.70443000  0.54892000  1.0
  H  H40  1  0.41973000  0.00024000  0.87505000  1.0
  H  H41  1  0.71630000  0.53269000  0.90582000  1.0
  H  H42  1  0.61746000  0.11547000  0.59433000  1.0
  H  H43  1  0.55266000  0.15121000  0.01682000  1.0
  H  H44  1  0.93950000  0.43304000  0.44651000  1.0
  H  H45  1  0.78555000  0.09186000  0.47177000  1.0
  H  H46  1  0.35378000  0.64322000  0.46158000  1.0
  H  H47  1  0.57486000  0.45996000  0.98988000  1.0
  H  H48  1  0.39491000  0.14023000  0.03858000  1.0
  H  H49  1  0.13740000  0.35202000  0.13526000  1.0
  H  H50  1  0.28973000  0.20246000  0.37029000  1.0
  H  H51  1  0.89168000  0.11553000  0.86822000  1.0
  H  H52  1  0.39463000  0.88151000  0.13298000  1.0
  H  H53  1  0.82730000  0.50161000  0.09909000  1.0
  H  H54  1  0.36478000  0.09156000  0.38415000  1.0
  H  H55  1  0.39307000  0.36630000  0.85713000  1.0
  H  H56  1  0.90933000  0.34639000  0.40864000  1.0
  H  H57  1  0.96872000  0.59601000  0.04251000  1.0
  H  H58  1  0.54291000  0.39876000  0.77789000  1.0
  H  H59  1  0.58216000  0.87655000  0.00165000  1.0
  H  H60  1  0.02483000  0.18748000  0.84762000  1.0
  H  H61  1  0.16733000  0.59167000  0.13522000  1.0
  H  H62  1  0.20617000  0.62976000  0.79418000  1.0
  H  H63  1  0.45934000  0.70219000  0.12995000  1.0
  H  H64  1  0.92352000  0.99853000  0.39467000  1.0
  H  H65  1  0.44776000  0.01113000  0.15715000  1.0
  H  H66  1  0.81374000  0.57395000  0.54439000  1.0
  H  H67  1  0.56633000  0.04558000  0.92574000  1.0
  H  H68  1  0.69203000  0.79647000  0.94801000  1.0
  H  H69  1  0.42495000  0.98885000  0.46128000  1.0
  H  H70  1  0.11130000  0.16376000  0.38709000  1.0
  H  H71  1  0.88462000  0.40926000  0.88344000  1.0
  H  H72  1  0.19090000  0.19676000  0.04787000  1.0
  H  H73  1  0.04586000  0.60379000  0.22343000  1.0
  H  H74  1  0.86288000  0.88610000  0.33391000  1.0
  H  H75  1  0.07853000  0.39790000  0.99820000  1.0
  H  H76  1  0.06536000  0.95533000  0.07445000  1.0
  H  H77  1  0.33088000  0.86248000  0.40830000  1.0
  H  H78  1  0.66106000  0.90748000  0.15504000  1.0
  H  H79  1  0.61437000  0.83786000  0.61359000  1.0
  H  H80  1  0.82598000  0.51199000  0.96145000  1.0
  H  H81  1  0.97985000  0.84821000  0.18516000  1.0
  H  H82  1  0.09229000  0.40573000  0.34318000  1.0
  H  H83  1  0.27084000  0.65184000  0.68463000  1.0
  H  H84  1  0.28206000  0.90597000  0.53350000  1.0
  H  H85  1  0.31625000  0.42417000  0.45128000  1.0
  H  H86  1  0.67503000  0.03763000  0.49108000  1.0
  H  H87  1  0.33286000  0.50205000  0.62435000  1.0
  H  H88  1  0.79192000  0.79667000  0.62615000  1.0
  H  H89  1  0.38490000  0.61241000  0.83872000  1.0
  H  H90  1  0.95506000  0.22583000  0.60402000  1.0
  H  H91  1  0.14039000  0.33677000  0.88675000  1.0
  H  H92  1  0.53613000  0.97388000  0.40834000  1.0
  H  H93  1  0.59476000  0.59334000  0.65956000  1.0
  H  H94  1  0.17377000  0.96416000  0.50917000  1.0
  H  H95  1  0.13991000  0.62700000  0.61170000  1.0
  H  H96  1  0.11101000  0.87320000  0.11186000  1.0
  H  H97  1  0.24429000  0.44699000  0.29306000  1.0
  H  H98  1  0.74839000  0.55100000  0.70479000  1.0
  H  H99  1  0.60440000  0.85715000  0.36583000  1.0
  H  H100  1  0.66628000  0.62385000  0.50289000  1.0
  H  H101  1  0.46311000  0.40866000  0.97278000  1.0
  H  H102  1  0.44136000  0.05296000  0.01769000  1.0
  H  H103  1  0.57697000  0.59791000  0.99979000  1.0
  H  H104  1  0.82930000  0.49908000  0.37593000  1.0
  H  H105  1  0.68169000  0.45072000  0.42363000  1.0
  H  H106  1  0.36534000  0.11106000  0.66105000  1.0
  H  H107  1  0.64526000  0.46393000  0.64659000  1.0
  H  H108  1  0.12965000  0.61454000  0.90460000  1.0
  H  H109  1  0.77552000  0.34793000  0.31419000  1.0
  H  H110  1  0.34109000  0.15347000  0.91082000  1.0
  H  H111  1  0.94756000  0.98643000  0.84469000  1.0
  H  H112  1  0.50821000  0.94520000  0.20768000  1.0
  H  H113  1  0.84455000  0.84253000  0.09040000  1.0
  H  H114  1  0.38256000  0.59258000  0.11560000  1.0
  H  H115  1  0.92755000  0.00836000  0.53237000  1.0
  H  H116  1  0.52861000  0.81096000  0.15090000  1.0
  H  H117  1  0.05517000  0.84929000  0.98358000  1.0
  H  H118  1  0.69189000  0.94722000  0.06945000  1.0
  H  H119  1  0.05836000  0.30208000  0.54857000  1.0
  H  H120  1  0.93381000  0.07647000  0.95080000  1.0
  H  H121  1  0.08198000  0.12328000  0.99676000  1.0
  H  H122  1  0.32270000  0.50108000  0.90039000  1.0
  H  H123  1  0.08168000  0.90903000  0.63733000  1.0
  H  H124  1  0.86035000  0.61209000  0.62541000  1.0
  H  H125  1  0.32098000  0.49101000  0.03815000  1.0
  H  H126  1  0.85443000  0.35730000  0.53693000  1.0
  H  H127  1  0.55762000  0.55598000  0.57503000  1.0
  H  H128  1  0.43448000  0.92202000  0.05022000  1.0
  H  H129  1  0.16751000  0.37694000  0.49792000  1.0
  H  H130  1  0.75658000  0.29345000  0.44889000  1.0
  H  H131  1  0.18520000  0.54477000  0.57416000  1.0
  H  H132  1  0.80684000  0.44424000  0.51656000  1.0
  H  H133  1  0.14416000  0.53537000  0.35368000  1.0
  H  H134  1  0.30983000  0.55492000  0.48222000  1.0
  H  H135  1  0.07210000  0.53586000  0.00710000  1.0
  H  H136  1  0.81101000  0.04719000  0.19975000  1.0
  H  H137  1  0.85648000  0.13426000  0.35640000  1.0
  H  H138  1  0.56009000  0.70173000  0.45316000  1.0
  H  H139  1  0.10562000  0.96485000  0.85312000  1.0
  H  H140  1  0.17073000  0.10217000  0.49944000  1.0
  H  H141  1  0.06049000  0.98384000  0.94117000  1.0
  H  H142  1  0.60506000  0.03554000  0.14634000  1.0
  H  H143  1  0.67367000  0.89963000  0.50114000  1.0
  H  H144  1  0.29371000  0.27366000  0.10440000  1.0
  H  H145  1  0.63264000  0.38167000  0.09273000  1.0
  H  H146  1  0.64178000  0.36702000  0.38504000  1.0
  H  H147  1  0.42574000  0.99917000  0.59895000  1.0
  H  H148  1  0.44094000  0.57092000  0.55330000  1.0
  H  H149  1  0.19213000  0.05570000  0.92674000  1.0
  H  H150  1  0.93959000  0.55041000  0.30008000  1.0
  H  H151  1  0.00535000  0.05282000  0.79247000  1.0
  H  H152  1  0.20562000  0.89866000  0.72243000  1.0
  H  H153  1  0.70824000  0.36726000  0.20409000  1.0
  H  H154  1  0.88930000  0.63951000  0.15231000  1.0
  H  H155  1  0.92642000  0.63482000  0.91410000  1.0
  H  H156  1  0.04284000  0.87098000  0.29546000  1.0
  H  H157  1  0.80378000  0.48402000  0.65127000  1.0
  H  H158  1  0.89696000  0.85649000  0.96222000  1.0
  H  H159  1  0.05779000  0.44477000  0.42789000  1.0
  H  H160  1  0.63911000  0.65940000  0.11081000  1.0
  H  H161  1  0.47791000  0.15108000  0.81540000  1.0
  H  H162  1  0.10849000  0.14896000  0.63590000  1.0
  H  H163  1  0.60917000  0.12884000  0.88835000  1.0
  C  C164  1  0.95330000  0.28316000  0.92830000  1.0
  C  C165  1  0.51337000  0.83576000  0.09620000  1.0
  C  C166  1  0.58089000  0.02196000  0.66163000  1.0
  C  C167  1  0.42445000  0.66539000  0.94130000  1.0
  C  C168  1  0.36517000  0.09908000  0.92930000  1.0
  C  C169  1  0.37707000  0.84607000  0.59326000  1.0
  C  C170  1  0.49123000  0.09537000  0.83912000  1.0
  C  C171  1  0.02288000  0.48533000  0.22946000  1.0
  C  C172  1  0.64854000  0.93307000  0.54667000  1.0
  C  C173  1  0.99191000  0.90411000  0.16136000  1.0
  C  C174  1  0.06616000  0.54897000  0.20380000  1.0
  C  C175  1  0.49318000  0.96485000  0.15101000  1.0
  C  C176  1  0.10015000  0.51001000  0.95818000  1.0
  C  C177  1  0.86630000  0.89744000  0.07143000  1.0
  C  C178  1  0.54726000  0.72229000  0.51013000  1.0
  C  C179  1  0.14592000  0.06868000  0.45389000  1.0
  C  C180  1  0.34592000  0.56256000  0.63854000  1.0
  C  C181  1  0.69581000  0.91178000  0.29475000  1.0
  C  C182  1  0.54932000  0.07014000  0.71997000  1.0
  C  C183  1  0.07962000  0.97923000  0.33863000  1.0
  C  C184  1  0.29668000  0.21740000  0.42974000  1.0
  C  C185  1  0.20089000  0.56997000  0.77975000  1.0
  C  C186  1  0.59793000  0.86101000  0.06046000  1.0
  C  C187  1  0.79838000  0.78091000  0.56686000  1.0
  C  C188  1  0.15916000  0.47077000  0.13075000  1.0
  C  C189  1  0.47646000  0.77280000  0.51763000  1.0
  C  C190  1  0.30477000  0.29287000  0.91312000  1.0
  C  C191  1  0.91474000  0.63327000  0.03458000  1.0
  C  C192  1  0.50835000  0.14641000  0.96979000  1.0
  C  C193  1  0.72731000  0.98391000  0.27138000  1.0
  C  C194  1  0.60281000  0.56439000  0.04497000  1.0
  C  C195  1  0.82592000  0.83258000  0.43709000  1.0
  C  C196  1  0.80098000  0.70749000  0.08961000  1.0
  C  C197  1  0.13554000  0.07369000  0.89607000  1.0
  C  C198  1  0.05086000  0.89831000  0.09343000  1.0
  C  C199  1  0.86526000  0.15666000  0.54560000  1.0
  C  C200  1  0.24013000  0.64688000  0.53025000  1.0
  C  C201  1  0.11317000  0.10327000  0.39181000  1.0
  C  C202  1  0.58922000  0.97668000  0.36959000  1.0
  C  C203  1  0.01072000  0.85315000  0.03067000  1.0
  C  C204  1  0.17537000  0.49178000  0.38697000  1.0
  C  C205  1  0.38456000  0.60236000  0.57077000  1.0
  C  C206  1  0.25884000  0.59593000  0.66092000  1.0
  C  C207  1  0.36407000  0.09542000  0.44480000  1.0
  C  C208  1  0.70544000  0.77793000  0.00571000  1.0
  C  C209  1  0.17653000  0.44031000  0.83274000  1.0
  C  C210  1  0.61511000  0.57318000  0.60474000  1.0
  C  C211  1  0.79985000  0.59372000  0.60114000  1.0
  C  C212  1  0.63498000  0.44243000  0.09624000  1.0
  C  C213  1  0.44698000  0.79548000  0.59048000  1.0
  C  C214  1  0.64924000  0.01141000  0.54076000  1.0
  C  C215  1  0.01024000  0.16334000  0.90282000  1.0
  C  C216  1  0.86657000  0.90220000  0.55014000  1.0
  C  C217  1  0.45264000  0.90214000  0.10594000  1.0
  C  C218  1  0.89111000  0.65501000  0.96220000  1.0
  C  C219  1  0.88620000  0.40531000  0.94406000  1.0
  C  C220  1  0.41070000  0.36927000  0.97611000  1.0
  C  C221  1  0.08795000  0.03004000  0.63211000  1.0
  C  C222  1  0.19910000  0.09059000  0.70508000  1.0
  C  C223  1  0.54998000  0.10227000  0.90692000  1.0
  C  C224  1  0.70219000  0.42712000  0.21805000  1.0
  C  C225  1  0.90021000  0.95911000  0.50651000  1.0
  C  C226  1  0.32550000  0.16470000  0.55873000  1.0
  C  C227  1  0.29786000  0.00891000  0.77834000  1.0
  C  C228  1  0.97491000  0.23045000  0.48538000  1.0
  C  C229  1  0.55192000  0.59048000  0.79537000  1.0
  C  C230  1  0.69993000  0.39461000  0.40454000  1.0
  C  C231  1  0.62179000  0.59304000  0.84575000  1.0
  C  C232  1  0.07450000  0.00849000  0.88640000  1.0
  C  C233  1  0.57434000  0.99179000  0.11308000  1.0
  C  C234  1  0.10338000  0.43161000  0.95278000  1.0
  C  C235  1  0.88633000  0.39427000  0.10013000  1.0
  C  C236  1  0.79791000  0.99023000  0.22057000  1.0
  C  C237  1  0.83021000  0.83881000  0.51806000  1.0
  C  C238  1  0.20335000  0.21913000  0.99152000  1.0
  C  C239  1  0.45203000  0.51018000  0.72186000  1.0
  C  C240  1  0.11430000  0.42664000  0.39714000  1.0
  C  C241  1  0.38362000  0.34311000  0.04625000  1.0
  C  C242  1  0.42642000  0.10816000  0.99429000  1.0
  C  C243  1  0.19991000  0.60175000  0.59309000  1.0
  C  C244  1  0.13755000  0.39723000  0.89117000  1.0
  C  C245  1  0.92670000  0.33603000  0.05758000  1.0
  C  C246  1  0.27465000  0.26909000  0.98568000  1.0
  C  C247  1  0.84447000  0.44012000  0.36121000  1.0
  C  C248  1  0.75995000  0.40323000  0.33771000  1.0
  C  C249  1  0.92196000  0.34174000  0.97646000  1.0
  C  C250  1  0.68676000  0.04947000  0.29596000  1.0
  C  C251  1  0.60163000  0.48600000  0.03918000  1.0
  C  C252  1  0.12930000  0.09408000  0.65468000  1.0
  C  C253  1  0.11484000  0.95896000  0.65586000  1.0
  C  C254  1  0.61597000  0.89833000  0.60879000  1.0
  C  C255  1  0.31582000  0.29387000  0.05048000  1.0
  C  C256  1  0.33614000  0.86831000  0.52903000  1.0
  C  C257  1  0.56504000  0.45305000  0.79709000  1.0
  C  C258  1  0.86488000  0.89116000  0.39421000  1.0
  C  C259  1  0.25788000  0.46657000  0.35000000  1.0
  C  C260  1  0.67725000  0.55628000  0.16438000  1.0
  C  C261  1  0.43338000  0.79700000  0.45336000  1.0
  C  C262  1  0.63690000  0.92788000  0.10152000  1.0
  C  C263  1  0.89843000  0.95317000  0.42841000  1.0
  C  C264  1  0.82186000  0.70199000  0.95299000  1.0
  C  C265  1  0.16986000  0.52154000  0.83807000  1.0
  C  C266  1  0.15418000  0.36067000  0.43935000  1.0
  C  C267  1  0.67578000  0.50736000  0.61266000  1.0
  C  C268  1  0.61616000  0.05469000  0.59811000  1.0
  C  C269  1  0.87810000  0.15328000  0.41071000  1.0
  C  C270  1  0.83835000  0.13087000  0.47535000  1.0
  C  C271  1  0.38357000  0.60750000  0.89901000  1.0
  C  C272  1  0.04620000  0.28036000  0.49190000  1.0
  C  C273  1  0.57683000  0.94079000  0.66752000  1.0
  C  C274  1  0.36612000  0.10627000  0.60076000  1.0
  C  C275  1  0.45385000  0.71699000  0.07036000  1.0
  C  C276  1  0.32314000  0.61036000  0.50574000  1.0
  C  C277  1  0.34855000  0.53996000  0.01184000  1.0
  C  C278  1  0.36359000  0.84406000  0.45846000  1.0
  C  C279  1  0.88468000  0.40015000  0.42824000  1.0
  C  C280  1  0.94515000  0.20690000  0.41270000  1.0
  C  C281  1  0.82290000  0.38947000  0.49274000  1.0
  C  C282  1  0.14732000  0.99027000  0.45968000  1.0
  C  C283  1  0.32862000  0.15886000  0.47768000  1.0
  C  C284  1  0.37145000  0.34686000  0.91134000  1.0
  C  C285  1  0.95064000  0.09609000  0.89464000  1.0
  C  C286  1  0.05006000  0.41162000  0.20692000  1.0
  C  C287  1  0.75975000  0.53155000  0.64741000  1.0
  C  C288  1  0.63680000  0.59900000  0.10641000  1.0
  C  C289  1  0.39868000  0.03833000  0.48770000  1.0
  C  C290  1  0.39931000  0.04440000  0.56581000  1.0
  C  C291  1  0.74142000  0.66213000  0.59496000  1.0
  C  C292  1  0.04878000  0.93063000  0.28032000  1.0
  C  C293  1  0.74165000  0.35062000  0.46749000  1.0
  C  C294  1  0.99188000  0.03356000  0.84958000  1.0
  C  C295  1  0.23960000  0.33710000  0.40403000  1.0
  C  C296  1  0.13278000  0.55380000  0.90105000  1.0
  C  C297  1  0.09562000  0.13965000  0.93825000  1.0
  C  C298  1  0.67133000  0.47503000  0.15923000  1.0
  C  C299  1  0.61817000  0.04652000  0.34434000  1.0
  C  C300  1  0.77611000  0.72806000  0.01513000  1.0
  C  C301  1  0.65401000  0.63965000  0.56278000  1.0
  C  C302  1  0.90499000  0.93762000  0.13886000  1.0
  C  C303  1  0.42088000  0.65920000  0.02225000  1.0
  C  C304  1  0.63478000  0.45785000  0.84401000  1.0
  C  C305  1  0.92757000  0.88948000  0.00621000  1.0
  C  C306  1  0.40495000  0.06051000  0.86130000  1.0
  C  C307  1  0.87068000  0.65735000  0.09671000  1.0
  C  C308  1  0.34927000  0.54599000  0.93375000  1.0
  C  C309  1  0.11761000  0.40713000  0.15413000  1.0
  C  C310  1  0.29918000  0.40427000  0.39533000  1.0
  C  C311  1  0.66241000  0.52849000  0.86812000  1.0
  C  C312  1  0.13413000  0.54224000  0.15507000  1.0
  C  C313  1  0.38371000  0.59642000  0.05496000  1.0
  C  C314  1  0.22768000  0.01731000  0.72753000  1.0
  C  C315  1  0.93326000  0.20565000  0.55004000  1.0
  C  C316  1  0.11484000  0.94678000  0.40228000  1.0
  C  C317  1  0.07439000  0.06055000  0.33309000  1.0
  C  C318  1  0.85300000  0.45628000  0.06566000  1.0
  C  C319  1  0.85250000  0.46241000  0.98748000  1.0
  C  C320  1  0.18432000  0.95324000  0.70296000  1.0
  C  C321  1  0.52231000  0.51763000  0.77274000  1.0
  C  C322  1  0.62741000  0.91117000  0.34685000  1.0
  C  C323  1  0.95214000  0.49316000  0.27957000  1.0
  N  N324  1  0.34601000  0.06123000  0.80142000  1.0
  N  N325  1  0.09521000  0.29937000  0.43836000  1.0
  N  N326  1  0.59528000  0.70008000  0.56296000  1.0
  N  N327  1  0.45084000  0.27873000  0.73185000  1.0
  N  N328  1  0.30312000  0.77998000  0.77349000  1.0
  N  N329  1  0.84580000  0.93691000  0.19882000  1.0
  N  N330  1  0.93993000  0.71760000  0.27872000  1.0
  N  N331  1  0.27807000  0.28292000  0.45263000  1.0
  N  N332  1  0.18976000  0.22228000  0.21836000  1.0
  N  N333  1  0.54973000  0.72836000  0.28016000  1.0
  N  N334  1  0.77941000  0.71516000  0.54484000  1.0
  N  N335  1  0.90368000  0.43997000  0.30040000  1.0
  N  N336  1  0.53026000  0.04696000  0.78518000  1.0
  N  N337  1  0.40495000  0.56321000  0.69830000  1.0
  N  N338  1  0.02986000  0.95349000  0.21494000  1.0
  N  N339  1  0.80144000  0.22150000  0.22804000  1.0
  N  N340  1  0.22068000  0.54678000  0.71465000  1.0
  N  N341  1  0.97172000  0.21757000  0.95128000  1.0
  N  N342  1  0.65809000  0.80136000  0.05835000  1.0
  N  N343  1  0.06164000  0.28115000  0.71689000  1.0
  N  N344  1  0.72118000  0.45095000  0.28300000  1.0
  N  N345  1  0.69402000  0.77639000  0.78233000  1.0
  N  N346  1  0.47503000  0.78184000  0.04741000  1.0
  N  N347  1  0.15461000  0.20088000  0.93757000  1.0
  Cl  Cl348  1  0.48737000  0.89804000  0.90176000  1.0
  Cl  Cl349  1  0.72035000  0.60038000  0.39367000  1.0
  Cl  Cl350  1  0.97356000  0.10621000  0.10106000  1.0
  Cl  Cl351  1  0.28215000  0.39468000  0.60065000  1.0
  O  O352  1  0.34821000  0.72079000  0.76993000  1.0
  O  O353  1  0.72675000  0.85076000  0.26781000  1.0
  O  O354  1  0.71987000  0.58810000  0.21588000  1.0
  O  O355  1  0.01847000  0.71824000  0.28023000  1.0
  O  O356  1  0.40948000  0.34086000  0.73336000  1.0
  O  O357  1  0.22457000  0.77847000  0.77189000  1.0
  O  O358  1  0.28543000  0.21759000  0.59134000  1.0
  O  O359  1  0.96832000  0.28389000  0.08971000  1.0
  O  O360  1  0.59163000  0.73272000  0.34155000  1.0
  O  O361  1  0.01550000  0.35283000  0.23506000  1.0
  O  O362  1  0.40589000  0.21950000  0.72692000  1.0
  O  O363  1  0.77255000  0.77537000  0.78215000  1.0
  O  O364  1  0.03379000  0.09273000  0.28042000  1.0
  O  O365  1  0.53721000  0.90845000  0.72078000  1.0
  O  O366  1  0.84256000  0.15938000  0.23166000  1.0
  O  O367  1  0.89712000  0.65751000  0.29239000  1.0
  O  O368  1  0.48130000  0.76940000  0.65027000  1.0
  O  O369  1  0.27414000  0.26468000  0.85309000  1.0
  O  O370  1  0.14749000  0.21334000  0.15730000  1.0
  O  O371  1  0.10496000  0.26969000  0.77585000  1.0
  O  O372  1  0.98305000  0.28214000  0.71711000  1.0
  O  O373  1  0.47128000  0.73185000  0.27853000  1.0
  O  O374  1  0.26828000  0.22113000  0.21939000  1.0
  O  O375  1  0.10476000  0.29113000  0.65640000  1.0
  O  O376  1  0.34448000  0.84200000  0.77836000  1.0
  O  O377  1  0.97626000  0.23501000  0.35270000  1.0
  O  O378  1  0.72294000  0.22379000  0.22941000  1.0
  O  O379  1  0.52927000  0.27664000  0.73549000  1.0
  O  O380  1  0.59416000  0.72079000  0.22090000  1.0
  O  O381  1  0.65114000  0.78646000  0.84308000  1.0
  O  O382  1  0.89612000  0.77550000  0.26308000  1.0
  O  O383  1  0.46488000  0.71818000  0.90890000  1.0
  O  O384  1  0.65014000  0.76721000  0.72340000  1.0
  O  O385  1  0.76169000  0.73495000  0.14667000  1.0
  O  O386  1  0.23431000  0.15011000  0.73112000  1.0
  O  O387  1  0.14551000  0.23289000  0.27704000  1.0
  O  O388  1  0.78632000  0.77911000  0.40517000  1.0
  O  O389  1  0.51761000  0.65057000  0.76958000  1.0
  O  O390  1  0.84669000  0.28062000  0.22348000  1.0
  O  O391  1  0.21844000  0.40868000  0.78053000  1.0
