# generated using pymatgen
data_MnCuH17C13(NO3)3
_symmetry_space_group_name_H-M   'P 1'
_cell_length_a   9.37644000
_cell_length_b   9.56266000
_cell_length_c   10.73690000
_cell_angle_alpha   82.05750000
_cell_angle_beta   71.63220000
_cell_angle_gamma   82.44340000
_symmetry_Int_Tables_number   1
_chemical_formula_structural   MnCuH17C13(NO3)3
_chemical_formula_sum   'Mn2 Cu2 H34 C26 N6 O18'
_cell_volume   900.92760755
_cell_formula_units_Z   2
loop_
 _symmetry_equiv_pos_site_id
 _symmetry_equiv_pos_as_xyz
  1  'x, y, z'
loop_
 _atom_site_type_symbol
 _atom_site_label
 _atom_site_symmetry_multiplicity
 _atom_site_fract_x
 _atom_site_fract_y
 _atom_site_fract_z
 _atom_site_occupancy
  Mn  Mn0  1  0.16040000  0.00707000  0.73923000  1.0
  Mn  Mn1  1  0.83984000  0.99304000  0.25868000  1.0
  Cu  Cu2  1  0.01299000  0.57952000  0.65824000  1.0
  Cu  Cu3  1  0.98719000  0.42061000  0.34210000  1.0
  H  H4  1  0.88969000  0.81393000  0.74142000  1.0
  H  H5  1  0.11125000  0.18556000  0.26194000  1.0
  H  H6  1  0.76982000  0.73893000  0.69367000  1.0
  H  H7  1  0.23047000  0.26189000  0.30956000  1.0
  H  H8  1  0.42512000  0.11644000  0.72389000  1.0
  H  H9  1  0.57273000  0.88595000  0.28020000  1.0
  H  H10  1  0.43132000  0.95243000  0.74488000  1.0
  H  H11  1  0.56910000  0.05010000  0.26051000  1.0
  H  H12  1  0.03530000  0.85717000  0.00260000  1.0
  H  H13  1  0.96465000  0.14315000  0.99587000  1.0
  H  H14  1  0.08312000  0.77661000  0.87045000  1.0
  H  H15  1  0.91728000  0.22380000  0.12796000  1.0
  H  H16  1  0.91639000  0.03623000  0.63958000  1.0
  H  H17  1  0.08264000  0.96287000  0.35880000  1.0
  H  H18  1  0.02927000  0.89595000  0.57694000  1.0
  H  H19  1  0.96937000  0.10278000  0.42227000  1.0
  H  H20  1  0.85370000  0.40911000  0.98729000  1.0
  H  H21  1  0.14583000  0.58731000  0.01190000  1.0
  H  H22  1  0.75818000  0.31291000  0.91382000  1.0
  H  H23  1  0.24126000  0.68580000  0.08362000  1.0
  H  H24  1  0.63803000  0.53710000  0.82963000  1.0
  H  H25  1  0.36228000  0.46399000  0.17033000  1.0
  H  H26  1  0.60662000  0.52700000  0.00120000  1.0
  H  H27  1  0.39332000  0.47104000  0.99900000  1.0
  H  H28  1  0.66308000  0.76469000  0.92390000  1.0
  H  H29  1  0.33942000  0.23359000  0.08038000  1.0
  H  H30  1  0.83234000  0.67922000  0.94892000  1.0
  H  H31  1  0.17008000  0.31605000  0.05330000  1.0
  H  H32  1  0.42892000  0.26773000  0.46453000  1.0
  H  H33  1  0.57212000  0.73290000  0.53483000  1.0
  H  H34  1  0.67873000  0.57975000  0.18499000  1.0
  H  H35  1  0.32096000  0.42189000  0.81481000  1.0
  H  H36  1  0.44776000  0.75427000  0.24110000  1.0
  H  H37  1  0.55145000  0.24668000  0.75878000  1.0
  C  C38  1  0.16034000  0.30939000  0.62746000  1.0
  C  C39  1  0.83997000  0.69073000  0.37175000  1.0
  C  C40  1  0.02907000  0.30081000  0.75438000  1.0
  C  C41  1  0.97099000  0.69893000  0.24454000  1.0
  C  C42  1  0.81145000  0.41219000  0.90186000  1.0
  C  C43  1  0.18810000  0.58617000  0.09710000  1.0
  C  C44  1  0.69392000  0.53889000  0.90534000  1.0
  C  C45  1  0.30625000  0.46011000  0.09510000  1.0
  C  C46  1  0.75560000  0.68173000  0.88928000  1.0
  C  C47  1  0.24596000  0.31627000  0.11326000  1.0
  C  C48  1  0.19719000  0.73859000  0.41838000  1.0
  C  C49  1  0.80157000  0.26092000  0.58092000  1.0
  C  C50  1  0.31514000  0.61526000  0.39246000  1.0
  C  C51  1  0.68455000  0.38502000  0.60711000  1.0
  C  C52  1  0.30554000  0.47512000  0.45920000  1.0
  C  C53  1  0.69479000  0.52517000  0.54032000  1.0
  C  C54  1  0.43288000  0.37566000  0.41768000  1.0
  C  C55  1  0.56786000  0.62502000  0.58170000  1.0
  C  C56  1  0.56555000  0.41279000  0.32207000  1.0
  C  C57  1  0.43494000  0.58838000  0.67717000  1.0
  C  C58  1  0.69933000  0.30516000  0.28515000  1.0
  C  C59  1  0.30138000  0.69633000  0.71353000  1.0
  C  C60  1  0.57452000  0.55119000  0.25916000  1.0
  C  C61  1  0.42532000  0.45013000  0.74046000  1.0
  C  C62  1  0.44874000  0.64785000  0.29266000  1.0
  C  C63  1  0.55082000  0.35306000  0.70704000  1.0
  N  N64  1  0.17910000  0.43964000  0.56466000  1.0
  N  N65  1  0.82124000  0.56055000  0.43492000  1.0
  N  N66  1  0.93824000  0.41580000  0.78111000  1.0
  N  N67  1  0.06149000  0.58372000  0.21803000  1.0
  N  N68  1  0.84143000  0.72063000  0.75045000  1.0
  N  N69  1  0.15948000  0.27910000  0.25218000  1.0
  O  O70  1  0.23839000  0.19265000  0.59760000  1.0
  O  O71  1  0.76223000  0.80762000  0.40127000  1.0
  O  O72  1  0.01878000  0.18006000  0.82530000  1.0
  O  O73  1  0.98121000  0.81944000  0.17326000  1.0
  O  O74  1  0.07414000  0.73179000  0.51621000  1.0
  O  O75  1  0.92499000  0.26779000  0.48358000  1.0
  O  O76  1  0.22198000  0.85215000  0.34297000  1.0
  O  O77  1  0.77561000  0.14689000  0.65545000  1.0
  O  O78  1  0.82479000  0.35004000  0.21535000  1.0
  O  O79  1  0.17550000  0.65160000  0.78252000  1.0
  O  O80  1  0.67933000  0.17410000  0.32466000  1.0
  O  O81  1  0.32193000  0.82735000  0.67451000  1.0
  O  O82  1  0.38102000  0.03811000  0.78679000  1.0
  O  O83  1  0.61566000  0.96441000  0.21683000  1.0
  O  O84  1  0.04431000  0.87067000  0.90715000  1.0
  O  O85  1  0.95538000  0.12966000  0.09135000  1.0
  O  O86  1  0.00704000  0.96526000  0.64303000  1.0
  O  O87  1  0.99296000  0.03508000  0.35465000  1.0
