# generated using pymatgen
data_CdH8C9(NO)5
_symmetry_space_group_name_H-M   'P 1'
_cell_length_a   7.04707000
_cell_length_b   8.28968000
_cell_length_c   10.64240000
_cell_angle_alpha   82.81900000
_cell_angle_beta   84.54550000
_cell_angle_gamma   74.57150000
_symmetry_Int_Tables_number   1
_chemical_formula_structural   CdH8C9(NO)5
_chemical_formula_sum   'Cd2 H16 C18 N10 O10'
_cell_volume   593.35946557
_cell_formula_units_Z   2
loop_
 _symmetry_equiv_pos_site_id
 _symmetry_equiv_pos_as_xyz
  1  'x, y, z'
loop_
 _atom_site_type_symbol
 _atom_site_label
 _atom_site_symmetry_multiplicity
 _atom_site_fract_x
 _atom_site_fract_y
 _atom_site_fract_z
 _atom_site_occupancy
  Cd  Cd0  1  0.50000000  0.50000000  0.00000000  1.0
  Cd  Cd1  1  0.50000000  0.50000000  0.50000000  1.0
  H  H2  1  0.53390000  0.18810000  0.78375000  1.0
  H  H3  1  0.46611000  0.81189000  0.21625000  1.0
  H  H4  1  0.84346000  0.03145000  0.42239000  1.0
  H  H5  1  0.15653000  0.96855000  0.57761000  1.0
  H  H6  1  0.14741000  0.29741000  0.10735000  1.0
  H  H7  1  0.85259000  0.70259000  0.89265000  1.0
  H  H8  1  0.58450000  0.87745000  0.51562000  1.0
  H  H9  1  0.41550000  0.12254000  0.48438000  1.0
  H  H10  1  0.02607000  0.03408000  0.13610000  1.0
  H  H11  1  0.97393000  0.96591000  0.86389000  1.0
  H  H12  1  0.16972000  0.86052000  0.05615000  1.0
  H  H13  1  0.83027000  0.13948000  0.94385000  1.0
  H  H14  1  0.32633000  0.69902000  0.76301000  1.0
  H  H15  1  0.67368000  0.30098000  0.23699000  1.0
  H  H16  1  0.35289000  0.83752000  0.84632000  1.0
  H  H17  1  0.64711000  0.16248000  0.15368000  1.0
  C  C18  1  0.88974000  0.57706000  0.36864000  1.0
  C  C19  1  0.11026000  0.42295000  0.63136000  1.0
  C  C20  1  0.03511000  0.66104000  0.32095000  1.0
  C  C21  1  0.96489000  0.33897000  0.67906000  1.0
  C  C22  1  0.91009000  0.39316000  0.35126000  1.0
  C  C23  1  0.08991000  0.60685000  0.64874000  1.0
  C  C24  1  0.22182000  0.58577000  0.24316000  1.0
  C  C25  1  0.77818000  0.41423000  0.75684000  1.0
  C  C26  1  0.42381000  0.18005000  0.86116000  1.0
  C  C27  1  0.57620000  0.81994000  0.13884000  1.0
  C  C28  1  0.85717000  0.90027000  0.40806000  1.0
  C  C29  1  0.14283000  0.09974000  0.59194000  1.0
  C  C30  1  0.22755000  0.24093000  0.02436000  1.0
  C  C31  1  0.77245000  0.75907000  0.97564000  1.0
  C  C32  1  0.71299000  0.81787000  0.45699000  1.0
  C  C33  1  0.28701000  0.18213000  0.54301000  1.0
  C  C34  1  0.08348000  0.99195000  0.04311000  1.0
  C  C35  1  0.91652000  0.00805000  0.95689000  1.0
  N  N36  1  0.72884000  0.65960000  0.43499000  1.0
  N  N37  1  0.27116000  0.34040000  0.56502000  1.0
  N  N38  1  0.21139000  0.09659000  0.98757000  1.0
  N  N39  1  0.78861000  0.90341000  0.01243000  1.0
  N  N40  1  0.36176000  0.29678000  0.94589000  1.0
  N  N41  1  0.63825000  0.70321000  0.05411000  1.0
  N  N42  1  0.01716000  0.82205000  0.34016000  1.0
  N  N43  1  0.98284000  0.17796000  0.65984000  1.0
  N  N44  1  0.33556000  0.05537000  0.88326000  1.0
  N  N45  1  0.66444000  0.94463000  0.11674000  1.0
  O  O46  1  0.38345000  0.54770000  0.29604000  1.0
  O  O47  1  0.61655000  0.45230000  0.70397000  1.0
  O  O48  1  0.76183000  0.33204000  0.39037000  1.0
  O  O49  1  0.23818000  0.66796000  0.60962000  1.0
  O  O50  1  0.06950000  0.31430000  0.30124000  1.0
  O  O51  1  0.93050000  0.68572000  0.69874000  1.0
  O  O52  1  0.20386000  0.58544000  0.12571000  1.0
  O  O53  1  0.79613000  0.41457000  0.87429000  1.0
  O  O54  1  0.33325000  0.72302000  0.85062000  1.0
  O  O55  1  0.66675000  0.27698000  0.14938000  1.0
