# generated using pymatgen
data_Sn2H34C28(SN2)3
_symmetry_space_group_name_H-M   'P 1'
_cell_length_a   10.70270000
_cell_length_b   11.52110000
_cell_length_c   12.99510000
_cell_angle_alpha   89.99990000
_cell_angle_beta   83.19070000
_cell_angle_gamma   89.99950000
_symmetry_Int_Tables_number   1
_chemical_formula_structural   Sn2H34C28(SN2)3
_chemical_formula_sum   'Sn4 H68 C56 S6 N12'
_cell_volume   1591.08241427
_cell_formula_units_Z   2
loop_
 _symmetry_equiv_pos_site_id
 _symmetry_equiv_pos_as_xyz
  1  'x, y, z'
loop_
 _atom_site_type_symbol
 _atom_site_label
 _atom_site_symmetry_multiplicity
 _atom_site_fract_x
 _atom_site_fract_y
 _atom_site_fract_z
 _atom_site_occupancy
  Sn  Sn0  1  0.38155000  0.52470000  0.02090000  1.0
  Sn  Sn1  1  0.38153000  0.47530000  0.52090000  1.0
  Sn  Sn2  1  0.85302000  0.60781000  0.25162000  1.0
  Sn  Sn3  1  0.85302000  0.39218000  0.75163000  1.0
  H  H4  1  0.25777000  0.51896000  0.21347000  1.0
  H  H5  1  0.25776000  0.48104000  0.71348000  1.0
  H  H6  1  0.32281000  0.66127000  0.19397000  1.0
  H  H7  1  0.32280000  0.33873000  0.69397000  1.0
  H  H8  1  0.42293000  0.54268000  0.22021000  1.0
  H  H9  1  0.42293000  0.45732000  0.72022000  1.0
  H  H10  1  0.54937000  0.56343000  0.84925000  1.0
  H  H11  1  0.54935000  0.43658000  0.34925000  1.0
  H  H12  1  0.62696000  0.57345000  0.96405000  1.0
  H  H13  1  0.62695000  0.42655000  0.46405000  1.0
  H  H14  1  0.53282000  0.69138000  0.92788000  1.0
  H  H15  1  0.53281000  0.30862000  0.42788000  1.0
  H  H16  1  0.26923000  0.39943000  0.87796000  1.0
  H  H17  1  0.26923000  0.60057000  0.37796000  1.0
  H  H18  1  0.15105000  0.47781000  0.95926000  1.0
  H  H19  1  0.15105000  0.52220000  0.45926000  1.0
  H  H20  1  0.21703000  0.35012000  0.00693000  1.0
  H  H21  1  0.21702000  0.64988000  0.50693000  1.0
  H  H22  1  0.95795000  0.69331000  0.06755000  1.0
  H  H23  1  0.95795000  0.30669000  0.56755000  1.0
  H  H24  1  0.02083000  0.55114000  0.08865000  1.0
  H  H25  1  0.02083000  0.44886000  0.58865000  1.0
  H  H26  1  0.07786000  0.67574000  0.15110000  1.0
  H  H27  1  0.07786000  0.32426000  0.65110000  1.0
  H  H28  1  0.66302000  0.73725000  0.18803000  1.0
  H  H29  1  0.66303000  0.26275000  0.68804000  1.0
  H  H30  1  0.67929000  0.76836000  0.32098000  1.0
  H  H31  1  0.67930000  0.23164000  0.82098000  1.0
  H  H32  1  0.60051000  0.63926000  0.28782000  1.0
  H  H33  1  0.60052000  0.36074000  0.78782000  1.0
  H  H34  1  0.80513000  0.51821000  0.44589000  1.0
  H  H35  1  0.80514000  0.48179000  0.94589000  1.0
  H  H36  1  0.97007000  0.54520000  0.41999000  1.0
  H  H37  1  0.97007000  0.45481000  0.91999000  1.0
  H  H38  1  0.90438000  0.42189000  0.36349000  1.0
  H  H39  1  0.90438000  0.57811000  0.86348000  1.0
  H  H40  1  0.20429000  0.62512000  0.84749000  1.0
  H  H41  1  0.20429000  0.37488000  0.34749000  1.0
  H  H42  1  0.08686000  0.79270000  0.79433000  1.0
  H  H43  1  0.08686000  0.20730000  0.29433000  1.0
  H  H44  1  0.21477000  0.98194000  0.05151000  1.0
  H  H45  1  0.21478000  0.01806000  0.55151000  1.0
  H  H46  1  0.32765000  0.80881000  0.09161000  1.0
  H  H47  1  0.32765000  0.19118000  0.59161000  1.0
  H  H48  1  0.91887000  0.11967000  0.68987000  1.0
  H  H49  1  0.91888000  0.88033000  0.18987000  1.0
  H  H50  1  0.02194000  0.93924000  0.73946000  1.0
  H  H51  1  0.02194000  0.06076000  0.23946000  1.0
  H  H52  1  0.09428000  0.11452000  0.02230000  1.0
  H  H53  1  0.09428000  0.88548000  0.52230000  1.0
  H  H54  1  0.98915000  0.28381000  0.96240000  1.0
  H  H55  1  0.98914000  0.71619000  0.46241000  1.0
  H  H56  1  0.88394000  0.22755000  0.41709000  1.0
  H  H57  1  0.88394000  0.77244000  0.91709000  1.0
  H  H58  1  0.72397000  0.17832000  0.30186000  1.0
  H  H59  1  0.72397000  0.82168000  0.80186000  1.0
  H  H60  1  0.54514000  0.96074000  0.54812000  1.0
  H  H61  1  0.54515000  0.03927000  0.04811000  1.0
  H  H62  1  0.71242000  0.02044000  0.65356000  1.0
  H  H63  1  0.71242000  0.97956000  0.15356000  1.0
  H  H64  1  0.32431000  0.81091000  0.30345000  1.0
  H  H65  1  0.32430000  0.18908000  0.80345000  1.0
  H  H66  1  0.48827000  0.85885000  0.41514000  1.0
  H  H67  1  0.48828000  0.14115000  0.91513000  1.0
  H  H68  1  0.51871000  0.19646000  0.26647000  1.0
  H  H69  1  0.51872000  0.80354000  0.76646000  1.0
  H  H70  1  0.35568000  0.13321000  0.16043000  1.0
  H  H71  1  0.35568000  0.86679000  0.66043000  1.0
  C  C72  1  0.62418000  0.35314000  0.09980000  1.0
  C  C73  1  0.62417000  0.64685000  0.59980000  1.0
  C  C74  1  0.84025000  0.34960000  0.14962000  1.0
  C  C75  1  0.84024000  0.65040000  0.64963000  1.0
  C  C76  1  0.34120000  0.56848000  0.18223000  1.0
  C  C77  1  0.34119000  0.43152000  0.68224000  1.0
  C  C78  1  0.54263000  0.59688000  0.92869000  1.0
  C  C79  1  0.54262000  0.40312000  0.42869000  1.0
  C  C80  1  0.23730000  0.42648000  0.95748000  1.0
  C  C81  1  0.23729000  0.57352000  0.45748000  1.0
  C  C82  1  0.99542000  0.63559000  0.12340000  1.0
  C  C83  1  0.99542000  0.36441000  0.62340000  1.0
  C  C84  1  0.67727000  0.69952000  0.26307000  1.0
  C  C85  1  0.67727000  0.30047000  0.76307000  1.0
  C  C86  1  0.88734000  0.51223000  0.38736000  1.0
  C  C87  1  0.88734000  0.48777000  0.88736000  1.0
  C  C88  1  0.20499000  0.70624000  0.89066000  1.0
  C  C89  1  0.20498000  0.29376000  0.39066000  1.0
  C  C90  1  0.13946000  0.80197000  0.86071000  1.0
  C  C91  1  0.13946000  0.19802000  0.36071000  1.0
  C  C92  1  0.13910000  0.90592000  0.91697000  1.0
  C  C93  1  0.13910000  0.09408000  0.41697000  1.0
  C  C94  1  0.20851000  0.90645000  0.00208000  1.0
  C  C95  1  0.20851000  0.09355000  0.50208000  1.0
  C  C96  1  0.27289000  0.80710000  0.02606000  1.0
  C  C97  1  0.27289000  0.19289000  0.52606000  1.0
  C  C98  1  0.95849000  0.11412000  0.76369000  1.0
  C  C99  1  0.95849000  0.88588000  0.26369000  1.0
  C  C100  1  0.01753000  0.01340000  0.79187000  1.0
  C  C101  1  0.01753000  0.98660000  0.29188000  1.0
  C  C102  1  0.07085000  0.00939000  0.88572000  1.0
  C  C103  1  0.07085000  0.99061000  0.38572000  1.0
  C  C104  1  0.05845000  0.10938000  0.94742000  1.0
  C  C105  1  0.05845000  0.89062000  0.44743000  1.0
  C  C106  1  0.99781000  0.20648000  0.91378000  1.0
  C  C107  1  0.99781000  0.79352000  0.41379000  1.0
  C  C108  1  0.80699000  0.16879000  0.44450000  1.0
  C  C109  1  0.80699000  0.83120000  0.94450000  1.0
  C  C110  1  0.71654000  0.14141000  0.37962000  1.0
  C  C111  1  0.71655000  0.85859000  0.87961000  1.0
  C  C112  1  0.61882000  0.06495000  0.41519000  1.0
  C  C113  1  0.61883000  0.93505000  0.91518000  1.0
  C  C114  1  0.61853000  0.02025000  0.51564000  1.0
  C  C115  1  0.61854000  0.97975000  0.01563000  1.0
  C  C116  1  0.71269000  0.05377000  0.57475000  1.0
  C  C117  1  0.71269000  0.94623000  0.07475000  1.0
  C  C118  1  0.37009000  0.89587000  0.29652000  1.0
  C  C119  1  0.37010000  0.10413000  0.79651000  1.0
  C  C120  1  0.46159000  0.92333000  0.36023000  1.0
  C  C121  1  0.46160000  0.07667000  0.86022000  1.0
  C  C122  1  0.51993000  0.03259000  0.35041000  1.0
  C  C123  1  0.51994000  0.96741000  0.85040000  1.0
  C  C124  1  0.47992000  0.10922000  0.27705000  1.0
  C  C125  1  0.47993000  0.89078000  0.77705000  1.0
  C  C126  1  0.38694000  0.07337000  0.21744000  1.0
  C  C127  1  0.38694000  0.92663000  0.71744000  1.0
  S  S128  1  0.74681000  0.25132000  0.08909000  1.0
  S  S129  1  0.74680000  0.74868000  0.58909000  1.0
  S  S130  1  0.48399000  0.32108000  0.05324000  1.0
  S  S131  1  0.48398000  0.67892000  0.55325000  1.0
  S  S132  1  0.98977000  0.32159000  0.17062000  1.0
  S  S133  1  0.98976000  0.67842000  0.67063000  1.0
  N  N134  1  0.65424000  0.44986000  0.14517000  1.0
  N  N135  1  0.65424000  0.55014000  0.64517000  1.0
  N  N136  1  0.77407000  0.44735000  0.17271000  1.0
  N  N137  1  0.77407000  0.55264000  0.67271000  1.0
  N  N138  1  0.27109000  0.70747000  0.97236000  1.0
  N  N139  1  0.27109000  0.29253000  0.47236000  1.0
  N  N140  1  0.94886000  0.21025000  0.82333000  1.0
  N  N141  1  0.94886000  0.78976000  0.32333000  1.0
  N  N142  1  0.80662000  0.12662000  0.54089000  1.0
  N  N143  1  0.80662000  0.87337000  0.04089000  1.0
  N  N144  1  0.33262000  0.96820000  0.22509000  1.0
  N  N145  1  0.33261000  0.03180000  0.72509000  1.0
