# generated using pymatgen
data_Ni2H26C39N4(O5F3)2
_symmetry_space_group_name_H-M   'P 1'
_cell_length_a   8.00738000
_cell_length_b   11.21640000
_cell_length_c   24.24990000
_cell_angle_alpha   90.00010000
_cell_angle_beta   90.00010000
_cell_angle_gamma   89.99970000
_symmetry_Int_Tables_number   1
_chemical_formula_structural   Ni2H26C39N4(O5F3)2
_chemical_formula_sum   'Ni4 H52 C78 N8 O20 F12'
_cell_volume   2177.97996159
_cell_formula_units_Z   2
loop_
 _symmetry_equiv_pos_site_id
 _symmetry_equiv_pos_as_xyz
  1  'x, y, z'
loop_
 _atom_site_type_symbol
 _atom_site_label
 _atom_site_symmetry_multiplicity
 _atom_site_fract_x
 _atom_site_fract_y
 _atom_site_fract_z
 _atom_site_occupancy
  Ni  Ni0  1  0.90911000  0.52734000  0.81404000  1.0
  Ni  Ni1  1  0.09089000  0.52734000  0.18596000  1.0
  Ni  Ni2  1  0.40911000  0.47266000  0.68596000  1.0
  Ni  Ni3  1  0.59089000  0.47266000  0.31404000  1.0
  H  H4  1  0.38508000  0.25550000  0.81440000  1.0
  H  H5  1  0.36276000  0.12187000  0.89438000  1.0
  H  H6  1  0.66959000  0.36553000  0.98800000  1.0
  H  H7  1  0.69961000  0.72010000  0.76557000  1.0
  H  H8  1  0.68884000  0.94256000  0.76331000  1.0
  H  H9  1  0.10618000  0.94157000  0.87687000  1.0
  H  H10  1  0.09286000  0.72073000  0.87555000  1.0
  H  H11  1  0.81373000  0.11006000  0.73228000  1.0
  H  H12  1  0.82824000  0.33096000  0.73189000  1.0
  H  H13  1  0.00328000  0.34082000  0.89225000  1.0
  H  H14  1  0.99961000  0.11949000  0.90000000  1.0
  H  H15  1  0.18713000  0.51288000  0.86807000  1.0
  H  H16  1  0.24596000  0.48915000  0.80625000  1.0
  H  H17  1  0.61492000  0.25550000  0.18560000  1.0
  H  H18  1  0.63723000  0.12187000  0.10562000  1.0
  H  H19  1  0.33041000  0.36553000  0.01200000  1.0
  H  H20  1  0.30039000  0.72010000  0.23443000  1.0
  H  H21  1  0.31116000  0.94256000  0.23669000  1.0
  H  H22  1  0.89382000  0.94157000  0.12312000  1.0
  H  H23  1  0.90715000  0.72074000  0.12445000  1.0
  H  H24  1  0.18627000  0.11007000  0.26772000  1.0
  H  H25  1  0.17176000  0.33097000  0.26811000  1.0
  H  H26  1  0.99671000  0.34083000  0.10775000  1.0
  H  H27  1  0.00039000  0.11949000  0.10000000  1.0
  H  H28  1  0.81286000  0.51288000  0.13193000  1.0
  H  H29  1  0.75403000  0.48915000  0.19375000  1.0
  H  H30  1  0.88508000  0.74450000  0.68560000  1.0
  H  H31  1  0.86276000  0.87814000  0.60562000  1.0
  H  H32  1  0.16958000  0.63447000  0.51199000  1.0
  H  H33  1  0.19961000  0.27990000  0.73443000  1.0
  H  H34  1  0.18883000  0.05744000  0.73669000  1.0
  H  H35  1  0.60618000  0.05843000  0.62312000  1.0
  H  H36  1  0.59285000  0.27927000  0.62445000  1.0
  H  H37  1  0.31373000  0.88994000  0.76772000  1.0
  H  H38  1  0.32825000  0.66903000  0.76811000  1.0
  H  H39  1  0.50328000  0.65917000  0.60775000  1.0
  H  H40  1  0.49961000  0.88051000  0.60000000  1.0
  H  H41  1  0.68713000  0.48711000  0.63193000  1.0
  H  H42  1  0.74596000  0.51084000  0.69375000  1.0
  H  H43  1  0.11493000  0.74449000  0.31440000  1.0
  H  H44  1  0.13724000  0.87813000  0.39438000  1.0
  H  H45  1  0.83042000  0.63447000  0.48800000  1.0
  H  H46  1  0.80039000  0.27990000  0.26557000  1.0
  H  H47  1  0.81117000  0.05744000  0.26331000  1.0
  H  H48  1  0.39382000  0.05843000  0.37688000  1.0
  H  H49  1  0.40715000  0.27927000  0.37555000  1.0
  H  H50  1  0.68627000  0.88993000  0.23228000  1.0
  H  H51  1  0.67176000  0.66903000  0.23189000  1.0
  H  H52  1  0.49672000  0.65917000  0.39225000  1.0
  H  H53  1  0.50039000  0.88051000  0.40000000  1.0
  H  H54  1  0.31287000  0.48712000  0.36807000  1.0
  H  H55  1  0.25404000  0.51085000  0.30625000  1.0
  C  C56  1  0.62386000  0.41559000  0.90410000  1.0
  C  C57  1  0.54000000  0.38450000  0.85509000  1.0
  C  C58  1  0.44710000  0.27865000  0.85289000  1.0
  C  C59  1  0.43408000  0.20383000  0.89821000  1.0
  C  C60  1  0.51221000  0.23545000  0.94782000  1.0
  C  C61  1  0.60822000  0.33981000  0.94973000  1.0
  C  C62  1  0.72251000  0.53085000  0.91083000  1.0
  C  C63  1  0.54419000  0.45960000  0.80440000  1.0
  C  C64  1  0.65876000  0.07623000  0.99978000  1.0
  C  C65  1  0.78835000  0.77378000  0.78880000  1.0
  C  C66  1  0.78417000  0.89755000  0.78772000  1.0
  C  C67  1  0.90089000  0.96269000  0.81864000  1.0
  C  C68  1  0.01307000  0.89730000  0.85126000  1.0
  C  C69  1  0.00788000  0.77340000  0.85045000  1.0
  C  C70  1  0.90620000  0.09402000  0.81648000  1.0
  C  C71  1  0.85669000  0.15675000  0.76906000  1.0
  C  C72  1  0.86540000  0.28044000  0.76824000  1.0
  C  C73  1  0.96698000  0.28508000  0.85747000  1.0
  C  C74  1  0.96300000  0.16170000  0.86139000  1.0
  C  C75  1  0.37614000  0.41559000  0.09590000  1.0
  C  C76  1  0.46000000  0.38450000  0.14491000  1.0
  C  C77  1  0.55290000  0.27865000  0.14711000  1.0
  C  C78  1  0.56592000  0.20383000  0.10179000  1.0
  C  C79  1  0.48778000  0.23545000  0.05219000  1.0
  C  C80  1  0.39178000  0.33981000  0.05027000  1.0
  C  C81  1  0.27750000  0.53086000  0.08917000  1.0
  C  C82  1  0.45581000  0.45960000  0.19560000  1.0
  C  C83  1  0.34124000  0.07623000  0.00022000  1.0
  C  C84  1  0.21165000  0.77378000  0.21120000  1.0
  C  C85  1  0.21583000  0.89755000  0.21228000  1.0
  C  C86  1  0.09911000  0.96270000  0.18136000  1.0
  C  C87  1  0.98694000  0.89730000  0.14873000  1.0
  C  C88  1  0.99212000  0.77340000  0.14954000  1.0
  C  C89  1  0.09380000  0.09403000  0.18352000  1.0
  C  C90  1  0.14330000  0.15675000  0.23094000  1.0
  C  C91  1  0.13460000  0.28045000  0.23176000  1.0
  C  C92  1  0.03302000  0.28508000  0.14252000  1.0
  C  C93  1  0.03700000  0.16170000  0.13861000  1.0
  C  C94  1  0.12385000  0.58441000  0.59590000  1.0
  C  C95  1  0.03999000  0.61550000  0.64491000  1.0
  C  C96  1  0.94710000  0.72136000  0.64711000  1.0
  C  C97  1  0.93408000  0.79617000  0.60179000  1.0
  C  C98  1  0.01221000  0.76455000  0.55218000  1.0
  C  C99  1  0.10822000  0.66020000  0.55027000  1.0
  C  C100  1  0.22251000  0.46915000  0.58917000  1.0
  C  C101  1  0.04419000  0.54041000  0.69560000  1.0
  C  C102  1  0.15876000  0.92378000  0.50022000  1.0
  C  C103  1  0.28834000  0.22622000  0.71120000  1.0
  C  C104  1  0.28417000  0.10245000  0.71228000  1.0
  C  C105  1  0.40089000  0.03730000  0.68136000  1.0
  C  C106  1  0.51306000  0.10270000  0.64873000  1.0
  C  C107  1  0.50787000  0.22660000  0.64954000  1.0
  C  C108  1  0.40620000  0.90597000  0.68352000  1.0
  C  C109  1  0.35669000  0.84325000  0.73094000  1.0
  C  C110  1  0.36540000  0.71955000  0.73176000  1.0
  C  C111  1  0.46698000  0.71492000  0.64253000  1.0
  C  C112  1  0.46300000  0.83830000  0.63861000  1.0
  C  C113  1  0.87615000  0.58441000  0.40410000  1.0
  C  C114  1  0.96001000  0.61550000  0.35509000  1.0
  C  C115  1  0.05291000  0.72135000  0.35289000  1.0
  C  C116  1  0.06593000  0.79617000  0.39821000  1.0
  C  C117  1  0.98778000  0.76455000  0.44781000  1.0
  C  C118  1  0.89179000  0.66019000  0.44973000  1.0
  C  C119  1  0.77750000  0.46915000  0.41083000  1.0
  C  C120  1  0.95581000  0.54040000  0.30440000  1.0
  C  C121  1  0.84124000  0.92378000  0.49978000  1.0
  C  C122  1  0.71165000  0.22622000  0.28880000  1.0
  C  C123  1  0.71583000  0.10245000  0.28772000  1.0
  C  C124  1  0.59911000  0.03730000  0.31864000  1.0
  C  C125  1  0.48694000  0.10270000  0.35126000  1.0
  C  C126  1  0.49212000  0.22660000  0.35045000  1.0
  C  C127  1  0.59381000  0.90597000  0.31648000  1.0
  C  C128  1  0.64331000  0.84325000  0.26906000  1.0
  C  C129  1  0.63460000  0.71955000  0.26825000  1.0
  C  C130  1  0.53303000  0.71492000  0.35748000  1.0
  C  C131  1  0.53700000  0.83830000  0.36139000  1.0
  C  C132  1  0.50000000  0.15764000  0.00000000  1.0
  C  C133  1  0.00000000  0.84236000  0.50000000  1.0
  N  N134  1  0.90033000  0.71214000  0.81870000  1.0
  N  N135  1  0.91914000  0.34432000  0.81178000  1.0
  N  N136  1  0.09967000  0.71215000  0.18130000  1.0
  N  N137  1  0.08085000  0.34433000  0.18822000  1.0
  N  N138  1  0.40033000  0.28786000  0.68130000  1.0
  N  N139  1  0.41915000  0.65567000  0.68822000  1.0
  N  N140  1  0.59967000  0.28785000  0.31870000  1.0
  N  N141  1  0.58086000  0.65567000  0.31178000  1.0
  O  O142  1  0.64814000  0.61861000  0.92936000  1.0
  O  O143  1  0.88027000  0.52447000  0.89760000  1.0
  O  O144  1  0.66358000  0.52954000  0.79388000  1.0
  O  O145  1  0.41834000  0.44883000  0.77178000  1.0
  O  O146  1  0.16660000  0.53577000  0.82994000  1.0
  O  O147  1  0.35186000  0.61861000  0.07064000  1.0
  O  O148  1  0.11973000  0.52448000  0.10241000  1.0
  O  O149  1  0.33642000  0.52954000  0.20612000  1.0
  O  O150  1  0.58166000  0.44884000  0.22822000  1.0
  O  O151  1  0.83339000  0.53577000  0.17006000  1.0
  O  O152  1  0.14813000  0.38139000  0.57065000  1.0
  O  O153  1  0.38027000  0.47553000  0.60241000  1.0
  O  O154  1  0.16358000  0.47047000  0.70612000  1.0
  O  O155  1  0.91834000  0.55117000  0.72822000  1.0
  O  O156  1  0.66661000  0.46422000  0.67006000  1.0
  O  O157  1  0.85187000  0.38139000  0.42936000  1.0
  O  O158  1  0.61974000  0.47552000  0.39760000  1.0
  O  O159  1  0.83642000  0.47046000  0.29388000  1.0
  O  O160  1  0.08167000  0.55117000  0.27178000  1.0
  O  O161  1  0.33333333  0.46423000  0.32994000  1.0
  F  F162  1  0.68363000  0.02455000  0.94984000  1.0
  F  F163  1  0.79874000  0.14210000  0.01098000  1.0
  F  F164  1  0.65346000  0.98619000  0.03758000  1.0
  F  F165  1  0.31636000  0.02455000  0.05016000  1.0
  F  F166  1  0.20126000  0.14210000  0.98902000  1.0
  F  F167  1  0.34654000  0.98619000  0.96242000  1.0
  F  F168  1  0.18363000  0.97546000  0.55016000  1.0
  F  F169  1  0.29874000  0.85790000  0.48902000  1.0
  F  F170  1  0.15346000  0.01382000  0.46242000  1.0
  F  F171  1  0.81636000  0.97546000  0.44984000  1.0
  F  F172  1  0.70126000  0.85791000  0.51098000  1.0
  F  F173  1  0.84654000  0.01382000  0.53757000  1.0
