# generated using pymatgen
data_AgH4C5SNO3
_symmetry_space_group_name_H-M   'P 1'
_cell_length_a   8.76638000
_cell_length_b   9.78673000
_cell_length_c   9.78921000
_cell_angle_alpha   78.43060000
_cell_angle_beta   63.39530000
_cell_angle_gamma   63.40520000
_symmetry_Int_Tables_number   1
_chemical_formula_structural   AgH4C5SNO3
_chemical_formula_sum   'Ag4 H16 C20 S4 N4 O12'
_cell_volume   671.47881304
_cell_formula_units_Z   4
loop_
 _symmetry_equiv_pos_site_id
 _symmetry_equiv_pos_as_xyz
  1  'x, y, z'
loop_
 _atom_site_type_symbol
 _atom_site_label
 _atom_site_symmetry_multiplicity
 _atom_site_fract_x
 _atom_site_fract_y
 _atom_site_fract_z
 _atom_site_occupancy
  Ag  Ag0  1  0.83389000  0.99997000  0.99995000  1.0
  Ag  Ag1  1  0.16609000  0.00003000  0.00011000  1.0
  Ag  Ag2  1  0.49994000  0.00003000  0.00001000  1.0
  Ag  Ag3  1  0.75010000  0.50000000  0.50000000  1.0
  H  H4  1  0.63694000  0.30657000  0.16832000  1.0
  H  H5  1  0.11193000  0.69340000  0.83159000  1.0
  H  H6  1  0.05678000  0.83157000  0.30660000  1.0
  H  H7  1  0.19479000  0.16840000  0.69355000  1.0
  H  H8  1  0.51662000  0.39415000  0.43312000  1.0
  H  H9  1  0.34374000  0.60582000  0.56673000  1.0
  H  H10  1  0.08974000  0.56667000  0.39423000  1.0
  H  H11  1  0.05039000  0.43321000  0.60593000  1.0
  H  H12  1  0.51241000  0.20037000  0.64682000  1.0
  H  H13  1  0.35942000  0.79960000  0.35307000  1.0
  H  H14  1  0.28739000  0.35299000  0.20045000  1.0
  H  H15  1  0.84077000  0.64697000  0.79959000  1.0
  H  H16  1  0.74050000  0.85733000  0.30913000  1.0
  H  H17  1  0.90705000  0.14261000  0.69079000  1.0
  H  H18  1  0.40204000  0.69084000  0.85739000  1.0
  H  H19  1  0.95017000  0.30927000  0.14269000  1.0
  C  C20  1  0.62988000  0.22666000  0.26368000  1.0
  C  C21  1  0.12033000  0.77333000  0.73623000  1.0
  C  C22  1  0.14360000  0.73621000  0.22670000  1.0
  C  C23  1  0.10639000  0.26375000  0.77346000  1.0
  C  C24  1  0.56203000  0.27422000  0.41228000  1.0
  C  C25  1  0.24847000  0.72574000  0.58760000  1.0
  C  C26  1  0.16399000  0.58755000  0.27427000  1.0
  C  C27  1  0.02567000  0.41241000  0.72586000  1.0
  C  C28  1  0.55983000  0.16719000  0.52988000  1.0
  C  C29  1  0.25672000  0.83278000  0.47001000  1.0
  C  C30  1  0.27305000  0.46999000  0.16725000  1.0
  C  C31  1  0.91029000  0.53001000  0.83284000  1.0
  C  C32  1  0.62317000  0.01505000  0.49280000  1.0
  C  C33  1  0.13106000  0.98494000  0.50710000  1.0
  C  C34  1  0.36159000  0.50713000  0.01511000  1.0
  C  C35  1  0.88389000  0.49294000  0.98495000  1.0
  C  C36  1  0.68828000  0.97495000  0.34221000  1.0
  C  C37  1  0.00556000  0.02503000  0.65771000  1.0
  C  C38  1  0.33661000  0.65775000  0.97499000  1.0
  C  C39  1  0.96933000  0.34231000  0.02509000  1.0
  S  S40  1  0.61572000  0.87112000  0.63699000  1.0
  S  S41  1  0.12389000  0.12890000  0.36295000  1.0
  S  S42  1  0.51301000  0.36300000  0.87115000  1.0
  S  S43  1  0.74722000  0.63708000  0.12889000  1.0
  N  N44  1  0.69341000  0.07927000  0.22917000  1.0
  N  N45  1  0.00198000  0.92070000  0.77074000  1.0
  N  N46  1  0.22732000  0.77076000  0.07930000  1.0
  N  N47  1  0.07728000  0.22926000  0.92083000  1.0
  O  O48  1  0.75201000  0.72472000  0.55625000  1.0
  O  O49  1  0.03290000  0.27530000  0.44372000  1.0
  O  O50  1  0.52333000  0.44382000  0.72477000  1.0
  O  O51  1  0.69187000  0.55629000  0.27527000  1.0
  O  O52  1  0.67380000  0.90488000  0.74164000  1.0
  O  O53  1  0.32038000  0.09523000  0.25834000  1.0
  O  O54  1  0.42116000  0.25834000  0.90474000  1.0
  O  O55  1  0.58437000  0.74172000  0.09529000  1.0
  O  O56  1  0.42157000  0.88774000  0.70628000  1.0
  O  O57  1  0.01580000  0.11214000  0.29357000  1.0
  O  O58  1  0.69043000  0.29358000  0.88797000  1.0
  O  O59  1  0.87214000  0.70643000  0.11204000  1.0
