# generated using pymatgen
data_ZnH24C26S2(N3O5)2
_symmetry_space_group_name_H-M   'P 1'
_cell_length_a   7.89656000
_cell_length_b   8.32110000
_cell_length_c   11.52600000
_cell_angle_alpha   103.39700000
_cell_angle_beta   105.94000000
_cell_angle_gamma   90.25020000
_symmetry_Int_Tables_number   1
_chemical_formula_structural   ZnH24C26S2(N3O5)2
_chemical_formula_sum   'Zn1 H24 C26 S2 N6 O10'
_cell_volume   706.53994369
_cell_formula_units_Z   1
loop_
 _symmetry_equiv_pos_site_id
 _symmetry_equiv_pos_as_xyz
  1  'x, y, z'
loop_
 _atom_site_type_symbol
 _atom_site_label
 _atom_site_symmetry_multiplicity
 _atom_site_fract_x
 _atom_site_fract_y
 _atom_site_fract_z
 _atom_site_occupancy
  Zn  Zn0  1  0.50001000  0.00000000  0.50000000  1.0
  H  H1  1  0.28745000  0.69934000  0.94189000  1.0
  H  H2  1  0.71254000  0.30065000  0.05810000  1.0
  H  H3  1  0.52860000  0.02941000  0.77714000  1.0
  H  H4  1  0.47141000  0.97058000  0.22287000  1.0
  H  H5  1  0.40258000  0.64198000  0.46369000  1.0
  H  H6  1  0.59741000  0.35801000  0.53631000  1.0
  H  H7  1  0.33995000  0.44255000  0.58109000  1.0
  H  H8  1  0.66004000  0.55744000  0.41890000  1.0
  H  H9  1  0.97889000  0.25963000  0.38090000  1.0
  H  H10  1  0.02112000  0.74040000  0.61911000  1.0
  H  H11  1  0.00694000  0.57081000  0.42921000  1.0
  H  H12  1  0.99305000  0.42922000  0.57079000  1.0
  H  H13  1  0.48137000  0.84634000  0.91089000  1.0
  H  H14  1  0.51864000  0.15364000  0.08911000  1.0
  H  H15  1  0.19729000  0.70382000  0.10097000  1.0
  H  H16  1  0.80271000  0.29618000  0.89902000  1.0
  H  H17  1  0.15089000  0.24415000  0.05430000  1.0
  H  H18  1  0.84910000  0.75586000  0.94571000  1.0
  H  H19  1  0.05120000  0.09701000  0.19376000  1.0
  H  H20  1  0.94880000  0.90301000  0.80625000  1.0
  H  H21  1  0.33905000  0.22205000  0.64630000  1.0
  H  H22  1  0.66095000  0.77794000  0.35370000  1.0
  H  H23  1  0.18824000  0.09994000  0.54423000  1.0
  H  H24  1  0.81176000  0.90005000  0.45576000  1.0
  C  C25  1  0.48692000  0.89837000  0.73814000  1.0
  C  C26  1  0.51309000  0.10162000  0.26186000  1.0
  C  C27  1  0.40305000  0.62793000  0.75594000  1.0
  C  C28  1  0.59694000  0.37205000  0.24406000  1.0
  C  C29  1  0.41808000  0.68154000  0.56303000  1.0
  C  C30  1  0.58192000  0.31845000  0.43697000  1.0
  C  C31  1  0.38429000  0.57096000  0.62884000  1.0
  C  C32  1  0.61570000  0.42903000  0.37115000  1.0
  C  C33  1  0.02511000  0.32352000  0.32139000  1.0
  C  C34  1  0.97489000  0.67650000  0.67861000  1.0
  C  C35  1  0.36431000  0.50624000  0.82463000  1.0
  C  C36  1  0.63569000  0.49373000  0.17536000  1.0
  C  C37  1  0.10015000  0.57834000  0.27317000  1.0
  C  C38  1  0.89985000  0.42168000  0.72683000  1.0
  C  C39  1  0.14506000  0.48723000  0.16734000  1.0
  C  C40  1  0.85494000  0.51278000  0.83266000  1.0
  C  C41  1  0.04093000  0.49623000  0.34902000  1.0
  C  C42  1  0.95907000  0.50379000  0.65098000  1.0
  C  C43  1  0.45712000  0.79543000  0.81123000  1.0
  C  C44  1  0.54288000  0.20455000  0.18877000  1.0
  C  C45  1  0.20622000  0.56933000  0.08619000  1.0
  C  C46  1  0.79377000  0.43067000  0.91380000  1.0
  C  C47  1  0.12365000  0.31315000  0.13919000  1.0
  C  C48  1  0.87634000  0.68686000  0.86081000  1.0
  C  C49  1  0.06554000  0.23192000  0.21547000  1.0
  C  C50  1  0.93446000  0.76810000  0.78454000  1.0
  S  S51  1  0.11650000  0.80087000  0.31392000  1.0
  S  S52  1  0.88350000  0.19914000  0.68607000  1.0
  N  N53  1  0.46777000  0.84239000  0.61578000  1.0
  N  N54  1  0.53223000  0.15760000  0.38422000  1.0
  N  N55  1  0.31089000  0.57639000  0.92665000  1.0
  N  N56  1  0.68910000  0.42360000  0.07335000  1.0
  N  N57  1  0.26556000  0.48523000  0.99820000  1.0
  N  N58  1  0.73444000  0.51476000  0.00180000  1.0
  O  O59  1  0.30926000  0.84537000  0.33958000  1.0
  O  O60  1  0.69075000  0.15464000  0.66043000  1.0
  O  O61  1  0.05734000  0.85181000  0.42593000  1.0
  O  O62  1  0.94265000  0.14822000  0.57406000  1.0
  O  O63  1  0.01106000  0.85184000  0.20504000  1.0
  O  O64  1  0.98895000  0.14818000  0.79495000  1.0
  O  O65  1  0.37810000  0.35539000  0.79061000  1.0
  O  O66  1  0.62190000  0.64459000  0.20939000  1.0
  O  O67  1  0.30616000  0.15364000  0.55927000  1.0
  O  O68  1  0.69385000  0.84635000  0.44073000  1.0
