# generated using pymatgen
data_H12PbC16S(NO2)2
_symmetry_space_group_name_H-M   'P 1'
_cell_length_a   8.22962000
_cell_length_b   8.79795000
_cell_length_c   10.89040000
_cell_angle_alpha   75.78640000
_cell_angle_beta   80.13440000
_cell_angle_gamma   77.74090000
_symmetry_Int_Tables_number   1
_chemical_formula_structural   H12PbC16S(NO2)2
_chemical_formula_sum   'H24 Pb2 C32 S2 N4 O8'
_cell_volume   741.00080640
_cell_formula_units_Z   2
loop_
 _symmetry_equiv_pos_site_id
 _symmetry_equiv_pos_as_xyz
  1  'x, y, z'
loop_
 _atom_site_type_symbol
 _atom_site_label
 _atom_site_symmetry_multiplicity
 _atom_site_fract_x
 _atom_site_fract_y
 _atom_site_fract_z
 _atom_site_occupancy
  H  H0  1  0.58409000  0.69706000  0.35388000  1.0
  H  H1  1  0.41591000  0.30294000  0.64612000  1.0
  H  H2  1  0.50034000  0.71517000  0.51145000  1.0
  H  H3  1  0.49966000  0.28483000  0.48855000  1.0
  H  H4  1  0.15102000  0.94257000  0.47554000  1.0
  H  H5  1  0.84898000  0.05743000  0.52446000  1.0
  H  H6  1  0.30477000  0.95197000  0.56968000  1.0
  H  H7  1  0.69523000  0.04802000  0.43032000  1.0
  H  H8  1  0.76307000  0.88053000  0.26826000  1.0
  H  H9  1  0.23693000  0.11948000  0.73175000  1.0
  H  H10  1  0.61650000  0.07804000  0.09706000  1.0
  H  H11  1  0.38350000  0.92196000  0.90294000  1.0
  H  H12  1  0.73047000  0.07436000  0.86548000  1.0
  H  H13  1  0.26953000  0.92564000  0.13453000  1.0
  H  H14  1  0.94171000  0.95168000  0.71198000  1.0
  H  H15  1  0.05828000  0.04832000  0.28801000  1.0
  H  H16  1  0.17950000  0.73363000  0.66848000  1.0
  H  H17  1  0.82050000  0.26637000  0.33151000  1.0
  H  H18  1  0.38632000  0.49873000  0.74855000  1.0
  H  H19  1  0.61368000  0.50127000  0.25145000  1.0
  H  H20  1  0.49252000  0.29230000  0.93309000  1.0
  H  H21  1  0.50748000  0.70770000  0.06691000  1.0
  H  H22  1  0.35251000  0.31058000  0.15697000  1.0
  H  H23  1  0.64749000  0.68942000  0.84303000  1.0
  Pb  Pb24  1  0.05968000  0.53782000  0.33106000  1.0
  Pb  Pb25  1  0.94032000  0.46218000  0.66894000  1.0
  C  C26  1  0.33047000  0.65686000  0.40542000  1.0
  C  C27  1  0.66953000  0.34313000  0.59458000  1.0
  C  C28  1  0.47062000  0.74126000  0.41324000  1.0
  C  C29  1  0.52938000  0.25875000  0.58676000  1.0
  C  C30  1  0.25755000  0.99962000  0.47679000  1.0
  C  C31  1  0.74245000  0.00038000  0.52321000  1.0
  C  C32  1  0.19640000  0.17831000  0.46347000  1.0
  C  C33  1  0.80361000  0.82169000  0.53653000  1.0
  C  C34  1  0.80213000  0.87686000  0.16794000  1.0
  C  C35  1  0.19787000  0.12314000  0.83206000  1.0
  C  C36  1  0.72272000  0.98962000  0.07077000  1.0
  C  C37  1  0.27728000  0.01038000  0.92923000  1.0
  C  C38  1  0.78444000  0.98710000  0.94486000  1.0
  C  C39  1  0.21556000  0.01290000  0.05514000  1.0
  C  C40  1  0.92234000  0.86835000  0.91733000  1.0
  C  C41  1  0.07767000  0.13165000  0.08266000  1.0
  C  C42  1  0.99405000  0.86040000  0.78936000  1.0
  C  C43  1  0.00595000  0.13960000  0.21064000  1.0
  C  C44  1  0.12547000  0.74285000  0.76565000  1.0
  C  C45  1  0.87453000  0.25716000  0.23434000  1.0
  C  C46  1  0.19506000  0.62510000  0.86827000  1.0
  C  C47  1  0.80493000  0.37490000  0.13173000  1.0
  C  C48  1  0.33035000  0.50188000  0.84635000  1.0
  C  C49  1  0.66965000  0.49812000  0.15365000  1.0
  C  C50  1  0.12765000  0.62882000  0.99712000  1.0
  C  C51  1  0.87235000  0.37118000  0.00288000  1.0
  C  C52  1  0.38874000  0.38817000  0.94865000  1.0
  C  C53  1  0.61126000  0.61183000  0.05135000  1.0
  C  C54  1  0.31248000  0.39877000  0.07295000  1.0
  C  C55  1  0.68752000  0.60123000  0.92705000  1.0
  C  C56  1  0.99031000  0.75507000  0.02195000  1.0
  C  C57  1  0.00969000  0.24493000  0.97805000  1.0
  S  S58  1  0.42416000  0.95490000  0.35258000  1.0
  S  S59  1  0.57584000  0.04510000  0.64742000  1.0
  N  N60  1  0.93050000  0.76297000  0.14457000  1.0
  N  N61  1  0.06950000  0.23704000  0.85543000  1.0
  N  N62  1  0.18735000  0.51592000  0.09653000  1.0
  N  N63  1  0.81265000  0.48407000  0.90347000  1.0
  O  O64  1  0.28940000  0.67232000  0.29310000  1.0
  O  O65  1  0.71060000  0.32767000  0.70691000  1.0
  O  O66  1  0.26177000  0.57757000  0.50603000  1.0
  O  O67  1  0.73823000  0.42243000  0.49397000  1.0
  O  O68  1  0.26086000  0.27186000  0.36727000  1.0
  O  O69  1  0.73914000  0.72814000  0.63273000  1.0
  O  O70  1  0.08354000  0.21879000  0.55031000  1.0
  O  O71  1  0.91646000  0.78122000  0.44969000  1.0
