# generated using pymatgen
data_CdH7C8NO5
_symmetry_space_group_name_H-M   'P 1'
_cell_length_a   7.00448000
_cell_length_b   10.56530000
_cell_length_c   12.40650000
_cell_angle_alpha   84.31100000
_cell_angle_beta   89.99950000
_cell_angle_gamma   89.99990000
_symmetry_Int_Tables_number   1
_chemical_formula_structural   CdH7C8NO5
_chemical_formula_sum   'Cd4 H28 C32 N4 O20'
_cell_volume   913.61382334
_cell_formula_units_Z   4
loop_
 _symmetry_equiv_pos_site_id
 _symmetry_equiv_pos_as_xyz
  1  'x, y, z'
loop_
 _atom_site_type_symbol
 _atom_site_label
 _atom_site_symmetry_multiplicity
 _atom_site_fract_x
 _atom_site_fract_y
 _atom_site_fract_z
 _atom_site_occupancy
  Cd  Cd0  1  0.85718000  0.40741000  0.60122000  1.0
  Cd  Cd1  1  0.35718000  0.09259000  0.89878000  1.0
  Cd  Cd2  1  0.14282000  0.59258000  0.39879000  1.0
  Cd  Cd3  1  0.64283000  0.90742000  0.10121000  1.0
  H  H4  1  0.44491000  0.05272000  0.23179000  1.0
  H  H5  1  0.94488000  0.44728000  0.26821000  1.0
  H  H6  1  0.55511000  0.94727000  0.76820000  1.0
  H  H7  1  0.05512000  0.55273000  0.73179000  1.0
  H  H8  1  0.35824000  0.90774000  0.26482000  1.0
  H  H9  1  0.85822000  0.59226000  0.23518000  1.0
  H  H10  1  0.64177000  0.09225000  0.73518000  1.0
  H  H11  1  0.14178000  0.40774000  0.76482000  1.0
  H  H12  1  0.86118000  0.91612000  0.62460000  1.0
  H  H13  1  0.36120000  0.58387000  0.87540000  1.0
  H  H14  1  0.13882000  0.08388000  0.37540000  1.0
  H  H15  1  0.63879000  0.41612000  0.12460000  1.0
  H  H16  1  0.60376000  0.74191000  0.36149000  1.0
  H  H17  1  0.10374000  0.75809000  0.13851000  1.0
  H  H18  1  0.39625000  0.25809000  0.63851000  1.0
  H  H19  1  0.89626000  0.24191000  0.86149000  1.0
  H  H20  1  0.62052000  0.15137000  0.35515000  1.0
  H  H21  1  0.12051000  0.34863000  0.14485000  1.0
  H  H22  1  0.37949000  0.84863000  0.64484000  1.0
  H  H23  1  0.87950000  0.65137000  0.85516000  1.0
  H  H24  1  0.59505000  0.53669000  0.68923000  1.0
  H  H25  1  0.09505000  0.96331000  0.81077000  1.0
  H  H26  1  0.40495000  0.46331000  0.31077000  1.0
  H  H27  1  0.90496000  0.03670000  0.18923000  1.0
  H  H28  1  0.50774000  0.41228000  0.75521000  1.0
  H  H29  1  0.00773000  0.08772000  0.74479000  1.0
  H  H30  1  0.49227000  0.58772000  0.24479000  1.0
  H  H31  1  0.99228000  0.91229000  0.25520000  1.0
  C  C32  1  0.79831000  0.16550000  0.54209000  1.0
  C  C33  1  0.29831000  0.33450000  0.95791000  1.0
  C  C34  1  0.20170000  0.83450000  0.45790000  1.0
  C  C35  1  0.70169000  0.66550000  0.04209000  1.0
  C  C36  1  0.75237000  0.04598000  0.49277000  1.0
  C  C37  1  0.25237000  0.45401000  0.00724000  1.0
  C  C38  1  0.24764000  0.95401000  0.50723000  1.0
  C  C39  1  0.74763000  0.54599000  0.99277000  1.0
  C  C40  1  0.79106000  0.92570000  0.54591000  1.0
  C  C41  1  0.29107000  0.57429000  0.95409000  1.0
  C  C42  1  0.20894000  0.07430000  0.45409000  1.0
  C  C43  1  0.70893000  0.42571000  0.04591000  1.0
  C  C44  1  0.74092000  0.81704000  0.49678000  1.0
  C  C45  1  0.24091000  0.68296000  0.00323000  1.0
  C  C46  1  0.25908000  0.18296000  0.50323000  1.0
  C  C47  1  0.75907000  0.31705000  0.99677000  1.0
  C  C48  1  0.77465000  0.68787000  0.55490000  1.0
  C  C49  1  0.27464000  0.81213000  0.94510000  1.0
  C  C50  1  0.22534000  0.31213000  0.44511000  1.0
  C  C51  1  0.72534000  0.18787000  0.05488000  1.0
  C  C52  1  0.64573000  0.82799000  0.39711000  1.0
  C  C53  1  0.14571000  0.67200000  0.10289000  1.0
  C  C54  1  0.35428000  0.17200000  0.60290000  1.0
  C  C55  1  0.85429000  0.32800000  0.89711000  1.0
  C  C56  1  0.59651000  0.94832000  0.34808000  1.0
  C  C57  1  0.09650000  0.55168000  0.15192000  1.0
  C  C58  1  0.40349000  0.05168000  0.65192000  1.0
  C  C59  1  0.90351000  0.44832000  0.84808000  1.0
  C  C60  1  0.65542000  0.05714000  0.39374000  1.0
  C  C61  1  0.15542000  0.44286000  0.10626000  1.0
  C  C62  1  0.34458000  0.94286000  0.60625000  1.0
  C  C63  1  0.84458000  0.55714000  0.89375000  1.0
  N  N64  1  0.48246000  0.95971000  0.25164000  1.0
  N  N65  1  0.98244000  0.54029000  0.24836000  1.0
  N  N66  1  0.51755000  0.04027000  0.74835000  1.0
  N  N67  1  0.01756000  0.45972000  0.75165000  1.0
  O  O68  1  0.77965000  0.27028000  0.48219000  1.0
  O  O69  1  0.27965000  0.22972000  0.01782000  1.0
  O  O70  1  0.22035000  0.72972000  0.51780000  1.0
  O  O71  1  0.72035000  0.77028000  0.98219000  1.0
  O  O72  1  0.84853000  0.16275000  0.64188000  1.0
  O  O73  1  0.34854000  0.33725000  0.85813000  1.0
  O  O74  1  0.15147000  0.83725000  0.35812000  1.0
  O  O75  1  0.65146000  0.66275000  0.14187000  1.0
  O  O76  1  0.74219000  0.67219000  0.65505000  1.0
  O  O77  1  0.24218000  0.82780000  0.84496000  1.0
  O  O78  1  0.25777000  0.32781000  0.34496000  1.0
  O  O79  1  0.75775000  0.17219000  0.15504000  1.0
  O  O80  1  0.83034000  0.59826000  0.49746000  1.0
  O  O81  1  0.33033000  0.90174000  0.00254000  1.0
  O  O82  1  0.16967000  0.40174000  0.50255000  1.0
  O  O83  1  0.66967000  0.09826000  0.99744000  1.0
  O  O84  1  0.55655000  0.44717000  0.68360000  1.0
  O  O85  1  0.05655000  0.05282000  0.81641000  1.0
  O  O86  1  0.44345000  0.55282000  0.31640000  1.0
  O  O87  1  0.94346000  0.94719000  0.18359000  1.0
