# generated using pymatgen
data_GaP2H11C12(NO4)2
_symmetry_space_group_name_H-M   'P 1'
_cell_length_a   7.83563000
_cell_length_b   8.68833000
_cell_length_c   12.07520000
_cell_angle_alpha   108.38100000
_cell_angle_beta   106.05000000
_cell_angle_gamma   97.24710000
_symmetry_Int_Tables_number   1
_chemical_formula_structural   GaP2H11C12(NO4)2
_chemical_formula_sum   'Ga2 P4 H22 C24 N4 O16'
_cell_volume   728.91257123
_cell_formula_units_Z   2
loop_
 _symmetry_equiv_pos_site_id
 _symmetry_equiv_pos_as_xyz
  1  'x, y, z'
loop_
 _atom_site_type_symbol
 _atom_site_label
 _atom_site_symmetry_multiplicity
 _atom_site_fract_x
 _atom_site_fract_y
 _atom_site_fract_z
 _atom_site_occupancy
  Ga  Ga0  1  0.06298000  0.31666000  0.62778000  1.0
  Ga  Ga1  1  0.93707000  0.68329000  0.37223000  1.0
  P  P2  1  0.85581000  0.60723000  0.60964000  1.0
  P  P3  1  0.25291000  0.00364000  0.60842000  1.0
  P  P4  1  0.14416000  0.39267000  0.39035000  1.0
  P  P5  1  0.74708000  0.99630000  0.39160000  1.0
  H  H6  1  0.00362000  0.21134000  0.08400000  1.0
  H  H7  1  0.57874000  0.87103000  0.08227000  1.0
  H  H8  1  0.99639000  0.78867000  0.91602000  1.0
  H  H9  1  0.42127000  0.12895000  0.91772000  1.0
  H  H10  1  0.81196000  0.99567000  0.87372000  1.0
  H  H11  1  0.56265000  0.87648000  0.87195000  1.0
  H  H12  1  0.18805000  0.00434000  0.12630000  1.0
  H  H13  1  0.43734000  0.12351000  0.12804000  1.0
  H  H14  1  0.83057000  0.04037000  0.68305000  1.0
  H  H15  1  0.35329000  0.64245000  0.68159000  1.0
  H  H16  1  0.16943000  0.95962000  0.31697000  1.0
  H  H17  1  0.64669000  0.35754000  0.31840000  1.0
  H  H18  1  0.24533000  0.48496000  0.20484000  1.0
  H  H19  1  0.45737000  0.71796000  0.20451000  1.0
  H  H20  1  0.75469000  0.51505000  0.79517000  1.0
  H  H21  1  0.54265000  0.28203000  0.79548000  1.0
  H  H22  1  0.11709000  0.86556000  0.71198000  1.0
  H  H23  1  0.88287000  0.13443000  0.28803000  1.0
  H  H24  1  0.58078000  0.62376000  0.52602000  1.0
  H  H25  1  0.44680000  0.89559000  0.53109000  1.0
  H  H26  1  0.41953000  0.37698000  0.47411000  1.0
  H  H27  1  0.55327000  0.10485000  0.46872000  1.0
  C  C28  1  0.13458000  0.37617000  0.89024000  1.0
  C  C29  1  0.25531000  0.51447000  0.89007000  1.0
  C  C30  1  0.86543000  0.62382000  0.10976000  1.0
  C  C31  1  0.74470000  0.48553000  0.10993000  1.0
  C  C32  1  0.13189000  0.36410000  0.00397000  1.0
  C  C33  1  0.37105000  0.63935000  0.00350000  1.0
  C  C34  1  0.86811000  0.63590000  0.99603000  1.0
  C  C35  1  0.62896000  0.36065000  0.99650000  1.0
  C  C36  1  0.01130000  0.22382000  0.99798000  1.0
  C  C37  1  0.48566000  0.77302000  0.99672000  1.0
  C  C38  1  0.98870000  0.77619000  0.00203000  1.0
  C  C39  1  0.51434000  0.22697000  0.00327000  1.0
  C  C40  1  0.90456000  0.10681000  0.88305000  1.0
  C  C41  1  0.47857000  0.77533000  0.88157000  1.0
  C  C42  1  0.09544000  0.89319000  0.11696000  1.0
  C  C43  1  0.52142000  0.22466000  0.11842000  1.0
  C  C44  1  0.91418000  0.12949000  0.77457000  1.0
  C  C45  1  0.36082000  0.64528000  0.77349000  1.0
  C  C46  1  0.08582000  0.87051000  0.22544000  1.0
  C  C47  1  0.63918000  0.35470000  0.22651000  1.0
  C  C48  1  0.25021000  0.49227000  0.11737000  1.0
  C  C49  1  0.36569000  0.62390000  0.11716000  1.0
  C  C50  1  0.74979000  0.50773000  0.88263000  1.0
  C  C51  1  0.63432000  0.37609000  0.88283000  1.0
  N  N52  1  0.02589000  0.26137000  0.77879000  1.0
  N  N53  1  0.25306000  0.51847000  0.77850000  1.0
  N  N54  1  0.97412000  0.73862000  0.22121000  1.0
  N  N55  1  0.74695000  0.48151000  0.22150000  1.0
  O  O56  1  0.86630000  0.44208000  0.63017000  1.0
  O  O57  1  0.26168000  0.18785000  0.63061000  1.0
  O  O58  1  0.13373000  0.55785000  0.36985000  1.0
  O  O59  1  0.73833000  0.81208000  0.36938000  1.0
  O  O60  1  0.98889000  0.75732000  0.71793000  1.0
  O  O61  1  0.23099000  0.96362000  0.72079000  1.0
  O  O62  1  0.01099000  0.24264000  0.28205000  1.0
  O  O63  1  0.76892000  0.03639000  0.27923000  1.0
  O  O64  1  0.12023000  0.88420000  0.48376000  1.0
  O  O65  1  0.85840000  0.59517000  0.48124000  1.0
  O  O66  1  0.87976000  0.11577000  0.51624000  1.0
  O  O67  1  0.14156000  0.40483000  0.51877000  1.0
  O  O68  1  0.65079000  0.62816000  0.60801000  1.0
  O  O69  1  0.45582000  0.98194000  0.60869000  1.0
  O  O70  1  0.34901000  0.37141000  0.39187000  1.0
  O  O71  1  0.54414000  0.01783000  0.39141000  1.0
