# generated using pymatgen
data_FeH10C10(NO)4
_symmetry_space_group_name_H-M   'P 1'
_cell_length_a   5.05230000
_cell_length_b   8.25276000
_cell_length_c   12.18320000
_cell_angle_alpha   87.38200000
_cell_angle_beta   89.99140000
_cell_angle_gamma   89.99390000
_symmetry_Int_Tables_number   1
_chemical_formula_structural   FeH10C10(NO)4
_chemical_formula_sum   'Fe2 H20 C20 N8 O8'
_cell_volume   507.45342664
_cell_formula_units_Z   2
loop_
 _symmetry_equiv_pos_site_id
 _symmetry_equiv_pos_as_xyz
  1  'x, y, z'
loop_
 _atom_site_type_symbol
 _atom_site_label
 _atom_site_symmetry_multiplicity
 _atom_site_fract_x
 _atom_site_fract_y
 _atom_site_fract_z
 _atom_site_occupancy
  Fe  Fe0  1  0.50000000  0.50000000  0.50000000  1.0
  Fe  Fe1  1  0.00000000  0.00000000  0.00000000  1.0
  H  H2  1  0.65774000  0.17708000  0.69341000  1.0
  H  H3  1  0.15746000  0.32279000  0.80659000  1.0
  H  H4  1  0.34225000  0.82292000  0.30658000  1.0
  H  H5  1  0.84255000  0.67721000  0.19341000  1.0
  H  H6  1  0.85891000  0.01610000  0.74815000  1.0
  H  H7  1  0.35885000  0.48367000  0.75187000  1.0
  H  H8  1  0.14108000  0.98390000  0.25184000  1.0
  H  H9  1  0.64116000  0.51633000  0.24813000  1.0
  H  H10  1  0.19821000  0.09343000  0.60676000  1.0
  H  H11  1  0.69795000  0.40667000  0.89322000  1.0
  H  H12  1  0.80177000  0.90656000  0.39324000  1.0
  H  H13  1  0.30206000  0.59334000  0.10678000  1.0
  H  H14  1  0.06687000  0.80326000  0.50479000  1.0
  H  H15  1  0.56666000  0.69687000  0.99515000  1.0
  H  H16  1  0.93313000  0.19672000  0.49521000  1.0
  H  H17  1  0.43335000  0.30314000  0.00485000  1.0
  H  H18  1  0.76992000  0.73411000  0.68552000  1.0
  H  H19  1  0.26998000  0.76575000  0.81448000  1.0
  H  H20  1  0.23009000  0.26589000  0.31447000  1.0
  H  H21  1  0.73002000  0.23425000  0.18551000  1.0
  C  C22  1  0.52363000  0.07626000  0.84832000  1.0
  C  C23  1  0.02355000  0.42368000  0.65169000  1.0
  C  C24  1  0.47636000  0.92375000  0.15168000  1.0
  C  C25  1  0.97646000  0.57631000  0.34831000  1.0
  C  C26  1  0.65395000  0.05635000  0.73593000  1.0
  C  C27  1  0.15383000  0.44354000  0.76410000  1.0
  C  C28  1  0.34604000  0.94365000  0.26407000  1.0
  C  C29  1  0.84618000  0.55646000  0.23591000  1.0
  C  C30  1  0.28869000  0.97445000  0.60826000  1.0
  C  C31  1  0.78848000  0.52554000  0.89174000  1.0
  C  C32  1  0.71130000  0.02553000  0.39174000  1.0
  C  C33  1  0.21153000  0.47446000  0.10827000  1.0
  C  C34  1  0.23146000  0.83382000  0.55685000  1.0
  C  C35  1  0.73126000  0.66626000  0.94315000  1.0
  C  C36  1  0.76855000  0.16618000  0.44315000  1.0
  C  C37  1  0.26874000  0.33375000  0.05686000  1.0
  C  C38  1  0.59413000  0.78930000  0.64966000  1.0
  C  C39  1  0.09411000  0.71061000  0.85035000  1.0
  C  C40  1  0.40587000  0.21069000  0.35034000  1.0
  C  C41  1  0.90589000  0.28939000  0.14965000  1.0
  N  N42  1  0.51906000  0.94433000  0.66653000  1.0
  N  N43  1  0.01895000  0.55559000  0.83349000  1.0
  N  N44  1  0.48093000  0.05566000  0.33347000  1.0
  N  N45  1  0.98106000  0.44441000  0.16651000  1.0
  N  N46  1  0.42428000  0.71917000  0.58272000  1.0
  N  N47  1  0.92421000  0.78081000  0.91728000  1.0
  N  N48  1  0.57572000  0.28082000  0.41727000  1.0
  N  N49  1  0.07579000  0.21920000  0.08272000  1.0
  O  O50  1  0.68027000  0.11894000  0.92421000  1.0
  O  O51  1  0.18025000  0.38104000  0.57577000  1.0
  O  O52  1  0.31973000  0.88107000  0.07578000  1.0
  O  O53  1  0.81975000  0.61896000  0.42424000  1.0
  O  O54  1  0.27596000  0.05985000  0.85691000  1.0
  O  O55  1  0.77590000  0.44011000  0.64312000  1.0
  O  O56  1  0.72403000  0.94015000  0.14309000  1.0
  O  O57  1  0.22410000  0.55989000  0.35688000  1.0
