# generated using pymatgen
data_CdCuH22C26N4(ClO)2
_symmetry_space_group_name_H-M   'P 1'
_cell_length_a   7.14002000
_cell_length_b   14.42120000
_cell_length_c   15.51935979
_cell_angle_alpha   62.38547225
_cell_angle_beta   81.72566635
_cell_angle_gamma   89.97480000
_symmetry_Int_Tables_number   1
_chemical_formula_structural   CdCuH22C26N4(ClO)2
_chemical_formula_sum   'Cd2 Cu2 H44 C52 N8 Cl4 O4'
_cell_volume   1397.21186825
_cell_formula_units_Z   2
loop_
 _symmetry_equiv_pos_site_id
 _symmetry_equiv_pos_as_xyz
  1  'x, y, z'
loop_
 _atom_site_type_symbol
 _atom_site_label
 _atom_site_symmetry_multiplicity
 _atom_site_fract_x
 _atom_site_fract_y
 _atom_site_fract_z
 _atom_site_occupancy
  Cd  Cd0  1  0.75009000  0.05952000  0.99964000  1.0
  Cd  Cd1  1  0.24990000  0.94048000  0.00036000  1.0
  Cu  Cu2  1  0.50000000  0.50000000  0.50000000  1.0
  Cu  Cu3  1  0.00000000  0.00000000  0.50000000  1.0
  H  H4  1  0.53322000  0.31362000  0.33397000  1.0
  H  H5  1  0.96680000  0.64812000  0.66580000  1.0
  H  H6  1  0.46678000  0.68638000  0.66604000  1.0
  H  H7  1  0.03320000  0.35188000  0.33420000  1.0
  H  H8  1  0.46274000  0.12139000  0.39973000  1.0
  H  H9  1  0.03735000  0.52151000  0.60001000  1.0
  H  H10  1  0.53726000  0.87861000  0.60027000  1.0
  H  H11  1  0.96264000  0.47849000  0.39999000  1.0
  H  H12  1  0.35073000  0.00690000  0.57879000  1.0
  H  H13  1  0.14944000  0.58565000  0.42093000  1.0
  H  H14  1  0.64928000  0.99310000  0.42121000  1.0
  H  H15  1  0.85056000  0.41435000  0.57907000  1.0
  H  H16  1  0.30462000  0.08680000  0.69177000  1.0
  H  H17  1  0.19501000  0.77829000  0.30797000  1.0
  H  H18  1  0.69538000  0.91320000  0.30823000  1.0
  H  H19  1  0.80498000  0.22171000  0.69203000  1.0
  H  H20  1  0.30341000  0.22438000  0.72225000  1.0
  H  H21  1  0.19589000  0.94618000  0.27750000  1.0
  H  H22  1  0.69659000  0.77562000  0.27775000  1.0
  H  H23  1  0.80411000  0.05382000  0.72250000  1.0
  H  H24  1  0.23384000  0.34023000  0.76996000  1.0
  H  H25  1  0.26600000  0.10957000  0.22994000  1.0
  H  H26  1  0.76616000  0.65977000  0.23004000  1.0
  H  H27  1  0.73400000  0.89043000  0.77006000  1.0
  H  H28  1  0.32595000  0.47489000  0.69803000  1.0
  H  H29  1  0.17363000  0.17246000  0.30187000  1.0
  H  H30  1  0.67405000  0.52512000  0.30197000  1.0
  H  H31  1  0.82637000  0.82754000  0.69813000  1.0
  H  H32  1  0.66945000  0.52275000  0.69081000  1.0
  H  H33  1  0.83070000  0.21342000  0.30895000  1.0
  H  H34  1  0.33056000  0.47725000  0.30918000  1.0
  H  H35  1  0.16930000  0.78659000  0.69105000  1.0
  H  H36  1  0.94891000  0.47111000  0.78261000  1.0
  H  H37  1  0.55118000  0.25374000  0.21716000  1.0
  H  H38  1  0.05109000  0.52890000  0.21738000  1.0
  H  H39  1  0.44882000  0.74627000  0.78283000  1.0
  H  H40  1  0.95374000  0.28391000  0.91083000  1.0
  H  H41  1  0.54617000  0.19465000  0.08881000  1.0
  H  H42  1  0.04626000  0.71609000  0.08917000  1.0
  H  H43  1  0.45382000  0.80534000  0.91120000  1.0
  H  H44  1  0.42920000  0.20417000  0.86994000  1.0
  H  H45  1  0.07035000  0.07342000  0.12976000  1.0
  H  H46  1  0.57080000  0.79582000  0.13007000  1.0
  H  H47  1  0.92965000  0.92659000  0.87024000  1.0
  C  C48  1  0.45718000  0.31087000  0.47459000  1.0
  C  C49  1  0.04279000  0.78563000  0.52523000  1.0
  C  C50  1  0.54282000  0.68913000  0.52541000  1.0
  C  C51  1  0.95721000  0.21437000  0.47477000  1.0
  C  C52  1  0.48281000  0.26282000  0.41221000  1.0
  C  C53  1  0.01720000  0.67536000  0.58757000  1.0
  C  C54  1  0.51719000  0.73718000  0.58779000  1.0
  C  C55  1  0.98280000  0.32464000  0.41243000  1.0
  C  C56  1  0.44490000  0.15591000  0.44949000  1.0
  C  C57  1  0.05515000  0.60566000  0.55026000  1.0
  C  C58  1  0.55511000  0.84410000  0.55051000  1.0
  C  C59  1  0.94485000  0.39434000  0.44974000  1.0
  C  C60  1  0.38135000  0.09078000  0.55062000  1.0
  C  C61  1  0.11865000  0.64142000  0.44912000  1.0
  C  C62  1  0.61865000  0.90921000  0.44939000  1.0
  C  C63  1  0.88134000  0.35858000  0.55088000  1.0
  C  C64  1  0.35490000  0.13531000  0.61301000  1.0
  C  C65  1  0.14487000  0.74819000  0.38674000  1.0
  C  C66  1  0.64511000  0.86469000  0.38699000  1.0
  C  C67  1  0.85512000  0.25181000  0.61326000  1.0
  C  C68  1  0.39197000  0.24446000  0.57723000  1.0
  C  C69  1  0.10774000  0.82161000  0.42256000  1.0
  C  C70  1  0.60803000  0.75554000  0.42277000  1.0
  C  C71  1  0.89225000  0.17839000  0.57744000  1.0
  C  C72  1  0.36152000  0.28378000  0.64667000  1.0
  C  C73  1  0.13801000  0.93018000  0.35311000  1.0
  C  C74  1  0.63848000  0.71623000  0.35333000  1.0
  C  C75  1  0.86198000  0.06982000  0.64689000  1.0
  C  C76  1  0.35723000  0.39324000  0.72066000  1.0
  C  C77  1  0.14245000  0.11343000  0.27919000  1.0
  C  C78  1  0.64277000  0.60676000  0.27934000  1.0
  C  C79  1  0.85755000  0.88657000  0.72081000  1.0
  C  C80  1  0.52654000  0.36815000  0.77393000  1.0
  C  C81  1  0.97327000  0.14163000  0.22585000  1.0
  C  C82  1  0.47346000  0.63185000  0.22607000  1.0
  C  C83  1  0.02673000  0.85837000  0.77415000  1.0
  C  C84  1  0.67561000  0.44340000  0.74965000  1.0
  C  C85  1  0.82437000  0.19281000  0.25012000  1.0
  C  C86  1  0.32439000  0.55660000  0.25035000  1.0
  C  C87  1  0.17563000  0.80718000  0.74989000  1.0
  C  C88  1  0.83048000  0.41452000  0.79956000  1.0
  C  C89  1  0.66953000  0.21397000  0.20019000  1.0
  C  C90  1  0.16953000  0.58547000  0.20044000  1.0
  C  C91  1  0.33047000  0.78603000  0.79981000  1.0
  C  C92  1  0.83416000  0.31104000  0.87112000  1.0
  C  C93  1  0.66572000  0.18199000  0.12857000  1.0
  C  C94  1  0.16584000  0.68896000  0.12888000  1.0
  C  C95  1  0.33428000  0.81801000  0.87143000  1.0
  C  C96  1  0.54164000  0.26603000  0.84763000  1.0
  C  C97  1  0.95808000  0.11313000  0.15211000  1.0
  C  C98  1  0.45837000  0.73397000  0.15237000  1.0
  C  C99  1  0.04192000  0.88686000  0.84790000  1.0
  N  N100  1  0.39529000  0.37970000  0.63104000  1.0
  N  N101  1  0.10438000  0.01051000  0.36881000  1.0
  N  N102  1  0.60471000  0.62030000  0.36896000  1.0
  N  N103  1  0.89562000  0.98949000  0.63119000  1.0
  N  N104  1  0.69247000  0.23802000  0.89439000  1.0
  N  N105  1  0.80729000  0.13205000  0.10530000  1.0
  N  N106  1  0.30754000  0.76198000  0.10561000  1.0
  N  N107  1  0.19270000  0.86795000  0.89470000  1.0
  Cl  Cl108  1  0.90331000  0.88836000  0.11046000  1.0
  Cl  Cl109  1  0.59622000  0.99917000  0.88926000  1.0
  Cl  Cl110  1  0.09669000  0.11164000  0.88954000  1.0
  Cl  Cl111  1  0.40377000  0.00083000  0.11074000  1.0
  O  O112  1  0.49111000  0.41243000  0.43581000  1.0
  O  O113  1  0.00908000  0.84848000  0.56408000  1.0
  O  O114  1  0.50890000  0.58757000  0.56419000  1.0
  O  O115  1  0.99092000  0.15152000  0.43592000  1.0
