# generated using pymatgen
data_ZnH10C16(NO)4
_symmetry_space_group_name_H-M   'P 1'
_cell_length_a   7.52356000
_cell_length_b   22.14810000
_cell_length_c   22.79650000
_cell_angle_alpha   100.36700000
_cell_angle_beta   90.00000000
_cell_angle_gamma   89.99980000
_symmetry_Int_Tables_number   1
_chemical_formula_structural   ZnH10C16(NO)4
_chemical_formula_sum   'Zn8 H80 C128 N32 O32'
_cell_volume   3736.62741340
_cell_formula_units_Z   8
loop_
 _symmetry_equiv_pos_site_id
 _symmetry_equiv_pos_as_xyz
  1  'x, y, z'
loop_
 _atom_site_type_symbol
 _atom_site_label
 _atom_site_symmetry_multiplicity
 _atom_site_fract_x
 _atom_site_fract_y
 _atom_site_fract_z
 _atom_site_occupancy
  Zn  Zn0  1  0.48624000  0.24719000  0.26972000  1.0
  Zn  Zn1  1  0.98623000  0.25281000  0.23028000  1.0
  Zn  Zn2  1  0.51377000  0.75281000  0.73028000  1.0
  Zn  Zn3  1  0.01376000  0.74719000  0.76971000  1.0
  Zn  Zn4  1  0.56876000  0.24486000  0.72829000  1.0
  Zn  Zn5  1  0.06877000  0.25514000  0.77171000  1.0
  Zn  Zn6  1  0.43122000  0.75513000  0.27171000  1.0
  Zn  Zn7  1  0.93123000  0.74486000  0.22829000  1.0
  H  H8  1  0.18009000  0.32707000  0.65866000  1.0
  H  H9  1  0.68009000  0.17294000  0.84135000  1.0
  H  H10  1  0.81991000  0.67293000  0.34134000  1.0
  H  H11  1  0.31991000  0.82706000  0.15865000  1.0
  H  H12  1  0.83959000  0.93099000  0.30082000  1.0
  H  H13  1  0.33962000  0.56900000  0.19919000  1.0
  H  H14  1  0.16039000  0.06901000  0.69919000  1.0
  H  H15  1  0.66041000  0.43099000  0.80082000  1.0
  H  H16  1  0.87149000  0.16790000  0.32741000  1.0
  H  H17  1  0.37149000  0.33210000  0.17259000  1.0
  H  H18  1  0.12853000  0.83210000  0.67259000  1.0
  H  H19  1  0.62852000  0.66790000  0.82741000  1.0
  H  H20  1  0.82468000  0.04134000  0.35345000  1.0
  H  H21  1  0.32467000  0.45866000  0.14656000  1.0
  H  H22  1  0.17533000  0.95866000  0.64656000  1.0
  H  H23  1  0.67532000  0.54134000  0.85345000  1.0
  H  H24  1  0.97657000  0.44042000  0.71879000  1.0
  H  H25  1  0.47656000  0.05958000  0.78121000  1.0
  H  H26  1  0.02343000  0.55958000  0.28121000  1.0
  H  H27  1  0.52344000  0.94042000  0.21879000  1.0
  H  H28  1  0.42440000  0.15477000  0.36455000  1.0
  H  H29  1  0.92440000  0.34524000  0.13546000  1.0
  H  H30  1  0.57561000  0.84524000  0.63545000  1.0
  H  H31  1  0.07560000  0.65476000  0.86454000  1.0
  H  H32  1  0.92272000  0.54791000  0.76706000  1.0
  H  H33  1  0.42272000  0.95210000  0.73294000  1.0
  H  H34  1  0.07726000  0.45210000  0.23293000  1.0
  H  H35  1  0.57728000  0.04791000  0.26706000  1.0
  H  H36  1  0.40328000  0.92947000  0.33159000  1.0
  H  H37  1  0.90328000  0.57053000  0.16842000  1.0
  H  H38  1  0.59671000  0.07053000  0.66841000  1.0
  H  H39  1  0.09672000  0.42947000  0.83159000  1.0
  H  H40  1  0.71292000  0.58876000  0.60389000  1.0
  H  H41  1  0.21290000  0.91124000  0.89610000  1.0
  H  H42  1  0.28710000  0.41123000  0.39610000  1.0
  H  H43  1  0.78709000  0.08877000  0.10390000  1.0
  H  H44  1  0.78719000  0.48324000  0.55167000  1.0
  H  H45  1  0.28718000  0.01675000  0.94833000  1.0
  H  H46  1  0.21283000  0.51675000  0.44832000  1.0
  H  H47  1  0.71283000  0.98325000  0.05168000  1.0
  H  H48  1  0.08548000  0.32844000  0.40510000  1.0
  H  H49  1  0.58548000  0.17156000  0.09490000  1.0
  H  H50  1  0.91452000  0.67156000  0.59490000  1.0
  H  H51  1  0.41453000  0.82843000  0.90510000  1.0
  H  H52  1  0.15888000  0.36997000  0.51319000  1.0
  H  H53  1  0.65888000  0.13003000  0.98681000  1.0
  H  H54  1  0.84112000  0.63004000  0.48681000  1.0
  H  H55  1  0.34113000  0.86996000  0.01319000  1.0
  H  H56  1  0.53210000  0.32717000  0.44914000  1.0
  H  H57  1  0.03210000  0.17283000  0.05086000  1.0
  H  H58  1  0.46790000  0.67283000  0.55086000  1.0
  H  H59  1  0.96791000  0.82717000  0.94915000  1.0
  H  H60  1  0.61945000  0.34133000  0.64280000  1.0
  H  H61  1  0.11944000  0.15866000  0.85719000  1.0
  H  H62  1  0.38055000  0.65867000  0.35719000  1.0
  H  H63  1  0.88056000  0.84134000  0.14281000  1.0
  H  H64  1  0.60112000  0.37332000  0.55543000  1.0
  H  H65  1  0.10112000  0.12667000  0.94457000  1.0
  H  H66  1  0.39888000  0.62668000  0.44457000  1.0
  H  H67  1  0.89888000  0.87332000  0.05543000  1.0
  H  H68  1  0.23494000  0.06679000  0.58442000  1.0
  H  H69  1  0.73493000  0.43321000  0.91558000  1.0
  H  H70  1  0.76505000  0.93322000  0.41558000  1.0
  H  H71  1  0.26507000  0.56678000  0.08442000  1.0
  H  H72  1  0.12561000  0.03659000  0.48041000  1.0
  H  H73  1  0.62557000  0.46341000  0.01959000  1.0
  H  H74  1  0.87441000  0.96342000  0.51959000  1.0
  H  H75  1  0.37441000  0.53659000  0.98041000  1.0
  H  H76  1  0.19337000  0.22408000  0.45499000  1.0
  H  H77  1  0.69336000  0.27592000  0.04501000  1.0
  H  H78  1  0.80664000  0.77592000  0.54501000  1.0
  H  H79  1  0.30662000  0.72408000  0.95499000  1.0
  H  H80  1  0.30669000  0.25175000  0.55802000  1.0
  H  H81  1  0.80671000  0.24825000  0.94198000  1.0
  H  H82  1  0.69328000  0.74826000  0.44198000  1.0
  H  H83  1  0.19328000  0.75174000  0.05802000  1.0
  H  H84  1  0.38852000  0.03893000  0.38549000  1.0
  H  H85  1  0.88852000  0.46107000  0.11452000  1.0
  H  H86  1  0.61149000  0.96107000  0.61451000  1.0
  H  H87  1  0.11149000  0.53893000  0.88548000  1.0
  C  C88  1  0.12257000  0.92527000  0.31204000  1.0
  C  C89  1  0.62259000  0.57473000  0.18796000  1.0
  C  C90  1  0.87742000  0.07473000  0.68796000  1.0
  C  C91  1  0.37743000  0.42527000  0.81204000  1.0
  C  C92  1  0.80512000  0.32481000  0.42169000  1.0
  C  C93  1  0.30512000  0.17520000  0.07831000  1.0
  C  C94  1  0.19488000  0.67520000  0.57831000  1.0
  C  C95  1  0.69489000  0.82480000  0.92169000  1.0
  C  C96  1  0.76058000  0.29770000  0.35784000  1.0
  C  C97  1  0.26059000  0.20231000  0.14216000  1.0
  C  C98  1  0.23940000  0.70231000  0.64216000  1.0
  C  C99  1  0.73942000  0.79769000  0.85784000  1.0
  C  C100  1  0.13085000  0.85933000  0.28130000  1.0
  C  C101  1  0.63086000  0.64067000  0.21870000  1.0
  C  C102  1  0.86914000  0.14067000  0.71870000  1.0
  C  C103  1  0.36915000  0.35933000  0.78130000  1.0
  C  C104  1  0.88538000  0.37259000  0.54040000  1.0
  C  C105  1  0.38538000  0.12741000  0.95961000  1.0
  C  C106  1  0.11462000  0.62741000  0.45961000  1.0
  C  C107  1  0.61463000  0.87259000  0.04040000  1.0
  C  C108  1  0.88672000  0.45455000  0.63151000  1.0
  C  C109  1  0.38671000  0.04545000  0.86849000  1.0
  C  C110  1  0.11328000  0.54544000  0.36848000  1.0
  C  C111  1  0.61329000  0.95456000  0.13151000  1.0
  C  C112  1  0.03869000  0.31995000  0.66306000  1.0
  C  C113  1  0.53869000  0.18005000  0.83695000  1.0
  C  C114  1  0.96131000  0.68005000  0.33695000  1.0
  C  C115  1  0.46131000  0.81995000  0.16305000  1.0
  C  C116  1  0.95909000  0.95596000  0.31786000  1.0
  C  C117  1  0.45911000  0.54404000  0.18215000  1.0
  C  C118  1  0.04090000  0.04404000  0.68215000  1.0
  C  C119  1  0.54091000  0.45596000  0.81786000  1.0
  C  C120  1  0.10528000  0.04592000  0.37159000  1.0
  C  C121  1  0.60527000  0.45408000  0.12841000  1.0
  C  C122  1  0.89473000  0.95408000  0.62840000  1.0
  C  C123  1  0.39472000  0.54592000  0.87159000  1.0
  C  C124  1  0.01523000  0.17354000  0.32694000  1.0
  C  C125  1  0.51524000  0.32646000  0.17306000  1.0
  C  C126  1  0.98478000  0.82646000  0.67306000  1.0
  C  C127  1  0.48477000  0.67355000  0.82694000  1.0
  C  C128  1  0.81473000  0.57551000  0.68858000  1.0
  C  C129  1  0.31472000  0.92449000  0.81142000  1.0
  C  C130  1  0.18527000  0.42449000  0.31141000  1.0
  C  C131  1  0.68527000  0.07551000  0.18858000  1.0
  C  C132  1  0.95058000  0.01654000  0.34789000  1.0
  C  C133  1  0.45058000  0.48346000  0.15212000  1.0
  C  C134  1  0.04942000  0.98346000  0.65212000  1.0
  C  C135  1  0.54942000  0.51654000  0.84788000  1.0
  C  C136  1  0.92198000  0.47275000  0.69269000  1.0
  C  C137  1  0.42197000  0.02725000  0.80731000  1.0
  C  C138  1  0.07803000  0.52725000  0.30730000  1.0
  C  C139  1  0.57803000  0.97275000  0.19269000  1.0
  C  C140  1  0.15533000  0.12787000  0.45995000  1.0
  C  C141  1  0.65532000  0.37213000  0.04005000  1.0
  C  C142  1  0.84467000  0.87213000  0.54005000  1.0
  C  C143  1  0.34468000  0.62787000  0.95994000  1.0
  C  C144  1  0.77977000  0.64052000  0.71843000  1.0
  C  C145  1  0.27976000  0.85949000  0.78157000  1.0
  C  C146  1  0.22024000  0.35948000  0.28156000  1.0
  C  C147  1  0.72024000  0.14052000  0.21843000  1.0
  C  C148  1  0.29978000  0.16620000  0.34552000  1.0
  C  C149  1  0.79979000  0.33380000  0.15449000  1.0
  C  C150  1  0.70022000  0.83380000  0.65448000  1.0
  C  C151  1  0.20021000  0.66621000  0.84551000  1.0
  C  C152  1  0.88965000  0.53306000  0.72014000  1.0
  C  C153  1  0.38965000  0.96695000  0.77986000  1.0
  C  C154  1  0.11035000  0.46695000  0.27986000  1.0
  C  C155  1  0.61035000  0.03306000  0.22014000  1.0
  C  C156  1  0.27806000  0.95494000  0.33601000  1.0
  C  C157  1  0.77806000  0.54506000  0.16399000  1.0
  C  C158  1  0.72194000  0.04506000  0.66398000  1.0
  C  C159  1  0.22194000  0.45494000  0.83601000  1.0
  C  C160  1  0.77506000  0.55620000  0.62816000  1.0
  C  C161  1  0.27504000  0.94380000  0.87184000  1.0
  C  C162  1  0.22496000  0.44379000  0.37184000  1.0
  C  C163  1  0.72495000  0.05621000  0.12816000  1.0
  C  C164  1  0.81405000  0.49683000  0.59915000  1.0
  C  C165  1  0.31405000  0.00317000  0.90085000  1.0
  C  C166  1  0.18596000  0.50316000  0.40084000  1.0
  C  C167  1  0.68596000  0.99684000  0.09915000  1.0
  C  C168  1  0.98163000  0.33741000  0.43896000  1.0
  C  C169  1  0.48163000  0.16259000  0.06104000  1.0
  C  C170  1  0.01837000  0.66259000  0.56104000  1.0
  C  C171  1  0.51838000  0.83740000  0.93896000  1.0
  C  C172  1  0.02202000  0.36075000  0.49848000  1.0
  C  C173  1  0.52202000  0.13925000  0.00152000  1.0
  C  C174  1  0.97797000  0.63925000  0.50152000  1.0
  C  C175  1  0.47799000  0.86075000  0.99848000  1.0
  C  C176  1  0.66849000  0.33727000  0.46392000  1.0
  C  C177  1  0.16849000  0.16272000  0.03608000  1.0
  C  C178  1  0.33151000  0.66272000  0.53608000  1.0
  C  C179  1  0.83152000  0.83727000  0.96392000  1.0
  C  C180  1  0.75011000  0.32703000  0.65451000  1.0
  C  C181  1  0.25010000  0.17296000  0.84549000  1.0
  C  C182  1  0.24989000  0.67297000  0.34549000  1.0
  C  C183  1  0.74990000  0.82704000  0.15452000  1.0
  C  C184  1  0.70787000  0.36195000  0.52297000  1.0
  C  C185  1  0.20787000  0.13805000  0.97703000  1.0
  C  C186  1  0.29213000  0.63805000  0.47703000  1.0
  C  C187  1  0.79213000  0.86195000  0.02297000  1.0
  C  C188  1  0.27921000  0.16098000  0.57815000  1.0
  C  C189  1  0.77922000  0.33902000  0.92186000  1.0
  C  C190  1  0.72075000  0.83903000  0.42185000  1.0
  C  C191  1  0.22077000  0.66097000  0.07815000  1.0
  C  C192  1  0.22536000  0.10072000  0.55543000  1.0
  C  C193  1  0.72536000  0.39928000  0.94457000  1.0
  C  C194  1  0.77461000  0.89928000  0.44457000  1.0
  C  C195  1  0.27464000  0.60071000  0.05542000  1.0
  C  C196  1  0.16418000  0.08392000  0.49732000  1.0
  C  C197  1  0.66416000  0.41608000  0.00268000  1.0
  C  C198  1  0.83583000  0.91608000  0.50268000  1.0
  C  C199  1  0.33584000  0.58392000  0.99732000  1.0
  C  C200  1  0.20320000  0.18892000  0.48266000  1.0
  C  C201  1  0.70319000  0.31108000  0.01735000  1.0
  C  C202  1  0.79680000  0.81108000  0.51734000  1.0
  C  C203  1  0.29678000  0.68892000  0.98266000  1.0
  C  C204  1  0.35525000  0.17535000  0.64003000  1.0
  C  C205  1  0.85527000  0.32465000  0.85997000  1.0
  C  C206  1  0.64473000  0.82465000  0.35997000  1.0
  C  C207  1  0.14474000  0.67535000  0.14003000  1.0
  C  C208  1  0.26522000  0.20470000  0.54102000  1.0
  C  C209  1  0.76522000  0.29529000  0.95899000  1.0
  C  C210  1  0.73476000  0.79530000  0.45898000  1.0
  C  C211  1  0.23477000  0.70470000  0.04102000  1.0
  C  C212  1  0.26931000  0.01552000  0.36578000  1.0
  C  C213  1  0.76931000  0.48448000  0.13423000  1.0
  C  C214  1  0.73070000  0.98448000  0.63422000  1.0
  C  C215  1  0.23070000  0.51552000  0.86578000  1.0
  N  N216  1  0.28166000  0.19976000  0.30410000  1.0
  N  N217  1  0.78167000  0.30025000  0.19590000  1.0
  N  N218  1  0.71834000  0.80025000  0.69590000  1.0
  N  N219  1  0.21834000  0.69975000  0.80409000  1.0
  N  N220  1  0.10441000  0.20407000  0.29189000  1.0
  N  N221  1  0.60441000  0.29593000  0.20811000  1.0
  N  N222  1  0.89560000  0.79593000  0.70811000  1.0
  N  N223  1  0.39559000  0.70407000  0.79189000  1.0
  N  N224  1  0.96401000  0.28221000  0.69427000  1.0
  N  N225  1  0.46400000  0.21780000  0.80574000  1.0
  N  N226  1  0.03599000  0.71779000  0.30573000  1.0
  N  N227  1  0.53600000  0.78221000  0.19427000  1.0
  N  N228  1  0.13404000  0.14921000  0.36147000  1.0
  N  N229  1  0.63404000  0.35079000  0.13853000  1.0
  N  N230  1  0.86597000  0.85079000  0.63853000  1.0
  N  N231  1  0.36596000  0.64920000  0.86147000  1.0
  N  N232  1  0.09273000  0.10957000  0.40071000  1.0
  N  N233  1  0.59272000  0.39043000  0.09929000  1.0
  N  N234  1  0.90729000  0.89043000  0.59929000  1.0
  N  N235  1  0.40727000  0.60957000  0.90071000  1.0
  N  N236  1  0.90812000  0.34907000  0.63732000  1.0
  N  N237  1  0.40811000  0.15093000  0.86268000  1.0
  N  N238  1  0.09188000  0.65092000  0.36268000  1.0
  N  N239  1  0.59188000  0.84908000  0.13732000  1.0
  N  N240  1  0.78312000  0.28645000  0.68835000  1.0
  N  N241  1  0.28311000  0.21355000  0.81165000  1.0
  N  N242  1  0.21688000  0.71355000  0.31165000  1.0
  N  N243  1  0.71689000  0.78645000  0.18835000  1.0
  N  N244  1  0.93260000  0.39406000  0.60211000  1.0
  N  N245  1  0.43260000  0.10594000  0.89789000  1.0
  N  N246  1  0.06740000  0.60593000  0.39789000  1.0
  N  N247  1  0.56740000  0.89407000  0.10211000  1.0
  O  O248  1  0.60979000  0.27103000  0.35041000  1.0
  O  O249  1  0.10979000  0.22897000  0.14958000  1.0
  O  O250  1  0.39019000  0.72897000  0.64959000  1.0
  O  O251  1  0.89022000  0.77103000  0.85041000  1.0
  O  O252  1  0.87406000  0.30317000  0.31841000  1.0
  O  O253  1  0.37405000  0.19683000  0.18160000  1.0
  O  O254  1  0.12593000  0.69682000  0.68160000  1.0
  O  O255  1  0.62595000  0.80317000  0.81841000  1.0
  O  O256  1  0.86411000  0.66100000  0.76664000  1.0
  O  O257  1  0.36413000  0.83900000  0.73336000  1.0
  O  O258  1  0.13588000  0.33900000  0.23335000  1.0
  O  O259  1  0.63589000  0.16100000  0.26664000  1.0
  O  O260  1  0.66702000  0.67075000  0.69403000  1.0
  O  O261  1  0.16702000  0.82925000  0.80597000  1.0
  O  O262  1  0.33298000  0.32925000  0.30596000  1.0
  O  O263  1  0.83297000  0.17075000  0.19403000  1.0
  O  O264  1  0.98606000  0.83564000  0.25949000  1.0
  O  O265  1  0.48606000  0.66437000  0.24050000  1.0
  O  O266  1  0.01393000  0.16437000  0.74050000  1.0
  O  O267  1  0.51395000  0.33564000  0.75950000  1.0
  O  O268  1  0.40692000  0.23218000  0.65798000  1.0
  O  O269  1  0.90692000  0.26782000  0.84203000  1.0
  O  O270  1  0.59306000  0.76783000  0.34202000  1.0
  O  O271  1  0.09308000  0.73217000  0.15798000  1.0
  O  O272  1  0.28128000  0.83337000  0.27904000  1.0
  O  O273  1  0.78129000  0.66663000  0.22096000  1.0
  O  O274  1  0.71870000  0.16663000  0.72097000  1.0
  O  O275  1  0.21872000  0.33333333  0.77903000  1.0
  O  O276  1  0.36775000  0.13387000  0.67017000  1.0
  O  O277  1  0.86778000  0.36614000  0.82984000  1.0
  O  O278  1  0.63223000  0.86615000  0.32984000  1.0
  O  O279  1  0.13223000  0.63386000  0.17016000  1.0
