# generated using pymatgen
data_AlH15(C9O2)3
_symmetry_space_group_name_H-M   'P 1'
_cell_length_a   4.01629000
_cell_length_b   27.74170000
_cell_length_c   27.74089666
_cell_angle_alpha   60.14553460
_cell_angle_beta   89.58321864
_cell_angle_gamma   89.25510000
_symmetry_Int_Tables_number   1
_chemical_formula_structural   AlH15(C9O2)3
_chemical_formula_sum   'Al3 H45 C81 O18'
_cell_volume   2680.44807626
_cell_formula_units_Z   3
loop_
 _symmetry_equiv_pos_site_id
 _symmetry_equiv_pos_as_xyz
  1  'x, y, z'
loop_
 _atom_site_type_symbol
 _atom_site_label
 _atom_site_symmetry_multiplicity
 _atom_site_fract_x
 _atom_site_fract_y
 _atom_site_fract_z
 _atom_site_occupancy
  Al  Al0  1  0.00150000  0.00022000  0.49968000  1.0
  Al  Al1  1  0.04532000  0.33370000  0.83301000  1.0
  Al  Al2  1  0.94632000  0.66744000  0.16600000  1.0
  H  H3  1  0.48873000  0.00016000  0.92256000  1.0
  H  H4  1  0.47724000  0.91091000  0.83287000  1.0
  H  H5  1  0.50057000  0.08949000  0.74400000  1.0
  H  H6  1  0.23890000  0.16554000  0.90689000  1.0
  H  H7  1  0.21636000  0.07634000  0.90717000  1.0
  H  H8  1  0.82605000  0.14497000  0.75984000  1.0
  H  H9  1  0.84426000  0.23449000  0.75902000  1.0
  H  H10  1  0.76039000  0.92501000  0.98197000  1.0
  H  H11  1  0.74592000  0.83598000  0.07070000  1.0
  H  H12  1  0.15130000  0.76485000  0.99361000  1.0
  H  H13  1  0.16099000  0.85431000  0.90512000  1.0
  H  H14  1  0.18796000  0.92683000  0.75888000  1.0
  H  H15  1  0.18900000  0.92759000  0.66899000  1.0
  H  H16  1  0.80027000  0.07294000  0.59664000  1.0
  H  H17  1  0.79319000  0.07357000  0.68582000  1.0
  H  H18  1  0.49007000  0.42234000  0.07792000  1.0
  H  H19  1  0.49449000  0.24373000  0.16680000  1.0
  H  H20  1  0.48444000  0.33307000  0.25654000  1.0
  H  H21  1  0.76122000  0.56997000  0.09382000  1.0
  H  H22  1  0.77440000  0.48085000  0.09374000  1.0
  H  H23  1  0.16525000  0.40663000  0.24113000  1.0
  H  H24  1  0.15582000  0.49552000  0.24174000  1.0
  H  H25  1  0.20557000  0.40689000  0.01854000  1.0
  H  H26  1  0.22377000  0.40690000  0.92939000  1.0
  H  H27  1  0.83643000  0.25882000  0.00507000  1.0
  H  H28  1  0.82135000  0.25928000  0.09404000  1.0
  H  H29  1  0.80068000  0.18571000  0.24049000  1.0
  H  H30  1  0.80859000  0.09671000  0.33020000  1.0
  H  H31  1  0.18087000  0.16960000  0.40337000  1.0
  H  H32  1  0.18086000  0.25941000  0.31442000  1.0
  H  H33  1  0.50820000  0.57731000  0.49978000  1.0
  H  H34  1  0.50985000  0.75584000  0.41056000  1.0
  H  H35  1  0.52284000  0.66693000  0.58919000  1.0
  H  H36  1  0.24148000  0.42994000  0.66380000  1.0
  H  H37  1  0.23258000  0.51852000  0.57457000  1.0
  H  H38  1  0.83460000  0.59376000  0.64663000  1.0
  H  H39  1  0.83928000  0.50540000  0.73618000  1.0
  H  H40  1  0.78791000  0.59273000  0.42351000  1.0
  H  H41  1  0.76186000  0.59332000  0.33412000  1.0
  H  H42  1  0.15115000  0.74159000  0.26539000  1.0
  H  H43  1  0.17375000  0.74048000  0.35503000  1.0
  H  H44  1  0.21176000  0.81431000  0.42630000  1.0
  H  H45  1  0.20458000  0.90349000  0.42700000  1.0
  H  H46  1  0.82294000  0.83049000  0.57255000  1.0
  H  H47  1  0.82333000  0.74055000  0.57330000  1.0
  C  C48  1  0.50905000  0.92610000  0.49974000  1.0
  C  C49  1  0.49755000  0.00030000  0.57370000  1.0
  C  C50  1  0.49779000  0.07415000  0.42575000  1.0
  C  C51  1  0.54948000  0.25989000  0.83226000  1.0
  C  C52  1  0.53989000  0.33270000  0.90772000  1.0
  C  C53  1  0.54293000  0.40838000  0.75962000  1.0
  C  C54  1  0.44447000  0.74080000  0.09141000  1.0
  C  C55  1  0.45224000  0.59247000  0.16753000  1.0
  C  C56  1  0.44559000  0.66827000  0.23979000  1.0
  C  C57  1  0.47303000  0.94947000  0.88381000  1.0
  C  C58  1  0.48862000  0.00017000  0.88327000  1.0
  C  C59  1  0.50458000  0.05090000  0.83332000  1.0
  C  C60  1  0.50215000  0.05021000  0.78314000  1.0
  C  C61  1  0.48843000  0.00020000  0.78217000  1.0
  C  C62  1  0.47497000  0.95017000  0.83293000  1.0
  C  C63  1  0.37159000  0.16064000  0.87515000  1.0
  C  C64  1  0.36101000  0.11045000  0.87528000  1.0
  C  C65  1  0.51896000  0.10404000  0.83343000  1.0
  C  C66  1  0.69042000  0.14965000  0.79148000  1.0
  C  C67  1  0.70312000  0.19996000  0.79108000  1.0
  C  C68  1  0.54274000  0.20565000  0.83294000  1.0
  C  C69  1  0.61935000  0.89048000  0.98461000  1.0
  C  C70  1  0.61394000  0.84034000  0.03452000  1.0
  C  C71  1  0.44859000  0.79472000  0.03775000  1.0
  C  C72  1  0.28851000  0.79984000  0.99077000  1.0
  C  C73  1  0.29601000  0.85016000  0.94098000  1.0
  C  C74  1  0.46199000  0.89633000  0.93689000  1.0
  C  C75  1  0.32646000  0.95856000  0.72364000  1.0
  C  C76  1  0.32485000  0.95891000  0.67339000  1.0
  C  C77  1  0.49478000  0.00029000  0.62727000  1.0
  C  C78  1  0.66212000  0.04165000  0.63220000  1.0
  C  C79  1  0.65543000  0.04197000  0.68211000  1.0
  C  C80  1  0.48973000  0.00026000  0.72890000  1.0
  C  C81  1  0.50137000  0.33305000  0.11621000  1.0
  C  C82  1  0.48973000  0.38311000  0.11711000  1.0
  C  C83  1  0.47828000  0.38389000  0.16724000  1.0
  C  C84  1  0.47937000  0.33306000  0.21726000  1.0
  C  C85  1  0.48890000  0.28221000  0.21785000  1.0
  C  C86  1  0.49902000  0.28295000  0.16694000  1.0
  C  C87  1  0.62672000  0.53430000  0.12565000  1.0
  C  C88  1  0.63206000  0.48416000  0.12560000  1.0
  C  C89  1  0.47117000  0.43707000  0.16745000  1.0
  C  C90  1  0.30303000  0.44196000  0.20944000  1.0
  C  C91  1  0.29534000  0.49200000  0.20975000  1.0
  C  C92  1  0.45803000  0.53841000  0.16779000  1.0
  C  C93  1  0.35051000  0.37501000  0.01550000  1.0
  C  C94  1  0.35853000  0.37500000  0.96535000  1.0
  C  C95  1  0.53075000  0.33282000  0.96158000  1.0
  C  C96  1  0.69416000  0.29082000  0.00833000  1.0
  C  C97  1  0.68365000  0.29106000  0.05838000  1.0
  C  C98  1  0.51188000  0.33307000  0.06293000  1.0
  C  C99  1  0.65993000  0.18214000  0.27585000  1.0
  C  C100  1  0.66679000  0.13234000  0.32599000  1.0
  C  C101  1  0.49481000  0.12762000  0.37228000  1.0
  C  C102  1  0.32039000  0.17386000  0.36766000  1.0
  C  C103  1  0.32240000  0.22403000  0.31788000  1.0
  C  C104  1  0.49003000  0.22905000  0.27092000  1.0
  C  C105  1  0.49921000  0.66658000  0.44911000  1.0
  C  C106  1  0.51142000  0.61656000  0.49986000  1.0
  C  C107  1  0.52568000  0.61592000  0.55066000  1.0
  C  C108  1  0.52649000  0.66681000  0.54995000  1.0
  C  C109  1  0.51722000  0.71761000  0.49989000  1.0
  C  C110  1  0.50488000  0.71671000  0.44984000  1.0
  C  C111  1  0.37509000  0.46573000  0.65973000  1.0
  C  C112  1  0.37252000  0.51559000  0.60948000  1.0
  C  C113  1  0.53222000  0.56286000  0.60392000  1.0
  C  C114  1  0.69739000  0.55833000  0.65052000  1.0
  C  C115  1  0.70208000  0.50860000  0.70093000  1.0
  C  C116  1  0.53962000  0.46209000  0.70573000  1.0
  C  C117  1  0.64144000  0.62477000  0.38937000  1.0
  C  C118  1  0.62882000  0.62510000  0.33907000  1.0
  C  C119  1  0.45515000  0.66751000  0.29406000  1.0
  C  C120  1  0.29436000  0.70937000  0.29989000  1.0
  C  C121  1  0.30939000  0.70880000  0.35027000  1.0
  C  C122  1  0.48342000  0.66665000  0.39587000  1.0
  C  C123  1  0.35032000  0.81786000  0.45801000  1.0
  C  C124  1  0.34412000  0.86777000  0.45832000  1.0
  C  C125  1  0.51335000  0.87250000  0.49977000  1.0
  C  C126  1  0.68543000  0.82622000  0.54119000  1.0
  C  C127  1  0.68311000  0.77594000  0.54157000  1.0
  C  C128  1  0.51733000  0.77086000  0.49985000  1.0
  O  O129  1  0.26233000  0.06599000  0.46016000  1.0
  O  O130  1  0.27281000  0.96046000  0.47353000  1.0
  O  O131  1  0.26572000  0.97410000  0.56545000  1.0
  O  O132  1  0.73538000  0.03984000  0.43386000  1.0
  O  O133  1  0.73140000  0.02649000  0.53934000  1.0
  O  O134  1  0.74177000  0.93438000  0.52588000  1.0
  O  O135  1  0.30668000  0.39982000  0.79380000  1.0
  O  O136  1  0.31549000  0.29463000  0.80625000  1.0
  O  O137  1  0.30887000  0.30701000  0.89883000  1.0
  O  O138  1  0.78210000  0.37459000  0.76753000  1.0
  O  O139  1  0.77746000  0.35833000  0.87433000  1.0
  O  O140  1  0.78698000  0.26773000  0.85768000  1.0
  O  O141  1  0.20852000  0.64290000  0.23195000  1.0
  O  O142  1  0.20567000  0.73310000  0.12490000  1.0
  O  O143  1  0.21446000  0.62626000  0.14155000  1.0
  O  O144  1  0.67710000  0.69425000  0.20503000  1.0
  O  O145  1  0.68583000  0.60128000  0.19294000  1.0
  O  O146  1  0.68100000  0.70631000  0.10014000  1.0
