# generated using pymatgen
data_Gd2CuH16C24(N2O5)4
_symmetry_space_group_name_H-M   'P 1'
_cell_length_a   6.10693000
_cell_length_b   12.24740000
_cell_length_c   21.37910000
_cell_angle_alpha   89.99980000
_cell_angle_beta   89.99960000
_cell_angle_gamma   92.98510000
_symmetry_Int_Tables_number   1
_chemical_formula_structural   Gd2CuH16C24(N2O5)4
_chemical_formula_sum   'Gd4 Cu2 H32 C48 N16 O40'
_cell_volume   1596.85901075
_cell_formula_units_Z   2
loop_
 _symmetry_equiv_pos_site_id
 _symmetry_equiv_pos_as_xyz
  1  'x, y, z'
loop_
 _atom_site_type_symbol
 _atom_site_label
 _atom_site_symmetry_multiplicity
 _atom_site_fract_x
 _atom_site_fract_y
 _atom_site_fract_z
 _atom_site_occupancy
  Gd  Gd0  1  0.99179000  0.93669000  0.65752000  1.0
  Gd  Gd1  1  0.50821000  0.56331000  0.15752000  1.0
  Gd  Gd2  1  0.00821000  0.06331000  0.34248000  1.0
  Gd  Gd3  1  0.49178000  0.43669000  0.84248000  1.0
  Cu  Cu4  1  0.50000000  0.50000000  0.50000000  1.0
  Cu  Cu5  1  0.00000000  0.00000000  0.00000000  1.0
  H  H6  1  0.40725000  0.92041000  0.58553000  1.0
  H  H7  1  0.09275000  0.57958000  0.08554000  1.0
  H  H8  1  0.59276000  0.07958000  0.41447000  1.0
  H  H9  1  0.90724000  0.42042000  0.91446000  1.0
  H  H10  1  0.22824000  0.84946000  0.54258000  1.0
  H  H11  1  0.27177000  0.65053000  0.04258000  1.0
  H  H12  1  0.77177000  0.15054000  0.45742000  1.0
  H  H13  1  0.72822000  0.34947000  0.95742000  1.0
  H  H14  1  0.13426000  0.16297000  0.62859000  1.0
  H  H15  1  0.36575000  0.33703000  0.12859000  1.0
  H  H16  1  0.86575000  0.83702000  0.37141000  1.0
  H  H17  1  0.63423000  0.66298000  0.87140000  1.0
  H  H18  1  0.94062000  0.15467000  0.57861000  1.0
  H  H19  1  0.55939000  0.34533000  0.07861000  1.0
  H  H20  1  0.05940000  0.84533000  0.42139000  1.0
  H  H21  1  0.44059000  0.65468000  0.92139000  1.0
  H  H22  1  0.62946000  0.60726000  0.70384000  1.0
  H  H23  1  0.87056000  0.89273000  0.20384000  1.0
  H  H24  1  0.37055000  0.39274000  0.29616000  1.0
  H  H25  1  0.12944000  0.10727000  0.79616000  1.0
  H  H26  1  0.47386000  0.76981000  0.64903000  1.0
  H  H27  1  0.02618000  0.73019000  0.14903000  1.0
  H  H28  1  0.52615000  0.23018000  0.35097000  1.0
  H  H29  1  0.97382000  0.26981000  0.85097000  1.0
  H  H30  1  0.00095000  0.41843000  0.68659000  1.0
  H  H31  1  0.49903000  0.08156000  0.18660000  1.0
  H  H32  1  0.99904000  0.58157000  0.31341000  1.0
  H  H33  1  0.50098000  0.91843000  0.81341000  1.0
  H  H34  1  0.31307000  0.37728000  0.61423000  1.0
  H  H35  1  0.18692000  0.12272000  0.11424000  1.0
  H  H36  1  0.68693000  0.62272000  0.38577000  1.0
  H  H37  1  0.81309000  0.87728000  0.88577000  1.0
  C  C38  1  0.88703000  0.77019000  0.77647000  1.0
  C  C39  1  0.61298000  0.72980000  0.27647000  1.0
  C  C40  1  0.11298000  0.22981000  0.22353000  1.0
  C  C41  1  0.38702000  0.27020000  0.72354000  1.0
  C  C42  1  0.08197000  0.71342000  0.75091000  1.0
  C  C43  1  0.41803000  0.78657000  0.25091000  1.0
  C  C44  1  0.91803000  0.28658000  0.24909000  1.0
  C  C45  1  0.58196000  0.21342000  0.74909000  1.0
  C  C46  1  0.15281000  0.61441000  0.77466000  1.0
  C  C47  1  0.34719000  0.88558000  0.27466000  1.0
  C  C48  1  0.84719000  0.38559000  0.22534000  1.0
  C  C49  1  0.65280000  0.11442000  0.72534000  1.0
  C  C50  1  0.46908000  0.63651000  0.71627000  1.0
  C  C51  1  0.03093000  0.86349000  0.21627000  1.0
  C  C52  1  0.53092000  0.36349000  0.28374000  1.0
  C  C53  1  0.96906000  0.13652000  0.78374000  1.0
  C  C54  1  0.38559000  0.72761000  0.68690000  1.0
  C  C55  1  0.11443000  0.77239000  0.18690000  1.0
  C  C56  1  0.61442000  0.27239000  0.31310000  1.0
  C  C57  1  0.88556000  0.22761000  0.81310000  1.0
  C  C58  1  0.01554000  0.53450000  0.81435000  1.0
  C  C59  1  0.48446000  0.96550000  0.31435000  1.0
  C  C60  1  0.98445000  0.46550000  0.18565000  1.0
  C  C61  1  0.51555000  0.03451000  0.68565000  1.0
  C  C62  1  0.80199000  0.70706000  0.57428000  1.0
  C  C63  1  0.69801000  0.79294000  0.07429000  1.0
  C  C64  1  0.19802000  0.29295000  0.42571000  1.0
  C  C65  1  0.30199000  0.20706000  0.92571000  1.0
  C  C66  1  0.96431000  0.62032000  0.58672000  1.0
  C  C67  1  0.53567000  0.87968000  0.08673000  1.0
  C  C68  1  0.03569000  0.37969000  0.41327000  1.0
  C  C69  1  0.46432000  0.12032000  0.91327000  1.0
  C  C70  1  0.03877000  0.47058000  0.64626000  1.0
  C  C71  1  0.46122000  0.02941000  0.14627000  1.0
  C  C72  1  0.96122000  0.52942000  0.35373000  1.0
  C  C73  1  0.53879000  0.97059000  0.85373000  1.0
  C  C74  1  0.21403000  0.44756000  0.60710000  1.0
  C  C75  1  0.28596000  0.05243000  0.10710000  1.0
  C  C76  1  0.78597000  0.55244000  0.39290000  1.0
  C  C77  1  0.71404000  0.94757000  0.89290000  1.0
  C  C78  1  0.14168000  0.60065000  0.54757000  1.0
  C  C79  1  0.35831000  0.89934000  0.04758000  1.0
  C  C80  1  0.85833000  0.39934000  0.45242000  1.0
  C  C81  1  0.64168000  0.10066000  0.95243000  1.0
  C  C82  1  0.21055000  0.66492000  0.48981000  1.0
  C  C83  1  0.28945000  0.83507000  0.98982000  1.0
  C  C84  1  0.78946000  0.33508000  0.51018000  1.0
  C  C85  1  0.71053000  0.16493000  0.01018000  1.0
  N  N86  1  0.26197000  0.51357000  0.55889000  1.0
  N  N87  1  0.23801000  0.98643000  0.05890000  1.0
  N  N88  1  0.73803000  0.48643000  0.44111000  1.0
  N  N89  1  0.76198000  0.01358000  0.94111000  1.0
  N  N90  1  0.91601000  0.55599000  0.63658000  1.0
  N  N91  1  0.58398000  0.94400000  0.13659000  1.0
  N  N92  1  0.08399000  0.44401000  0.36341000  1.0
  N  N93  1  0.41602000  0.05599000  0.86341000  1.0
  N  N94  1  0.19751000  0.76805000  0.70616000  1.0
  N  N95  1  0.30251000  0.73195000  0.20616000  1.0
  N  N96  1  0.80250000  0.23195000  0.29384000  1.0
  N  N97  1  0.69748000  0.26805000  0.79384000  1.0
  N  N98  1  0.35349000  0.58144000  0.76037000  1.0
  N  N99  1  0.14651000  0.91855000  0.26037000  1.0
  N  N100  1  0.64651000  0.41856000  0.23963000  1.0
  N  N101  1  0.85349000  0.08145000  0.73963000  1.0
  O  O102  1  0.82236000  0.84966000  0.74350000  1.0
  O  O103  1  0.67766000  0.65034000  0.24351000  1.0
  O  O104  1  0.17764000  0.15034000  0.25649000  1.0
  O  O105  1  0.32234000  0.34966000  0.75649000  1.0
  O  O106  1  0.81137000  0.73983000  0.82827000  1.0
  O  O107  1  0.68866000  0.76017000  0.32828000  1.0
  O  O108  1  0.18865000  0.26018000  0.17173000  1.0
  O  O109  1  0.31134000  0.23983000  0.67172000  1.0
  O  O110  1  0.81663000  0.51615000  0.79932000  1.0
  O  O111  1  0.68337000  0.98385000  0.29932000  1.0
  O  O112  1  0.18335000  0.48386000  0.20068000  1.0
  O  O113  1  0.31663000  0.01615000  0.70067000  1.0
  O  O114  1  0.11602000  0.48538000  0.85721000  1.0
  O  O115  1  0.38397000  0.01462000  0.35721000  1.0
  O  O116  1  0.88397000  0.51462000  0.14279000  1.0
  O  O117  1  0.61603000  0.98538000  0.64279000  1.0
  O  O118  1  0.83309000  0.79923000  0.60161000  1.0
  O  O119  1  0.66692000  0.70077000  0.10161000  1.0
  O  O120  1  0.16691000  0.20077000  0.39839000  1.0
  O  O121  1  0.33309000  0.29923000  0.89838000  1.0
  O  O122  1  0.63967000  0.67862000  0.54178000  1.0
  O  O123  1  0.86031000  0.82138000  0.04178000  1.0
  O  O124  1  0.36034000  0.32139000  0.45821000  1.0
  O  O125  1  0.13966000  0.17862000  0.95821000  1.0
  O  O126  1  0.14240000  0.75957000  0.48257000  1.0
  O  O127  1  0.35760000  0.74042000  0.98258000  1.0
  O  O128  1  0.85762000  0.24043000  0.51742000  1.0
  O  O129  1  0.64237000  0.25957000  0.01742000  1.0
  O  O130  1  0.33225000  0.61454000  0.45197000  1.0
  O  O131  1  0.16775000  0.88546000  0.95198000  1.0
  O  O132  1  0.66775000  0.38546000  0.54802000  1.0
  O  O133  1  0.83225000  0.11454000  0.04802000  1.0
  O  O134  1  0.25154000  0.89835000  0.57926000  1.0
  O  O135  1  0.24846000  0.60164000  0.07927000  1.0
  O  O136  1  0.74846000  0.10164000  0.42074000  1.0
  O  O137  1  0.75153000  0.39837000  0.92074000  1.0
  O  O138  1  0.02295000  0.11175000  0.60915000  1.0
  O  O139  1  0.47707000  0.38825000  0.10916000  1.0
  O  O140  1  0.97707000  0.88824000  0.39085000  1.0
  O  O141  1  0.52290000  0.61176000  0.89084000  1.0
