# generated using pymatgen
data_NaH12C7N3
_symmetry_space_group_name_H-M   'P 1'
_cell_length_a   8.41127000
_cell_length_b   9.90818000
_cell_length_c   9.90823000
_cell_angle_alpha   98.60600000
_cell_angle_beta   90.00000000
_cell_angle_gamma   89.99980000
_symmetry_Int_Tables_number   1
_chemical_formula_structural   NaH12C7N3
_chemical_formula_sum   'Na4 H48 C28 N12'
_cell_volume   816.45820863
_cell_formula_units_Z   4
loop_
 _symmetry_equiv_pos_site_id
 _symmetry_equiv_pos_as_xyz
  1  'x, y, z'
loop_
 _atom_site_type_symbol
 _atom_site_label
 _atom_site_symmetry_multiplicity
 _atom_site_fract_x
 _atom_site_fract_y
 _atom_site_fract_z
 _atom_site_occupancy
  Na  Na0  1  0.33035000  0.38224000  0.61776000  1.0
  Na  Na1  1  0.83035000  0.11776000  0.88224000  1.0
  Na  Na2  1  0.16965000  0.88224000  0.11776000  1.0
  Na  Na3  1  0.66965000  0.61776000  0.38224000  1.0
  H  H4  1  0.63344000  0.55710000  0.76646000  1.0
  H  H5  1  0.13343000  0.94290000  0.73354000  1.0
  H  H6  1  0.86656000  0.73353000  0.94289000  1.0
  H  H7  1  0.36657000  0.76647000  0.55711000  1.0
  H  H8  1  0.36657000  0.44290000  0.23354000  1.0
  H  H9  1  0.86656000  0.05710000  0.26646000  1.0
  H  H10  1  0.13344000  0.26647000  0.05711000  1.0
  H  H11  1  0.63344000  0.23354000  0.44289000  1.0
  H  H12  1  0.88441000  0.64113000  0.69887000  1.0
  H  H13  1  0.38441000  0.85887000  0.80113000  1.0
  H  H14  1  0.61559000  0.80113000  0.85886000  1.0
  H  H15  1  0.11559000  0.69887000  0.64114000  1.0
  H  H16  1  0.11559000  0.35887000  0.30113000  1.0
  H  H17  1  0.61558000  0.14113000  0.19887000  1.0
  H  H18  1  0.38442000  0.19887000  0.14113000  1.0
  H  H19  1  0.88442000  0.30114000  0.35887000  1.0
  H  H20  1  0.03780000  0.24333000  0.55662000  1.0
  H  H21  1  0.53780000  0.25667000  0.94339000  1.0
  H  H22  1  0.46219000  0.94338000  0.25667000  1.0
  H  H23  1  0.96220000  0.55661000  0.24333000  1.0
  H  H24  1  0.96219000  0.75667000  0.44339000  1.0
  H  H25  1  0.46219000  0.74333000  0.05661000  1.0
  H  H26  1  0.53780000  0.05662000  0.74333000  1.0
  H  H27  1  0.03780000  0.44338000  0.75667000  1.0
  H  H28  1  0.14170000  0.15046000  0.64926000  1.0
  H  H29  1  0.64170000  0.34954000  0.85075000  1.0
  H  H30  1  0.35830000  0.85075000  0.34953000  1.0
  H  H31  1  0.85830000  0.64925000  0.15046000  1.0
  H  H32  1  0.85830000  0.84954000  0.35075000  1.0
  H  H33  1  0.35830000  0.65046000  0.14925000  1.0
  H  H34  1  0.64170000  0.14926000  0.65046000  1.0
  H  H35  1  0.14170000  0.35075000  0.84954000  1.0
  H  H36  1  0.10294000  0.99178000  0.45047000  1.0
  H  H37  1  0.60294000  0.50822000  0.04953000  1.0
  H  H38  1  0.39706000  0.04953000  0.50821000  1.0
  H  H39  1  0.89706000  0.45047000  0.99179000  1.0
  H  H40  1  0.89706000  0.00822000  0.54953000  1.0
  H  H41  1  0.39706000  0.49178000  0.95047000  1.0
  H  H42  1  0.60294000  0.95047000  0.49179000  1.0
  H  H43  1  0.10294000  0.54953000  0.00821000  1.0
  H  H44  1  0.10843000  0.12717000  0.35243000  1.0
  H  H45  1  0.60843000  0.37283000  0.14757000  1.0
  H  H46  1  0.39156000  0.14757000  0.37283000  1.0
  H  H47  1  0.89156000  0.35242000  0.12717000  1.0
  H  H48  1  0.89157000  0.87283000  0.64758000  1.0
  H  H49  1  0.39156000  0.62717000  0.85242000  1.0
  H  H50  1  0.60843000  0.85243000  0.62717000  1.0
  H  H51  1  0.10843000  0.64757000  0.87283000  1.0
  C  C52  1  0.69429000  0.50015000  0.67793000  1.0
  C  C53  1  0.19430000  0.99985000  0.82208000  1.0
  C  C54  1  0.80570000  0.82207000  0.99985000  1.0
  C  C55  1  0.30570000  0.67792000  0.50016000  1.0
  C  C56  1  0.30569000  0.49985000  0.32208000  1.0
  C  C57  1  0.80569000  0.00015000  0.17792000  1.0
  C  C58  1  0.19430000  0.17793000  0.00015000  1.0
  C  C59  1  0.69429000  0.32207000  0.49985000  1.0
  C  C60  1  0.83867000  0.54739000  0.63971000  1.0
  C  C61  1  0.33865000  0.95262000  0.86028000  1.0
  C  C62  1  0.66134000  0.86028000  0.95261000  1.0
  C  C63  1  0.16136000  0.63972000  0.54739000  1.0
  C  C64  1  0.16136000  0.45262000  0.36029000  1.0
  C  C65  1  0.66135000  0.04738000  0.13971000  1.0
  C  C66  1  0.33866000  0.13972000  0.04739000  1.0
  C  C67  1  0.83867000  0.36029000  0.45261000  1.0
  C  C68  1  0.92659000  0.47843000  0.52158000  1.0
  C  C69  1  0.42659000  0.02157000  0.97842000  1.0
  C  C70  1  0.57341000  0.97842000  0.02157000  1.0
  C  C71  1  0.07341000  0.52158000  0.47843000  1.0
  C  C72  1  0.16253000  0.08914000  0.44068000  1.0
  C  C73  1  0.66253000  0.41085000  0.05933000  1.0
  C  C74  1  0.33747000  0.05933000  0.41086000  1.0
  C  C75  1  0.83747000  0.44067000  0.08915000  1.0
  C  C76  1  0.83747000  0.91086000  0.55933000  1.0
  C  C77  1  0.33747000  0.58915000  0.94067000  1.0
  C  C78  1  0.66253000  0.94068000  0.58915000  1.0
  C  C79  1  0.16253000  0.55933000  0.91085000  1.0
  N  N80  1  0.61458000  0.38622000  0.61378000  1.0
  N  N81  1  0.11458000  0.11379000  0.88622000  1.0
  N  N82  1  0.88542000  0.88621000  0.11378000  1.0
  N  N83  1  0.38543000  0.61378000  0.38622000  1.0
  N  N84  1  0.14382000  0.19331000  0.56129000  1.0
  N  N85  1  0.64382000  0.30669000  0.93872000  1.0
  N  N86  1  0.35618000  0.93872000  0.30669000  1.0
  N  N87  1  0.85618000  0.56128000  0.19331000  1.0
  N  N88  1  0.85618000  0.80669000  0.43872000  1.0
  N  N89  1  0.35618000  0.69331000  0.06128000  1.0
  N  N90  1  0.64382000  0.06129000  0.69331000  1.0
  N  N91  1  0.14382000  0.43872000  0.80669000  1.0
