# generated using pymatgen
data_TbH22C33NO10
_symmetry_space_group_name_H-M   'P 1'
_cell_length_a   8.51584000
_cell_length_b   17.96363129
_cell_length_c   26.43457046
_cell_angle_alpha   87.82132931
_cell_angle_beta   80.71733121
_cell_angle_gamma   76.32032636
_symmetry_Int_Tables_number   1
_chemical_formula_structural   TbH22C33NO10
_chemical_formula_sum   'Tb4 H88 C132 N4 O40'
_cell_volume   3877.67426706
_cell_formula_units_Z   4
loop_
 _symmetry_equiv_pos_site_id
 _symmetry_equiv_pos_as_xyz
  1  'x, y, z'
loop_
 _atom_site_type_symbol
 _atom_site_label
 _atom_site_symmetry_multiplicity
 _atom_site_fract_x
 _atom_site_fract_y
 _atom_site_fract_z
 _atom_site_occupancy
  Tb  Tb0  1  0.61813000  0.49990000  0.76369000  1.0
  Tb  Tb1  1  0.86846000  0.00005000  0.26365000  1.0
  Tb  Tb2  1  0.39440000  0.00004000  0.21181000  1.0
  Tb  Tb3  1  0.14406000  0.49993000  0.71186000  1.0
  H  H4  1  0.47995000  0.38360000  0.49057000  1.0
  H  H5  1  0.16998000  0.75416000  0.66657000  1.0
  H  H6  1  0.70298000  0.20255000  0.79658000  1.0
  H  H7  1  0.90992000  0.83337000  0.27570000  1.0
  H  H8  1  0.81844000  0.89114000  0.42306000  1.0
  H  H9  1  0.88702000  0.87131000  0.01931000  1.0
  H  H10  1  0.13758000  0.07109000  0.33450000  1.0
  H  H11  1  0.99271000  0.61874000  0.89021000  1.0
  H  H12  1  0.50941000  0.77301000  0.27909000  1.0
  H  H13  1  0.52388000  0.60467000  0.61257000  1.0
  H  H14  1  0.97158000  0.37119000  0.51915000  1.0
  H  H15  1  0.18924000  0.27266000  0.77896000  1.0
  H  H16  1  0.45933000  0.60876000  0.92311000  1.0
  H  H17  1  0.37707000  0.40314000  0.58362000  1.0
  H  H18  1  0.56791000  0.64808000  0.32370000  1.0
  H  H19  1  0.52963000  0.32928000  0.86588000  1.0
  H  H20  1  0.99848000  0.38911000  0.18859000  1.0
  H  H21  1  0.80933000  0.64930000  0.34291000  1.0
  H  H22  1  0.38571000  0.90330000  0.08342000  1.0
  H  H23  1  0.60935000  0.17099000  0.36594000  1.0
  H  H24  1  0.52828000  0.92897000  0.33454000  1.0
  H  H25  1  0.01184000  0.70063000  0.92303000  1.0
  H  H26  1  0.02140000  0.61122000  0.95598000  1.0
  H  H27  1  0.54109000  0.50079000  0.46082000  1.0
  H  H28  1  0.86127000  0.11924000  0.47585000  1.0
  H  H29  1  0.99730000  0.49912000  0.46086000  1.0
  H  H30  1  0.00919000  0.10508000  0.11240000  1.0
  H  H31  1  0.31705000  0.69982000  0.93647000  1.0
  H  H32  1  0.13586000  0.11105000  0.68842000  1.0
  H  H33  1  0.65635000  0.29767000  0.29657000  1.0
  H  H34  1  0.16144000  0.11107000  0.45599000  1.0
  H  H35  1  0.03922000  0.59639000  0.58354000  1.0
  H  H36  1  0.17528000  0.88880000  0.68840000  1.0
  H  H37  1  0.87870000  0.89491000  0.11268000  1.0
  H  H38  1  0.08925000  0.70532000  0.41492000  1.0
  H  H39  1  0.74642000  0.30018000  0.93648000  1.0
  H  H40  1  0.20795000  0.85068000  0.84287000  1.0
  H  H41  1  0.41785000  0.04457000  0.80279000  1.0
  H  H42  1  0.11690000  0.38159000  0.89026000  1.0
  H  H43  1  0.16368000  0.24561000  0.66659000  1.0
  H  H44  1  0.73021000  0.38083000  0.97583000  1.0
  H  H45  1  0.77866000  0.95543000  0.80273000  1.0
  H  H46  1  0.61427000  0.11641000  0.99051000  1.0
  H  H47  1  0.04707000  0.70250000  0.29669000  1.0
  H  H48  1  0.79699000  0.19988000  0.43651000  1.0
  H  H49  1  0.06530000  0.29961000  0.92305000  1.0
  H  H50  1  0.24852000  0.11856000  0.39022000  1.0
  H  H51  1  0.50902000  0.62848000  0.51923000  1.0
  H  H52  1  0.60430000  0.67068000  0.86578000  1.0
  H  H53  1  0.21118000  0.14763000  0.82351000  1.0
  H  H54  1  0.81392000  0.61109000  0.18846000  1.0
  H  H55  1  0.03171000  0.72730000  0.77885000  1.0
  H  H56  1  0.67389000  0.74566000  0.16666000  1.0
  H  H57  1  0.09361000  0.12869000  0.01905000  1.0
  H  H58  1  0.54451000  0.79466000  0.91492000  1.0
  H  H59  1  0.02916000  0.61632000  0.49056000  1.0
  H  H60  1  0.81481000  0.16678000  0.27563000  1.0
  H  H61  1  0.38299000  0.88866000  0.45598000  1.0
  H  H62  1  0.11499000  0.20050000  0.42306000  1.0
  H  H63  1  0.49531000  0.29494000  0.41505000  1.0
  H  H64  1  0.20711000  0.57106000  0.83447000  1.0
  H  H65  1  0.79235000  0.99926000  0.96074000  1.0
  H  H66  1  0.61751000  0.39127000  0.92312000  1.0
  H  H67  1  0.46262000  0.79928000  0.42297000  1.0
  H  H68  1  0.02227000  0.38905000  0.95603000  1.0
  H  H69  1  0.36176000  0.88122000  0.39020000  1.0
  H  H70  1  0.86347000  0.39480000  0.61253000  1.0
  H  H71  1  0.39504000  0.88352000  0.99043000  1.0
  H  H72  1  0.94850000  0.14937000  0.84271000  1.0
  H  H73  1  0.21261000  0.22695000  0.27895000  1.0
  H  H74  1  0.76717000  0.80002000  0.43637000  1.0
  H  H75  1  0.10906000  0.35199000  0.32342000  1.0
  H  H76  1  0.96517000  0.85228000  0.82340000  1.0
  H  H77  1  0.75883000  0.10882000  0.42317000  1.0
  H  H78  1  0.48500000  0.54491000  0.30276000  1.0
  H  H79  1  0.49957000  0.79766000  0.79670000  1.0
  H  H80  1  0.21227000  0.45524000  0.30280000  1.0
  H  H81  1  0.16056000  0.25453000  0.16683000  1.0
  H  H82  1  0.53102000  0.09684000  0.08353000  1.0
  H  H83  1  0.02491000  0.82916000  0.36566000  1.0
  H  H84  1  0.49326333  0.66666667  0.77573000  1.0
  H  H85  1  0.66352000  0.88061000  0.47578000  1.0
  H  H86  1  0.54016000  0.20531000  0.91500000  1.0
  H  H87  1  0.95842000  0.42895000  0.83449000  1.0
  H  H88  1  0.73073000  0.33342000  0.77558000  1.0
  H  H89  1  0.29383000  0.61919000  0.97581000  1.0
  H  H90  1  0.84777000  0.35080000  0.34284000  1.0
  H  H91  1  0.24662000  0.00075000  0.96084000  1.0
  C  C92  1  0.12550000  0.92380000  0.15786000  1.0
  C  C93  1  0.71921000  0.86253000  0.43640000  1.0
  C  C94  1  0.33105000  0.93098000  0.76028000  1.0
  C  C95  1  0.22190000  0.91884000  0.90603000  1.0
  C  C96  1  0.86531000  0.05446000  0.81657000  1.0
  C  C97  1  0.88824000  0.78560000  0.25604000  1.0
  C  C98  1  0.24629000  0.83940000  0.70649000  1.0
  C  C99  1  0.77976000  0.96973000  0.88403000  1.0
  C  C100  1  0.38038000  0.09823000  0.90393000  1.0
  C  C101  1  0.35772000  0.30819000  0.82016000  1.0
  C  C102  1  0.21920000  0.31302000  0.33280000  1.0
  C  C103  1  0.72779000  0.43109000  0.26025000  1.0
  C  C104  1  0.74800000  0.40057000  0.35370000  1.0
  C  C105  1  0.01309000  0.55434000  0.31667000  1.0
  C  C106  1  0.06231000  0.23497000  0.69452000  1.0
  C  C107  1  0.92423000  0.60302000  0.56891000  1.0
  C  C108  1  0.54511000  0.51078000  0.33220000  1.0
  C  C109  1  0.46746000  0.22007000  0.88413000  1.0
  C  C110  1  0.68134000  0.87674000  0.21122000  1.0
  C  C111  1  0.04678000  0.16052000  0.70647000  1.0
  C  C112  1  0.95875000  0.33965000  0.20665000  1.0
  C  C113  1  0.50670000  0.39655000  0.56895000  1.0
  C  C114  1  0.74864000  0.83193000  0.87167000  1.0
  C  C115  1  0.42385000  0.71444000  0.75607000  1.0
  C  C116  1  0.41628000  0.75725000  0.30792000  1.0
  C  C117  1  0.83558000  0.66052000  0.20654000  1.0
  C  C118  1  0.91889000  0.12963000  0.94315000  1.0
  C  C119  1  0.13733000  0.87046000  0.94331000  1.0
  C  C120  1  0.67021000  0.44574000  0.31663000  1.0
  C  C121  1  0.02719000  0.36216000  0.91888000  1.0
  C  C122  1  0.89851000  0.09957000  0.85359000  1.0
  C  C123  1  0.92348000  0.10874000  0.08541000  1.0
  C  C124  1  0.14353000  0.78879000  0.35760000  1.0
  C  C125  1  0.80449000  0.21154000  0.76810000  1.0
  C  C126  1  0.29744000  0.33193000  0.37172000  1.0
  C  C127  1  0.26890000  0.25700000  0.80789000  1.0
  C  C128  1  0.28218000  0.18675000  0.83284000  1.0
  C  C129  1  0.56509000  0.38579000  0.51692000  1.0
  C  C130  1  0.45963000  0.28883000  0.85777000  1.0
  C  C131  1  0.64827000  0.77988000  0.88408000  1.0
  C  C132  1  0.31702000  0.94563000  0.81667000  1.0
  C  C133  1  0.11592000  0.46962000  0.38411000  1.0
  C  C134  1  0.84590000  0.41787000  0.85742000  1.0
  C  C135  1  0.99562000  0.87857000  0.03372000  1.0
  C  C136  1  0.49980000  0.53044000  0.38407000  1.0
  C  C137  1  0.33555000  0.85166000  0.74441000  1.0
  C  C138  1  0.01237000  0.56905000  0.26028000  1.0
  C  C139  1  0.47773000  0.11517000  0.29444000  1.0
  C  C140  1  0.81889000  0.35181000  0.24442000  1.0
  C  C141  1  0.54281000  0.42361000  0.65792000  1.0
  C  C142  1  0.22838000  0.88478000  0.29430000  1.0
  C  C143  1  0.75851000  0.62957000  0.44332000  1.0
  C  C144  1  0.75788000  0.73500000  0.19460000  1.0
  C  C145  1  0.86321000  0.61516000  0.79434000  1.0
  C  C146  1  0.32946000  0.70190000  0.71988000  1.0
  C  C147  1  0.24702000  0.90049000  0.85373000  1.0
  C  C148  1  0.13133000  0.90185000  0.10320000  1.0
  C  C149  1  0.22830000  0.40169000  0.40394000  1.0
  C  C150  1  0.27641000  0.24273000  0.30791000  1.0
  C  C151  1  0.43753000  0.28007000  0.38416000  1.0
  C  C152  1  0.76816000  0.62174000  0.49886000  1.0
  C  C153  1  0.97064000  0.12145000  0.03351000  1.0
  C  C154  1  0.87155000  0.08121000  0.90590000  1.0
  C  C155  1  0.90747000  0.06912000  0.76018000  1.0
  C  C156  1  0.24318000  0.76490000  0.69453000  1.0
  C  C157  1  0.95061000  0.29805000  0.71980000  1.0
  C  C158  1  0.30815000  0.62321000  0.71122000  1.0
  C  C159  1  0.73196000  0.36268000  0.93646000  1.0
  C  C160  1  0.68249000  0.71112000  0.85768000  1.0
  C  C161  1  0.34237000  0.38473000  0.79444000  1.0
  C  C162  1  0.89133000  0.58115000  0.40605000  1.0
  C  C163  1  0.76700000  0.28867000  0.26816000  1.0
  C  C164  1  0.98081000  0.37668000  0.71114000  1.0
  C  C165  1  0.44222000  0.86183000  0.41882000  1.0
  C  C166  1  0.89818000  0.59949000  0.35375000  1.0
  C  C167  1  0.65406000  0.10343000  0.06887000  1.0
  C  C168  1  0.96516000  0.71147000  0.26821000  1.0
  C  C169  1  0.78147000  0.39121000  0.58550000  1.0
  C  C170  1  0.71523000  0.90179000  0.90385000  1.0
  C  C171  1  0.26651000  0.98383000  0.92078000  1.0
  C  C172  1  0.33075000  0.66819000  0.37171000  1.0
  C  C173  1  0.36189000  0.01060000  0.83224000  1.0
  C  C174  1  0.85629000  0.21456000  0.25603000  1.0
  C  C175  1  0.70162000  0.11423000  0.01684000  1.0
  C  C176  1  0.99965000  0.20212000  0.21998000  1.0
  C  C177  1  0.80505000  0.98946000  0.83217000  1.0
  C  C178  1  0.62899000  0.91788000  0.35743000  1.0
  C  C179  1  0.17819000  0.72009000  0.38405000  1.0
  C  C180  1  0.63287000  0.60839000  0.58555000  1.0
  C  C181  1  0.05387000  0.63808000  0.91884000  1.0
  C  C182  1  0.42663000  0.78860000  0.76823000  1.0
  C  C183  1  0.82198000  0.69173000  0.82005000  1.0
  C  C184  1  0.29667000  0.58207000  0.85742000  1.0
  C  C185  1  0.71713000  0.07637000  0.15785000  1.0
  C  C186  1  0.79933000  0.57609000  0.65791000  1.0
  C  C187  1  0.91926000  0.14840000  0.74433000  1.0
  C  C188  1  0.36754000  0.59841000  0.40391000  1.0
  C  C189  1  0.33568000  0.03027000  0.88411000  1.0
  C  C190  1  0.78123000  0.79807000  0.21990000  1.0
  C  C191  1  0.01400000  0.08211000  0.35742000  1.0
  C  C192  1  0.79785000  0.37041000  0.44326000  1.0
  C  C193  1  0.57830000  0.48390000  0.42076000  1.0
  C  C194  1  0.13935000  0.87819000  0.99886000  1.0
  C  C195  1  0.70243000  0.41887000  0.40600000  1.0
  C  C196  1  0.10806000  0.12343000  0.21132000  1.0
  C  C197  1  0.93719000  0.64833000  0.24442000  1.0
  C  C198  1  0.12260000  0.48930000  0.33225000  1.0
  C  C199  1  0.91774000  0.61404000  0.51691000  1.0
  C  C200  1  0.26376000  0.80825000  0.32004000  1.0
  C  C201  1  0.28145000  0.88577000  0.01685000  1.0
  C  C202  1  0.78340000  0.59787000  0.60322000  1.0
  C  C203  1  0.61327000  0.40173000  0.60323000  1.0
  C  C204  1  0.81975000  0.28564000  0.75592000  1.0
  C  C205  1  0.41650000  0.19171000  0.32019000  1.0
  C  C206  1  0.84136000  0.37850000  0.53360000  1.0
  C  C207  1  0.49883000  0.21129000  0.35780000  1.0
  C  C208  1  0.00050000  0.51610000  0.42080000  1.0
  C  C209  1  0.37948000  0.16803000  0.87172000  1.0
  C  C210  1  0.27723000  0.89669000  0.06885000  1.0
  C  C211  1  0.04852000  0.26518000  0.19473000  1.0
  C  C212  1  0.99119000  0.89131000  0.08559000  1.0
  C  C213  1  0.44834000  0.68706000  0.33292000  1.0
  C  C214  1  0.88484000  0.81316000  0.83277000  1.0
  C  C215  1  0.92310000  0.74293000  0.80779000  1.0
  C  C216  1  0.13947000  0.13794000  0.41886000  1.0
  C  C217  1  0.81231000  0.01620000  0.92067000  1.0
  C  C218  1  0.84485000  0.13737000  0.43648000  1.0
  C  C219  1  0.62480000  0.62121000  0.53367000  1.0
  C  C220  1  0.73269000  0.37817000  0.49882000  1.0
  C  C221  1  0.33154000  0.63732000  0.93644000  1.0
  C  C222  1  0.76575000  0.09828000  0.10317000  1.0
  C  C223  1  0.86163000  0.12184000  0.99872000  1.0
  N  N224  1  0.00090000  0.11652000  0.40264000  1.0
  N  N225  1  0.86722000  0.38353000  0.90265000  1.0
  N  N226  1  0.59692000  0.88338000  0.40261000  1.0
  N  N227  1  0.23008000  0.61653000  0.90262000  1.0
  O  O228  1  0.93138000  0.32651000  0.42742000  1.0
  O  O229  1  0.57960000  0.05824000  0.16832000  1.0
  O  O230  1  0.29201000  0.59672000  0.44787000  1.0
  O  O231  1  0.07863000  0.06763000  0.24053000  1.0
  O  O232  1  0.76231000  0.93539000  0.34173000  1.0
  O  O233  1  0.25249000  0.94209000  0.16821000  1.0
  O  O234  1  0.63938000  0.42454000  0.68949000  1.0
  O  O235  1  0.33274000  0.98402000  0.72931000  1.0
  O  O236  1  0.06736000  0.51607000  0.22928000  1.0
  O  O237  1  0.06319000  0.82666000  0.92751000  1.0
  O  O238  1  0.44752000  0.56455000  0.84176000  1.0
  O  O239  1  0.81474000  0.07532000  0.18941000  1.0
  O  O240  1  0.41355000  0.09657000  0.94789000  1.0
  O  O241  1  0.01323000  0.58544000  0.77785000  1.0
  O  O242  1  0.38725000  0.44187000  0.66836000  1.0
  O  O243  1  0.23589000  0.11385000  0.17782000  1.0
  O  O244  1  0.94452000  0.55801000  0.66830000  1.0
  O  O245  1  0.70429000  0.48412000  0.22926000  1.0
  O  O246  1  0.99653000  0.92472000  0.18950000  1.0
  O  O247  1  0.37405000  0.08526000  0.27799000  1.0
  O  O248  1  0.89593000  0.43252000  0.74039000  1.0
  O  O249  1  0.46247000  0.41526000  0.79210000  1.0
  O  O250  1  0.64076000  0.67342000  0.42751000  1.0
  O  O251  1  0.22369000  0.61357000  0.67767000  1.0
  O  O252  1  0.62841000  0.08483000  0.29196000  1.0
  O  O253  1  0.67125000  0.57516000  0.68953000  1.0
  O  O254  1  0.71076000  0.43524000  0.84175000  1.0
  O  O255  1  0.08016000  0.91532000  0.29198000  1.0
  O  O256  1  0.68130000  0.93255000  0.24047000  1.0
  O  O257  1  0.20897000  0.41449000  0.77789000  1.0
  O  O258  1  0.63767000  0.90351000  0.94775000  1.0
  O  O259  1  0.34866000  0.91453000  0.27775000  1.0
  O  O260  1  0.89632000  0.06464000  0.34174000  1.0
  O  O261  1  0.00852000  0.17354000  0.92728000  1.0
  O  O262  1  0.58718000  0.88630000  0.17769000  1.0
  O  O263  1  0.36366000  0.56744000  0.74052000  1.0
  O  O264  1  0.74558000  0.58457000  0.79197000  1.0
  O  O265  1  0.93637000  0.01609000  0.72920000  1.0
  O  O266  1  0.09909000  0.38622000  0.67763000  1.0
  O  O267  1  0.25984000  0.40336000  0.44789000  1.0
