# generated using pymatgen
data_TmH8(C3O5)2
_symmetry_space_group_name_H-M   'P 1'
_cell_length_a   5.95243000
_cell_length_b   7.31546000
_cell_length_c   13.09820000
_cell_angle_alpha   105.00000000
_cell_angle_beta   102.19500000
_cell_angle_gamma   90.07230000
_symmetry_Int_Tables_number   1
_chemical_formula_structural   TmH8(C3O5)2
_chemical_formula_sum   'Tm2 H16 C12 O20'
_cell_volume   537.54571913
_cell_formula_units_Z   2
loop_
 _symmetry_equiv_pos_site_id
 _symmetry_equiv_pos_as_xyz
  1  'x, y, z'
loop_
 _atom_site_type_symbol
 _atom_site_label
 _atom_site_symmetry_multiplicity
 _atom_site_fract_x
 _atom_site_fract_y
 _atom_site_fract_z
 _atom_site_occupancy
  Tm  Tm0  1  0.01642000  0.82489000  0.67756000  1.0
  Tm  Tm1  1  0.98476000  0.15894000  0.31303000  1.0
  H  H2  1  0.36722000  0.96214000  0.05672000  1.0
  H  H3  1  0.63091000  0.90108000  0.93837000  1.0
  H  H4  1  0.50488000  0.32313000  0.56326000  1.0
  H  H5  1  0.47231000  0.30550000  0.73505000  1.0
  H  H6  1  0.50042000  0.76243000  0.42937000  1.0
  H  H7  1  0.52881000  0.59308000  0.25634000  1.0
  H  H8  1  0.18270000  0.24700000  0.07583000  1.0
  H  H9  1  0.80157000  0.15631000  0.90379000  1.0
  H  H10  1  0.19668000  0.99430000  0.48330000  1.0
  H  H11  1  0.15203000  0.20987000  0.76643000  1.0
  H  H12  1  0.80979000  0.50449000  0.50572000  1.0
  H  H13  1  0.84228000  0.45683000  0.22041000  1.0
  H  H14  1  0.78258000  0.65824000  0.81384000  1.0
  H  H15  1  0.59878000  0.71747000  0.72042000  1.0
  H  H16  1  0.22040000  0.86810000  0.17791000  1.0
  H  H17  1  0.40382000  0.01461000  0.27149000  1.0
  C  C18  1  0.20343000  0.96736000  0.89749000  1.0
  C  C19  1  0.37253000  0.05870000  0.00455000  1.0
  C  C20  1  0.61867000  0.04975000  0.98369000  1.0
  C  C21  1  0.78840000  0.07724000  0.09276000  1.0
  C  C22  1  0.15269000  0.38864000  0.56335000  1.0
  C  C23  1  0.34398000  0.24916000  0.56335000  1.0
  C  C24  1  0.37507000  0.18887000  0.66963000  1.0
  C  C25  1  0.51068000  0.01084000  0.66838000  1.0
  C  C26  1  0.85277000  0.82745000  0.42925000  1.0
  C  C27  1  0.66028000  0.68765000  0.42790000  1.0
  C  C28  1  0.62617000  0.53255000  0.31973000  1.0
  C  C29  1  0.48948000  0.35501000  0.31972000  1.0
  O  O30  1  0.22485000  0.79560000  0.85045000  1.0
  O  O31  1  0.04753000  0.06299000  0.85435000  1.0
  O  O32  1  0.33304000  0.24671000  0.05520000  1.0
  O  O33  1  0.65145000  0.17906000  0.92428000  1.0
  O  O34  1  0.77647000  0.95544000  0.14522000  1.0
  O  O35  1  0.93558000  0.22023000  0.13177000  1.0
  O  O36  1  0.97713000  0.34237000  0.48381000  1.0
  O  O37  1  0.17399000  0.53660000  0.63956000  1.0
  O  O38  1  0.28835000  0.09670000  0.46739000  1.0
  O  O39  1  0.15285000  0.15583000  0.68969000  1.0
  O  O40  1  0.40894000  0.87077000  0.68459000  1.0
  O  O41  1  0.71241000  0.01380000  0.65321000  1.0
  O  O42  1  0.03188000  0.84811000  0.50652000  1.0
  O  O43  1  0.82808000  0.91135000  0.35581000  1.0
  O  O44  1  0.71531000  0.61983000  0.52239000  1.0
  O  O45  1  0.84728000  0.48124000  0.29816000  1.0
  O  O46  1  0.59304000  0.20086000  0.30565000  1.0
  O  O47  1  0.28595000  0.37042000  0.33245000  1.0
  O  O48  1  0.75312000  0.66341000  0.73889000  1.0
  O  O49  1  0.24968000  0.94258000  0.25288000  1.0
