# generated using pymatgen
data_CuH5C9N5O4
_symmetry_space_group_name_H-M   'P 1'
_cell_length_a   12.30820000
_cell_length_b   14.40670000
_cell_length_c   20.47710000
_cell_angle_alpha   90.00010000
_cell_angle_beta   90.00020000
_cell_angle_gamma   90.00000000
_symmetry_Int_Tables_number   1
_chemical_formula_structural   CuH5C9N5O4
_chemical_formula_sum   'Cu8 H40 C72 N40 O32'
_cell_volume   3631.01053076
_cell_formula_units_Z   8
loop_
 _symmetry_equiv_pos_site_id
 _symmetry_equiv_pos_as_xyz
  1  'x, y, z'
loop_
 _atom_site_type_symbol
 _atom_site_label
 _atom_site_symmetry_multiplicity
 _atom_site_fract_x
 _atom_site_fract_y
 _atom_site_fract_z
 _atom_site_occupancy
  Cu  Cu0  1  0.07088000  0.63216000  0.79734000  1.0
  Cu  Cu1  1  0.42912000  0.86784000  0.29734000  1.0
  Cu  Cu2  1  0.57088000  0.86784000  0.20265000  1.0
  Cu  Cu3  1  0.92911000  0.63216000  0.70265000  1.0
  Cu  Cu4  1  0.92911000  0.36784000  0.20265000  1.0
  Cu  Cu5  1  0.57088000  0.13216000  0.70265000  1.0
  Cu  Cu6  1  0.42912000  0.13215000  0.79734000  1.0
  Cu  Cu7  1  0.07088000  0.36784000  0.29734000  1.0
  H  H8  1  0.11511000  0.48307000  0.56090000  1.0
  H  H9  1  0.38490000  0.01692000  0.06089000  1.0
  H  H10  1  0.61511000  0.01692000  0.43910000  1.0
  H  H11  1  0.88490000  0.48308000  0.93911000  1.0
  H  H12  1  0.88489000  0.51693000  0.43910000  1.0
  H  H13  1  0.61511000  0.98308000  0.93911000  1.0
  H  H14  1  0.38489000  0.98307000  0.56090000  1.0
  H  H15  1  0.11510000  0.51692000  0.06089000  1.0
  H  H16  1  0.25547000  0.38539000  0.74106000  1.0
  H  H17  1  0.24452000  0.11461000  0.24105000  1.0
  H  H18  1  0.75548000  0.11461000  0.25895000  1.0
  H  H19  1  0.74452000  0.38540000  0.75895000  1.0
  H  H20  1  0.74453000  0.61461000  0.25894000  1.0
  H  H21  1  0.75549000  0.88539000  0.75895000  1.0
  H  H22  1  0.24452000  0.88539000  0.74105000  1.0
  H  H23  1  0.25548000  0.61461000  0.24105000  1.0
  H  H24  1  0.36587000  0.27363000  0.55717000  1.0
  H  H25  1  0.13412000  0.22636000  0.05716000  1.0
  H  H26  1  0.86587000  0.22637000  0.44283000  1.0
  H  H27  1  0.63413000  0.27364000  0.94284000  1.0
  H  H28  1  0.63413000  0.72637000  0.44283000  1.0
  H  H29  1  0.86588000  0.77364000  0.94284000  1.0
  H  H30  1  0.13413000  0.77363000  0.55717000  1.0
  H  H31  1  0.36588000  0.72636000  0.05716000  1.0
  H  H32  1  0.98726000  0.34470000  0.42948000  1.0
  H  H33  1  0.51274000  0.15530000  0.92948000  1.0
  H  H34  1  0.48726000  0.15530000  0.57052000  1.0
  H  H35  1  0.01275000  0.34470000  0.07052000  1.0
  H  H36  1  0.01274000  0.65530000  0.57052000  1.0
  H  H37  1  0.48725000  0.84470000  0.07052000  1.0
  H  H38  1  0.51274000  0.84470000  0.42948000  1.0
  H  H39  1  0.98726000  0.65530000  0.92948000  1.0
  H  H40  1  0.02424000  0.35380000  0.51092000  1.0
  H  H41  1  0.47576000  0.14620000  0.01092000  1.0
  H  H42  1  0.52424000  0.14620000  0.48908000  1.0
  H  H43  1  0.97576000  0.35380000  0.98908000  1.0
  H  H44  1  0.97576000  0.64620000  0.48908000  1.0
  H  H45  1  0.52424000  0.85380000  0.98908000  1.0
  H  H46  1  0.47576000  0.85380000  0.51092000  1.0
  H  H47  1  0.02424000  0.64620000  0.01092000  1.0
  C  C48  1  0.14443000  0.36975000  0.44397000  1.0
  C  C49  1  0.35557000  0.13025000  0.94397000  1.0
  C  C50  1  0.64443000  0.13025000  0.55603000  1.0
  C  C51  1  0.85557000  0.36975000  0.05603000  1.0
  C  C52  1  0.85557000  0.63026000  0.55603000  1.0
  C  C53  1  0.64443000  0.86975000  0.05603000  1.0
  C  C54  1  0.35557000  0.86975000  0.44397000  1.0
  C  C55  1  0.14443000  0.63025000  0.94397000  1.0
  C  C56  1  0.23983000  0.37705000  0.55207000  1.0
  C  C57  1  0.26016000  0.12294000  0.05206000  1.0
  C  C58  1  0.73984000  0.12295000  0.44794000  1.0
  C  C59  1  0.76016000  0.37706000  0.94794000  1.0
  C  C60  1  0.76016000  0.62295000  0.44793000  1.0
  C  C61  1  0.73984000  0.87706000  0.94794000  1.0
  C  C62  1  0.26016000  0.87705000  0.55207000  1.0
  C  C63  1  0.23984000  0.62294000  0.05206000  1.0
  C  C64  1  0.17197000  0.43760000  0.58632000  1.0
  C  C65  1  0.32803000  0.06240000  0.08631000  1.0
  C  C66  1  0.67198000  0.06240000  0.41368000  1.0
  C  C67  1  0.82803000  0.43760000  0.91369000  1.0
  C  C68  1  0.82803000  0.56240000  0.41368000  1.0
  C  C69  1  0.67198000  0.93760000  0.91369000  1.0
  C  C70  1  0.32802000  0.93760000  0.58632000  1.0
  C  C71  1  0.17197000  0.56240000  0.08631000  1.0
  C  C72  1  0.17940000  0.44117000  0.65445000  1.0
  C  C73  1  0.32060000  0.05883000  0.15444000  1.0
  C  C74  1  0.67940000  0.05883000  0.34555000  1.0
  C  C75  1  0.82060000  0.44117000  0.84556000  1.0
  C  C76  1  0.82060000  0.55883000  0.34555000  1.0
  C  C77  1  0.67941000  0.94117000  0.84556000  1.0
  C  C78  1  0.32060000  0.94117000  0.65445000  1.0
  C  C79  1  0.17940000  0.55883000  0.15444000  1.0
  C  C80  1  0.25108000  0.38314000  0.68798000  1.0
  C  C81  1  0.24892000  0.11686000  0.18797000  1.0
  C  C82  1  0.75108000  0.11686000  0.31202000  1.0
  C  C83  1  0.74892000  0.38314000  0.81203000  1.0
  C  C84  1  0.74892000  0.61686000  0.31202000  1.0
  C  C85  1  0.75109000  0.88314000  0.81203000  1.0
  C  C86  1  0.24892000  0.88314000  0.68798000  1.0
  C  C87  1  0.25108000  0.61686000  0.18797000  1.0
  C  C88  1  0.31681000  0.32137000  0.65310000  1.0
  C  C89  1  0.18319000  0.17862000  0.15309000  1.0
  C  C90  1  0.81681000  0.17863000  0.34690000  1.0
  C  C91  1  0.68318000  0.32138000  0.84691000  1.0
  C  C92  1  0.68319000  0.67863000  0.34690000  1.0
  C  C93  1  0.81682000  0.82138000  0.84691000  1.0
  C  C94  1  0.18319000  0.82137000  0.65310000  1.0
  C  C95  1  0.31682000  0.67862000  0.15309000  1.0
  C  C96  1  0.31308000  0.31963000  0.58486000  1.0
  C  C97  1  0.18691000  0.18036000  0.08485000  1.0
  C  C98  1  0.81308000  0.18037000  0.41514000  1.0
  C  C99  1  0.68692000  0.31963000  0.91514000  1.0
  C  C100  1  0.68692000  0.68038000  0.41514000  1.0
  C  C101  1  0.81309000  0.81964000  0.91515000  1.0
  C  C102  1  0.18692000  0.81962000  0.58486000  1.0
  C  C103  1  0.31309000  0.68037000  0.08485000  1.0
  C  C104  1  0.38829000  0.25452000  0.68903000  1.0
  C  C105  1  0.11171000  0.24548000  0.18902000  1.0
  C  C106  1  0.88829000  0.24548000  0.31097000  1.0
  C  C107  1  0.61171000  0.25452000  0.81098000  1.0
  C  C108  1  0.61171000  0.74548000  0.31097000  1.0
  C  C109  1  0.88830000  0.75452000  0.81098000  1.0
  C  C110  1  0.11170000  0.75452000  0.68903000  1.0
  C  C111  1  0.38829000  0.74548000  0.18902000  1.0
  C  C112  1  0.11068000  0.50924000  0.69099000  1.0
  C  C113  1  0.38933000  0.99076000  0.19098000  1.0
  C  C114  1  0.61068000  0.99075000  0.30901000  1.0
  C  C115  1  0.88932000  0.50924000  0.80902000  1.0
  C  C116  1  0.88932000  0.49075000  0.30901000  1.0
  C  C117  1  0.61068000  0.00924000  0.80902000  1.0
  C  C118  1  0.38932000  0.00924000  0.69099000  1.0
  C  C119  1  0.11068000  0.49076000  0.19099000  1.0
  N  N120  1  0.17900000  0.36546000  0.38211000  1.0
  N  N121  1  0.32100000  0.13454000  0.88210000  1.0
  N  N122  1  0.67901000  0.13454000  0.61790000  1.0
  N  N123  1  0.82101000  0.36546000  0.11790000  1.0
  N  N124  1  0.82099000  0.63454000  0.61790000  1.0
  N  N125  1  0.67899000  0.86546000  0.11790000  1.0
  N  N126  1  0.32100000  0.86546000  0.38210000  1.0
  N  N127  1  0.17899000  0.63454000  0.88210000  1.0
  N  N128  1  0.28970000  0.36530000  0.38423000  1.0
  N  N129  1  0.21030000  0.13470000  0.88422000  1.0
  N  N130  1  0.78970000  0.13470000  0.61578000  1.0
  N  N131  1  0.71030000  0.36530000  0.11578000  1.0
  N  N132  1  0.71029000  0.63470000  0.61578000  1.0
  N  N133  1  0.78969000  0.86530000  0.11578000  1.0
  N  N134  1  0.21030000  0.86530000  0.38422000  1.0
  N  N135  1  0.28969000  0.63470000  0.88422000  1.0
  N  N136  1  0.32483000  0.36929000  0.44335000  1.0
  N  N137  1  0.17517000  0.13071000  0.94334000  1.0
  N  N138  1  0.82483000  0.13071000  0.55666000  1.0
  N  N139  1  0.67517000  0.36930000  0.05666000  1.0
  N  N140  1  0.67517000  0.63071000  0.55665000  1.0
  N  N141  1  0.82483000  0.86930000  0.05666000  1.0
  N  N142  1  0.17517000  0.86929000  0.44334000  1.0
  N  N143  1  0.32483000  0.63070000  0.94334000  1.0
  N  N144  1  0.23356000  0.37305000  0.48304000  1.0
  N  N145  1  0.26644000  0.12694000  0.98303000  1.0
  N  N146  1  0.73356000  0.12695000  0.51696000  1.0
  N  N147  1  0.76644000  0.37306000  0.01697000  1.0
  N  N148  1  0.76644000  0.62694000  0.51696000  1.0
  N  N149  1  0.73356000  0.87306000  0.01697000  1.0
  N  N150  1  0.26644000  0.87305000  0.48304000  1.0
  N  N151  1  0.23356000  0.62694000  0.98304000  1.0
  N  N152  1  0.03934000  0.37121000  0.46374000  1.0
  N  N153  1  0.46067000  0.12878000  0.96375000  1.0
  N  N154  1  0.53933000  0.12879000  0.53626000  1.0
  N  N155  1  0.96068000  0.37122000  0.03625000  1.0
  N  N156  1  0.96066000  0.62879000  0.53626000  1.0
  N  N157  1  0.53932000  0.87122000  0.03625000  1.0
  N  N158  1  0.46066000  0.87121000  0.46374000  1.0
  N  N159  1  0.03933000  0.62879000  0.96375000  1.0
  O  O160  1  0.46242000  0.21364000  0.65579000  1.0
  O  O161  1  0.03758000  0.28636000  0.15577000  1.0
  O  O162  1  0.96242000  0.28635000  0.34422000  1.0
  O  O163  1  0.53758000  0.21365000  0.84423000  1.0
  O  O164  1  0.53758000  0.78635000  0.34421000  1.0
  O  O165  1  0.96242000  0.71365000  0.84423000  1.0
  O  O166  1  0.03758000  0.71364000  0.65578000  1.0
  O  O167  1  0.46242000  0.78636000  0.15577000  1.0
  O  O168  1  0.36886000  0.24215000  0.74922000  1.0
  O  O169  1  0.13114000  0.25785000  0.24921000  1.0
  O  O170  1  0.86886000  0.25784000  0.25078000  1.0
  O  O171  1  0.63114000  0.24215000  0.75079000  1.0
  O  O172  1  0.63114000  0.75785000  0.25077000  1.0
  O  O173  1  0.86887000  0.74215000  0.75079000  1.0
  O  O174  1  0.13113000  0.74215000  0.74922000  1.0
  O  O175  1  0.36887000  0.75785000  0.24921000  1.0
  O  O176  1  0.15391000  0.54604000  0.74116000  1.0
  O  O177  1  0.34611000  0.95397000  0.24115000  1.0
  O  O178  1  0.65391000  0.95396000  0.25884000  1.0
  O  O179  1  0.84611000  0.54604000  0.75885000  1.0
  O  O180  1  0.84609000  0.45397000  0.25884000  1.0
  O  O181  1  0.65389000  0.04603000  0.75885000  1.0
  O  O182  1  0.34609000  0.04603000  0.74116000  1.0
  O  O183  1  0.15389000  0.45397000  0.24115000  1.0
  O  O184  1  0.01627000  0.52506000  0.66788000  1.0
  O  O185  1  0.48374000  0.97495000  0.16787000  1.0
  O  O186  1  0.51628000  0.97494000  0.33212000  1.0
  O  O187  1  0.98374000  0.52505000  0.83213000  1.0
  O  O188  1  0.98372000  0.47494000  0.33212000  1.0
  O  O189  1  0.51626000  0.02505000  0.83213000  1.0
  O  O190  1  0.48372000  0.02506000  0.66788000  1.0
  O  O191  1  0.01626000  0.47495000  0.16787000  1.0
