# generated using pymatgen
data_ZnH3C5BrN4
_symmetry_space_group_name_H-M   'P 1'
_cell_length_a   7.63829000
_cell_length_b   10.04280000
_cell_length_c   10.07460000
_cell_angle_alpha   90.00000000
_cell_angle_beta   90.00000000
_cell_angle_gamma   90.00000000
_symmetry_Int_Tables_number   1
_chemical_formula_structural   ZnH3C5BrN4
_chemical_formula_sum   'Zn4 H12 C20 Br4 N16'
_cell_volume   772.82074060
_cell_formula_units_Z   4
loop_
 _symmetry_equiv_pos_site_id
 _symmetry_equiv_pos_as_xyz
  1  'x, y, z'
loop_
 _atom_site_type_symbol
 _atom_site_label
 _atom_site_symmetry_multiplicity
 _atom_site_fract_x
 _atom_site_fract_y
 _atom_site_fract_z
 _atom_site_occupancy
  Zn  Zn0  1  0.88032000  0.61161000  0.47010000  1.0
  Zn  Zn1  1  0.61968000  0.11161000  0.52990000  1.0
  Zn  Zn2  1  0.38032000  0.38839000  0.02990000  1.0
  Zn  Zn3  1  0.11968000  0.88839000  0.97010000  1.0
  H  H4  1  0.02072000  0.39237000  0.63628000  1.0
  H  H5  1  0.47928000  0.89237000  0.36372000  1.0
  H  H6  1  0.52072000  0.60763000  0.86372000  1.0
  H  H7  1  0.97928000  0.10763000  0.13628000  1.0
  H  H8  1  0.06410000  0.48297000  0.23243000  1.0
  H  H9  1  0.43590000  0.98297000  0.76757000  1.0
  H  H10  1  0.56410000  0.51703000  0.26757000  1.0
  H  H11  1  0.93589000  0.01703000  0.73243000  1.0
  H  H12  1  0.60771000  0.19375000  0.22251000  1.0
  H  H13  1  0.89229000  0.69375000  0.77749000  1.0
  H  H14  1  0.10771000  0.80625000  0.27749000  1.0
  H  H15  1  0.39229000  0.30625000  0.72251000  1.0
  C  C16  1  0.31117000  0.28071000  0.43112000  1.0
  C  C17  1  0.18883000  0.78071000  0.56888000  1.0
  C  C18  1  0.81117000  0.71929000  0.06888000  1.0
  C  C19  1  0.68883000  0.21929000  0.93112000  1.0
  C  C20  1  0.09147000  0.37567000  0.54357000  1.0
  C  C21  1  0.40853000  0.87567000  0.45643000  1.0
  C  C22  1  0.59147000  0.62433000  0.95643000  1.0
  C  C23  1  0.90853000  0.12433000  0.04357000  1.0
  C  C24  1  0.11300000  0.42722000  0.31766000  1.0
  C  C25  1  0.38701000  0.92722000  0.68234000  1.0
  C  C26  1  0.61300000  0.57278000  0.18234000  1.0
  C  C27  1  0.88701000  0.07278000  0.81766000  1.0
  C  C28  1  0.25565000  0.34259000  0.31141000  1.0
  C  C29  1  0.24435000  0.84259000  0.68859000  1.0
  C  C30  1  0.75565000  0.65741000  0.18859000  1.0
  C  C31  1  0.74435000  0.15741000  0.81141000  1.0
  C  C32  1  0.49321000  0.23235000  0.27409000  1.0
  C  C33  1  0.00679000  0.73235000  0.72591000  1.0
  C  C34  1  0.99321000  0.76765000  0.22591000  1.0
  C  C35  1  0.50679000  0.26765000  0.77409000  1.0
  Br  Br36  1  0.60942000  0.55607000  0.56806000  1.0
  Br  Br37  1  0.89058000  0.05607000  0.43194000  1.0
  Br  Br38  1  0.10942000  0.44393000  0.93194000  1.0
  Br  Br39  1  0.39058000  0.94393000  0.06806000  1.0
  N  N40  1  0.22836000  0.29405000  0.54728000  1.0
  N  N41  1  0.27164000  0.79405000  0.45273000  1.0
  N  N42  1  0.72836000  0.70595000  0.95272000  1.0
  N  N43  1  0.77164000  0.20595000  0.04728000  1.0
  N  N44  1  0.37331000  0.30931000  0.21278000  1.0
  N  N45  1  0.12669000  0.80932000  0.78722000  1.0
  N  N46  1  0.87331000  0.69069000  0.28722000  1.0
  N  N47  1  0.62669000  0.19069000  0.71278000  1.0
  N  N48  1  0.46240000  0.21205000  0.40489000  1.0
  N  N49  1  0.03760000  0.71205000  0.59511000  1.0
  N  N50  1  0.96240000  0.78795000  0.09511000  1.0
  N  N51  1  0.53760000  0.28795000  0.90489000  1.0
  N  N52  1  0.03370000  0.44428000  0.43608000  1.0
  N  N53  1  0.46630000  0.94428000  0.56392000  1.0
  N  N54  1  0.53370000  0.55572000  0.06392000  1.0
  N  N55  1  0.96630000  0.05572000  0.93608000  1.0
