# generated using pymatgen
data_ZnH6C11(NO2)2
_symmetry_space_group_name_H-M   'P 1'
_cell_length_a   7.41009000
_cell_length_b   9.16044000
_cell_length_c   17.32980000
_cell_angle_alpha   83.74020000
_cell_angle_beta   81.39850000
_cell_angle_gamma   80.01220000
_symmetry_Int_Tables_number   1
_chemical_formula_structural   ZnH6C11(NO2)2
_chemical_formula_sum   'Zn2 H12 C22 N4 O8'
_cell_volume   1141.30470426
_cell_formula_units_Z   2
loop_
 _symmetry_equiv_pos_site_id
 _symmetry_equiv_pos_as_xyz
  1  'x, y, z'
loop_
 _atom_site_type_symbol
 _atom_site_label
 _atom_site_symmetry_multiplicity
 _atom_site_fract_x
 _atom_site_fract_y
 _atom_site_fract_z
 _atom_site_occupancy
  Zn  Zn0  1  0.31143000  0.55157000  0.50013000  1.0
  Zn  Zn1  1  0.68983000  0.44287000  0.48902000  1.0
  H  H2  1  0.73486000  0.31343000  0.72848000  1.0
  H  H3  1  0.29174000  0.04039000  0.49393000  1.0
  H  H4  1  0.08344000  0.35088000  0.48850000  1.0
  H  H5  1  0.91811000  0.64407000  0.50037000  1.0
  H  H6  1  0.23931000  0.56256000  0.25816000  1.0
  H  H7  1  0.82011000  0.39155000  0.24464000  1.0
  H  H8  1  0.15678000  0.49737000  0.75365000  1.0
  H  H9  1  0.13857000  0.45306000  0.89793000  1.0
  H  H10  1  0.83054000  0.34741000  0.10524000  1.0
  H  H11  1  0.24513000  0.51802000  0.11887000  1.0
  H  H12  1  0.72045000  0.26707000  0.87313000  1.0
  H  H13  1  0.71203000  0.95177000  0.49502000  1.0
  C  C14  1  0.53242000  0.78186000  0.49729000  1.0
  C  C15  1  0.36716000  0.51375000  0.22424000  1.0
  C  C16  1  0.59757000  0.32029000  0.84736000  1.0
  C  C17  1  0.37075000  0.48747000  0.14645000  1.0
  C  C18  1  0.43091000  0.36401000  0.89557000  1.0
  C  C19  1  0.53772000  0.42779000  0.10273000  1.0
  C  C20  1  0.27008000  0.42214000  0.86135000  1.0
  C  C21  1  0.70021000  0.39422000  0.13844000  1.0
  C  C22  1  0.27963000  0.44751000  0.78034000  1.0
  C  C23  1  0.69512000  0.41897000  0.21650000  1.0
  C  C24  1  0.42242000  0.35987000  0.98170000  1.0
  C  C25  1  0.47219000  0.20962000  0.49180000  1.0
  C  C26  1  0.54889000  0.41136000  0.01807000  1.0
  C  C27  1  0.70285000  0.46635000  0.97173000  1.0
  C  C28  1  0.26790000  0.30476000  0.02723000  1.0
  C  C29  1  0.56903000  0.93659000  0.49558000  1.0
  C  C30  1  0.43481000  0.05501000  0.49362000  1.0
  C  C31  1  0.46311000  0.44929000  0.64573000  1.0
  C  C32  1  0.52386000  0.50626000  0.34393000  1.0
  C  C33  1  0.44855000  0.41274000  0.73244000  1.0
  C  C34  1  0.52912000  0.48015000  0.25982000  1.0
  C  C35  1  0.60593000  0.34493000  0.76644000  1.0
  N  N36  1  0.97184000  0.43943000  0.49074000  1.0
  N  N37  1  0.02977000  0.55552000  0.49833000  1.0
  N  N38  1  0.82903000  0.51751000  0.93784000  1.0
  N  N39  1  0.14098000  0.25488000  0.06137000  1.0
  O  O40  1  0.36589000  0.76033000  0.50227000  1.0
  O  O41  1  0.63851000  0.22999000  0.48894000  1.0
  O  O42  1  0.67436000  0.67945000  0.49315000  1.0
  O  O43  1  0.33083000  0.31266000  0.49367000  1.0
  O  O44  1  0.31440000  0.50159000  0.61664000  1.0
  O  O45  1  0.67576000  0.47296000  0.37297000  1.0
  O  O46  1  0.62459000  0.42676000  0.60705000  1.0
  O  O47  1  0.36774000  0.55727000  0.38109000  1.0
