# generated using pymatgen
data_CaH8C6N2O7
_symmetry_space_group_name_H-M   'P 1'
_cell_length_a   5.83446000
_cell_length_b   8.56379000
_cell_length_c   9.64963000
_cell_angle_alpha   88.76990000
_cell_angle_beta   89.70520000
_cell_angle_gamma   78.65520000
_symmetry_Int_Tables_number   1
_chemical_formula_structural   CaH8C6N2O7
_chemical_formula_sum   'Ca2 H16 C12 N4 O14'
_cell_volume   472.61492879
_cell_formula_units_Z   2
loop_
 _symmetry_equiv_pos_site_id
 _symmetry_equiv_pos_as_xyz
  1  'x, y, z'
loop_
 _atom_site_type_symbol
 _atom_site_label
 _atom_site_symmetry_multiplicity
 _atom_site_fract_x
 _atom_site_fract_y
 _atom_site_fract_z
 _atom_site_occupancy
  Ca  Ca0  1  0.30771000  0.33644000  0.98500000  1.0
  Ca  Ca1  1  0.69229000  0.66356000  0.01499000  1.0
  H  H2  1  0.40005000  0.16895000  0.26899000  1.0
  H  H3  1  0.59996000  0.83105000  0.73102000  1.0
  H  H4  1  0.17881000  0.08468000  0.47136000  1.0
  H  H5  1  0.82120000  0.91532000  0.52865000  1.0
  H  H6  1  0.71939000  0.33897000  0.45723000  1.0
  H  H7  1  0.28057000  0.66105000  0.54276000  1.0
  H  H8  1  0.67522000  0.09287000  0.07739000  1.0
  H  H9  1  0.32475000  0.90713000  0.92261000  1.0
  H  H10  1  0.84392000  0.15987000  0.96978000  1.0
  H  H11  1  0.15608000  0.84013000  0.03022000  1.0
  H  H12  1  0.99973000  0.55998000  0.78886000  1.0
  H  H13  1  0.00026000  0.44001000  0.21115000  1.0
  H  H14  1  0.22598000  0.06982000  0.20793000  1.0
  H  H15  1  0.77403000  0.93019000  0.79207000  1.0
  H  H16  1  0.15658000  0.66751000  0.87477000  1.0
  H  H17  1  0.84340000  0.33249000  0.12523000  1.0
  C  C18  1  0.54588000  0.33346000  0.65608000  1.0
  C  C19  1  0.45414000  0.66654000  0.34391000  1.0
  C  C20  1  0.58252000  0.29659000  0.51589000  1.0
  C  C21  1  0.41748000  0.70340000  0.48411000  1.0
  C  C22  1  0.25910000  0.18397000  0.66612000  1.0
  C  C23  1  0.74090000  0.81604000  0.33389000  1.0
  C  C24  1  0.28749000  0.15449000  0.52472000  1.0
  C  C25  1  0.71251000  0.84550000  0.47529000  1.0
  C  C26  1  0.08769000  0.11687000  0.75601000  1.0
  C  C27  1  0.91231000  0.88313000  0.24399000  1.0
  C  C28  1  0.67834000  0.44014000  0.73280000  1.0
  C  C29  1  0.32166000  0.55986000  0.26720000  1.0
  N  N30  1  0.38568000  0.27535000  0.72965000  1.0
  N  N31  1  0.61433000  0.72464000  0.27036000  1.0
  N  N32  1  0.45071000  0.20972000  0.45029000  1.0
  N  N33  1  0.54926000  0.79028000  0.54970000  1.0
  O  O34  1  0.08662000  0.15387000  0.88459000  1.0
  O  O35  1  0.91342000  0.84614000  0.11541000  1.0
  O  O36  1  0.06766000  0.58066000  0.88114000  1.0
  O  O37  1  0.93232000  0.41933000  0.11886000  1.0
  O  O38  1  0.59882000  0.48151000  0.85324000  1.0
  O  O39  1  0.40120000  0.51850000  0.14675000  1.0
  O  O40  1  0.85193000  0.47931000  0.67319000  1.0
  O  O41  1  0.14808000  0.52070000  0.32681000  1.0
  O  O42  1  0.34301000  0.13473000  0.17935000  1.0
  O  O43  1  0.65700000  0.86526000  0.82065000  1.0
  O  O44  1  0.70177000  0.18993000  0.03046000  1.0
  O  O45  1  0.29822000  0.81006000  0.96953000  1.0
  O  O46  1  0.96322000  0.03103000  0.70177000  1.0
  O  O47  1  0.03679000  0.96898000  0.29822000  1.0
