# generated using pymatgen
data_NaVH16C10(NO)6
_symmetry_space_group_name_H-M   'P 1'
_cell_length_a   7.93712000
_cell_length_b   8.68657000
_cell_length_c   12.18520000
_cell_angle_alpha   102.52500000
_cell_angle_beta   107.52300000
_cell_angle_gamma   103.72900000
_symmetry_Int_Tables_number   1
_chemical_formula_structural   NaVH16C10(NO)6
_chemical_formula_sum   'Na2 V2 H32 C20 N12 O12'
_cell_volume   739.59459238
_cell_formula_units_Z   2
loop_
 _symmetry_equiv_pos_site_id
 _symmetry_equiv_pos_as_xyz
  1  'x, y, z'
loop_
 _atom_site_type_symbol
 _atom_site_label
 _atom_site_symmetry_multiplicity
 _atom_site_fract_x
 _atom_site_fract_y
 _atom_site_fract_z
 _atom_site_occupancy
  Na  Na0  1  0.00421000  0.54721000  0.65590000  1.0
  Na  Na1  1  0.99574000  0.45277000  0.34410000  1.0
  V  V2  1  0.47439000  0.26026000  0.74890000  1.0
  V  V3  1  0.52560000  0.73973000  0.25110000  1.0
  H  H4  1  0.57912000  0.16754000  0.37219000  1.0
  H  H5  1  0.42089000  0.83247000  0.62784000  1.0
  H  H6  1  0.54407000  0.36259000  0.37898000  1.0
  H  H7  1  0.45592000  0.63741000  0.62102000  1.0
  H  H8  1  0.25945000  0.11427000  0.23164000  1.0
  H  H9  1  0.74055000  0.88574000  0.76837000  1.0
  H  H10  1  0.21140000  0.24133000  0.34490000  1.0
  H  H11  1  0.78861000  0.75868000  0.65512000  1.0
  H  H12  1  0.27212000  0.90318000  0.33450000  1.0
  H  H13  1  0.72785000  0.09681000  0.66551000  1.0
  H  H14  1  0.06411000  0.94912000  0.32602000  1.0
  H  H15  1  0.93588000  0.05090000  0.67399000  1.0
  H  H16  1  0.99807000  0.34431000  0.91444000  1.0
  H  H17  1  0.00194000  0.65572000  0.08556000  1.0
  H  H18  1  0.20785000  0.48080000  0.03276000  1.0
  H  H19  1  0.79220000  0.51920000  0.96725000  1.0
  H  H20  1  0.08860000  0.09751000  0.94704000  1.0
  H  H21  1  0.91140000  0.90247000  0.05294000  1.0
  H  H22  1  0.10754000  0.22659000  0.08754000  1.0
  H  H23  1  0.89246000  0.77342000  0.91243000  1.0
  H  H24  1  0.45056000  0.34555000  0.14957000  1.0
  H  H25  1  0.54938000  0.65448000  0.85043000  1.0
  H  H26  1  0.39016000  0.12475000  0.10166000  1.0
  H  H27  1  0.60987000  0.87527000  0.89831000  1.0
  H  H28  1  0.83660000  0.64900000  0.43228000  1.0
  H  H29  1  0.16339000  0.35103000  0.56771000  1.0
  H  H30  1  0.03433000  0.77820000  0.51811000  1.0
  H  H31  1  0.96566000  0.22179000  0.48191000  1.0
  H  H32  1  0.24553000  0.82916000  0.88300000  1.0
  H  H33  1  0.75445000  0.17082000  0.11700000  1.0
  H  H34  1  0.21258000  0.90263000  0.77236000  1.0
  H  H35  1  0.78742000  0.09735000  0.22762000  1.0
  C  C36  1  0.54172000  0.28271000  0.53223000  1.0
  C  C37  1  0.45829000  0.71730000  0.46778000  1.0
  C  C38  1  0.49862000  0.24580000  0.39895000  1.0
  C  C39  1  0.50137000  0.75421000  0.60106000  1.0
  C  C40  1  0.28839000  0.15476000  0.32890000  1.0
  C  C41  1  0.71160000  0.84525000  0.67112000  1.0
  C  C42  1  0.21703000  0.00188000  0.36635000  1.0
  C  C43  1  0.78295000  0.99813000  0.63366000  1.0
  C  C44  1  0.27799000  0.04913000  0.50119000  1.0
  C  C45  1  0.72202000  0.95088000  0.49883000  1.0
  C  C46  1  0.24317000  0.36067000  0.87336000  1.0
  C  C47  1  0.75683000  0.63934000  0.12663000  1.0
  C  C48  1  0.14567000  0.35945000  0.96100000  1.0
  C  C49  1  0.85434000  0.64057000  0.03899000  1.0
  C  C50  1  0.16737000  0.21949000  0.01701000  1.0
  C  C51  1  0.83263000  0.78049000  0.98297000  1.0
  C  C52  1  0.37402000  0.23202000  0.07095000  1.0
  C  C53  1  0.62598000  0.76801000  0.92904000  1.0
  C  C54  1  0.45945000  0.23878000  0.97752000  1.0
  C  C55  1  0.54054000  0.76128000  0.02249000  1.0
  N  N56  1  0.43214000  0.18378000  0.57446000  1.0
  N  N57  1  0.56785000  0.81623000  0.42556000  1.0
  N  N58  1  0.67952000  0.40780000  0.61711000  1.0
  N  N59  1  0.32052000  0.59216000  0.38291000  1.0
  N  N60  1  0.19231000  0.97101000  0.55887000  1.0
  N  N61  1  0.80766000  0.02894000  0.44111000  1.0
  N  N62  1  0.39301000  0.30381000  0.88762000  1.0
  N  N63  1  0.60705000  0.69626000  0.11240000  1.0
  N  N64  1  0.19378000  0.40992000  0.77850000  1.0
  N  N65  1  0.80624000  0.59001000  0.22145000  1.0
  N  N66  1  0.59472000  0.17988000  0.97093000  1.0
  N  N67  1  0.40526000  0.82011000  0.02907000  1.0
  O  O68  1  0.67320000  0.40268000  0.73001000  1.0
  O  O69  1  0.32690000  0.59732000  0.27000000  1.0
  O  O70  1  0.28299000  0.04777000  0.68394000  1.0
  O  O71  1  0.71704000  0.95218000  0.31609000  1.0
  O  O72  1  0.31476000  0.39124000  0.71586000  1.0
  O  O73  1  0.68523000  0.60869000  0.28413000  1.0
  O  O74  1  0.63197000  0.20003000  0.86893000  1.0
  O  O75  1  0.36798000  0.79995000  0.13104000  1.0
  O  O76  1  0.95069000  0.66168000  0.49984000  1.0
  O  O77  1  0.04927000  0.33832000  0.50016000  1.0
  O  O78  1  0.15832000  0.81171000  0.80012000  1.0
  O  O79  1  0.84167000  0.18829000  0.19987000  1.0
