# generated using pymatgen
data_Cu2H32C43(NO4)4
_symmetry_space_group_name_H-M   'P 1'
_cell_length_a   8.06789000
_cell_length_b   16.88660000
_cell_length_c   17.12950000
_cell_angle_alpha   90.00010000
_cell_angle_beta   90.00010000
_cell_angle_gamma   90.00000000
_symmetry_Int_Tables_number   1
_chemical_formula_structural   Cu2H32C43(NO4)4
_chemical_formula_sum   'Cu4 H64 C86 N8 O32'
_cell_volume   2333.70991210
_cell_formula_units_Z   2
loop_
 _symmetry_equiv_pos_site_id
 _symmetry_equiv_pos_as_xyz
  1  'x, y, z'
loop_
 _atom_site_type_symbol
 _atom_site_label
 _atom_site_symmetry_multiplicity
 _atom_site_fract_x
 _atom_site_fract_y
 _atom_site_fract_z
 _atom_site_occupancy
  Cu  Cu0  1  0.18330000  0.19070000  0.84407000  1.0
  Cu  Cu1  1  0.18330000  0.80930000  0.15593000  1.0
  Cu  Cu2  1  0.81670000  0.69070000  0.65593000  1.0
  Cu  Cu3  1  0.81671000  0.30930000  0.34407000  1.0
  H  H4  1  0.41894000  0.51297000  0.87510000  1.0
  H  H5  1  0.41894000  0.48703000  0.12490000  1.0
  H  H6  1  0.58106000  0.01297000  0.62490000  1.0
  H  H7  1  0.58106000  0.98703000  0.37510000  1.0
  H  H8  1  0.25425000  0.45640000  0.91935000  1.0
  H  H9  1  0.25425000  0.54361000  0.08065000  1.0
  H  H10  1  0.74575000  0.95639000  0.58065000  1.0
  H  H11  1  0.74575000  0.04360000  0.41935000  1.0
  H  H12  1  0.48996000  0.40679000  0.76741000  1.0
  H  H13  1  0.48996000  0.59321000  0.23259000  1.0
  H  H14  1  0.51003000  0.90679000  0.73259000  1.0
  H  H15  1  0.51003000  0.09321000  0.26741000  1.0
  H  H16  1  0.78980000  0.48612000  0.57383000  1.0
  H  H17  1  0.78981000  0.51388000  0.42617000  1.0
  H  H18  1  0.21020000  0.98612000  0.92617000  1.0
  H  H19  1  0.21020000  0.01388000  0.07383000  1.0
  H  H20  1  0.61143000  0.24636000  0.58064000  1.0
  H  H21  1  0.61143000  0.75364000  0.41937000  1.0
  H  H22  1  0.38857000  0.74636000  0.91937000  1.0
  H  H23  1  0.38858000  0.25364000  0.08063000  1.0
  H  H24  1  0.04442000  0.56494000  0.68150000  1.0
  H  H25  1  0.04442000  0.43507000  0.31850000  1.0
  H  H26  1  0.95559000  0.06494000  0.81850000  1.0
  H  H27  1  0.95558000  0.93507000  0.18150000  1.0
  H  H28  1  0.61239000  0.41182000  0.04573000  1.0
  H  H29  1  0.61239000  0.58818000  0.95427000  1.0
  H  H30  1  0.38761000  0.91182000  0.45427000  1.0
  H  H31  1  0.38761000  0.08818000  0.54573000  1.0
  H  H32  1  0.46817000  0.37465000  0.97504000  1.0
  H  H33  1  0.46817000  0.62535000  0.02496000  1.0
  H  H34  1  0.53183000  0.87465000  0.52496000  1.0
  H  H35  1  0.53183000  0.12535000  0.47504000  1.0
  H  H36  1  0.23306000  0.51451000  0.78507000  1.0
  H  H37  1  0.23306000  0.48549000  0.21493000  1.0
  H  H38  1  0.76694000  0.01451000  0.71493000  1.0
  H  H39  1  0.76694000  0.98549000  0.28507000  1.0
  H  H40  1  0.86761000  0.74401000  0.82435000  1.0
  H  H41  1  0.86761000  0.25599000  0.17565000  1.0
  H  H42  1  0.13239000  0.24401000  0.67565000  1.0
  H  H43  1  0.13239000  0.75599000  0.32435000  1.0
  H  H44  1  0.04427000  0.69916000  0.93649000  1.0
  H  H45  1  0.04427000  0.30084000  0.06351000  1.0
  H  H46  1  0.95573000  0.19916000  0.56351000  1.0
  H  H47  1  0.95573000  0.80084000  0.43649000  1.0
  H  H48  1  0.11857000  0.36012000  0.79954000  1.0
  H  H49  1  0.11857000  0.63988000  0.20046000  1.0
  H  H50  1  0.88143000  0.86012000  0.70046000  1.0
  H  H51  1  0.88143000  0.13988000  0.29954000  1.0
  H  H52  1  0.90504000  0.46351000  0.83511000  1.0
  H  H53  1  0.90504000  0.53649000  0.16489000  1.0
  H  H54  1  0.09496000  0.96351000  0.66489000  1.0
  H  H55  1  0.09496000  0.03649000  0.33511000  1.0
  H  H56  1  0.88364000  0.19036000  0.93390000  1.0
  H  H57  1  0.88364000  0.80964000  0.06610000  1.0
  H  H58  1  0.11636000  0.69036000  0.56610000  1.0
  H  H59  1  0.11636000  0.30964000  0.43390000  1.0
  H  H60  1  0.66162000  0.28408000  0.97486000  1.0
  H  H61  1  0.66162000  0.71592000  0.02514000  1.0
  H  H62  1  0.33838000  0.78408000  0.52514000  1.0
  H  H63  1  0.33838000  0.21592000  0.47486000  1.0
  H  H64  1  0.41993000  0.13077000  0.70946000  1.0
  H  H65  1  0.41993000  0.86923000  0.29054000  1.0
  H  H66  1  0.58007000  0.63077000  0.79054000  1.0
  H  H67  1  0.58007000  0.36923000  0.20946000  1.0
  C  C68  1  0.44066000  0.50000000  0.00000000  1.0
  C  C69  1  0.55934000  0.00000000  0.50000000  1.0
  C  C70  1  0.54324000  0.31953000  0.67875000  1.0
  C  C71  1  0.54324000  0.68047000  0.32125000  1.0
  C  C72  1  0.45676000  0.81953000  0.82125000  1.0
  C  C73  1  0.45676000  0.18047000  0.17874000  1.0
  C  C74  1  0.33631000  0.50808000  0.92598000  1.0
  C  C75  1  0.33631000  0.49192000  0.07402000  1.0
  C  C76  1  0.66369000  0.00808000  0.57402000  1.0
  C  C77  1  0.66369000  0.99192000  0.42598000  1.0
  C  C78  1  0.71123000  0.36402000  0.56983000  1.0
  C  C79  1  0.71123000  0.63598000  0.43017000  1.0
  C  C80  1  0.28877000  0.86402000  0.93017000  1.0
  C  C81  1  0.28877000  0.13598000  0.06983000  1.0
  C  C82  1  0.55112000  0.39530000  0.71184000  1.0
  C  C83  1  0.55112000  0.60470000  0.28816000  1.0
  C  C84  1  0.44888000  0.89530000  0.78816000  1.0
  C  C85  1  0.44888000  0.10470000  0.21184000  1.0
  C  C86  1  0.72004000  0.43942000  0.60305000  1.0
  C  C87  1  0.72004000  0.56058000  0.39695000  1.0
  C  C88  1  0.27996000  0.93943000  0.89695000  1.0
  C  C89  1  0.27996000  0.06058000  0.10305000  1.0
  C  C90  1  0.62108000  0.30465000  0.60721000  1.0
  C  C91  1  0.62108000  0.69535000  0.39279000  1.0
  C  C92  1  0.37892000  0.80465000  0.89279000  1.0
  C  C93  1  0.37892000  0.19535000  0.10721000  1.0
  C  C94  1  0.44977000  0.25473000  0.71825000  1.0
  C  C95  1  0.44977000  0.74527000  0.28175000  1.0
  C  C96  1  0.55023000  0.75473000  0.78175000  1.0
  C  C97  1  0.55023000  0.24527000  0.21825000  1.0
  C  C98  1  0.77063000  0.38277000  0.90983000  1.0
  C  C99  1  0.77063000  0.61723000  0.09017000  1.0
  C  C100  1  0.22937000  0.88277000  0.59017000  1.0
  C  C101  1  0.22937000  0.11723000  0.40983000  1.0
  C  C102  1  0.79461000  0.34860000  0.49301000  1.0
  C  C103  1  0.79462000  0.65140000  0.50699000  1.0
  C  C104  1  0.20538000  0.84860000  0.00699000  1.0
  C  C105  1  0.20538000  0.15140000  0.99301000  1.0
  C  C106  1  0.63712000  0.45565000  0.67323000  1.0
  C  C107  1  0.63712000  0.54435000  0.32677000  1.0
  C  C108  1  0.36288000  0.95565000  0.82677000  1.0
  C  C109  1  0.36288000  0.04435000  0.17323000  1.0
  C  C110  1  0.14824000  0.60173000  0.87060000  1.0
  C  C111  1  0.14824000  0.39827000  0.12940000  1.0
  C  C112  1  0.85176000  0.10173000  0.62940000  1.0
  C  C113  1  0.85176000  0.89827000  0.37060000  1.0
  C  C114  1  0.04794000  0.59259000  0.73914000  1.0
  C  C115  1  0.04793000  0.40741000  0.26086000  1.0
  C  C116  1  0.95207000  0.09259000  0.76086000  1.0
  C  C117  1  0.95207000  0.90741000  0.23914000  1.0
  C  C118  1  0.54699000  0.42533000  0.99097000  1.0
  C  C119  1  0.54699000  0.57467000  0.00903000  1.0
  C  C120  1  0.45301000  0.92533000  0.50903000  1.0
  C  C121  1  0.45301000  0.07467000  0.49097000  1.0
  C  C122  1  0.15161000  0.56421000  0.79747000  1.0
  C  C123  1  0.15161000  0.43579000  0.20253000  1.0
  C  C124  1  0.84839000  0.06421000  0.70253000  1.0
  C  C125  1  0.84839000  0.93579000  0.29747000  1.0
  C  C126  1  0.94831000  0.69261000  0.81899000  1.0
  C  C127  1  0.94831000  0.30739000  0.18101000  1.0
  C  C128  1  0.05169000  0.19261000  0.68101000  1.0
  C  C129  1  0.05169000  0.80739000  0.31899000  1.0
  C  C130  1  0.04574000  0.66809000  0.88078000  1.0
  C  C131  1  0.04573000  0.33191000  0.11922000  1.0
  C  C132  1  0.95427000  0.16809000  0.61922000  1.0
  C  C133  1  0.95427000  0.83191000  0.38078000  1.0
  C  C134  1  0.01464000  0.34679000  0.83815000  1.0
  C  C135  1  0.01464000  0.65321000  0.16185000  1.0
  C  C136  1  0.98536000  0.84679000  0.66185000  1.0
  C  C137  1  0.98536000  0.15321000  0.33815000  1.0
  C  C138  1  0.89843000  0.40351000  0.85804000  1.0
  C  C139  1  0.89843000  0.59649000  0.14196000  1.0
  C  C140  1  0.10157000  0.90351000  0.64196000  1.0
  C  C141  1  0.10157000  0.09649000  0.35804000  1.0
  C  C142  1  0.88199000  0.25145000  0.91314000  1.0
  C  C143  1  0.88199000  0.74855000  0.08686000  1.0
  C  C144  1  0.11801000  0.75145000  0.58686000  1.0
  C  C145  1  0.11801000  0.24855000  0.41314000  1.0
  C  C146  1  0.64117000  0.53889000  0.70356000  1.0
  C  C147  1  0.64117000  0.46111000  0.29644000  1.0
  C  C148  1  0.35884000  0.03889000  0.79644000  1.0
  C  C149  1  0.35884000  0.96111000  0.20356000  1.0
  C  C150  1  0.76060000  0.30453000  0.93677000  1.0
  C  C151  1  0.76060000  0.69547000  0.06323000  1.0
  C  C152  1  0.23940000  0.80453000  0.56323000  1.0
  C  C153  1  0.23940000  0.19547000  0.43677000  1.0
  N  N154  1  0.00822000  0.27215000  0.86599000  1.0
  N  N155  1  0.00822000  0.72785000  0.13401000  1.0
  N  N156  1  0.99178000  0.77215000  0.63401000  1.0
  N  N157  1  0.99178000  0.22785000  0.36599000  1.0
  N  N158  1  0.94649000  0.65491000  0.74955000  1.0
  N  N159  1  0.94649000  0.34509000  0.25045000  1.0
  N  N160  1  0.05351000  0.15491000  0.75045000  1.0
  N  N161  1  0.05351000  0.84509000  0.24955000  1.0
  O  O162  1  0.46569000  0.18599000  0.68326000  1.0
  O  O163  1  0.46569000  0.81401000  0.31674000  1.0
  O  O164  1  0.53430000  0.68599000  0.81674000  1.0
  O  O165  1  0.53431000  0.31401000  0.18326000  1.0
  O  O166  1  0.36418000  0.26845000  0.77751000  1.0
  O  O167  1  0.36418000  0.73155000  0.22249000  1.0
  O  O168  1  0.63582000  0.76845000  0.72249000  1.0
  O  O169  1  0.63582000  0.23155000  0.27751000  1.0
  O  O170  1  0.72802000  0.29270000  0.45120000  1.0
  O  O171  1  0.72802000  0.70730000  0.54880000  1.0
  O  O172  1  0.27197000  0.79270000  0.04880000  1.0
  O  O173  1  0.27197000  0.20730000  0.95120000  1.0
  O  O174  1  0.23697000  0.57864000  0.93325000  1.0
  O  O175  1  0.23697000  0.42136000  0.06675000  1.0
  O  O176  1  0.76303000  0.07864000  0.56675000  1.0
  O  O177  1  0.76303000  0.92136000  0.43325000  1.0
  O  O178  1  0.66539000  0.44112000  0.93014000  1.0
  O  O179  1  0.66538000  0.55888000  0.06986000  1.0
  O  O180  1  0.33461000  0.94112000  0.56986000  1.0
  O  O181  1  0.33461000  0.05888000  0.43014000  1.0
  O  O182  1  0.91714000  0.38941000  0.47304000  1.0
  O  O183  1  0.91714000  0.61059000  0.52697000  1.0
  O  O184  1  0.08286000  0.88941000  0.02697000  1.0
  O  O185  1  0.08286000  0.11059000  0.97303000  1.0
  O  O186  1  0.60360000  0.55186000  0.77498000  1.0
  O  O187  1  0.60360000  0.44814000  0.22502000  1.0
  O  O188  1  0.39640000  0.05186000  0.72502000  1.0
  O  O189  1  0.39640000  0.94814000  0.27498000  1.0
  O  O190  1  0.68141000  0.59157000  0.65423000  1.0
  O  O191  1  0.68141000  0.40843000  0.34577000  1.0
  O  O192  1  0.31859000  0.09156000  0.84577000  1.0
  O  O193  1  0.31859000  0.90844000  0.15423000  1.0
