# generated using pymatgen
data_DyH8C12(NO3)3
_symmetry_space_group_name_H-M   'P 1'
_cell_length_a   10.12280000
_cell_length_b   11.34390000
_cell_length_c   17.39830000
_cell_angle_alpha   90.00000000
_cell_angle_beta   90.00000000
_cell_angle_gamma   110.08500000
_symmetry_Int_Tables_number   1
_chemical_formula_structural   DyH8C12(NO3)3
_chemical_formula_sum   'Dy4 H32 C48 N12 O36'
_cell_volume   1876.37930355
_cell_formula_units_Z   4
loop_
 _symmetry_equiv_pos_site_id
 _symmetry_equiv_pos_as_xyz
  1  'x, y, z'
loop_
 _atom_site_type_symbol
 _atom_site_label
 _atom_site_symmetry_multiplicity
 _atom_site_fract_x
 _atom_site_fract_y
 _atom_site_fract_z
 _atom_site_occupancy
  Dy  Dy0  1  0.48414000  0.31716000  0.49337000  1.0
  Dy  Dy1  1  0.51586000  0.18284000  0.99337000  1.0
  Dy  Dy2  1  0.51586000  0.68284000  0.50663000  1.0
  Dy  Dy3  1  0.48414000  0.81716000  0.00663000  1.0
  H  H4  1  0.80901000  0.47973000  0.63156000  1.0
  H  H5  1  0.19099000  0.02027000  0.13156000  1.0
  H  H6  1  0.19099000  0.52027000  0.36844000  1.0
  H  H7  1  0.80901000  0.97973000  0.86844000  1.0
  H  H8  1  0.39889000  0.84557000  0.28511000  1.0
  H  H9  1  0.60111000  0.65443000  0.78511000  1.0
  H  H10  1  0.60111000  0.15443000  0.71489000  1.0
  H  H11  1  0.39889000  0.34557000  0.21489000  1.0
  H  H12  1  0.02441000  0.20304000  0.50358000  1.0
  H  H13  1  0.97559000  0.29696000  0.00358000  1.0
  H  H14  1  0.97559000  0.79696000  0.49642000  1.0
  H  H15  1  0.02441000  0.70304000  0.99642000  1.0
  H  H16  1  0.60830000  0.20882000  0.18124000  1.0
  H  H17  1  0.39170000  0.29118000  0.68124000  1.0
  H  H18  1  0.39170000  0.79118000  0.81876000  1.0
  H  H19  1  0.60830000  0.70882000  0.31876000  1.0
  H  H20  1  0.07470000  0.55714000  0.61295000  1.0
  H  H21  1  0.92530000  0.94286000  0.11295000  1.0
  H  H22  1  0.92530000  0.44286000  0.38705000  1.0
  H  H23  1  0.07470000  0.05714000  0.88705000  1.0
  H  H24  1  0.65793000  0.29781000  0.31521000  1.0
  H  H25  1  0.34207000  0.20219000  0.81521000  1.0
  H  H26  1  0.34207000  0.70219000  0.68479000  1.0
  H  H27  1  0.65793000  0.79781000  0.18479000  1.0
  H  H28  1  0.76380000  0.14307000  0.52315000  1.0
  H  H29  1  0.23620000  0.35693000  0.02315000  1.0
  H  H30  1  0.23620000  0.85693000  0.47685000  1.0
  H  H31  1  0.76380000  0.64307000  0.97685000  1.0
  H  H32  1  0.45229000  0.95104000  0.41394000  1.0
  H  H33  1  0.54771000  0.54896000  0.91394000  1.0
  H  H34  1  0.54771000  0.04895000  0.58606000  1.0
  H  H35  1  0.45229000  0.45105000  0.08606000  1.0
  C  C36  1  0.86526000  0.42462000  0.60452000  1.0
  C  C37  1  0.13474000  0.07538000  0.10452000  1.0
  C  C38  1  0.13474000  0.57538000  0.39548000  1.0
  C  C39  1  0.86526000  0.92462000  0.89548000  1.0
  C  C40  1  0.46836000  0.96041000  0.14445000  1.0
  C  C41  1  0.53164000  0.53960000  0.64445000  1.0
  C  C42  1  0.53164000  0.03959000  0.85555000  1.0
  C  C43  1  0.46836000  0.46041000  0.35555000  1.0
  C  C44  1  0.45323000  0.94646000  0.28859000  1.0
  C  C45  1  0.54677000  0.55354000  0.78859000  1.0
  C  C46  1  0.54677000  0.05354000  0.71141000  1.0
  C  C47  1  0.45323000  0.44646000  0.21141000  1.0
  C  C48  1  0.98184000  0.26740000  0.53235000  1.0
  C  C49  1  0.01816000  0.23260000  0.03235000  1.0
  C  C50  1  0.01816000  0.73260000  0.46765000  1.0
  C  C51  1  0.98184000  0.76740000  0.96765000  1.0
  C  C52  1  0.57065000  0.14798000  0.23080000  1.0
  C  C53  1  0.42935000  0.35202000  0.73080000  1.0
  C  C54  1  0.42935000  0.85202000  0.76920000  1.0
  C  C55  1  0.57065000  0.64798000  0.26920000  1.0
  C  C56  1  0.00912000  0.46394000  0.59390000  1.0
  C  C57  1  0.99088000  0.03606000  0.09390000  1.0
  C  C58  1  0.99088000  0.53606000  0.40610000  1.0
  C  C59  1  0.00912000  0.96394000  0.90610000  1.0
  C  C60  1  0.22375000  0.43113000  0.53623000  1.0
  C  C61  1  0.77625000  0.06887000  0.03623000  1.0
  C  C62  1  0.77625000  0.56887000  0.46377000  1.0
  C  C63  1  0.22375000  0.93112000  0.96377000  1.0
  C  C64  1  0.06988000  0.38630000  0.55602000  1.0
  C  C65  1  0.93012000  0.11370000  0.05602000  1.0
  C  C66  1  0.93012000  0.61370000  0.44398000  1.0
  C  C67  1  0.06988000  0.88630000  0.94398000  1.0
  C  C68  1  0.59990000  0.19968000  0.30334000  1.0
  C  C69  1  0.40010000  0.30032000  0.80334000  1.0
  C  C70  1  0.40011000  0.80032000  0.69666000  1.0
  C  C71  1  0.59989000  0.69968000  0.19666000  1.0
  C  C72  1  0.49579000  0.01937000  0.22226000  1.0
  C  C73  1  0.50421000  0.48063000  0.72226000  1.0
  C  C74  1  0.50421000  0.98063000  0.77774000  1.0
  C  C75  1  0.49579000  0.51937000  0.27774000  1.0
  C  C76  1  0.83825000  0.23160000  0.54290000  1.0
  C  C77  1  0.16175000  0.26840000  0.04290000  1.0
  C  C78  1  0.16175000  0.76840000  0.45710000  1.0
  C  C79  1  0.83825000  0.73160000  0.95710000  1.0
  C  C80  1  0.48160000  0.00192000  0.36023000  1.0
  C  C81  1  0.51840000  0.49808000  0.86023000  1.0
  C  C82  1  0.51840000  0.99808000  0.63977000  1.0
  C  C83  1  0.48160000  0.50192000  0.13977000  1.0
  N  N84  1  0.26620000  0.08860000  0.54118000  1.0
  N  N85  1  0.73380000  0.41140000  0.04118000  1.0
  N  N86  1  0.73380000  0.91140000  0.45882000  1.0
  N  N87  1  0.26620000  0.58859000  0.95882000  1.0
  N  N88  1  0.55358000  0.12702000  0.36696000  1.0
  N  N89  1  0.44642000  0.37298000  0.86696000  1.0
  N  N90  1  0.44642000  0.87298000  0.63304000  1.0
  N  N91  1  0.55358000  0.62702000  0.13304000  1.0
  N  N92  1  0.78114000  0.31075000  0.57726000  1.0
  N  N93  1  0.21886000  0.18925000  0.07726000  1.0
  N  N94  1  0.21886000  0.68925000  0.42274000  1.0
  N  N95  1  0.78114000  0.81075000  0.92274000  1.0
  O  O96  1  0.27029000  0.34998000  0.50832000  1.0
  O  O97  1  0.72971000  0.15003000  0.00832000  1.0
  O  O98  1  0.72971000  0.65002000  0.49168000  1.0
  O  O99  1  0.27029000  0.84997000  0.99168000  1.0
  O  O100  1  0.28739000  0.11288000  0.46945000  1.0
  O  O101  1  0.71261000  0.38712000  0.96945000  1.0
  O  O102  1  0.71261000  0.88712000  0.53055000  1.0
  O  O103  1  0.28739000  0.61288000  0.03055000  1.0
  O  O104  1  0.29268000  0.54725000  0.54692000  1.0
  O  O105  1  0.70732000  0.95275000  0.04692000  1.0
  O  O106  1  0.70732000  0.45275000  0.45308000  1.0
  O  O107  1  0.29268000  0.04725000  0.95308000  1.0
  O  O108  1  0.64385000  0.27727000  0.58443000  1.0
  O  O109  1  0.35615000  0.22273000  0.08443000  1.0
  O  O110  1  0.35615000  0.72273000  0.41557000  1.0
  O  O111  1  0.64385000  0.77727000  0.91557000  1.0
  O  O112  1  0.58117000  0.17739000  0.43596000  1.0
  O  O113  1  0.41883000  0.32261000  0.93596000  1.0
  O  O114  1  0.41883000  0.82261000  0.56404000  1.0
  O  O115  1  0.58117000  0.67739000  0.06404000  1.0
  O  O116  1  0.43681000  0.84213000  0.13843000  1.0
  O  O117  1  0.56319000  0.65787000  0.63843000  1.0
  O  O118  1  0.56318000  0.15787000  0.86157000  1.0
  O  O119  1  0.43681000  0.34213000  0.36157000  1.0
  O  O120  1  0.48191000  0.03046000  0.08556000  1.0
  O  O121  1  0.51809000  0.46955000  0.58556000  1.0
  O  O122  1  0.51809000  0.96954000  0.91444000  1.0
  O  O123  1  0.48191000  0.53046000  0.41444000  1.0
  O  O124  1  0.35397000  0.16656000  0.58750000  1.0
  O  O125  1  0.64603000  0.33344000  0.08750000  1.0
  O  O126  1  0.64603000  0.83344000  0.41250000  1.0
  O  O127  1  0.35397000  0.66656000  0.91250000  1.0
  O  O128  1  0.16996000  0.99659000  0.56574000  1.0
  O  O129  1  0.83004000  0.50341000  0.06574000  1.0
  O  O130  1  0.83004000  0.00341000  0.43426000  1.0
  O  O131  1  0.16996000  0.49659000  0.93426000  1.0
