# generated using pymatgen
data_HgH7C7(IN)2
_symmetry_space_group_name_H-M   'P 1'
_cell_length_a   8.03185000
_cell_length_b   11.73000000
_cell_length_c   13.07550000
_cell_angle_alpha   74.08900000
_cell_angle_beta   89.99710000
_cell_angle_gamma   70.00600000
_symmetry_Int_Tables_number   1
_chemical_formula_structural   HgH7C7(IN)2
_chemical_formula_sum   'Hg4 H28 C28 I8 N8'
_cell_volume   1107.29306278
_cell_formula_units_Z   4
loop_
 _symmetry_equiv_pos_site_id
 _symmetry_equiv_pos_as_xyz
  1  'x, y, z'
loop_
 _atom_site_type_symbol
 _atom_site_label
 _atom_site_symmetry_multiplicity
 _atom_site_fract_x
 _atom_site_fract_y
 _atom_site_fract_z
 _atom_site_occupancy
  Hg  Hg0  1  0.11992000  0.84601000  0.43080000  1.0
  Hg  Hg1  1  0.96692000  0.15343000  0.06945000  1.0
  Hg  Hg2  1  0.88009000  0.15399000  0.56920000  1.0
  Hg  Hg3  1  0.03309000  0.84657000  0.93055000  1.0
  H  H4  1  0.77983000  0.66939000  0.17604000  1.0
  H  H5  1  0.44940000  0.33051000  0.32367000  1.0
  H  H6  1  0.22018000  0.33061000  0.82395000  1.0
  H  H7  1  0.55060000  0.66948000  0.67633000  1.0
  H  H8  1  0.94845000  0.43725000  0.25726000  1.0
  H  H9  1  0.38625000  0.56263000  0.24211000  1.0
  H  H10  1  0.05155000  0.56275000  0.74275000  1.0
  H  H11  1  0.61374000  0.43737000  0.75789000  1.0
  H  H12  1  0.18049000  0.36827000  0.41198000  1.0
  H  H13  1  0.54973000  0.63129000  0.08753000  1.0
  H  H14  1  0.81950000  0.63173000  0.58802000  1.0
  H  H15  1  0.45026000  0.36871000  0.91247000  1.0
  H  H16  1  0.24142000  0.53487000  0.47502000  1.0
  H  H17  1  0.77728000  0.46457000  0.02478000  1.0
  H  H18  1  0.75858000  0.46514000  0.52499000  1.0
  H  H19  1  0.22271000  0.53542000  0.97522000  1.0
  H  H20  1  0.61915000  0.01189000  0.12324000  1.0
  H  H21  1  0.63104000  0.98790000  0.37682000  1.0
  H  H22  1  0.38085000  0.98811000  0.87677000  1.0
  H  H23  1  0.36897000  0.01209000  0.62318000  1.0
  H  H24  1  0.56786000  0.87472000  0.18626000  1.0
  H  H25  1  0.44299000  0.12520000  0.31365000  1.0
  H  H26  1  0.43214000  0.12528000  0.81374000  1.0
  H  H27  1  0.55701000  0.87480000  0.68635000  1.0
  H  H28  1  0.71321000  0.87091000  0.08460000  1.0
  H  H29  1  0.58449000  0.12901000  0.41534000  1.0
  H  H30  1  0.28679000  0.12909000  0.91540000  1.0
  H  H31  1  0.41552000  0.87099000  0.58466000  1.0
  C  C32  1  0.92023000  0.72382000  0.28449000  1.0
  C  C33  1  0.64497000  0.27581000  0.21558000  1.0
  C  C34  1  0.07976000  0.27618000  0.71551000  1.0
  C  C35  1  0.35503000  0.72419000  0.78442000  1.0
  C  C36  1  0.88115000  0.63646000  0.24317000  1.0
  C  C37  1  0.51826000  0.36322000  0.25669000  1.0
  C  C38  1  0.11885000  0.36354000  0.75683000  1.0
  C  C39  1  0.48174000  0.63678000  0.74330000  1.0
  C  C40  1  0.97556000  0.50723000  0.28815000  1.0
  C  C41  1  0.48366000  0.49245000  0.21158000  1.0
  C  C42  1  0.02444000  0.49277000  0.71185000  1.0
  C  C43  1  0.51634000  0.50755000  0.78842000  1.0
  C  C44  1  0.10578000  0.46844000  0.37336000  1.0
  C  C45  1  0.57522000  0.53116000  0.12638000  1.0
  C  C46  1  0.89422000  0.53157000  0.62664000  1.0
  C  C47  1  0.42477000  0.46884000  0.87362000  1.0
  C  C48  1  0.13813000  0.56096000  0.40973000  1.0
  C  C49  1  0.70025000  0.43856000  0.09021000  1.0
  C  C50  1  0.86186000  0.43904000  0.59027000  1.0
  C  C51  1  0.29974000  0.56144000  0.90979000  1.0
  C  C52  1  0.82597000  0.86210000  0.23719000  1.0
  C  C53  1  0.68860000  0.13755000  0.26285000  1.0
  C  C54  1  0.17404000  0.13790000  0.76281000  1.0
  C  C55  1  0.31141000  0.86244000  0.73715000  1.0
  C  C56  1  0.67412000  0.90842000  0.15286000  1.0
  C  C57  1  0.58286000  0.09140000  0.34714000  1.0
  C  C58  1  0.32589000  0.09158000  0.84715000  1.0
  C  C59  1  0.41715000  0.90860000  0.65286000  1.0
  I  I60  1  0.91355000  0.86135000  0.59939000  1.0
  I  I61  1  0.77498000  0.13927000  0.90055000  1.0
  I  I62  1  0.08645000  0.13864000  0.40060000  1.0
  I  I63  1  0.22502000  0.86074000  0.09945000  1.0
  I  I64  1  0.47561000  0.74629000  0.41100000  1.0
  I  I65  1  0.22303000  0.25312000  0.08930000  1.0
  I  I66  1  0.52440000  0.25369000  0.58901000  1.0
  I  I67  1  0.77696000  0.74689000  0.91070000  1.0
  N  N68  1  0.04740000  0.68468000  0.36666000  1.0
  N  N69  1  0.73321000  0.31485000  0.13347000  1.0
  N  N70  1  0.95260000  0.31532000  0.63334000  1.0
  N  N71  1  0.26678000  0.68515000  0.86652000  1.0
  N  N72  1  0.88201000  0.93651000  0.27316000  1.0
  N  N73  1  0.81891000  0.06305000  0.22691000  1.0
  N  N74  1  0.11800000  0.06349000  0.72684000  1.0
  N  N75  1  0.18109000  0.93696000  0.77309000  1.0
