# generated using pymatgen
data_KH30C19(NO3)3
_symmetry_space_group_name_H-M   'P 1'
_cell_length_a   8.03464000
_cell_length_b   9.87532000
_cell_length_c   15.17500000
_cell_angle_alpha   90.00000000
_cell_angle_beta   90.00000000
_cell_angle_gamma   101.80800000
_symmetry_Int_Tables_number   1
_chemical_formula_structural   KH30C19(NO3)3
_chemical_formula_sum   'K2 H60 C38 N6 O18'
_cell_volume   1178.57571284
_cell_formula_units_Z   2
loop_
 _symmetry_equiv_pos_site_id
 _symmetry_equiv_pos_as_xyz
  1  'x, y, z'
loop_
 _atom_site_type_symbol
 _atom_site_label
 _atom_site_symmetry_multiplicity
 _atom_site_fract_x
 _atom_site_fract_y
 _atom_site_fract_z
 _atom_site_occupancy
  K  K0  1  0.87649000  0.05839000  0.85627000  1.0
  K  K1  1  0.12351000  0.94161000  0.35627000  1.0
  H  H2  1  0.19284000  0.71686000  0.89660000  1.0
  H  H3  1  0.80716000  0.28314000  0.39660000  1.0
  H  H4  1  0.00083000  0.74518000  0.94731000  1.0
  H  H5  1  0.99918000  0.25482000  0.44731000  1.0
  H  H6  1  0.07540000  0.75416000  0.74847000  1.0
  H  H7  1  0.92460000  0.24584000  0.24847000  1.0
  H  H8  1  0.95634000  0.60920000  0.80676000  1.0
  H  H9  1  0.04366000  0.39080000  0.30676000  1.0
  H  H10  1  0.69824000  0.62531000  0.72271000  1.0
  H  H11  1  0.30176000  0.37469000  0.22271000  1.0
  H  H12  1  0.82545000  0.76560000  0.66298000  1.0
  H  H13  1  0.17455000  0.23440000  0.16298000  1.0
  H  H14  1  0.51699000  0.76829000  0.66210000  1.0
  H  H15  1  0.48301000  0.23171000  0.16210000  1.0
  H  H16  1  0.51822000  0.78322000  0.77975000  1.0
  H  H17  1  0.48178000  0.21678000  0.27975000  1.0
  H  H18  1  0.46492000  0.00678000  0.63695000  1.0
  H  H19  1  0.53507000  0.99322000  0.13694000  1.0
  H  H20  1  0.42116000  0.99070000  0.75276000  1.0
  H  H21  1  0.57883000  0.00930000  0.25276000  1.0
  H  H22  1  0.70205000  0.21420000  0.67187000  1.0
  H  H23  1  0.29795000  0.78580000  0.17186000  1.0
  H  H24  1  0.49037000  0.23622000  0.69339000  1.0
  H  H25  1  0.50963000  0.76378000  0.19339000  1.0
  H  H26  1  0.56604000  0.40279000  0.81735000  1.0
  H  H27  1  0.43396000  0.59720000  0.31735000  1.0
  H  H28  1  0.76945000  0.40401000  0.76829000  1.0
  H  H29  1  0.23054000  0.59598000  0.26828000  1.0
  H  H30  1  0.77905000  0.49349000  0.92454000  1.0
  H  H31  1  0.22095000  0.50651000  0.42453000  1.0
  H  H32  1  0.68164000  0.32507000  0.96129000  1.0
  H  H33  1  0.31836000  0.67493000  0.46129000  1.0
  H  H34  1  0.95237000  0.32256000  0.04140000  1.0
  H  H35  1  0.04763000  0.67744000  0.54140000  1.0
  H  H36  1  0.05194000  0.48638000  0.99562000  1.0
  H  H37  1  0.94805000  0.51363000  0.49562000  1.0
  H  H38  1  0.24567000  0.36269000  0.90815000  1.0
  H  H39  1  0.75433000  0.63731000  0.40815000  1.0
  H  H40  1  0.27901000  0.36730000  0.02392000  1.0
  H  H41  1  0.72099000  0.63270000  0.52392000  1.0
  H  H42  1  0.35761000  0.15962000  0.89182000  1.0
  H  H43  1  0.64239000  0.84038000  0.39182000  1.0
  H  H44  1  0.40058000  0.15954000  0.00709000  1.0
  H  H45  1  0.59943000  0.84047000  0.50709000  1.0
  H  H46  1  0.37836000  0.92746000  0.95315000  1.0
  H  H47  1  0.62165000  0.07254000  0.45315000  1.0
  H  H48  1  0.19699000  0.93027000  0.02115000  1.0
  H  H49  1  0.80301000  0.06973000  0.52115000  1.0
  H  H50  1  0.09930000  0.43151000  0.76036000  1.0
  H  H51  1  0.90070000  0.56849000  0.26036000  1.0
  H  H52  1  0.15021000  0.56155000  0.67579000  1.0
  H  H53  1  0.84979000  0.43845000  0.17579000  1.0
  H  H54  1  0.31041000  0.53142000  0.74991000  1.0
  H  H55  1  0.68960000  0.46858000  0.24991000  1.0
  H  H56  1  0.10803000  0.98106000  0.69728000  1.0
  H  H57  1  0.89196000  0.01894000  0.19728000  1.0
  H  H58  1  0.17911000  0.93371000  0.59114000  1.0
  H  H59  1  0.82089000  0.06629000  0.09114000  1.0
  H  H60  1  0.97459000  0.97455000  0.60285000  1.0
  H  H61  1  0.02540000  0.02545000  0.10285000  1.0
  C  C62  1  0.08648000  0.77128000  0.88981000  1.0
  C  C63  1  0.91353000  0.22872000  0.38981000  1.0
  C  C64  1  0.99153000  0.72338000  0.80609000  1.0
  C  C65  1  0.00847000  0.27662000  0.30609000  1.0
  C  C66  1  0.74595000  0.73846000  0.72246000  1.0
  C  C67  1  0.25405000  0.26154000  0.22246000  1.0
  C  C68  1  0.59595000  0.80830000  0.71971000  1.0
  C  C69  1  0.40405000  0.19170000  0.21971000  1.0
  C  C70  1  0.52168000  0.02671000  0.70326000  1.0
  C  C71  1  0.47832000  0.97329000  0.20325000  1.0
  C  C72  1  0.58904000  0.17993000  0.71408000  1.0
  C  C73  1  0.41095000  0.82006000  0.21407000  1.0
  C  C74  1  0.67949000  0.35558000  0.81989000  1.0
  C  C75  1  0.32051000  0.64442000  0.31989000  1.0
  C  C76  1  0.76274000  0.38212000  0.90909000  1.0
  C  C77  1  0.23726000  0.61787000  0.40908000  1.0
  C  C78  1  0.02310000  0.37344000  0.98361000  1.0
  C  C79  1  0.97691000  0.62656000  0.48361000  1.0
  C  C80  1  0.18762000  0.32432000  0.97168000  1.0
  C  C81  1  0.81238000  0.67568000  0.47168000  1.0
  C  C82  1  0.30281000  0.12286000  0.95641000  1.0
  C  C83  1  0.69719000  0.87714000  0.45641000  1.0
  C  C84  1  0.25968000  0.96697000  0.95812000  1.0
  C  C85  1  0.74032000  0.03304000  0.45812000  1.0
  C  C86  1  0.14464000  0.24142000  0.66433000  1.0
  C  C87  1  0.85536000  0.75859000  0.16433000  1.0
  C  C88  1  0.35611000  0.42017000  0.58776000  1.0
  C  C89  1  0.64389000  0.57983000  0.08776000  1.0
  C  C90  1  0.37995000  0.31520000  0.52654000  1.0
  C  C91  1  0.62005000  0.68480000  0.02654000  1.0
  C  C92  1  0.29900000  0.17304000  0.53577000  1.0
  C  C93  1  0.70101000  0.82696000  0.03577000  1.0
  C  C94  1  0.19608000  0.48202000  0.71377000  1.0
  C  C95  1  0.80392000  0.51798000  0.21377000  1.0
  C  C96  1  0.48953000  0.35461000  0.45502000  1.0
  C  C97  1  0.51047000  0.64539000  0.95502000  1.0
  C  C98  1  0.10637000  0.99903000  0.62615000  1.0
  C  C99  1  0.89363000  0.00097000  0.12615000  1.0
  N  N100  1  0.23308000  0.37638000  0.65382000  1.0
  N  N101  1  0.76692000  0.62362000  0.15382000  1.0
  N  N102  1  0.18655000  0.14289000  0.60805000  1.0
  N  N103  1  0.81345000  0.85711000  0.10805000  1.0
  N  N104  1  0.57978000  0.38925000  0.39482000  1.0
  N  N105  1  0.42023000  0.61075000  0.89482000  1.0
  O  O106  1  0.14844000  0.91782000  0.88583000  1.0
  O  O107  1  0.85156000  0.08219000  0.38582000  1.0
  O  O108  1  0.84379000  0.78157000  0.80000000  1.0
  O  O109  1  0.15621000  0.21843000  0.30000000  1.0
  O  O110  1  0.65740000  0.95486000  0.71354000  1.0
  O  O111  1  0.34260000  0.04514000  0.21354000  1.0
  O  O112  1  0.63322000  0.20992000  0.80431000  1.0
  O  O113  1  0.36678000  0.79008000  0.30430000  1.0
  O  O114  1  0.92384000  0.34211000  0.90544000  1.0
  O  O115  1  0.07616000  0.65789000  0.40544000  1.0
  O  O116  1  0.15311000  0.17602000  0.97349000  1.0
  O  O117  1  0.84689000  0.82398000  0.47349000  1.0
  O  O118  1  0.03465000  0.20825000  0.72202000  1.0
  O  O119  1  0.96535000  0.79175000  0.22202000  1.0
  O  O120  1  0.32218000  0.07679000  0.48665000  1.0
  O  O121  1  0.67783000  0.92321000  0.98665000  1.0
  O  O122  1  0.43179000  0.54363000  0.58621000  1.0
  O  O123  1  0.56822000  0.45637000  0.08620000  1.0
