# generated using pymatgen
data_CuH8C6S2(Cl2O5)2
_symmetry_space_group_name_H-M   'P 1'
_cell_length_a   7.22261000
_cell_length_b   9.63784000
_cell_length_c   21.47810000
_cell_angle_alpha   90.00000000
_cell_angle_beta   90.00000000
_cell_angle_gamma   90.00000000
_symmetry_Int_Tables_number   1
_chemical_formula_structural   CuH8C6S2(Cl2O5)2
_chemical_formula_sum   'Cu4 H32 C24 S8 Cl16 O40'
_cell_volume   1495.09826372
_cell_formula_units_Z   4
loop_
 _symmetry_equiv_pos_site_id
 _symmetry_equiv_pos_as_xyz
  1  'x, y, z'
loop_
 _atom_site_type_symbol
 _atom_site_label
 _atom_site_symmetry_multiplicity
 _atom_site_fract_x
 _atom_site_fract_y
 _atom_site_fract_z
 _atom_site_occupancy
  Cu  Cu0  1  0.00000000  0.00000000  0.50000000  1.0
  Cu  Cu1  1  0.50000000  0.50000000  0.50000000  1.0
  Cu  Cu2  1  0.50000000  0.50000000  0.00000000  1.0
  Cu  Cu3  1  0.00000000  0.00000000  0.00000000  1.0
  H  H4  1  0.73401000  0.14219000  0.45424000  1.0
  H  H5  1  0.76599000  0.64219000  0.54576000  1.0
  H  H6  1  0.23402000  0.35781000  0.04576000  1.0
  H  H7  1  0.26599000  0.85781000  0.95424000  1.0
  H  H8  1  0.26599000  0.85781000  0.54576000  1.0
  H  H9  1  0.23401000  0.35781000  0.45424000  1.0
  H  H10  1  0.76599000  0.64219000  0.95424000  1.0
  H  H11  1  0.73402000  0.14219000  0.04576000  1.0
  H  H12  1  0.91942000  0.23196000  0.45331000  1.0
  H  H13  1  0.58058000  0.73196000  0.54669000  1.0
  H  H14  1  0.41943000  0.26804000  0.04669000  1.0
  H  H15  1  0.08057000  0.76804000  0.95331000  1.0
  H  H16  1  0.08058000  0.76804000  0.54669000  1.0
  H  H17  1  0.41943000  0.26804000  0.45331000  1.0
  H  H18  1  0.58058000  0.73196000  0.95331000  1.0
  H  H19  1  0.91943000  0.23196000  0.04669000  1.0
  H  H20  1  0.72330000  0.88064000  0.44090000  1.0
  H  H21  1  0.77670000  0.38064000  0.55910000  1.0
  H  H22  1  0.22331000  0.61936000  0.05910000  1.0
  H  H23  1  0.27669000  0.11936000  0.94090000  1.0
  H  H24  1  0.27669000  0.11936000  0.55910000  1.0
  H  H25  1  0.22331000  0.61936000  0.44090000  1.0
  H  H26  1  0.77669000  0.38064000  0.94090000  1.0
  H  H27  1  0.72331000  0.88064000  0.05910000  1.0
  H  H28  1  0.89817000  0.78005000  0.44030000  1.0
  H  H29  1  0.60182000  0.28006000  0.55970000  1.0
  H  H30  1  0.39818000  0.71995000  0.05970000  1.0
  H  H31  1  0.10182000  0.21994000  0.94030000  1.0
  H  H32  1  0.10183000  0.21995000  0.55970000  1.0
  H  H33  1  0.39818000  0.71994000  0.44030000  1.0
  H  H34  1  0.60183000  0.28005000  0.94030000  1.0
  H  H35  1  0.89818000  0.78006000  0.05970000  1.0
  C  C36  1  0.55910000  0.99583000  0.68410000  1.0
  C  C37  1  0.94090000  0.49583000  0.31590000  1.0
  C  C38  1  0.05910000  0.50417000  0.81590000  1.0
  C  C39  1  0.44090000  0.00416000  0.18410000  1.0
  C  C40  1  0.44089000  0.00417000  0.31591000  1.0
  C  C41  1  0.05910000  0.50417000  0.68410000  1.0
  C  C42  1  0.94090000  0.49583000  0.18410000  1.0
  C  C43  1  0.55910000  0.99583000  0.81591000  1.0
  C  C44  1  0.69486000  0.07043000  0.71722000  1.0
  C  C45  1  0.80514000  0.57043000  0.28278000  1.0
  C  C46  1  0.19486000  0.42957000  0.78278000  1.0
  C  C47  1  0.30514000  0.92957000  0.21722000  1.0
  C  C48  1  0.30514000  0.92957000  0.28278000  1.0
  C  C49  1  0.19486000  0.42957000  0.71722000  1.0
  C  C50  1  0.80514000  0.57043000  0.21722000  1.0
  C  C51  1  0.69486000  0.07043000  0.78278000  1.0
  C  C52  1  0.40845000  0.93907000  0.71703000  1.0
  C  C53  1  0.09154000  0.43907000  0.28297000  1.0
  C  C54  1  0.90846000  0.56093000  0.78297000  1.0
  C  C55  1  0.59155000  0.06093000  0.21703000  1.0
  C  C56  1  0.59154000  0.06093000  0.28297000  1.0
  C  C57  1  0.90845000  0.56093000  0.71703000  1.0
  C  C58  1  0.09154000  0.43907000  0.21703000  1.0
  C  C59  1  0.40846000  0.93907000  0.78297000  1.0
  S  S60  1  0.58524000  0.98002000  0.60031000  1.0
  S  S61  1  0.91476000  0.48002000  0.39969000  1.0
  S  S62  1  0.08524000  0.51998000  0.89969000  1.0
  S  S63  1  0.41476000  0.01998000  0.10031000  1.0
  S  S64  1  0.41476000  0.01998000  0.39969000  1.0
  S  S65  1  0.08524000  0.51998000  0.60031000  1.0
  S  S66  1  0.91476000  0.48002000  0.10031000  1.0
  S  S67  1  0.58524000  0.98002000  0.89969000  1.0
  Cl  Cl68  1  0.85618000  0.16977000  0.67954000  1.0
  Cl  Cl69  1  0.64382000  0.66977000  0.32046000  1.0
  Cl  Cl70  1  0.35618000  0.33023000  0.82046000  1.0
  Cl  Cl71  1  0.14382000  0.83023000  0.17954000  1.0
  Cl  Cl72  1  0.14381000  0.83023000  0.32046000  1.0
  Cl  Cl73  1  0.35618000  0.33023000  0.67954000  1.0
  Cl  Cl74  1  0.64382000  0.66977000  0.17954000  1.0
  Cl  Cl75  1  0.85618000  0.16977000  0.82046000  1.0
  Cl  Cl76  1  0.21422000  0.87723000  0.68052000  1.0
  Cl  Cl77  1  0.28578000  0.37723000  0.31948000  1.0
  Cl  Cl78  1  0.71422000  0.62277000  0.81948000  1.0
  Cl  Cl79  1  0.78578000  0.12277000  0.18052000  1.0
  Cl  Cl80  1  0.78578000  0.12277000  0.31948000  1.0
  Cl  Cl81  1  0.71422000  0.62277000  0.68052000  1.0
  Cl  Cl82  1  0.28578000  0.37723000  0.18052000  1.0
  Cl  Cl83  1  0.21422000  0.87723000  0.81948000  1.0
  O  O84  1  0.84982000  0.16119000  0.47805000  1.0
  O  O85  1  0.65018000  0.66119000  0.52195000  1.0
  O  O86  1  0.34983000  0.33881000  0.02195000  1.0
  O  O87  1  0.15017000  0.83881000  0.97805000  1.0
  O  O88  1  0.15018000  0.83881000  0.52195000  1.0
  O  O89  1  0.34983000  0.33880000  0.47805000  1.0
  O  O90  1  0.65017000  0.66119000  0.97805000  1.0
  O  O91  1  0.84983000  0.16120000  0.02195000  1.0
  O  O92  1  0.86083000  0.87880000  0.44181000  1.0
  O  O93  1  0.63917000  0.37881000  0.55819000  1.0
  O  O94  1  0.36083000  0.62120000  0.05819000  1.0
  O  O95  1  0.13917000  0.12119000  0.94181000  1.0
  O  O96  1  0.13917000  0.12120000  0.55819000  1.0
  O  O97  1  0.36083000  0.62119000  0.44181000  1.0
  O  O98  1  0.63917000  0.37880000  0.94181000  1.0
  O  O99  1  0.86083000  0.87881000  0.05819000  1.0
  O  O100  1  0.77994000  0.95475000  0.58873000  1.0
  O  O101  1  0.72006000  0.45475000  0.41127000  1.0
  O  O102  1  0.27994000  0.54525000  0.91126000  1.0
  O  O103  1  0.22006000  0.04525000  0.08873000  1.0
  O  O104  1  0.22006000  0.04525000  0.41127000  1.0
  O  O105  1  0.27994000  0.54525000  0.58873000  1.0
  O  O106  1  0.72006000  0.45475000  0.08873000  1.0
  O  O107  1  0.77994000  0.95475000  0.91127000  1.0
  O  O108  1  0.51165000  0.11061000  0.57401000  1.0
  O  O109  1  0.98835000  0.61061000  0.42599000  1.0
  O  O110  1  0.01165000  0.38939000  0.92599000  1.0
  O  O111  1  0.48836000  0.88938000  0.07401000  1.0
  O  O112  1  0.48835000  0.88939000  0.42599000  1.0
  O  O113  1  0.01165000  0.38939000  0.57401000  1.0
  O  O114  1  0.98835000  0.61062000  0.07401000  1.0
  O  O115  1  0.51165000  0.11061000  0.92599000  1.0
  O  O116  1  0.47022000  0.86047000  0.58126000  1.0
  O  O117  1  0.02978000  0.36047000  0.41874000  1.0
  O  O118  1  0.97021000  0.63953000  0.91874000  1.0
  O  O119  1  0.52978000  0.13953000  0.08126000  1.0
  O  O120  1  0.52978000  0.13953000  0.41874000  1.0
  O  O121  1  0.97022000  0.63953000  0.58126000  1.0
  O  O122  1  0.02978000  0.36047000  0.08126000  1.0
  O  O123  1  0.47022000  0.86047000  0.91874000  1.0
