# generated using pymatgen
data_Zn4H20C42N4O17
_symmetry_space_group_name_H-M   'P 1'
_cell_length_a   18.34720000
_cell_length_b   18.35230000
_cell_length_c   21.59664076
_cell_angle_alpha   115.13818659
_cell_angle_beta   115.12863884
_cell_angle_gamma   89.98860000
_symmetry_Int_Tables_number   1
_chemical_formula_structural   Zn4H20C42N4O17
_chemical_formula_sum   'Zn8 H40 C84 N8 O34'
_cell_volume   5814.25043414
_cell_formula_units_Z   2
loop_
 _symmetry_equiv_pos_site_id
 _symmetry_equiv_pos_as_xyz
  1  'x, y, z'
loop_
 _atom_site_type_symbol
 _atom_site_label
 _atom_site_symmetry_multiplicity
 _atom_site_fract_x
 _atom_site_fract_y
 _atom_site_fract_z
 _atom_site_occupancy
  Zn  Zn0  1  0.78256000  0.37016000  0.56534000  1.0
  Zn  Zn1  1  0.21743000  0.62983000  0.43465000  1.0
  Zn  Zn2  1  0.37028000  0.78288000  0.56545000  1.0
  Zn  Zn3  1  0.62972000  0.21711000  0.43453000  1.0
  Zn  Zn4  1  0.78274000  0.19523000  0.56550000  1.0
  Zn  Zn5  1  0.21726000  0.80477000  0.43449000  1.0
  Zn  Zn6  1  0.19509000  0.78257000  0.56535000  1.0
  Zn  Zn7  1  0.80490000  0.21741000  0.43464000  1.0
  H  H8  1  0.95007000  0.55379000  0.59840000  1.0
  H  H9  1  0.94048000  0.03919000  0.59101000  1.0
  H  H10  1  0.44844000  0.05967000  0.40914000  1.0
  H  H11  1  0.55156000  0.94029000  0.59083000  1.0
  H  H12  1  0.34942000  0.44846000  0.40933000  1.0
  H  H13  1  0.65057000  0.55154000  0.59066000  1.0
  H  H14  1  0.96095000  0.34954000  0.40899000  1.0
  H  H15  1  0.03904000  0.65045000  0.59100000  1.0
  H  H16  1  0.04992000  0.44620000  0.40159000  1.0
  H  H17  1  0.55433000  0.64832000  0.59831000  1.0
  H  H18  1  0.44567000  0.35169000  0.40169000  1.0
  H  H19  1  0.64832000  0.04420000  0.59842000  1.0
  H  H20  1  0.35169000  0.95577000  0.40156000  1.0
  H  H21  1  0.04441000  0.95008000  0.59842000  1.0
  H  H22  1  0.95557000  0.04989000  0.40159000  1.0
  H  H23  1  0.05952000  0.96079000  0.40900000  1.0
  H  H24  1  0.91659000  0.54243000  0.20179000  1.0
  H  H25  1  0.01165000  0.60319000  0.28838000  1.0
  H  H26  1  0.96753000  0.50389000  0.26933000  1.0
  H  H27  1  0.98834000  0.39683000  0.71166000  1.0
  H  H28  1  0.08341000  0.45759000  0.79823000  1.0
  H  H29  1  0.03245000  0.49611000  0.73067000  1.0
  H  H30  1  0.54188000  0.28530000  0.20205000  1.0
  H  H31  1  0.60279000  0.27669000  0.28854000  1.0
  H  H32  1  0.50330000  0.30129000  0.26949000  1.0
  H  H33  1  0.39723000  0.72330000  0.71151000  1.0
  H  H34  1  0.45816000  0.71476000  0.79804000  1.0
  H  H35  1  0.49674000  0.69871000  0.73059000  1.0
  H  H36  1  0.28573000  0.65867000  0.20187000  1.0
  H  H37  1  0.27717000  0.68448000  0.28845000  1.0
  H  H38  1  0.30223000  0.76474000  0.26940000  1.0
  H  H39  1  0.72285000  0.31553000  0.71154000  1.0
  H  H40  1  0.71421000  0.34130000  0.79807000  1.0
  H  H41  1  0.69778000  0.23523000  0.73054000  1.0
  H  H42  1  0.66010000  0.91686000  0.20166000  1.0
  H  H43  1  0.68563000  0.01176000  0.28832000  1.0
  H  H44  1  0.76611000  0.96807000  0.26926000  1.0
  H  H45  1  0.31435000  0.98816000  0.71163000  1.0
  H  H46  1  0.33985000  0.08313000  0.79824000  1.0
  H  H47  1  0.23386000  0.03184000  0.73065000  1.0
  C  C48  1  0.04125000  0.53047000  0.16485000  1.0
  C  C49  1  0.95872000  0.46955000  0.83516000  1.0
  C  C50  1  0.40544000  0.00023000  0.91709000  1.0
  C  C51  1  0.99947000  0.48844000  0.08284000  1.0
  C  C52  1  0.00050000  0.51159000  0.91717000  1.0
  C  C53  1  0.48845000  0.08332000  0.08287000  1.0
  C  C54  1  0.51158000  0.91671000  0.91712000  1.0
  C  C55  1  0.08364000  0.59407000  0.08289000  1.0
  C  C56  1  0.91633000  0.40597000  0.91712000  1.0
  C  C57  1  0.59461000  0.99982000  0.08290000  1.0
  C  C58  1  0.53058000  0.12364000  0.16488000  1.0
  C  C59  1  0.04927000  0.55379000  0.49580000  1.0
  C  C60  1  0.95073000  0.44621000  0.50420000  1.0
  C  C61  1  0.55358000  0.44634000  0.49564000  1.0
  C  C62  1  0.44642000  0.55368000  0.50435000  1.0
  C  C63  1  0.44640000  0.94206000  0.49568000  1.0
  C  C64  1  0.55360000  0.05793000  0.50431000  1.0
  C  C65  1  0.94201000  0.04927000  0.49576000  1.0
  C  C66  1  0.46943000  0.87638000  0.83511000  1.0
  C  C67  1  0.05797000  0.95070000  0.50424000  1.0
  C  C68  1  0.02074000  0.52061000  0.04138000  1.0
  C  C69  1  0.12397000  0.63382000  0.16488000  1.0
  C  C70  1  0.97922000  0.47944000  0.95864000  1.0
  C  C71  1  0.52074000  0.02077000  0.04138000  1.0
  C  C72  1  0.47930000  0.97928000  0.95862000  1.0
  C  C73  1  0.16854000  0.69716000  0.07790000  1.0
  C  C74  1  0.83143000  0.30288000  0.92210000  1.0
  C  C75  1  0.69816000  0.91051000  0.07786000  1.0
  C  C76  1  0.87600000  0.36622000  0.83513000  1.0
  C  C77  1  0.30193000  0.08959000  0.92214000  1.0
  C  C78  1  0.90939000  0.38047000  0.07775000  1.0
  C  C79  1  0.09057000  0.61956000  0.92226000  1.0
  C  C80  1  0.37989000  0.16766000  0.07777000  1.0
  C  C81  1  0.62018000  0.83240000  0.92223000  1.0
  C  C82  1  0.63451000  0.04161000  0.16493000  1.0
  C  C83  1  0.97678000  0.54025000  0.24312000  1.0
  C  C84  1  0.02321000  0.45977000  0.75691000  1.0
  C  C85  1  0.53981000  0.26618000  0.24326000  1.0
  C  C86  1  0.46021000  0.73384000  0.75680000  1.0
  C  C87  1  0.26683000  0.70216000  0.24318000  1.0
  C  C88  1  0.73317000  0.29783000  0.75679000  1.0
  C  C89  1  0.70342000  0.97711000  0.24307000  1.0
  C  C90  1  0.36551000  0.95842000  0.83507000  1.0
  C  C91  1  0.29655000  0.02284000  0.75687000  1.0
  C  C92  1  0.10294000  0.60250000  0.20558000  1.0
  C  C93  1  0.89702000  0.39752000  0.79442000  1.0
  C  C94  1  0.60291000  0.10301000  0.20563000  1.0
  C  C95  1  0.39710000  0.89700000  0.79436000  1.0
  C  C96  1  0.10483000  0.62549000  0.04048000  1.0
  C  C97  1  0.89514000  0.37454000  0.95953000  1.0
  C  C98  1  0.62608000  0.93634000  0.04042000  1.0
  C  C99  1  0.37397000  0.06373000  0.95957000  1.0
  C  C100  1  0.93566000  0.41479000  0.04036000  1.0
  C  C101  1  0.06431000  0.58524000  0.95965000  1.0
  C  C102  1  0.41445000  0.10425000  0.04041000  1.0
  C  C103  1  0.58558000  0.89578000  0.95958000  1.0
  C  C104  1  0.64632000  0.14652000  0.29268000  1.0
  C  C105  1  0.35367000  0.85348000  0.70731000  1.0
  C  C106  1  0.14645000  0.64609000  0.29262000  1.0
  C  C107  1  0.85353000  0.35393000  0.70738000  1.0
  C  C108  1  0.61110000  0.38898000  0.49247000  1.0
  C  C109  1  0.38891000  0.61103000  0.50753000  1.0
  C  C110  1  0.38915000  0.88137000  0.49258000  1.0
  C  C111  1  0.61086000  0.11862000  0.50742000  1.0
  C  C112  1  0.88128000  0.10343000  0.49269000  1.0
  C  C113  1  0.11872000  0.89656000  0.50735000  1.0
  C  C114  1  0.10341000  0.61144000  0.49272000  1.0
  C  C115  1  0.89659000  0.38856000  0.50729000  1.0
  C  C116  1  0.97236000  0.53093000  0.55567000  1.0
  C  C117  1  0.02763000  0.46905000  0.44431000  1.0
  C  C118  1  0.53123000  0.58332000  0.55561000  1.0
  C  C119  1  0.46877000  0.41668000  0.44437000  1.0
  C  C120  1  0.58332000  0.02451000  0.55568000  1.0
  C  C121  1  0.41668000  0.97548000  0.44431000  1.0
  C  C122  1  0.02464000  0.97236000  0.55568000  1.0
  C  C123  1  0.97534000  0.02761000  0.44432000  1.0
  C  C124  1  0.03310000  0.97849000  0.44855000  1.0
  C  C125  1  0.96688000  0.02147000  0.55145000  1.0
  C  C126  1  0.47014000  0.03319000  0.44862000  1.0
  C  C127  1  0.52986000  0.96680000  0.55137000  1.0
  C  C128  1  0.41541000  0.47019000  0.44873000  1.0
  C  C129  1  0.58459000  0.52982000  0.55125000  1.0
  C  C130  1  0.97857000  0.41546000  0.44852000  1.0
  C  C131  1  0.02142000  0.58453000  0.55147000  1.0
  N  N132  1  0.22026000  0.75332000  0.10142000  1.0
  N  N133  1  0.77971000  0.24672000  0.89859000  1.0
  N  N134  1  0.75480000  0.88287000  0.10152000  1.0
  N  N135  1  0.24531000  0.11726000  0.89848000  1.0
  N  N136  1  0.88123000  0.34792000  0.10138000  1.0
  N  N137  1  0.11871000  0.65214000  0.89863000  1.0
  N  N138  1  0.34683000  0.21903000  0.10118000  1.0
  N  N139  1  0.65324000  0.78106000  0.89882000  1.0
  O  O140  1  0.74996000  0.24995000  0.49999000  1.0
  O  O141  1  0.39702000  0.85409000  0.67455000  1.0
  O  O142  1  0.14609000  0.72224000  0.32541000  1.0
  O  O143  1  0.85389000  0.27779000  0.67460000  1.0
  O  O144  1  0.72241000  0.17996000  0.32562000  1.0
  O  O145  1  0.27758000  0.82001000  0.67437000  1.0
  O  O146  1  0.17965000  0.60281000  0.32552000  1.0
  O  O147  1  0.82032000  0.39720000  0.67447000  1.0
  O  O148  1  0.60295000  0.14590000  0.32543000  1.0
  O  O149  1  0.25004000  0.75005000  0.50000000  1.0
  O  O150  1  0.57921000  0.31271000  0.44350000  1.0
  O  O151  1  0.42080000  0.68729000  0.55651000  1.0
  O  O152  1  0.31290000  0.86409000  0.44347000  1.0
  O  O153  1  0.68712000  0.13585000  0.55651000  1.0
  O  O154  1  0.86403000  0.13059000  0.44358000  1.0
  O  O155  1  0.13595000  0.86938000  0.55644000  1.0
  O  O156  1  0.13086000  0.57960000  0.44383000  1.0
  O  O157  1  0.86915000  0.42042000  0.55619000  1.0
  O  O158  1  0.42104000  0.85181000  0.53952000  1.0
  O  O159  1  0.57898000  0.14818000  0.46049000  1.0
  O  O160  1  0.68762000  0.42080000  0.53927000  1.0
  O  O161  1  0.31239000  0.57922000  0.46073000  1.0
  O  O162  1  0.11823000  0.68792000  0.53949000  1.0
  O  O163  1  0.88176000  0.31207000  0.46052000  1.0
  O  O164  1  0.85178000  0.11855000  0.53969000  1.0
  O  O165  1  0.14826000  0.88146000  0.46037000  1.0
  O  O166  1  0.02184000  0.49752000  0.20308000  1.0
  O  O167  1  0.97815000  0.50251000  0.79694000  1.0
  O  O168  1  0.49737000  0.18100000  0.20307000  1.0
  O  O169  1  0.50263000  0.81901000  0.79693000  1.0
  O  O170  1  0.18175000  0.70488000  0.20312000  1.0
  O  O171  1  0.81824000  0.29514000  0.79690000  1.0
  O  O172  1  0.70588000  0.02243000  0.20316000  1.0
  O  O173  1  0.29413000  0.97759000  0.79684000  1.0
