# generated using pymatgen
data_NiH50C28(NO)4
_symmetry_space_group_name_H-M   'P 1'
_cell_length_a   8.80628000
_cell_length_b   10.05630000
_cell_length_c   10.28060000
_cell_angle_alpha   63.43830000
_cell_angle_beta   88.14420000
_cell_angle_gamma   66.32500000
_symmetry_Int_Tables_number   1
_chemical_formula_structural   NiH50C28(NO)4
_chemical_formula_sum   'Ni1 H50 C28 N4 O4'
_cell_volume   733.67017201
_cell_formula_units_Z   1
loop_
 _symmetry_equiv_pos_site_id
 _symmetry_equiv_pos_as_xyz
  1  'x, y, z'
loop_
 _atom_site_type_symbol
 _atom_site_label
 _atom_site_symmetry_multiplicity
 _atom_site_fract_x
 _atom_site_fract_y
 _atom_site_fract_z
 _atom_site_occupancy
  Ni  Ni0  1  0.50000000  0.00000000  0.50000000  1.0
  H  H1  1  0.47463000  0.09003000  0.69235000  1.0
  H  H2  1  0.52538000  0.90997000  0.30764000  1.0
  H  H3  1  0.23465000  0.98964000  0.48048000  1.0
  H  H4  1  0.76536000  0.01036000  0.51953000  1.0
  H  H5  1  0.33868000  0.39467000  0.56278000  1.0
  H  H6  1  0.66132000  0.60532000  0.43722000  1.0
  H  H7  1  0.30958000  0.38299000  0.39901000  1.0
  H  H8  1  0.69043000  0.61702000  0.60098000  1.0
  H  H9  1  0.14180000  0.23700000  0.50609000  1.0
  H  H10  1  0.85820000  0.76300000  0.49392000  1.0
  H  H11  1  0.23198000  0.16639000  0.82395000  1.0
  H  H12  1  0.76802000  0.83360000  0.17606000  1.0
  H  H13  1  0.13093000  0.36444000  0.66808000  1.0
  H  H14  1  0.86908000  0.63555000  0.33193000  1.0
  H  H15  1  0.92224000  0.28604000  0.81730000  1.0
  H  H16  1  0.07776000  0.71396000  0.18271000  1.0
  H  H17  1  0.88367000  0.31397000  0.63745000  1.0
  H  H18  1  0.11633000  0.68604000  0.36255000  1.0
  H  H19  1  0.86708000  0.05500000  0.82376000  1.0
  H  H20  1  0.13292000  0.94500000  0.17624000  1.0
  H  H21  1  0.07229000  0.98178000  0.91528000  1.0
  H  H22  1  0.92771000  0.01821000  0.08472000  1.0
  H  H23  1  0.98210000  0.05599000  0.59698000  1.0
  H  H24  1  0.01790000  0.94401000  0.40301000  1.0
  H  H25  1  0.07899000  0.85783000  0.75278000  1.0
  H  H26  1  0.92101000  0.14217000  0.24722000  1.0
  H  H27  1  0.32617000  0.91030000  0.78640000  1.0
  H  H28  1  0.67383000  0.08970000  0.21360000  1.0
  H  H29  1  0.23045000  0.73320000  0.63252000  1.0
  H  H30  1  0.76955000  0.26681000  0.36747000  1.0
  H  H31  1  0.43145000  0.57527000  0.54232000  1.0
  H  H32  1  0.56855000  0.42474000  0.45768000  1.0
  H  H33  1  0.34534000  0.78264000  0.40339000  1.0
  H  H34  1  0.65466000  0.21736000  0.59661000  1.0
  H  H35  1  0.39222000  0.64885000  0.86796000  1.0
  H  H36  1  0.60777000  0.35115000  0.13204000  1.0
  H  H37  1  0.57594000  0.63987000  0.78797000  1.0
  H  H38  1  0.42405000  0.36013000  0.21204000  1.0
  H  H39  1  0.49019000  0.49875000  0.80905000  1.0
  H  H40  1  0.50980000  0.50125000  0.19095000  1.0
  H  H41  1  0.96109000  0.72788000  0.95157000  1.0
  H  H42  1  0.03890000  0.27213000  0.04843000  1.0
  H  H43  1  0.04333000  0.65773000  0.74518000  1.0
  H  H44  1  0.95667000  0.34227000  0.25482000  1.0
  H  H45  1  0.93262000  0.53560000  0.79872000  1.0
  H  H46  1  0.06738000  0.46440000  0.20129000  1.0
  H  H47  1  0.75934000  0.64165000  0.09751000  1.0
  H  H48  1  0.24066000  0.35836000  0.90250000  1.0
  H  H49  1  0.76165000  0.52480000  0.00948000  1.0
  H  H50  1  0.23835000  0.47520000  0.99053000  1.0
  C  C51  1  0.39215000  0.31855000  0.50693000  1.0
  C  C52  1  0.60786000  0.68146000  0.49306000  1.0
  C  C53  1  0.22367000  0.16196000  0.61618000  1.0
  C  C54  1  0.77634000  0.83804000  0.38382000  1.0
  C  C55  1  0.14508000  0.23698000  0.71702000  1.0
  C  C56  1  0.85493000  0.76302000  0.28298000  1.0
  C  C57  1  0.97411000  0.23393000  0.74293000  1.0
  C  C58  1  0.02590000  0.76608000  0.25707000  1.0
  C  C59  1  0.98945000  0.05883000  0.80616000  1.0
  C  C60  1  0.01055000  0.94117000  0.19384000  1.0
  C  C61  1  0.06647000  0.98443000  0.70556000  1.0
  C  C62  1  0.93353000  0.01557000  0.29444000  1.0
  C  C63  1  0.23800000  0.98595000  0.68003000  1.0
  C  C64  1  0.76200000  0.01405000  0.31997000  1.0
  C  C65  1  0.35117000  0.74377000  0.62863000  1.0
  C  C66  1  0.64883000  0.25623000  0.37137000  1.0
  C  C67  1  0.42959000  0.69564000  0.51164000  1.0
  C  C68  1  0.57041000  0.30436000  0.48836000  1.0
  C  C69  1  0.45911000  0.62643000  0.78256000  1.0
  C  C70  1  0.54089000  0.37357000  0.21743000  1.0
  C  C71  1  0.73401000  0.82941000  0.80380000  1.0
  C  C72  1  0.26600000  0.17056000  0.19618000  1.0
  C  C73  1  0.89112000  0.67955000  0.91167000  1.0
  C  C74  1  0.10887000  0.32044000  0.08834000  1.0
  C  C75  1  0.00567000  0.57869000  0.84188000  1.0
  C  C76  1  0.99432000  0.42131000  0.15813000  1.0
  C  C77  1  0.83916000  0.56865000  0.04684000  1.0
  C  C78  1  0.16084000  0.43135000  0.95317000  1.0
  N  N79  1  0.39156000  0.15645000  0.59150000  1.0
  N  N80  1  0.60844000  0.84355000  0.40849000  1.0
  N  N81  1  0.31529000  0.91783000  0.58041000  1.0
  N  N82  1  0.68472000  0.08217000  0.41959000  1.0
  O  O83  1  0.69239000  0.82422000  0.68778000  1.0
  O  O84  1  0.30762000  0.17577000  0.31221000  1.0
  O  O85  1  0.65641000  0.94368000  0.83606000  1.0
  O  O86  1  0.34357000  0.05633000  0.16392000  1.0
