# generated using pymatgen
data_Cd2H10C8O13
_symmetry_space_group_name_H-M   'P 1'
_cell_length_a   7.58378000
_cell_length_b   11.00860000
_cell_length_c   18.04350000
_cell_angle_alpha   89.99980000
_cell_angle_beta   90.00010000
_cell_angle_gamma   89.99970000
_symmetry_Int_Tables_number   1
_chemical_formula_structural   Cd2H10C8O13
_chemical_formula_sum   'Cd8 H40 C32 O52'
_cell_volume   1506.39408493
_cell_formula_units_Z   4
loop_
 _symmetry_equiv_pos_site_id
 _symmetry_equiv_pos_as_xyz
  1  'x, y, z'
loop_
 _atom_site_type_symbol
 _atom_site_label
 _atom_site_symmetry_multiplicity
 _atom_site_fract_x
 _atom_site_fract_y
 _atom_site_fract_z
 _atom_site_occupancy
  Cd  Cd0  1  0.65736000  0.23443000  0.37957000  1.0
  Cd  Cd1  1  0.84263000  0.76558000  0.87957000  1.0
  Cd  Cd2  1  0.15737000  0.26558000  0.62043000  1.0
  Cd  Cd3  1  0.34263000  0.73442000  0.12043000  1.0
  Cd  Cd4  1  0.73814000  0.74420000  0.37988000  1.0
  Cd  Cd5  1  0.76186000  0.25579000  0.87988000  1.0
  Cd  Cd6  1  0.23814000  0.75580000  0.62012000  1.0
  Cd  Cd7  1  0.26186000  0.24421000  0.12012000  1.0
  H  H8  1  0.44760000  0.36675000  0.46646000  1.0
  H  H9  1  0.05240000  0.63325000  0.96646000  1.0
  H  H10  1  0.94760000  0.13325000  0.53354000  1.0
  H  H11  1  0.55240000  0.86674000  0.03354000  1.0
  H  H12  1  0.93453000  0.64491000  0.48588000  1.0
  H  H13  1  0.56546000  0.35509000  0.98588000  1.0
  H  H14  1  0.43453000  0.85509000  0.51411000  1.0
  H  H15  1  0.06546000  0.14491000  0.01412000  1.0
  H  H16  1  0.62932000  0.50096000  0.35603000  1.0
  H  H17  1  0.87069000  0.49904000  0.85603000  1.0
  H  H18  1  0.12932000  0.99904000  0.64397000  1.0
  H  H19  1  0.37068000  0.00096000  0.14397000  1.0
  H  H20  1  0.92694000  0.29822000  0.27163000  1.0
  H  H21  1  0.57306000  0.70177000  0.77164000  1.0
  H  H22  1  0.42695000  0.20178000  0.72837000  1.0
  H  H23  1  0.07305000  0.79823000  0.22837000  1.0
  H  H24  1  0.65171000  0.99112000  0.32925000  1.0
  H  H25  1  0.84830000  0.00888000  0.82925000  1.0
  H  H26  1  0.15171000  0.50888000  0.67076000  1.0
  H  H27  1  0.34830000  0.49112000  0.17075000  1.0
  H  H28  1  0.84209000  0.05867000  0.31534000  1.0
  H  H29  1  0.65791000  0.94134000  0.81534000  1.0
  H  H30  1  0.34210000  0.44133000  0.68466000  1.0
  H  H31  1  0.15791000  0.55867000  0.18466000  1.0
  H  H32  1  0.57115000  0.41506000  0.56490000  1.0
  H  H33  1  0.92885000  0.58494000  0.06490000  1.0
  H  H34  1  0.07113000  0.08494000  0.43509000  1.0
  H  H35  1  0.42885000  0.91506000  0.93510000  1.0
  H  H36  1  0.79190000  0.56713000  0.57592000  1.0
  H  H37  1  0.70809000  0.43287000  0.07592000  1.0
  H  H38  1  0.29190000  0.93288000  0.42408000  1.0
  H  H39  1  0.20809000  0.06712000  0.92408000  1.0
  H  H40  1  0.61750000  0.57605000  0.20792000  1.0
  H  H41  1  0.88251000  0.42395000  0.70793000  1.0
  H  H42  1  0.11751000  0.92395000  0.79208000  1.0
  H  H43  1  0.38249000  0.07605000  0.29208000  1.0
  H  H44  1  0.81002000  0.40041000  0.18513000  1.0
  H  H45  1  0.69000000  0.59959000  0.68513000  1.0
  H  H46  1  0.31002000  0.09959000  0.81487000  1.0
  H  H47  1  0.18998000  0.90042000  0.31487000  1.0
  C  C48  1  0.80810000  0.33955000  0.52668000  1.0
  C  C49  1  0.69191000  0.66045000  0.02668000  1.0
  C  C50  1  0.30808000  0.16045000  0.47332000  1.0
  C  C51  1  0.19191000  0.83955000  0.97332000  1.0
  C  C52  1  0.65663000  0.43040000  0.51650000  1.0
  C  C53  1  0.84337000  0.56960000  0.01650000  1.0
  C  C54  1  0.15662000  0.06960000  0.48350000  1.0
  C  C55  1  0.34337000  0.93040000  0.98350000  1.0
  C  C56  1  0.72109000  0.56118000  0.52273000  1.0
  C  C57  1  0.77891000  0.43881000  0.02273000  1.0
  C  C58  1  0.22109000  0.93882000  0.47727000  1.0
  C  C59  1  0.27891000  0.06118000  0.97727000  1.0
  C  C60  1  0.56606000  0.65117000  0.52891000  1.0
  C  C61  1  0.93394000  0.34883000  0.02891000  1.0
  C  C62  1  0.06606000  0.84883000  0.47109000  1.0
  C  C63  1  0.43393000  0.15117000  0.97109000  1.0
  C  C64  1  0.87508000  0.61847000  0.23781000  1.0
  C  C65  1  0.62492000  0.38153000  0.73781000  1.0
  C  C66  1  0.37509000  0.88152000  0.76219000  1.0
  C  C67  1  0.12492000  0.11848000  0.26219000  1.0
  C  C68  1  0.70694000  0.54354000  0.25164000  1.0
  C  C69  1  0.79307000  0.45647000  0.75164000  1.0
  C  C70  1  0.20694000  0.95646000  0.74836000  1.0
  C  C71  1  0.29306000  0.04354000  0.24836000  1.0
  C  C72  1  0.73616000  0.40754000  0.23722000  1.0
  C  C73  1  0.76385000  0.59246000  0.73722000  1.0
  C  C74  1  0.23617000  0.09246000  0.76278000  1.0
  C  C75  1  0.26383000  0.90754000  0.26278000  1.0
  C  C76  1  0.55447000  0.34750000  0.22733000  1.0
  C  C77  1  0.94554000  0.65250000  0.72733000  1.0
  C  C78  1  0.05448000  0.15250000  0.77267000  1.0
  C  C79  1  0.44552000  0.84750000  0.27267000  1.0
  O  O80  1  0.81565000  0.24275000  0.48706000  1.0
  O  O81  1  0.68435000  0.75725000  0.98706000  1.0
  O  O82  1  0.31564000  0.25725000  0.51295000  1.0
  O  O83  1  0.18435000  0.74275000  0.01295000  1.0
  O  O84  1  0.91240000  0.36405000  0.57875000  1.0
  O  O85  1  0.58760000  0.63595000  0.07875000  1.0
  O  O86  1  0.41238000  0.13596000  0.42124000  1.0
  O  O87  1  0.08760000  0.86405000  0.92125000  1.0
  O  O88  1  0.55592000  0.41099000  0.44980000  1.0
  O  O89  1  0.94408000  0.58901000  0.94980000  1.0
  O  O90  1  0.05592000  0.08901000  0.55020000  1.0
  O  O91  1  0.44408000  0.91099000  0.05020000  1.0
  O  O92  1  0.84153000  0.58965000  0.46437000  1.0
  O  O93  1  0.65847000  0.41035000  0.96437000  1.0
  O  O94  1  0.34153000  0.91035000  0.53562000  1.0
  O  O95  1  0.15846000  0.08965000  0.03563000  1.0
  O  O96  1  0.56395000  0.74428000  0.48664000  1.0
  O  O97  1  0.93605000  0.25572000  0.98664000  1.0
  O  O98  1  0.06394000  0.75573000  0.51336000  1.0
  O  O99  1  0.43605000  0.24428000  0.01336000  1.0
  O  O100  1  0.45430000  0.62836000  0.57900000  1.0
  O  O101  1  0.04569000  0.37165000  0.07900000  1.0
  O  O102  1  0.95431000  0.87164000  0.42099000  1.0
  O  O103  1  0.54569000  0.12836000  0.92099000  1.0
  O  O104  1  0.91874000  0.70579000  0.28096000  1.0
  O  O105  1  0.58125000  0.29421000  0.78096000  1.0
  O  O106  1  0.41875000  0.79420000  0.71904000  1.0
  O  O107  1  0.08126000  0.20580000  0.21904000  1.0
  O  O108  1  0.95582000  0.59211000  0.17911000  1.0
  O  O109  1  0.54419000  0.40790000  0.67911000  1.0
  O  O110  1  0.45582000  0.90788000  0.82089000  1.0
  O  O111  1  0.04419000  0.09213000  0.32089000  1.0
  O  O112  1  0.62115000  0.56867000  0.32078000  1.0
  O  O113  1  0.87885000  0.43133000  0.82078000  1.0
  O  O114  1  0.12115000  0.93133000  0.67922000  1.0
  O  O115  1  0.37885000  0.06867000  0.17922000  1.0
  O  O116  1  0.83731000  0.35248000  0.29561000  1.0
  O  O117  1  0.66269000  0.64752000  0.79561000  1.0
  O  O118  1  0.33732000  0.14752000  0.70440000  1.0
  O  O119  1  0.16268000  0.85248000  0.20440000  1.0
  O  O120  1  0.48301000  0.29242000  0.28021000  1.0
  O  O121  1  0.01700000  0.70758000  0.78021000  1.0
  O  O122  1  0.98301000  0.20757000  0.71979000  1.0
  O  O123  1  0.51698000  0.79242000  0.21979000  1.0
  O  O124  1  0.48399000  0.36445000  0.16321000  1.0
  O  O125  1  0.01602000  0.63555000  0.66322000  1.0
  O  O126  1  0.98399000  0.13555000  0.83679000  1.0
  O  O127  1  0.51600000  0.86445000  0.33679000  1.0
  O  O128  1  0.71042000  0.06706000  0.31379000  1.0
  O  O129  1  0.78958000  0.93294000  0.81379000  1.0
  O  O130  1  0.21042000  0.43293000  0.68622000  1.0
  O  O131  1  0.28958000  0.56706000  0.18622000  1.0
