# generated using pymatgen
data_Cd3H34C40(NO4)4
_symmetry_space_group_name_H-M   'P 1'
_cell_length_a   14.81970000
_cell_length_b   15.69720000
_cell_length_c   16.08860000
_cell_angle_alpha   107.39300000
_cell_angle_beta   100.74800000
_cell_angle_gamma   100.75800000
_symmetry_Int_Tables_number   1
_chemical_formula_structural   Cd3H34C40(NO4)4
_chemical_formula_sum   'Cd9 H102 C120 N12 O48'
_cell_volume   3389.55711009
_cell_formula_units_Z   3
loop_
 _symmetry_equiv_pos_site_id
 _symmetry_equiv_pos_as_xyz
  1  'x, y, z'
loop_
 _atom_site_type_symbol
 _atom_site_label
 _atom_site_symmetry_multiplicity
 _atom_site_fract_x
 _atom_site_fract_y
 _atom_site_fract_z
 _atom_site_occupancy
  Cd  Cd0  1  0.75149000  0.96608000  0.54001000  1.0
  Cd  Cd1  1  0.24851000  0.03392000  0.45999000  1.0
  Cd  Cd2  1  0.57824000  0.04172000  0.12120000  1.0
  Cd  Cd3  1  0.42176000  0.95828000  0.87880000  1.0
  Cd  Cd4  1  0.64727000  0.00462000  0.33765000  1.0
  Cd  Cd5  1  0.35274000  0.99538000  0.66235000  1.0
  Cd  Cd6  1  0.90881000  0.05105000  0.79068000  1.0
  Cd  Cd7  1  0.09119000  0.94895000  0.20932000  1.0
  Cd  Cd8  1  0.00000000  0.00000000  0.00000000  1.0
  H  H9  1  0.23573000  0.56632000  0.28213000  1.0
  H  H10  1  0.76428000  0.43368000  0.71786000  1.0
  H  H11  1  0.47316000  0.71138000  0.43107000  1.0
  H  H12  1  0.52685000  0.28862000  0.56893000  1.0
  H  H13  1  0.19838000  0.69429000  0.26770000  1.0
  H  H14  1  0.80163000  0.30571000  0.73230000  1.0
  H  H15  1  0.41546000  0.95041000  0.37566000  1.0
  H  H16  1  0.58455000  0.04959000  0.62435000  1.0
  H  H17  1  0.32398000  0.40465000  0.43907000  1.0
  H  H18  1  0.67602000  0.59535000  0.56093000  1.0
  H  H19  1  0.24501000  0.23527000  0.36041000  1.0
  H  H20  1  0.75499000  0.76473000  0.63961000  1.0
  H  H21  1  0.16667000  0.28282000  0.11074000  1.0
  H  H22  1  0.83331000  0.71717000  0.88927000  1.0
  H  H23  1  0.24369000  0.44976000  0.18702000  1.0
  H  H24  1  0.75631000  0.55024000  0.81299000  1.0
  H  H25  1  0.09201000  0.41619000  0.42024000  1.0
  H  H26  1  0.90798000  0.58381000  0.57975000  1.0
  H  H27  1  0.84633000  0.28178000  0.28566000  1.0
  H  H28  1  0.15366000  0.71821000  0.71434000  1.0
  H  H29  1  0.12164000  0.28723000  0.43709000  1.0
  H  H30  1  0.87835000  0.71278000  0.56291000  1.0
  H  H31  1  0.91358000  0.02817000  0.29317000  1.0
  H  H32  1  0.08642000  0.97183000  0.70682000  1.0
  H  H33  1  0.92165000  0.59733000  0.34717000  1.0
  H  H34  1  0.07834000  0.40267000  0.65283000  1.0
  H  H35  1  0.01628000  0.76347000  0.39541000  1.0
  H  H36  1  0.98372000  0.23653000  0.60458000  1.0
  H  H37  1  0.25838000  0.69507000  0.52320000  1.0
  H  H38  1  0.74162000  0.30493000  0.47679000  1.0
  H  H39  1  0.16923000  0.53361000  0.47682000  1.0
  H  H40  1  0.83076000  0.46638000  0.52317000  1.0
  H  H41  1  0.43115000  0.27559000  0.37116000  1.0
  H  H42  1  0.56885000  0.72442000  0.62884000  1.0
  H  H43  1  0.45488000  0.32248000  0.28691000  1.0
  H  H44  1  0.54512000  0.67751000  0.71309000  1.0
  H  H45  1  0.52964000  0.37166000  0.40006000  1.0
  H  H46  1  0.47036000  0.62833000  0.59993000  1.0
  H  H47  1  0.68953000  0.24447000  0.32183000  1.0
  H  H48  1  0.31047000  0.75552000  0.67816000  1.0
  H  H49  1  0.66957000  0.35654000  0.36692000  1.0
  H  H50  1  0.33044000  0.64346000  0.63309000  1.0
  H  H51  1  0.63352000  0.29498000  0.24783000  1.0
  H  H52  1  0.36648000  0.70503000  0.75218000  1.0
  H  H53  1  0.40578000  0.03632000  0.27317000  1.0
  H  H54  1  0.59421000  0.96368000  0.72683000  1.0
  H  H55  1  0.36545000  0.13107000  0.25533000  1.0
  H  H56  1  0.63455000  0.86893000  0.74467000  1.0
  H  H57  1  0.40705000  0.13255000  0.36650000  1.0
  H  H58  1  0.59295000  0.86745000  0.63350000  1.0
  H  H59  1  0.63837000  0.77812000  0.27925000  1.0
  H  H60  1  0.36163000  0.22189000  0.72075000  1.0
  H  H61  1  0.67072000  0.67090000  0.23976000  1.0
  H  H62  1  0.32927000  0.32910000  0.76024000  1.0
  H  H63  1  0.66973000  0.74455000  0.17434000  1.0
  H  H64  1  0.33027000  0.25546000  0.82566000  1.0
  H  H65  1  0.91993000  0.78488000  0.27155000  1.0
  H  H66  1  0.08006000  0.21512000  0.72844000  1.0
  H  H67  1  0.82452000  0.69015000  0.19795000  1.0
  H  H68  1  0.17548000  0.30985000  0.80204000  1.0
  H  H69  1  0.86472000  0.69872000  0.31208000  1.0
  H  H70  1  0.13528000  0.30128000  0.68791000  1.0
  H  H71  1  0.91607000  0.97963000  0.45919000  1.0
  H  H72  1  0.08394000  0.02038000  0.54081000  1.0
  H  H73  1  0.95371000  0.92777000  0.36212000  1.0
  H  H74  1  0.04629000  0.07223000  0.63788000  1.0
  H  H75  1  0.93922000  0.86862000  0.43849000  1.0
  H  H76  1  0.06078000  0.13139000  0.56151000  1.0
  H  H77  1  0.41307000  0.43326000  0.09237000  1.0
  H  H78  1  0.58694000  0.56674000  0.90763000  1.0
  H  H79  1  0.18076000  0.28633000  0.93570000  1.0
  H  H80  1  0.81924000  0.71368000  0.06430000  1.0
  H  H81  1  0.45619000  0.30096000  0.09511000  1.0
  H  H82  1  0.54381000  0.69905000  0.90490000  1.0
  H  H83  1  0.25026000  0.03885000  0.95850000  1.0
  H  H84  1  0.74974000  0.96116000  0.04149000  1.0
  H  H85  1  0.35010000  0.57696000  0.91235000  1.0
  H  H86  1  0.64991000  0.42305000  0.08766000  1.0
  H  H87  1  0.43028000  0.74740000  0.98002000  1.0
  H  H88  1  0.56973000  0.25260000  0.01998000  1.0
  H  H89  1  0.46927000  0.72956000  0.24471000  1.0
  H  H90  1  0.53073000  0.27044000  0.75529000  1.0
  H  H91  1  0.39377000  0.56102000  0.17911000  1.0
  H  H92  1  0.60624000  0.43898000  0.82088000  1.0
  H  H93  1  0.71570000  0.21853000  0.02528000  1.0
  H  H94  1  0.28430000  0.78147000  0.97472000  1.0
  H  H95  1  0.80224000  0.32614000  0.05748000  1.0
  H  H96  1  0.19775000  0.67386000  0.94252000  1.0
  H  H97  1  0.78860000  0.26835000  0.13700000  1.0
  H  H98  1  0.21140000  0.73165000  0.86300000  1.0
  H  H99  1  0.00427000  0.22127000  0.06750000  1.0
  H  H100  1  0.99573000  0.77874000  0.93249000  1.0
  H  H101  1  0.95781000  0.24148000  0.16411000  1.0
  H  H102  1  0.04219000  0.75852000  0.83588000  1.0
  H  H103  1  0.97096000  0.32708000  0.11193000  1.0
  H  H104  1  0.02904000  0.67292000  0.88808000  1.0
  H  H105  1  0.73773000  0.03445000  0.85229000  1.0
  H  H106  1  0.26227000  0.96555000  0.14770000  1.0
  H  H107  1  0.71141000  0.14414000  0.88526000  1.0
  H  H108  1  0.28859000  0.85586000  0.11474000  1.0
  H  H109  1  0.69050000  0.06866000  0.94688000  1.0
  H  H110  1  0.30950000  0.93134000  0.05312000  1.0
  C  C111  1  0.45417000  0.83611000  0.40737000  1.0
  C  C112  1  0.54584000  0.16389000  0.59263000  1.0
  C  C113  1  0.42446000  0.74318000  0.39931000  1.0
  C  C114  1  0.57554000  0.25682000  0.60069000  1.0
  C  C115  1  0.33255000  0.69143000  0.34765000  1.0
  C  C116  1  0.66746000  0.30857000  0.65235000  1.0
  C  C117  1  0.27038000  0.73346000  0.30753000  1.0
  C  C118  1  0.72962000  0.26654000  0.69248000  1.0
  C  C119  1  0.29917000  0.82691000  0.31886000  1.0
  C  C120  1  0.70084000  0.17309000  0.68114000  1.0
  C  C121  1  0.39167000  0.87808000  0.36797000  1.0
  C  C122  1  0.60833000  0.12192000  0.63204000  1.0
  C  C123  1  0.28624000  0.43882000  0.31959000  1.0
  C  C124  1  0.71376000  0.56117000  0.68041000  1.0
  C  C125  1  0.28754000  0.37737000  0.36740000  1.0
  C  C126  1  0.71245000  0.62263000  0.63260000  1.0
  C  C127  1  0.24466000  0.28331000  0.32349000  1.0
  C  C128  1  0.75534000  0.71669000  0.67652000  1.0
  C  C129  1  0.19993000  0.24929000  0.23088000  1.0
  C  C130  1  0.80006000  0.75070000  0.76912000  1.0
  C  C131  1  0.19959000  0.31034000  0.18289000  1.0
  C  C132  1  0.80040000  0.68966000  0.81712000  1.0
  C  C133  1  0.24237000  0.40415000  0.22662000  1.0
  C  C134  1  0.75762000  0.59585000  0.77338000  1.0
  C  C135  1  0.33547000  0.53911000  0.36822000  1.0
  C  C136  1  0.66453000  0.46089000  0.63178000  1.0
  C  C137  1  0.55475000  0.88968000  0.45599000  1.0
  C  C138  1  0.44525000  0.11032000  0.54401000  1.0
  C  C139  1  0.22992000  0.87166000  0.27991000  1.0
  C  C140  1  0.77008000  0.12834000  0.72009000  1.0
  C  C141  1  0.15116000  0.14808000  0.18251000  1.0
  C  C142  1  0.84883000  0.85192000  0.81750000  1.0
  C  C143  1  0.86976000  0.14941000  0.28513000  1.0
  C  C144  1  0.13024000  0.85058000  0.71487000  1.0
  C  C145  1  0.89593000  0.24579000  0.30883000  1.0
  C  C146  1  0.10406000  0.75420000  0.69117000  1.0
  C  C147  1  0.98718000  0.29611000  0.36352000  1.0
  C  C148  1  0.01281000  0.70389000  0.63647000  1.0
  C  C149  1  0.05081000  0.24937000  0.39367000  1.0
  C  C150  1  0.94918000  0.75064000  0.60633000  1.0
  C  C151  1  0.02570000  0.15319000  0.36720000  1.0
  C  C152  1  0.97430000  0.84681000  0.63279000  1.0
  C  C153  1  0.93424000  0.10304000  0.31379000  1.0
  C  C154  1  0.06576000  0.89695000  0.68620000  1.0
  C  C155  1  0.03748000  0.55366000  0.40702000  1.0
  C  C156  1  0.96251000  0.44633000  0.59298000  1.0
  C  C157  1  0.99588000  0.62025000  0.38558000  1.0
  C  C158  1  0.00412000  0.37975000  0.61441000  1.0
  C  C159  1  0.04792000  0.71177000  0.41252000  1.0
  C  C160  1  0.95208000  0.28823000  0.58748000  1.0
  C  C161  1  0.14262000  0.73935000  0.46298000  1.0
  C  C162  1  0.85738000  0.26064000  0.53702000  1.0
  C  C163  1  0.18453000  0.67329000  0.48464000  1.0
  C  C164  1  0.81546000  0.32671000  0.51535000  1.0
  C  C165  1  0.13305000  0.58160000  0.45677000  1.0
  C  C166  1  0.86694000  0.41839000  0.54322000  1.0
  C  C167  1  0.97553000  0.45663000  0.37438000  1.0
  C  C168  1  0.02446000  0.54337000  0.62562000  1.0
  C  C169  1  0.77222000  0.09513000  0.22703000  1.0
  C  C170  1  0.22777000  0.90486000  0.77297000  1.0
  C  C171  1  0.09835000  0.10538000  0.39452000  1.0
  C  C172  1  0.90165000  0.89462000  0.60548000  1.0
  C  C173  1  0.19915000  0.83885000  0.49640000  1.0
  C  C174  1  0.80085000  0.16115000  0.50360000  1.0
  C  C175  1  0.48750000  0.30717000  0.34636000  1.0
  C  C176  1  0.51250000  0.69283000  0.65364000  1.0
  C  C177  1  0.64113000  0.28795000  0.31461000  1.0
  C  C178  1  0.35887000  0.71204000  0.68540000  1.0
  C  C179  1  0.51769000  0.15399000  0.29876000  1.0
  C  C180  1  0.48231000  0.84601000  0.70124000  1.0
  C  C181  1  0.41839000  0.11142000  0.29846000  1.0
  C  C182  1  0.58161000  0.88857000  0.70155000  1.0
  C  C183  1  0.68432000  0.74332000  0.24344000  1.0
  C  C184  1  0.31568000  0.25668000  0.75655000  1.0
  C  C185  1  0.85291000  0.73858000  0.26719000  1.0
  C  C186  1  0.14709000  0.26142000  0.73281000  1.0
  C  C187  1  0.80732000  0.87123000  0.35785000  1.0
  C  C188  1  0.19268000  0.12877000  0.64215000  1.0
  C  C189  1  0.90984000  0.91394000  0.40692000  1.0
  C  C190  1  0.09016000  0.08606000  0.59307000  1.0
  C  C191  1  0.20610000  0.15772000  0.94288000  1.0
  C  C192  1  0.79390000  0.84229000  0.05712000  1.0
  C  C193  1  0.23176000  0.25340000  0.96226000  1.0
  C  C194  1  0.76824000  0.74661000  0.03774000  1.0
  C  C195  1  0.32216000  0.30563000  0.01739000  1.0
  C  C196  1  0.67784000  0.69437000  0.98261000  1.0
  C  C197  1  0.38581000  0.26147000  0.05172000  1.0
  C  C198  1  0.61420000  0.73853000  0.94828000  1.0
  C  C199  1  0.36140000  0.16550000  0.02904000  1.0
  C  C200  1  0.63861000  0.83451000  0.97097000  1.0
  C  C201  1  0.27072000  0.11343000  0.97538000  1.0
  C  C202  1  0.72928000  0.88657000  0.02462000  1.0
  C  C203  1  0.36943000  0.55779000  0.04061000  1.0
  C  C204  1  0.63057000  0.44221000  0.95939000  1.0
  C  C205  1  0.37834000  0.61114000  0.98505000  1.0
  C  C206  1  0.62167000  0.38887000  0.01495000  1.0
  C  C207  1  0.42182000  0.70545000  0.02255000  1.0
  C  C208  1  0.57818000  0.29456000  0.97745000  1.0
  C  C209  1  0.45539000  0.74812000  0.11637000  1.0
  C  C210  1  0.54461000  0.25188000  0.88364000  1.0
  C  C211  1  0.44487000  0.69528000  0.17197000  1.0
  C  C212  1  0.55514000  0.30472000  0.82803000  1.0
  C  C213  1  0.40291000  0.60068000  0.13453000  1.0
  C  C214  1  0.59709000  0.39932000  0.86547000  1.0
  C  C215  1  0.32047000  0.45720000  0.99684000  1.0
  C  C216  1  0.67953000  0.54281000  0.00316000  1.0
  C  C217  1  0.10727000  0.10328000  0.88870000  1.0
  C  C218  1  0.89274000  0.89673000  0.11130000  1.0
  C  C219  1  0.43467000  0.12010000  0.05969000  1.0
  C  C220  1  0.56533000  0.87990000  0.94032000  1.0
  C  C221  1  0.50426000  0.84988000  0.15795000  1.0
  C  C222  1  0.49574000  0.15012000  0.84206000  1.0
  C  C223  1  0.78691000  0.25849000  0.06628000  1.0
  C  C224  1  0.21309000  0.74151000  0.93372000  1.0
  C  C225  1  0.83879000  0.13392000  0.96835000  1.0
  C  C226  1  0.16121000  0.86608000  0.03165000  1.0
  C  C227  1  0.95374000  0.25240000  0.09927000  1.0
  C  C228  1  0.04626000  0.74761000  0.90073000  1.0
  C  C229  1  0.73876000  0.09349000  0.90999000  1.0
  C  C230  1  0.26124000  0.90651000  0.09001000  1.0
  N  N231  1  0.29923000  0.59622000  0.32875000  1.0
  N  N232  1  0.70078000  0.40377000  0.67125000  1.0
  N  N233  1  0.02174000  0.39206000  0.38825000  1.0
  N  N234  1  0.97825000  0.60794000  0.61174000  1.0
  N  N235  1  0.54867000  0.24585000  0.32357000  1.0
  N  N236  1  0.45133000  0.75415000  0.67644000  1.0
  N  N237  1  0.78338000  0.79004000  0.29062000  1.0
  N  N238  1  0.21661000  0.20997000  0.70938000  1.0
  N  N239  1  0.35226000  0.40227000  0.04217000  1.0
  N  N240  1  0.64774000  0.59773000  0.95783000  1.0
  N  N241  1  0.85787000  0.21024000  0.04082000  1.0
  N  N242  1  0.14213000  0.78976000  0.95918000  1.0
  O  O243  1  0.60671000  0.85454000  0.50140000  1.0
  O  O244  1  0.39330000  0.14545000  0.49860000  1.0
  O  O245  1  0.58635000  0.96932000  0.45075000  1.0
  O  O246  1  0.41365000  0.03068000  0.54925000  1.0
  O  O247  1  0.15589000  0.82277000  0.21798000  1.0
  O  O248  1  0.84411000  0.17723000  0.78202000  1.0
  O  O249  1  0.24835000  0.96067000  0.31061000  1.0
  O  O250  1  0.75166000  0.03933000  0.68939000  1.0
  O  O251  1  0.10323000  0.12637000  0.10144000  1.0
  O  O252  1  0.89677000  0.87363000  0.89856000  1.0
  O  O253  1  0.16271000  0.09496000  0.22724000  1.0
  O  O254  1  0.83728000  0.90504000  0.77276000  1.0
  O  O255  1  0.40278000  0.56664000  0.43641000  1.0
  O  O256  1  0.59722000  0.43336000  0.56358000  1.0
  O  O257  1  0.73058000  0.12882000  0.17229000  1.0
  O  O258  1  0.26941000  0.87118000  0.82771000  1.0
  O  O259  1  0.73472000  0.01823000  0.23386000  1.0
  O  O260  1  0.26528000  0.98176000  0.76614000  1.0
  O  O261  1  0.17515000  0.15314000  0.45395000  1.0
  O  O262  1  0.82485000  0.84686000  0.54604000  1.0
  O  O263  1  0.08097000  0.01731000  0.35807000  1.0
  O  O264  1  0.91903000  0.98269000  0.64193000  1.0
  O  O265  1  0.27276000  0.85965000  0.56129000  1.0
  O  O266  1  0.72724000  0.14035000  0.43871000  1.0
  O  O267  1  0.16915000  0.89215000  0.45841000  1.0
  O  O268  1  0.83084000  0.10785000  0.54159000  1.0
  O  O269  1  0.88950000  0.43741000  0.33732000  1.0
  O  O270  1  0.11048000  0.56259000  0.66268000  1.0
  O  O271  1  0.57211000  0.10240000  0.27424000  1.0
  O  O272  1  0.42789000  0.89759000  0.72576000  1.0
  O  O273  1  0.74392000  0.91146000  0.38104000  1.0
  O  O274  1  0.25608000  0.08854000  0.61896000  1.0
  O  O275  1  0.05967000  0.13996000  0.84112000  1.0
  O  O276  1  0.94033000  0.86005000  0.15888000  1.0
  O  O277  1  0.07458000  0.02363000  0.89248000  1.0
  O  O278  1  0.92542000  0.97637000  0.10751000  1.0
  O  O279  1  0.51317000  0.16956000  0.11493000  1.0
  O  O280  1  0.48683000  0.83045000  0.88507000  1.0
  O  O281  1  0.41675000  0.03120000  0.02896000  1.0
  O  O282  1  0.58325000  0.96880000  0.97105000  1.0
  O  O283  1  0.50681000  0.89554000  0.10490000  1.0
  O  O284  1  0.49319000  0.10446000  0.89510000  1.0
  O  O285  1  0.53859000  0.87997000  0.24296000  1.0
  O  O286  1  0.46141000  0.12003000  0.75704000  1.0
  O  O287  1  0.25693000  0.42712000  0.92563000  1.0
  O  O288  1  0.74307000  0.57288000  0.07437000  1.0
  O  O289  1  0.90442000  0.09538000  0.94834000  1.0
  O  O290  1  0.09558000  0.90462000  0.05166000  1.0
