# generated using pymatgen
data_NdH22(C3O)11
_symmetry_space_group_name_H-M   'P 1'
_cell_length_a   10.37380000
_cell_length_b   11.51580000
_cell_length_c   13.71240000
_cell_angle_alpha   101.92500000
_cell_angle_beta   110.77400000
_cell_angle_gamma   100.08900000
_symmetry_Int_Tables_number   1
_chemical_formula_structural   NdH22(C3O)11
_chemical_formula_sum   'Nd2 H44 C66 O22'
_cell_volume   1442.23288088
_cell_formula_units_Z   2
loop_
 _symmetry_equiv_pos_site_id
 _symmetry_equiv_pos_as_xyz
  1  'x, y, z'
loop_
 _atom_site_type_symbol
 _atom_site_label
 _atom_site_symmetry_multiplicity
 _atom_site_fract_x
 _atom_site_fract_y
 _atom_site_fract_z
 _atom_site_occupancy
  Nd  Nd0  1  0.61799000  0.56332000  0.66479000  1.0
  Nd  Nd1  1  0.38201000  0.43668000  0.33521000  1.0
  H  H2  1  0.18701000  0.14230000  0.97566000  1.0
  H  H3  1  0.81299000  0.85770000  0.02434000  1.0
  H  H4  1  0.26577000  0.94406000  0.94247000  1.0
  H  H5  1  0.73424000  0.05594000  0.05753000  1.0
  H  H6  1  0.46746000  0.87933000  0.90896000  1.0
  H  H7  1  0.53254000  0.12067000  0.09105000  1.0
  H  H8  1  0.44927000  0.80854000  0.71984000  1.0
  H  H9  1  0.55074000  0.19147000  0.28017000  1.0
  H  H10  1  0.22935000  0.80379000  0.56269000  1.0
  H  H11  1  0.77066000  0.19621000  0.43732000  1.0
  H  H12  1  0.03258000  0.87541000  0.59826000  1.0
  H  H13  1  0.96743000  0.12458000  0.40175000  1.0
  H  H14  1  0.86025000  0.45391000  0.60697000  1.0
  H  H15  1  0.13975000  0.54609000  0.39303000  1.0
  H  H16  1  0.87112000  0.73094000  0.45242000  1.0
  H  H17  1  0.12887000  0.26907000  0.54757000  1.0
  H  H18  1  0.76178000  0.90378000  0.42858000  1.0
  H  H19  1  0.23820000  0.09622000  0.57141000  1.0
  H  H20  1  0.63195000  0.91793000  0.24225000  1.0
  H  H21  1  0.36803000  0.08207000  0.75774000  1.0
  H  H22  1  0.60673000  0.75703000  0.07924000  1.0
  H  H23  1  0.39326000  0.24297000  0.92075000  1.0
  H  H24  1  0.71897000  0.58395000  0.10375000  1.0
  H  H25  1  0.28102000  0.41605000  0.89625000  1.0
  H  H26  1  0.69409000  0.94344000  0.63347000  1.0
  H  H27  1  0.30591000  0.05656000  0.36653000  1.0
  H  H28  1  0.42064000  0.88567000  0.24982000  1.0
  H  H29  1  0.57936000  0.11434000  0.75018000  1.0
  H  H30  1  0.37104000  0.82710000  0.05245000  1.0
  H  H31  1  0.62897000  0.17291000  0.94755000  1.0
  H  H32  1  0.13067000  0.69852000  0.91624000  1.0
  H  H33  1  0.86933000  0.30147000  0.08376000  1.0
  H  H34  1  0.93918000  0.62669000  0.97673000  1.0
  H  H35  1  0.06083000  0.37330000  0.02327000  1.0
  H  H36  1  0.99092000  0.68369000  0.17569000  1.0
  H  H37  1  0.00908000  0.31632000  0.82431000  1.0
  H  H38  1  0.93936000  0.53427000  0.77814000  1.0
  H  H39  1  0.06064000  0.46573000  0.22186000  1.0
  H  H40  1  0.83212000  0.43723000  0.79659000  1.0
  H  H41  1  0.16788000  0.56277000  0.20341000  1.0
  H  H42  1  0.49804000  0.46576000  0.81272000  1.0
  H  H43  1  0.50195000  0.53424000  0.18728000  1.0
  H  H44  1  0.55652000  0.36248000  0.76641000  1.0
  H  H45  1  0.44348000  0.63752000  0.23359000  1.0
  C  C46  1  0.80297000  0.78480000  0.82527000  1.0
  C  C47  1  0.19703000  0.21520000  0.17474000  1.0
  C  C48  1  0.90360000  0.89817000  0.91350000  1.0
  C  C49  1  0.09640000  0.10183000  0.08651000  1.0
  C  C50  1  0.10499000  0.07781000  0.98506000  1.0
  C  C51  1  0.89502000  0.92219000  0.01494000  1.0
  C  C52  1  0.00962000  0.97678000  0.89771000  1.0
  C  C53  1  0.99039000  0.02322000  0.10229000  1.0
  C  C54  1  0.01821000  0.95984000  0.78819000  1.0
  C  C55  1  0.98179000  0.04016000  0.21182000  1.0
  C  C56  1  0.13608000  0.91294000  0.77184000  1.0
  C  C57  1  0.86393000  0.08706000  0.22816000  1.0
  C  C58  1  0.25850000  0.91348000  0.85958000  1.0
  C  C59  1  0.74150000  0.08652000  0.14043000  1.0
  C  C60  1  0.37129000  0.87728000  0.84077000  1.0
  C  C61  1  0.62872000  0.12272000  0.15923000  1.0
  C  C62  1  0.36154000  0.83754000  0.73433000  1.0
  C  C63  1  0.63847000  0.16246000  0.26568000  1.0
  C  C64  1  0.23834000  0.83443000  0.64622000  1.0
  C  C65  1  0.76166000  0.16557000  0.35379000  1.0
  C  C66  1  0.12727000  0.87301000  0.66514000  1.0
  C  C67  1  0.87274000  0.12699000  0.33487000  1.0
  C  C68  1  0.69939000  0.49085000  0.42340000  1.0
  C  C69  1  0.30060000  0.50916000  0.57659000  1.0
  C  C70  1  0.85536000  0.49984000  0.46213000  1.0
  C  C71  1  0.14463000  0.50016000  0.53787000  1.0
  C  C72  1  0.92290000  0.47761000  0.56150000  1.0
  C  C73  1  0.07710000  0.52239000  0.43850000  1.0
  C  C74  1  0.93334000  0.52261000  0.39931000  1.0
  C  C75  1  0.06666000  0.47740000  0.60069000  1.0
  C  C76  1  0.87238000  0.54667000  0.29133000  1.0
  C  C77  1  0.12762000  0.45333000  0.70867000  1.0
  C  C78  1  0.79981000  0.64565000  0.27933000  1.0
  C  C79  1  0.20018000  0.35435000  0.72067000  1.0
  C  C80  1  0.81141000  0.73568000  0.37074000  1.0
  C  C81  1  0.18858000  0.26432000  0.62925000  1.0
  C  C82  1  0.75031000  0.83287000  0.35734000  1.0
  C  C83  1  0.24968000  0.16713000  0.64265000  1.0
  C  C84  1  0.67687000  0.84041000  0.25253000  1.0
  C  C85  1  0.32312000  0.15959000  0.74746000  1.0
  C  C86  1  0.66413000  0.75073000  0.16091000  1.0
  C  C87  1  0.33586000  0.24926000  0.83908000  1.0
  C  C88  1  0.72586000  0.65389000  0.17396000  1.0
  C  C89  1  0.27413000  0.34610000  0.82603000  1.0
  C  C90  1  0.48350000  0.74368000  0.49431000  1.0
  C  C91  1  0.51649000  0.25632000  0.50568000  1.0
  C  C92  1  0.48778000  0.87578000  0.49765000  1.0
  C  C93  1  0.51222000  0.12422000  0.50235000  1.0
  C  C94  1  0.60811000  0.96846000  0.57573000  1.0
  C  C95  1  0.39189000  0.03154000  0.42426000  1.0
  C  C96  1  0.37810000  0.90793000  0.42191000  1.0
  C  C97  1  0.62190000  0.09207000  0.57809000  1.0
  C  C98  1  0.24078000  0.81354000  0.34265000  1.0
  C  C99  1  0.75922000  0.18646000  0.65735000  1.0
  C  C100  1  0.20944000  0.78644000  0.22489000  1.0
  C  C101  1  0.79056000  0.21356000  0.77511000  1.0
  C  C102  1  0.31584000  0.82824000  0.18979000  1.0
  C  C103  1  0.68416000  0.17176000  0.81021000  1.0
  C  C104  1  0.28738000  0.79579000  0.07915000  1.0
  C  C105  1  0.71263000  0.20421000  0.92085000  1.0
  C  C106  1  0.15223000  0.72308000  0.00261000  1.0
  C  C107  1  0.84777000  0.27691000  0.99739000  1.0
  C  C108  1  0.04498000  0.68226000  0.03690000  1.0
  C  C109  1  0.95503000  0.31773000  0.96310000  1.0
  C  C110  1  0.07332000  0.71371000  0.14748000  1.0
  C  C111  1  0.92668000  0.28629000  0.85252000  1.0
  O  O112  1  0.83231000  0.74480000  0.74367000  1.0
  O  O113  1  0.16770000  0.25520000  0.25633000  1.0
  O  O114  1  0.69196000  0.72914000  0.83509000  1.0
  O  O115  1  0.30805000  0.27086000  0.16491000  1.0
  O  O116  1  0.93423000  0.99292000  0.71708000  1.0
  O  O117  1  0.06577000  0.00708000  0.28292000  1.0
  O  O118  1  0.61969000  0.44751000  0.32259000  1.0
  O  O119  1  0.38031000  0.55249000  0.67741000  1.0
  O  O120  1  0.64893000  0.52511000  0.49423000  1.0
  O  O121  1  0.35107000  0.47489000  0.50576000  1.0
  O  O122  1  0.89247000  0.48744000  0.21379000  1.0
  O  O123  1  0.10753000  0.51256000  0.78621000  1.0
  O  O124  1  0.42607000  0.66360000  0.40053000  1.0
  O  O125  1  0.57393000  0.33640000  0.59947000  1.0
  O  O126  1  0.53980000  0.72229000  0.58488000  1.0
  O  O127  1  0.46020000  0.27771000  0.41512000  1.0
  O  O128  1  0.15763000  0.76209000  0.37643000  1.0
  O  O129  1  0.84237000  0.23792000  0.62357000  1.0
  O  O130  1  0.84168000  0.51399000  0.77654000  1.0
  O  O131  1  0.15832000  0.48601000  0.22346000  1.0
  O  O132  1  0.58323000  0.45085000  0.80321000  1.0
  O  O133  1  0.41677000  0.54915000  0.19679000  1.0
