# generated using pymatgen
data_ZnH10C12(NCl)2
_symmetry_space_group_name_H-M   'P 1'
_cell_length_a   5.28467000
_cell_length_b   7.89513000
_cell_length_c   15.11200000
_cell_angle_alpha   78.00240000
_cell_angle_beta   89.25380000
_cell_angle_gamma   89.07250000
_symmetry_Int_Tables_number   1
_chemical_formula_structural   ZnH10C12(NCl)2
_chemical_formula_sum   'Zn2 H20 C24 N4 Cl4'
_cell_volume   616.63657394
_cell_formula_units_Z   2
loop_
 _symmetry_equiv_pos_site_id
 _symmetry_equiv_pos_as_xyz
  1  'x, y, z'
loop_
 _atom_site_type_symbol
 _atom_site_label
 _atom_site_symmetry_multiplicity
 _atom_site_fract_x
 _atom_site_fract_y
 _atom_site_fract_z
 _atom_site_occupancy
  Zn  Zn0  1  0.11989000  0.51003000  0.25522000  1.0
  Zn  Zn1  1  0.88011000  0.48997000  0.74478000  1.0
  H  H2  1  0.47002000  0.50015000  0.10156000  1.0
  H  H3  1  0.52999000  0.49985000  0.89844000  1.0
  H  H4  1  0.80031000  0.68187000  0.01260000  1.0
  H  H5  1  0.19970000  0.31813000  0.98740000  1.0
  H  H6  1  0.91249000  0.14696000  0.04713000  1.0
  H  H7  1  0.08751000  0.85304000  0.95287000  1.0
  H  H8  1  0.58606000  0.08572000  0.15421000  1.0
  H  H9  1  0.41393000  0.91428000  0.84579000  1.0
  H  H10  1  0.26228000  0.88309000  0.23948000  1.0
  H  H11  1  0.73772000  0.11690000  0.76052000  1.0
  H  H12  1  0.23554000  0.44076000  0.45929000  1.0
  H  H13  1  0.76445000  0.55924000  0.54071000  1.0
  H  H14  1  0.55906000  0.27001000  0.56003000  1.0
  H  H15  1  0.44094000  0.72999000  0.43997000  1.0
  H  H16  1  0.92612000  0.08694000  0.57957000  1.0
  H  H17  1  0.07388000  0.91306000  0.42043000  1.0
  H  H18  1  0.81445000  0.05908000  0.33070000  1.0
  H  H19  1  0.18556000  0.94092000  0.66930000  1.0
  H  H20  1  0.48157000  0.23854000  0.24120000  1.0
  H  H21  1  0.51844000  0.76147000  0.75880000  1.0
  C  C22  1  0.50331000  0.63078000  0.11139000  1.0
  C  C23  1  0.49669000  0.36922000  0.88861000  1.0
  C  C24  1  0.68718000  0.73364000  0.06192000  1.0
  C  C25  1  0.31282000  0.26636000  0.93808000  1.0
  C  C26  1  0.91376000  0.01938000  0.02989000  1.0
  C  C27  1  0.08624000  0.98062000  0.97011000  1.0
  C  C28  1  0.72418000  0.90151000  0.07689000  1.0
  C  C29  1  0.27582000  0.09849000  0.92312000  1.0
  C  C30  1  0.56554000  0.95609000  0.14129000  1.0
  C  C31  1  0.43445000  0.04391000  0.85871000  1.0
  C  C32  1  0.38706000  0.84500000  0.18868000  1.0
  C  C33  1  0.61294000  0.15500000  0.81132000  1.0
  C  C34  1  0.36964000  0.35556000  0.43377000  1.0
  C  C35  1  0.63036000  0.64443000  0.56623000  1.0
  C  C36  1  0.55121000  0.26021000  0.48926000  1.0
  C  C37  1  0.44879000  0.73979000  0.51074000  1.0
  C  C38  1  0.72166000  0.15141000  0.45431000  1.0
  C  C39  1  0.27834000  0.84859000  0.54569000  1.0
  C  C40  1  0.91676000  0.05713000  0.51226000  1.0
  C  C41  1  0.08324000  0.94288000  0.48774000  1.0
  C  C42  1  0.69244000  0.14105000  0.36314000  1.0
  C  C43  1  0.30756000  0.85894000  0.63686000  1.0
  C  C44  1  0.50722000  0.24071000  0.31228000  1.0
  C  C45  1  0.49279000  0.75930000  0.68772000  1.0
  N  N46  1  0.35634000  0.68371000  0.17451000  1.0
  N  N47  1  0.64366000  0.31629000  0.82549000  1.0
  N  N48  1  0.34961000  0.34824000  0.34594000  1.0
  N  N49  1  0.65039000  0.65176000  0.65405000  1.0
  Cl  Cl50  1  0.00719000  0.33547000  0.16161000  1.0
  Cl  Cl51  1  0.99281000  0.66454000  0.83839000  1.0
  Cl  Cl52  1  0.87607000  0.65786000  0.33473000  1.0
  Cl  Cl53  1  0.12394000  0.34214000  0.66527000  1.0
