# generated using pymatgen
data_CdH11C9N6ClO
_symmetry_space_group_name_H-M   'P 1'
_cell_length_a   6.94876000
_cell_length_b   9.66453000
_cell_length_c   10.38620000
_cell_angle_alpha   79.29010000
_cell_angle_beta   86.54270000
_cell_angle_gamma   75.42840000
_symmetry_Int_Tables_number   1
_chemical_formula_structural   CdH11C9N6ClO
_chemical_formula_sum   'Cd2 H22 C18 N12 Cl2 O2'
_cell_volume   663.23852339
_cell_formula_units_Z   2
loop_
 _symmetry_equiv_pos_site_id
 _symmetry_equiv_pos_as_xyz
  1  'x, y, z'
loop_
 _atom_site_type_symbol
 _atom_site_label
 _atom_site_symmetry_multiplicity
 _atom_site_fract_x
 _atom_site_fract_y
 _atom_site_fract_z
 _atom_site_occupancy
  Cd  Cd0  1  0.73110000  0.51746000  0.64126000  1.0
  Cd  Cd1  1  0.26890000  0.48254000  0.35874000  1.0
  H  H2  1  0.13250000  0.72556000  0.95855000  1.0
  H  H3  1  0.86750000  0.27444000  0.04145000  1.0
  H  H4  1  0.87602000  0.77270000  0.13239000  1.0
  H  H5  1  0.12399000  0.22731000  0.86760000  1.0
  H  H6  1  0.54131000  0.71544000  0.11047000  1.0
  H  H7  1  0.45869000  0.28456000  0.88953000  1.0
  H  H8  1  0.49064000  0.61374000  0.91387000  1.0
  H  H9  1  0.50936000  0.38626000  0.08613000  1.0
  H  H10  1  0.49902000  0.78003000  0.39859000  1.0
  H  H11  1  0.50098000  0.21997000  0.60141000  1.0
  H  H12  1  0.84955000  0.95454000  0.50029000  1.0
  H  H13  1  0.15044000  0.04546000  0.49971000  1.0
  H  H14  1  0.73987000  0.12229000  0.39458000  1.0
  H  H15  1  0.26013000  0.87771000  0.60542000  1.0
  H  H16  1  0.93255000  0.98752000  0.33368000  1.0
  H  H17  1  0.06744000  0.01248000  0.66632000  1.0
  H  H18  1  0.44431000  0.94247000  0.22506000  1.0
  H  H19  1  0.55569000  0.05753000  0.77494000  1.0
  H  H20  1  0.65248000  0.01295000  0.15955000  1.0
  H  H21  1  0.34751000  0.98705000  0.84045000  1.0
  H  H22  1  0.46246000  0.11669000  0.25128000  1.0
  H  H23  1  0.53754000  0.88331000  0.74872000  1.0
  C  C24  1  0.09795000  0.60490000  0.74699000  1.0
  C  C25  1  0.90205000  0.39510000  0.25301000  1.0
  C  C26  1  0.94747000  0.64236000  0.84746000  1.0
  C  C27  1  0.05253000  0.35764000  0.15254000  1.0
  C  C28  1  0.98801000  0.70282000  0.95208000  1.0
  C  C29  1  0.01199000  0.29719000  0.04793000  1.0
  C  C30  1  0.84237000  0.73004000  0.04855000  1.0
  C  C31  1  0.15763000  0.26995000  0.95144000  1.0
  C  C32  1  0.66043000  0.69721000  0.03745000  1.0
  C  C33  1  0.33958000  0.30280000  0.96255000  1.0
  C  C34  1  0.63118000  0.63851000  0.92942000  1.0
  C  C35  1  0.36883000  0.36149000  0.07058000  1.0
  C  C36  1  0.61196000  0.82198000  0.43938000  1.0
  C  C37  1  0.38804000  0.17802000  0.56062000  1.0
  C  C38  1  0.80292000  0.00529000  0.40032000  1.0
  C  C39  1  0.19707000  0.99471000  0.59968000  1.0
  C  C40  1  0.54703000  0.00644000  0.24247000  1.0
  C  C41  1  0.45297000  0.99356000  0.75753000  1.0
  N  N42  1  0.06914000  0.54473000  0.64504000  1.0
  N  N43  1  0.93086000  0.45527000  0.35496000  1.0
  N  N44  1  0.24195000  0.52306000  0.57985000  1.0
  N  N45  1  0.75805000  0.47694000  0.42015000  1.0
  N  N46  1  0.37116000  0.56879000  0.64055000  1.0
  N  N47  1  0.62884000  0.43121000  0.35945000  1.0
  N  N48  1  0.28490000  0.62057000  0.74578000  1.0
  N  N49  1  0.71510000  0.37943000  0.25422000  1.0
  N  N50  1  0.77072000  0.61129000  0.83616000  1.0
  N  N51  1  0.22928000  0.38871000  0.16385000  1.0
  N  N52  1  0.65378000  0.93860000  0.36319000  1.0
  N  N53  1  0.34622000  0.06140000  0.63681000  1.0
  Cl  Cl54  1  0.77877000  0.25493000  0.74631000  1.0
  Cl  Cl55  1  0.22123000  0.74507000  0.25369000  1.0
  O  O56  1  0.69149000  0.76496000  0.54836000  1.0
  O  O57  1  0.30851000  0.23504000  0.45164000  1.0
