# generated using pymatgen
data_CdH28C20(N5O3)2
_symmetry_space_group_name_H-M   'P 1'
_cell_length_a   10.25200000
_cell_length_b   10.25210000
_cell_length_c   15.33430000
_cell_angle_alpha   102.04900000
_cell_angle_beta   102.04900000
_cell_angle_gamma   107.18300000
_symmetry_Int_Tables_number   1
_chemical_formula_structural   CdH28C20(N5O3)2
_chemical_formula_sum   'Cd2 H56 C40 N20 O12'
_cell_volume   1441.39546208
_cell_formula_units_Z   2
loop_
 _symmetry_equiv_pos_site_id
 _symmetry_equiv_pos_as_xyz
  1  'x, y, z'
loop_
 _atom_site_type_symbol
 _atom_site_label
 _atom_site_symmetry_multiplicity
 _atom_site_fract_x
 _atom_site_fract_y
 _atom_site_fract_z
 _atom_site_occupancy
  Cd  Cd0  1  0.79107000  0.20894000  0.25000000  1.0
  Cd  Cd1  1  0.20893000  0.79107000  0.75000000  1.0
  H  H2  1  0.68741000  0.43351000  0.09063000  1.0
  H  H3  1  0.43352000  0.68742000  0.59064000  1.0
  H  H4  1  0.31258000  0.56649000  0.90937000  1.0
  H  H5  1  0.56649000  0.31258000  0.40936000  1.0
  H  H6  1  0.86352000  0.43434000  0.12889000  1.0
  H  H7  1  0.43434000  0.86353000  0.62889000  1.0
  H  H8  1  0.13647000  0.56566000  0.87111000  1.0
  H  H9  1  0.56567000  0.13648000  0.37111000  1.0
  H  H10  1  0.83472000  0.59491000  0.12045000  1.0
  H  H11  1  0.59491000  0.83473000  0.62045000  1.0
  H  H12  1  0.16527000  0.40509000  0.87955000  1.0
  H  H13  1  0.40509000  0.16528000  0.37955000  1.0
  H  H14  1  0.68519000  0.77109000  0.44361000  1.0
  H  H15  1  0.77109000  0.68518000  0.94361000  1.0
  H  H16  1  0.31482000  0.22891000  0.55640000  1.0
  H  H17  1  0.22891000  0.31481000  0.05639000  1.0
  H  H18  1  0.86376000  0.80047000  0.50395000  1.0
  H  H19  1  0.80046000  0.86375000  0.00395000  1.0
  H  H20  1  0.13624000  0.19953000  0.49605000  1.0
  H  H21  1  0.19954000  0.13624000  0.99605000  1.0
  H  H22  1  0.72352000  0.65466000  0.50889000  1.0
  H  H23  1  0.65465000  0.72352000  0.00890000  1.0
  H  H24  1  0.27648000  0.34534000  0.49111000  1.0
  H  H25  1  0.34534000  0.27648000  0.99110000  1.0
  H  H26  1  0.93441000  0.98981000  0.15990000  1.0
  H  H27  1  0.98982000  0.93441000  0.65990000  1.0
  H  H28  1  0.06559000  0.01019000  0.84010000  1.0
  H  H29  1  0.01018000  0.06559000  0.34010000  1.0
  H  H30  1  0.10398000  0.99578000  0.14397000  1.0
  H  H31  1  0.99578000  0.10398000  0.64397000  1.0
  H  H32  1  0.89602000  0.00422000  0.85603000  1.0
  H  H33  1  0.00422000  0.89602000  0.35603000  1.0
  H  H34  1  0.99248000  0.06109000  0.07351000  1.0
  H  H35  1  0.06109000  0.99248000  0.57351000  1.0
  H  H36  1  0.00752000  0.93892000  0.92649000  1.0
  H  H37  1  0.93891000  0.00752000  0.42649000  1.0
  H  H38  1  0.40408000  0.55700000  0.43459000  1.0
  H  H39  1  0.55700000  0.40407000  0.93459000  1.0
  H  H40  1  0.59593000  0.44300000  0.56542000  1.0
  H  H41  1  0.44299000  0.59593000  0.06541000  1.0
  H  H42  1  0.37398000  0.63267000  0.34239000  1.0
  H  H43  1  0.63268000  0.37397000  0.84239000  1.0
  H  H44  1  0.62603000  0.36733000  0.65761000  1.0
  H  H45  1  0.36732000  0.62602000  0.15761000  1.0
  H  H46  1  0.47965000  0.52232000  0.34128000  1.0
  H  H47  1  0.52233000  0.47965000  0.84129000  1.0
  H  H48  1  0.52036000  0.47768000  0.65872000  1.0
  H  H49  1  0.47767000  0.52035000  0.15872000  1.0
  H  H50  1  0.09770000  0.46677000  0.35376000  1.0
  H  H51  1  0.46676000  0.09769000  0.85376000  1.0
  H  H52  1  0.90231000  0.53324000  0.64625000  1.0
  H  H53  1  0.53323000  0.90230000  0.14624000  1.0
  H  H54  1  0.83371000  0.47050000  0.43378000  1.0
  H  H55  1  0.47049000  0.83371000  0.93378000  1.0
  H  H56  1  0.16629000  0.52951000  0.56622000  1.0
  H  H57  1  0.52951000  0.16629000  0.06622000  1.0
  C  C58  1  0.79032000  0.52977000  0.23795000  1.0
  C  C59  1  0.52977000  0.79033000  0.73796000  1.0
  C  C60  1  0.20967000  0.47023000  0.76204000  1.0
  C  C61  1  0.47023000  0.20967000  0.26204000  1.0
  C  C62  1  0.75702000  0.64196000  0.28823000  1.0
  C  C63  1  0.64196000  0.75703000  0.78823000  1.0
  C  C64  1  0.24297000  0.35805000  0.71177000  1.0
  C  C65  1  0.35805000  0.24297000  0.21177000  1.0
  C  C66  1  0.77377000  0.62745000  0.37843000  1.0
  C  C67  1  0.62744000  0.77377000  0.87843000  1.0
  C  C68  1  0.22623000  0.37256000  0.62157000  1.0
  C  C69  1  0.37256000  0.22623000  0.12157000  1.0
  C  C70  1  0.79409000  0.49615000  0.13933000  1.0
  C  C71  1  0.49616000  0.79409000  0.63933000  1.0
  C  C72  1  0.20591000  0.50385000  0.86067000  1.0
  C  C73  1  0.50385000  0.20591000  0.36067000  1.0
  C  C74  1  0.76029000  0.71765000  0.46320000  1.0
  C  C75  1  0.71765000  0.76029000  0.96320000  1.0
  C  C76  1  0.23971000  0.28235000  0.53680000  1.0
  C  C77  1  0.28235000  0.23970000  0.03680000  1.0
  C  C78  1  0.09826000  0.19694000  0.21215000  1.0
  C  C79  1  0.19694000  0.09826000  0.71216000  1.0
  C  C80  1  0.90175000  0.80307000  0.78785000  1.0
  C  C81  1  0.80306000  0.90174000  0.28784000  1.0
  C  C82  1  0.71908000  0.75445000  0.25698000  1.0
  C  C83  1  0.75446000  0.71909000  0.75699000  1.0
  C  C84  1  0.28092000  0.24555000  0.74302000  1.0
  C  C85  1  0.24556000  0.28091000  0.24301000  1.0
  C  C86  1  0.25773000  0.40754000  0.30584000  1.0
  C  C87  1  0.40754000  0.25773000  0.80584000  1.0
  C  C88  1  0.74227000  0.59246000  0.69417000  1.0
  C  C89  1  0.59246000  0.74227000  0.19416000  1.0
  C  C90  1  0.02861000  0.05257000  0.14413000  1.0
  C  C91  1  0.05256000  0.02861000  0.64413000  1.0
  C  C92  1  0.97139000  0.94744000  0.85587000  1.0
  C  C93  1  0.94743000  0.97139000  0.35587000  1.0
  C  C94  1  0.38558000  0.53667000  0.35897000  1.0
  C  C95  1  0.53667000  0.38557000  0.85897000  1.0
  C  C96  1  0.61443000  0.46333000  0.64104000  1.0
  C  C97  1  0.46333000  0.61442000  0.14103000  1.0
  N  N98  1  0.82379000  0.45179000  0.29390000  1.0
  N  N99  1  0.45179000  0.82379000  0.79390000  1.0
  N  N100  1  0.17621000  0.54821000  0.70610000  1.0
  N  N101  1  0.54821000  0.17621000  0.20610000  1.0
  N  N102  1  0.81229000  0.51245000  0.37812000  1.0
  N  N103  1  0.51245000  0.81229000  0.87812000  1.0
  N  N104  1  0.18771000  0.48754000  0.62188000  1.0
  N  N105  1  0.48755000  0.18771000  0.12188000  1.0
  N  N106  1  0.02605000  0.26818000  0.25385000  1.0
  N  N107  1  0.26818000  0.02604000  0.75385000  1.0
  N  N108  1  0.97396000  0.73183000  0.74615000  1.0
  N  N109  1  0.73182000  0.97396000  0.24614000  1.0
  N  N110  1  0.12419000  0.39512000  0.30966000  1.0
  N  N111  1  0.39512000  0.12419000  0.80966000  1.0
  N  N112  1  0.87582000  0.60487000  0.69034000  1.0
  N  N113  1  0.60487000  0.87581000  0.19033000  1.0
  N  N114  1  0.85985000  0.28439000  0.50250000  1.0
  N  N115  1  0.28438000  0.85984000  0.00250000  1.0
  N  N116  1  0.14015000  0.71561000  0.49750000  1.0
  N  N117  1  0.71561000  0.14015000  0.99750000  1.0
  O  O118  1  0.88450000  0.24905000  0.42453000  1.0
  O  O119  1  0.24905000  0.88450000  0.92453000  1.0
  O  O120  1  0.11548000  0.75094000  0.57546000  1.0
  O  O121  1  0.75096000  0.11550000  0.07547000  1.0
  O  O122  1  0.85283000  0.20605000  0.55451000  1.0
  O  O123  1  0.20604000  0.85282000  0.05450000  1.0
  O  O124  1  0.14718000  0.79396000  0.44549000  1.0
  O  O125  1  0.79396000  0.14718000  0.94549000  1.0
  O  O126  1  0.84357000  0.40554000  0.52692000  1.0
  O  O127  1  0.40554000  0.84357000  0.02693000  1.0
  O  O128  1  0.15643000  0.59446000  0.47307000  1.0
  O  O129  1  0.59446000  0.15642000  0.97307000  1.0
