# generated using pymatgen
data_NiH14C21S2N4O5
_symmetry_space_group_name_H-M   'P 1'
_cell_length_a   9.05586000
_cell_length_b   9.47472000
_cell_length_c   13.36310000
_cell_angle_alpha   90.21780000
_cell_angle_beta   104.25600000
_cell_angle_gamma   107.04700000
_symmetry_Int_Tables_number   1
_chemical_formula_structural   NiH14C21S2N4O5
_chemical_formula_sum   'Ni2 H28 C42 S4 N8 O10'
_cell_volume   1058.86563398
_cell_formula_units_Z   2
loop_
 _symmetry_equiv_pos_site_id
 _symmetry_equiv_pos_as_xyz
  1  'x, y, z'
loop_
 _atom_site_type_symbol
 _atom_site_label
 _atom_site_symmetry_multiplicity
 _atom_site_fract_x
 _atom_site_fract_y
 _atom_site_fract_z
 _atom_site_occupancy
  Ni  Ni0  1  0.50000000  0.50000000  0.00000000  1.0
  Ni  Ni1  1  0.00000000  0.00000000  0.00000000  1.0
  H  H2  1  0.26857000  0.27275000  0.68850000  1.0
  H  H3  1  0.73143000  0.72724000  0.31150000  1.0
  H  H4  1  0.34453000  0.08980000  0.80733000  1.0
  H  H5  1  0.65547000  0.91020000  0.19267000  1.0
  H  H6  1  0.46922000  0.91160000  0.74980000  1.0
  H  H7  1  0.53078000  0.08840000  0.25019000  1.0
  H  H8  1  0.32338000  0.28182000  0.51374000  1.0
  H  H9  1  0.67661000  0.71818000  0.48626000  1.0
  H  H10  1  0.53066000  0.62625000  0.79307000  1.0
  H  H11  1  0.46934000  0.37376000  0.20694000  1.0
  H  H12  1  0.63763000  0.57667000  0.64726000  1.0
  H  H13  1  0.36237000  0.42333000  0.35274000  1.0
  H  H14  1  0.81241000  0.25107000  0.82483000  1.0
  H  H15  1  0.18759000  0.74893000  0.17517000  1.0
  H  H16  1  0.69426000  0.31298000  0.96353000  1.0
  H  H17  1  0.30574000  0.68702000  0.03647000  1.0
  H  H18  1  0.10353000  0.95247000  0.22991000  1.0
  H  H19  1  0.89648000  0.04753000  0.77009000  1.0
  H  H20  1  0.06125000  0.04064000  0.39497000  1.0
  H  H21  1  0.93875000  0.95936000  0.60503000  1.0
  H  H22  1  0.89032000  0.37351000  0.22524000  1.0
  H  H23  1  0.10968000  0.62649000  0.77476000  1.0
  H  H24  1  0.93933000  0.27177000  0.06854000  1.0
  H  H25  1  0.06068000  0.72823000  0.93146000  1.0
  H  H26  1  0.90293000  0.24629000  0.58794000  1.0
  H  H27  1  0.09707000  0.75372000  0.41207000  1.0
  H  H28  1  0.82923000  0.39432000  0.46588000  1.0
  H  H29  1  0.17077000  0.60568000  0.53412000  1.0
  C  C30  1  0.32360000  0.19548000  0.66348000  1.0
  C  C31  1  0.67640000  0.80451000  0.33652000  1.0
  C  C32  1  0.36585000  0.09228000  0.73037000  1.0
  C  C33  1  0.63415000  0.90771000  0.26963000  1.0
  C  C34  1  0.43555000  0.99263000  0.69884000  1.0
  C  C35  1  0.56446000  0.00737000  0.30116000  1.0
  C  C36  1  0.46580000  0.99643000  0.60085000  1.0
  C  C37  1  0.53420000  0.00357000  0.39915000  1.0
  C  C38  1  0.42570000  0.10231000  0.53388000  1.0
  C  C39  1  0.57430000  0.89769000  0.46612000  1.0
  C  C40  1  0.54035000  0.88894000  0.56952000  1.0
  C  C41  1  0.45965000  0.11106000  0.43048000  1.0
  C  C42  1  0.35392000  0.20072000  0.56598000  1.0
  C  C43  1  0.64608000  0.79927000  0.43402000  1.0
  C  C44  1  0.61133000  0.83291000  0.96074000  1.0
  C  C45  1  0.38868000  0.16710000  0.03926000  1.0
  C  C46  1  0.86614000  0.70233000  0.09050000  1.0
  C  C47  1  0.13386000  0.29767000  0.90950000  1.0
  C  C48  1  0.59326000  0.54354000  0.79718000  1.0
  C  C49  1  0.40674000  0.45646000  0.20282000  1.0
  C  C50  1  0.65351000  0.51541000  0.71572000  1.0
  C  C51  1  0.34649000  0.48459000  0.28428000  1.0
  C  C52  1  0.73307000  0.40818000  0.72427000  1.0
  C  C53  1  0.26693000  0.59182000  0.27573000  1.0
  C  C54  1  0.75094000  0.33479000  0.81481000  1.0
  C  C55  1  0.24906000  0.66521000  0.18519000  1.0
  C  C56  1  0.68684000  0.36953000  0.89256000  1.0
  C  C57  1  0.31316000  0.63048000  0.10744000  1.0
  C  C58  1  0.79372000  0.37236000  0.63685000  1.0
  C  C59  1  0.20628000  0.62764000  0.36315000  1.0
  C  C60  1  0.05686000  0.04554000  0.23258000  1.0
  C  C61  1  0.94314000  0.95446000  0.76742000  1.0
  C  C62  1  0.03412000  0.09513000  0.32415000  1.0
  C  C63  1  0.96588000  0.90487000  0.67585000  1.0
  C  C64  1  0.97008000  0.21282000  0.32232000  1.0
  C  C65  1  0.02992000  0.78718000  0.67768000  1.0
  C  C66  1  0.93793000  0.28008000  0.22996000  1.0
  C  C67  1  0.06207000  0.71992000  0.77004000  1.0
  C  C68  1  0.96401000  0.22349000  0.14228000  1.0
  C  C69  1  0.03599000  0.77651000  0.85772000  1.0
  C  C70  1  0.93009000  0.26179000  0.41534000  1.0
  C  C71  1  0.06991000  0.73821000  0.58466000  1.0
  S  S72  1  0.71492000  0.99935000  0.94517000  1.0
  S  S73  1  0.28508000  0.00065000  0.05483000  1.0
  S  S74  1  0.75839000  0.55949000  0.13425000  1.0
  S  S75  1  0.24161000  0.44051000  0.86576000  1.0
  N  N76  1  0.53511000  0.71159000  0.97138000  1.0
  N  N77  1  0.46489000  0.28840000  0.02862000  1.0
  N  N78  1  0.94600000  0.80600000  0.05900000  1.0
  N  N79  1  0.05400000  0.19401000  0.94100000  1.0
  N  N80  1  0.60832000  0.47111000  0.88390000  1.0
  N  N81  1  0.39168000  0.52889000  0.11610000  1.0
  N  N82  1  0.01863000  0.10582000  0.14251000  1.0
  N  N83  1  0.98138000  0.89418000  0.85749000  1.0
  O  O84  1  0.57263000  0.79474000  0.62793000  1.0
  O  O85  1  0.42737000  0.20526000  0.37207000  1.0
  O  O86  1  0.86223000  0.26652000  0.65159000  1.0
  O  O87  1  0.13777000  0.73349000  0.34841000  1.0
  O  O88  1  0.77770000  0.43927000  0.55641000  1.0
  O  O89  1  0.22230000  0.56073000  0.44359000  1.0
  O  O90  1  0.95909000  0.20395000  0.49896000  1.0
  O  O91  1  0.04092000  0.79605000  0.50104000  1.0
  O  O92  1  0.86023000  0.36645000  0.40008000  1.0
  O  O93  1  0.13977000  0.63354000  0.59992000  1.0
