# generated using pymatgen
data_Ni2H21C26NO10
_symmetry_space_group_name_H-M   'P 1'
_cell_length_a   12.56320000
_cell_length_b   14.06740000
_cell_length_c   15.78940000
_cell_angle_alpha   89.99990000
_cell_angle_beta   98.10840000
_cell_angle_gamma   90.00000000
_symmetry_Int_Tables_number   1
_chemical_formula_structural   Ni2H21C26NO10
_chemical_formula_sum   'Ni8 H84 C104 N4 O40'
_cell_volume   2762.58877873
_cell_formula_units_Z   4
loop_
 _symmetry_equiv_pos_site_id
 _symmetry_equiv_pos_as_xyz
  1  'x, y, z'
loop_
 _atom_site_type_symbol
 _atom_site_label
 _atom_site_symmetry_multiplicity
 _atom_site_fract_x
 _atom_site_fract_y
 _atom_site_fract_z
 _atom_site_occupancy
  Ni  Ni0  1  0.00000000  0.00000000  0.00000000  1.0
  Ni  Ni1  1  0.50000000  0.50000000  0.50000000  1.0
  Ni  Ni2  1  0.97796000  0.25114000  0.98324000  1.0
  Ni  Ni3  1  0.52204000  0.75114000  0.51676000  1.0
  Ni  Ni4  1  0.02204000  0.74886000  0.01676000  1.0
  Ni  Ni5  1  0.47796000  0.24886000  0.48324000  1.0
  Ni  Ni6  1  0.00000000  0.50000000  0.00000000  1.0
  Ni  Ni7  1  0.50000000  0.00000000  0.50000000  1.0
  H  H8  1  0.26882000  0.05260000  0.20567000  1.0
  H  H9  1  0.23118000  0.55260000  0.29433000  1.0
  H  H10  1  0.73118000  0.94740000  0.79433000  1.0
  H  H11  1  0.76882000  0.44740000  0.70567000  1.0
  H  H12  1  0.45983000  0.04675000  0.26933000  1.0
  H  H13  1  0.04017000  0.54675000  0.23067000  1.0
  H  H14  1  0.54017000  0.95325000  0.73067000  1.0
  H  H15  1  0.95983000  0.45325000  0.76933000  1.0
  H  H16  1  0.53409000  0.25201000  0.08316000  1.0
  H  H17  1  0.96591000  0.75201000  0.41684000  1.0
  H  H18  1  0.46591000  0.74798000  0.91684000  1.0
  H  H19  1  0.03408000  0.24799000  0.58316000  1.0
  H  H20  1  0.34143000  0.25709000  0.02086000  1.0
  H  H21  1  0.15857000  0.75709000  0.47914000  1.0
  H  H22  1  0.65857000  0.74291000  0.97914000  1.0
  H  H23  1  0.84143000  0.24291000  0.52086000  1.0
  H  H24  1  0.80120000  0.09894000  0.39718000  1.0
  H  H25  1  0.69880000  0.59894000  0.10282000  1.0
  H  H26  1  0.19880000  0.90106000  0.60282000  1.0
  H  H27  1  0.30120000  0.40106000  0.89718000  1.0
  H  H28  1  0.67799000  0.15211000  0.08977000  1.0
  H  H29  1  0.82201000  0.65211000  0.41023000  1.0
  H  H30  1  0.32202000  0.84790000  0.91023000  1.0
  H  H31  1  0.17799000  0.34790000  0.58977000  1.0
  H  H32  1  0.94739000  0.00020000  0.40338000  1.0
  H  H33  1  0.55261000  0.50020000  0.09662000  1.0
  H  H34  1  0.05261000  0.99980000  0.59662000  1.0
  H  H35  1  0.44739000  0.49980000  0.90338000  1.0
  H  H36  1  0.14108000  0.99523000  0.46352000  1.0
  H  H37  1  0.35892000  0.49523000  0.03648000  1.0
  H  H38  1  0.85892000  0.00477000  0.53648000  1.0
  H  H39  1  0.64108000  0.50477000  0.96352000  1.0
  H  H40  1  0.20870000  0.20503000  0.28179000  1.0
  H  H41  1  0.29131000  0.70503000  0.21821000  1.0
  H  H42  1  0.79131000  0.79497000  0.71821000  1.0
  H  H43  1  0.70869000  0.29497000  0.78179000  1.0
  H  H44  1  0.01673000  0.20960000  0.21949000  1.0
  H  H45  1  0.48327000  0.70960000  0.28051000  1.0
  H  H46  1  0.98328000  0.79040000  0.78051000  1.0
  H  H47  1  0.51673000  0.29040000  0.71949000  1.0
  H  H48  1  0.92510000  0.11201000  0.71227000  1.0
  H  H49  1  0.57490000  0.61201000  0.78773000  1.0
  H  H50  1  0.07490000  0.88799000  0.28773000  1.0
  H  H51  1  0.42510000  0.38799000  0.21227000  1.0
  H  H52  1  0.02500000  0.05944000  0.79112000  1.0
  H  H53  1  0.47500000  0.55944000  0.70889000  1.0
  H  H54  1  0.97500000  0.94056000  0.20888000  1.0
  H  H55  1  0.52500000  0.44056000  0.29112000  1.0
  H  H56  1  0.01540000  0.18440000  0.78351000  1.0
  H  H57  1  0.48459000  0.68440000  0.71649000  1.0
  H  H58  1  0.98459000  0.81560000  0.21649000  1.0
  H  H59  1  0.51540000  0.31560000  0.28351000  1.0
  H  H60  1  0.77445000  0.11441000  0.95716000  1.0
  H  H61  1  0.72555000  0.61441000  0.54284000  1.0
  H  H62  1  0.22555000  0.88559000  0.04284000  1.0
  H  H63  1  0.27445000  0.38559000  0.45716000  1.0
  H  H64  1  0.66746000  0.06132000  0.88639000  1.0
  H  H65  1  0.83254000  0.56132000  0.61361000  1.0
  H  H66  1  0.33254000  0.93868000  0.11361000  1.0
  H  H67  1  0.16746000  0.43868000  0.38639000  1.0
  H  H68  1  0.67891000  0.18847000  0.89342000  1.0
  H  H69  1  0.82109000  0.68847000  0.60658000  1.0
  H  H70  1  0.32109000  0.81153000  0.10658000  1.0
  H  H71  1  0.17891000  0.31153000  0.39342000  1.0
  H  H72  1  0.75940000  0.18428000  0.70451000  1.0
  H  H73  1  0.74060000  0.68428000  0.79549000  1.0
  H  H74  1  0.24060000  0.81572000  0.29549000  1.0
  H  H75  1  0.25940000  0.31572000  0.20451000  1.0
  H  H76  1  0.65011000  0.12422000  0.74224000  1.0
  H  H77  1  0.84989000  0.62422000  0.75776000  1.0
  H  H78  1  0.34989000  0.87577000  0.25776000  1.0
  H  H79  1  0.15011000  0.37577000  0.24224000  1.0
  H  H80  1  0.75358000  0.05785000  0.70383000  1.0
  H  H81  1  0.74642000  0.55785000  0.79617000  1.0
  H  H82  1  0.24642000  0.94215000  0.29617000  1.0
  H  H83  1  0.25358000  0.44215000  0.20383000  1.0
  H  H84  1  0.96441000  0.36107000  0.10882000  1.0
  H  H85  1  0.53559000  0.86107000  0.39119000  1.0
  H  H86  1  0.03559000  0.63893000  0.89118000  1.0
  H  H87  1  0.46441000  0.13893000  0.60881000  1.0
  H  H88  1  0.08431000  0.34488000  0.08755000  1.0
  H  H89  1  0.41569000  0.84488000  0.41246000  1.0
  H  H90  1  0.91569000  0.65512000  0.91246000  1.0
  H  H91  1  0.58431000  0.15512000  0.58755000  1.0
  C  C92  1  0.29280000  0.15337000  0.10852000  1.0
  C  C93  1  0.20720000  0.65337000  0.39148000  1.0
  C  C94  1  0.70720000  0.84663000  0.89148000  1.0
  C  C95  1  0.79280000  0.34663000  0.60852000  1.0
  C  C96  1  0.32777000  0.09610000  0.17947000  1.0
  C  C97  1  0.17224000  0.59610000  0.32053000  1.0
  C  C98  1  0.67223000  0.90390000  0.82053000  1.0
  C  C99  1  0.82777000  0.40390000  0.67947000  1.0
  C  C100  1  0.43520000  0.09360000  0.21515000  1.0
  C  C101  1  0.06480000  0.59360000  0.28485000  1.0
  C  C102  1  0.56480000  0.90640000  0.78485000  1.0
  C  C103  1  0.93520000  0.40640000  0.71515000  1.0
  C  C104  1  0.51239000  0.14788000  0.18021000  1.0
  C  C105  1  0.98761000  0.64788000  0.31979000  1.0
  C  C106  1  0.48761000  0.85212000  0.81979000  1.0
  C  C107  1  0.01239000  0.35212000  0.68021000  1.0
  C  C108  1  0.47635000  0.20733000  0.11018000  1.0
  C  C109  1  0.02365000  0.70733000  0.38982000  1.0
  C  C110  1  0.52365000  0.79267000  0.88982000  1.0
  C  C111  1  0.97635000  0.29267000  0.61018000  1.0
  C  C112  1  0.36803000  0.21099000  0.07527000  1.0
  C  C113  1  0.13197000  0.71099000  0.42473000  1.0
  C  C114  1  0.63197000  0.78901000  0.92473000  1.0
  C  C115  1  0.86803000  0.28901000  0.57527000  1.0
  C  C116  1  0.62782000  0.13923000  0.21432000  1.0
  C  C117  1  0.87218000  0.63923000  0.28568000  1.0
  C  C118  1  0.37218000  0.86077000  0.78568000  1.0
  C  C119  1  0.12782000  0.36077000  0.71432000  1.0
  C  C120  1  0.66525000  0.12223000  0.30164000  1.0
  C  C121  1  0.83475000  0.62223000  0.19836000  1.0
  C  C122  1  0.33475000  0.87777000  0.69836000  1.0
  C  C123  1  0.16525000  0.37777000  0.80164000  1.0
  C  C124  1  0.77470000  0.10925000  0.32898000  1.0
  C  C125  1  0.72530000  0.60925000  0.17102000  1.0
  C  C126  1  0.22530000  0.89075000  0.67102000  1.0
  C  C127  1  0.27470000  0.39075000  0.82897000  1.0
  C  C128  1  0.85170000  0.11347000  0.27289000  1.0
  C  C129  1  0.64830000  0.61347000  0.22711000  1.0
  C  C130  1  0.14830000  0.88653000  0.72711000  1.0
  C  C131  1  0.35170000  0.38653000  0.77289000  1.0
  C  C132  1  0.81443000  0.12965000  0.18542000  1.0
  C  C133  1  0.68557000  0.62965000  0.31458000  1.0
  C  C134  1  0.18557000  0.87035000  0.81458000  1.0
  C  C135  1  0.31443000  0.37035000  0.68542000  1.0
  C  C136  1  0.70483000  0.14248000  0.15804000  1.0
  C  C137  1  0.79517000  0.64248000  0.34196000  1.0
  C  C138  1  0.29517000  0.85752000  0.84196000  1.0
  C  C139  1  0.20483000  0.35752000  0.65804000  1.0
  C  C140  1  0.96696000  0.10637000  0.30744000  1.0
  C  C141  1  0.53304000  0.60637000  0.19256000  1.0
  C  C142  1  0.03304000  0.89363000  0.69256000  1.0
  C  C143  1  0.46696000  0.39363000  0.80744000  1.0
  C  C144  1  0.00413000  0.04655000  0.37696000  1.0
  C  C145  1  0.49587000  0.54656000  0.12304000  1.0
  C  C146  1  0.99587000  0.95345000  0.62304000  1.0
  C  C147  1  0.50413000  0.45344000  0.87696000  1.0
  C  C148  1  0.11285000  0.04313000  0.41078000  1.0
  C  C149  1  0.38715000  0.54313000  0.08923000  1.0
  C  C150  1  0.88715000  0.95687000  0.58923000  1.0
  C  C151  1  0.61285000  0.45687000  0.91077000  1.0
  C  C152  1  0.18700000  0.10175000  0.37743000  1.0
  C  C153  1  0.31300000  0.60174000  0.12257000  1.0
  C  C154  1  0.81300000  0.89826000  0.62257000  1.0
  C  C155  1  0.68700000  0.39825000  0.87743000  1.0
  C  C156  1  0.15063000  0.16060000  0.30796000  1.0
  C  C157  1  0.34937000  0.66060000  0.19204000  1.0
  C  C158  1  0.84937000  0.83940000  0.69204000  1.0
  C  C159  1  0.65063000  0.33939000  0.80796000  1.0
  C  C160  1  0.04302000  0.16245000  0.27303000  1.0
  C  C161  1  0.45698000  0.66245000  0.22697000  1.0
  C  C162  1  0.95698000  0.83755000  0.72697000  1.0
  C  C163  1  0.54302000  0.33755000  0.77303000  1.0
  C  C164  1  0.17759000  0.14695000  0.06757000  1.0
  C  C165  1  0.32241000  0.64695000  0.43243000  1.0
  C  C166  1  0.82241000  0.85305000  0.93243000  1.0
  C  C167  1  0.67759000  0.35305000  0.56757000  1.0
  C  C168  1  0.59361000  0.12263000  0.37048000  1.0
  C  C169  1  0.90639000  0.62263000  0.12952000  1.0
  C  C170  1  0.40639000  0.87737000  0.62952000  1.0
  C  C171  1  0.09361000  0.37737000  0.87048000  1.0
  C  C172  1  0.30290000  0.10777000  0.41645000  1.0
  C  C173  1  0.19710000  0.60777000  0.08355000  1.0
  C  C174  1  0.69710000  0.89223000  0.58355000  1.0
  C  C175  1  0.80290000  0.39223000  0.91645000  1.0
  C  C176  1  0.88635000  0.12848000  0.11642000  1.0
  C  C177  1  0.61365000  0.62848000  0.38358000  1.0
  C  C178  1  0.11365000  0.87152000  0.88358000  1.0
  C  C179  1  0.38635000  0.37152000  0.61642000  1.0
  C  C180  1  0.96807000  0.11844000  0.77707000  1.0
  C  C181  1  0.53193000  0.61844000  0.72293000  1.0
  C  C182  1  0.03193000  0.88156000  0.22293000  1.0
  C  C183  1  0.46807000  0.38157000  0.27707000  1.0
  C  C184  1  0.89867000  0.11980000  0.84600000  1.0
  C  C185  1  0.60133000  0.61980000  0.65400000  1.0
  C  C186  1  0.10133000  0.88020000  0.15400000  1.0
  C  C187  1  0.39867000  0.38020000  0.34600000  1.0
  C  C188  1  0.72352000  0.12133000  0.89568000  1.0
  C  C189  1  0.77648000  0.62133000  0.60432000  1.0
  C  C190  1  0.27648000  0.87867000  0.10432000  1.0
  C  C191  1  0.22352000  0.37867000  0.39568000  1.0
  C  C192  1  0.73664000  0.12171000  0.73952000  1.0
  C  C193  1  0.76336000  0.62171000  0.76048000  1.0
  C  C194  1  0.26336000  0.87829000  0.26048000  1.0
  C  C195  1  0.23664000  0.37829000  0.23952000  1.0
  N  N196  1  0.79163000  0.12039000  0.82784000  1.0
  N  N197  1  0.70837000  0.62039000  0.67216000  1.0
  N  N198  1  0.20837000  0.87961000  0.17216000  1.0
  N  N199  1  0.29163000  0.37961000  0.32784000  1.0
  O  O200  1  0.12897000  0.22526000  0.04684000  1.0
  O  O201  1  0.37103000  0.72526000  0.45316000  1.0
  O  O202  1  0.87103000  0.77474000  0.95316000  1.0
  O  O203  1  0.62897000  0.27474000  0.54684000  1.0
  O  O204  1  0.13947000  0.06389000  0.05728000  1.0
  O  O205  1  0.36053000  0.56389000  0.44272000  1.0
  O  O206  1  0.86053000  0.93611000  0.94273000  1.0
  O  O207  1  0.63947000  0.43611000  0.55728000  1.0
  O  O208  1  0.55252000  0.20192000  0.38580000  1.0
  O  O209  1  0.94748000  0.70192000  0.11420000  1.0
  O  O210  1  0.44748000  0.79808000  0.61420000  1.0
  O  O211  1  0.05252000  0.29808000  0.88580000  1.0
  O  O212  1  0.58523000  0.04338000  0.40792000  1.0
  O  O213  1  0.91477000  0.54338000  0.09208000  1.0
  O  O214  1  0.41477000  0.95662000  0.59208000  1.0
  O  O215  1  0.08523000  0.45662000  0.90792000  1.0
  O  O216  1  0.35326000  0.02986000  0.43224000  1.0
  O  O217  1  0.14674000  0.52986000  0.06776000  1.0
  O  O218  1  0.64674000  0.97014000  0.56776000  1.0
  O  O219  1  0.85326000  0.47014000  0.93224000  1.0
  O  O220  1  0.33763000  0.19216000  0.42917000  1.0
  O  O221  1  0.16237000  0.69216000  0.07083000  1.0
  O  O222  1  0.66237000  0.80784000  0.57083000  1.0
  O  O223  1  0.83763000  0.30784000  0.92917000  1.0
  O  O224  1  0.91799000  0.04742000  0.09570000  1.0
  O  O225  1  0.58201000  0.54741000  0.40430000  1.0
  O  O226  1  0.08201000  0.95258000  0.90430000  1.0
  O  O227  1  0.41799000  0.45258000  0.59570000  1.0
  O  O228  1  0.90364000  0.20932000  0.08422000  1.0
  O  O229  1  0.59636000  0.70932000  0.41578000  1.0
  O  O230  1  0.09636000  0.79068000  0.91578000  1.0
  O  O231  1  0.40364000  0.29068000  0.58422000  1.0
  O  O232  1  0.94429000  0.12201000  0.92430000  1.0
  O  O233  1  0.55571000  0.62201000  0.57570000  1.0
  O  O234  1  0.05571000  0.87799000  0.07570000  1.0
  O  O235  1  0.44429000  0.37799000  0.42430000  1.0
  O  O236  1  0.01288000  0.37163000  0.06634000  1.0
  O  O237  1  0.48712000  0.87163000  0.43366000  1.0
  O  O238  1  0.98713000  0.62837000  0.93367000  1.0
  O  O239  1  0.51288000  0.12837000  0.56634000  1.0
