# generated using pymatgen
data_Sn2H22C10SO4
_symmetry_space_group_name_H-M   'P 1'
_cell_length_a   8.03636000
_cell_length_b   9.73299000
_cell_length_c   11.16990000
_cell_angle_alpha   98.51320000
_cell_angle_beta   100.41400000
_cell_angle_gamma   109.43100000
_symmetry_Int_Tables_number   1
_chemical_formula_structural   Sn2H22C10SO4
_chemical_formula_sum   'Sn4 H44 C20 S2 O8'
_cell_volume   789.67638750
_cell_formula_units_Z   2
loop_
 _symmetry_equiv_pos_site_id
 _symmetry_equiv_pos_as_xyz
  1  'x, y, z'
loop_
 _atom_site_type_symbol
 _atom_site_label
 _atom_site_symmetry_multiplicity
 _atom_site_fract_x
 _atom_site_fract_y
 _atom_site_fract_z
 _atom_site_occupancy
  Sn  Sn0  1  0.62301000  0.97290000  0.29116000  1.0
  Sn  Sn1  1  0.37698000  0.02710000  0.70885000  1.0
  Sn  Sn2  1  0.19123000  0.40288000  0.22836000  1.0
  Sn  Sn3  1  0.80878000  0.59712000  0.77164000  1.0
  H  H4  1  0.05692000  0.84440000  0.39801000  1.0
  H  H5  1  0.94309000  0.15560000  0.60199000  1.0
  H  H6  1  0.98892000  0.64541000  0.35258000  1.0
  H  H7  1  0.01109000  0.35460000  0.64742000  1.0
  H  H8  1  0.73104000  0.26800000  0.28622000  1.0
  H  H9  1  0.26896000  0.73200000  0.71378000  1.0
  H  H10  1  0.72779000  0.24936000  0.44212000  1.0
  H  H11  1  0.27220000  0.75064000  0.55788000  1.0
  H  H12  1  0.51865000  0.20993000  0.33024000  1.0
  H  H13  1  0.48135000  0.79007000  0.66976000  1.0
  H  H14  1  0.84546000  0.90249000  0.46399000  1.0
  H  H15  1  0.15454000  0.09751000  0.53601000  1.0
  H  H16  1  0.63939000  0.74370000  0.39456000  1.0
  H  H17  1  0.36060000  0.25630000  0.60544000  1.0
  H  H18  1  0.64290000  0.89210000  0.51302000  1.0
  H  H19  1  0.35710000  0.10790000  0.48698000  1.0
  H  H20  1  0.40374000  0.88655000  0.05881000  1.0
  H  H21  1  0.59626000  0.11344000  0.94119000  1.0
  H  H22  1  0.50324000  0.75098000  0.08236000  1.0
  H  H23  1  0.49677000  0.24901000  0.91765000  1.0
  H  H24  1  0.63130000  0.92194000  0.04528000  1.0
  H  H25  1  0.36870000  0.07806000  0.95473000  1.0
  H  H26  1  0.20216000  0.32062000  0.44931000  1.0
  H  H27  1  0.79784000  0.67938000  0.55069000  1.0
  H  H28  1  0.09508000  0.45429000  0.44566000  1.0
  H  H29  1  0.90491000  0.54571000  0.55433000  1.0
  H  H30  1  0.33792000  0.51665000  0.47823000  1.0
  H  H31  1  0.66208000  0.48336000  0.52177000  1.0
  H  H32  1  0.12680000  0.89698000  0.11444000  1.0
  H  H33  1  0.87320000  0.10302000  0.88556000  1.0
  H  H34  1  0.90893000  0.88254000  0.03595000  1.0
  H  H35  1  0.09108000  0.11746000  0.96405000  1.0
  H  H36  1  0.54548000  0.53459000  0.22595000  1.0
  H  H37  1  0.45452000  0.46542000  0.77404000  1.0
  H  H38  1  0.40533000  0.48528000  0.07122000  1.0
  H  H39  1  0.59467000  0.51473000  0.92878000  1.0
  H  H40  1  0.45784000  0.34408000  0.13900000  1.0
  H  H41  1  0.54216000  0.65593000  0.86100000  1.0
  H  H42  1  0.94915000  0.35932000  0.00978000  1.0
  H  H43  1  0.05085000  0.64068000  0.99022000  1.0
  H  H44  1  0.87812000  0.44431000  0.13320000  1.0
  H  H45  1  0.12189000  0.55568000  0.86680000  1.0
  H  H46  1  0.83792000  0.24865000  0.10770000  1.0
  H  H47  1  0.16209000  0.75134000  0.89230000  1.0
  C  C48  1  0.04563000  0.75135000  0.32448000  1.0
  C  C49  1  0.95437000  0.24865000  0.67552000  1.0
  C  C50  1  0.65406000  0.20334000  0.34384000  1.0
  C  C51  1  0.34593000  0.79666000  0.65617000  1.0
  C  C52  1  0.23061000  0.77329000  0.29838000  1.0
  C  C53  1  0.76939000  0.22671000  0.70161000  1.0
  C  C54  1  0.69706000  0.86436000  0.43346000  1.0
  C  C55  1  0.30293000  0.13564000  0.56654000  1.0
  C  C56  1  0.53028000  0.87068000  0.09537000  1.0
  C  C57  1  0.46972000  0.12932000  0.90463000  1.0
  C  C58  1  0.21013000  0.42693000  0.42490000  1.0
  C  C59  1  0.78987000  0.57308000  0.57510000  1.0
  C  C60  1  0.99598000  0.89810000  0.12928000  1.0
  C  C61  1  0.00402000  0.10190000  0.87072000  1.0
  C  C62  1  0.42970000  0.44670000  0.15776000  1.0
  C  C63  1  0.57030000  0.55330000  0.84224000  1.0
  C  C64  1  0.93232000  0.35851000  0.10491000  1.0
  C  C65  1  0.06768000  0.64149000  0.89509000  1.0
  C  C66  1  0.02767000  0.05282000  0.20435000  1.0
  C  C67  1  0.97233000  0.94718000  0.79566000  1.0
  S  S68  1  0.87936000  0.73692000  0.18428000  1.0
  S  S69  1  0.12063000  0.26308000  0.81572000  1.0
  O  O70  1  0.33655000  0.91041000  0.31752000  1.0
  O  O71  1  0.66345000  0.08960000  0.68248000  1.0
  O  O72  1  0.27278000  0.66454000  0.25736000  1.0
  O  O73  1  0.72721000  0.33547000  0.74263000  1.0
  O  O74  1  0.93166000  0.07454000  0.27733000  1.0
  O  O75  1  0.06834000  0.92545000  0.72266000  1.0
  O  O76  1  0.15682000  0.15792000  0.18198000  1.0
  O  O77  1  0.84319000  0.84208000  0.81803000  1.0
