# generated using pymatgen
data_AlH9C21Br3NO6
_symmetry_space_group_name_H-M   'P 1'
_cell_length_a   4.12177000
_cell_length_b   23.39310000
_cell_length_c   23.39325359
_cell_angle_alpha   59.99865156
_cell_angle_beta   89.99759999
_cell_angle_gamma   89.99620000
_symmetry_Int_Tables_number   1
_chemical_formula_structural   AlH9C21Br3NO6
_chemical_formula_sum   'Al3 H27 C63 Br9 N3 O18'
_cell_volume   1953.38068623
_cell_formula_units_Z   3
loop_
 _symmetry_equiv_pos_site_id
 _symmetry_equiv_pos_as_xyz
  1  'x, y, z'
loop_
 _atom_site_type_symbol
 _atom_site_label
 _atom_site_symmetry_multiplicity
 _atom_site_fract_x
 _atom_site_fract_y
 _atom_site_fract_z
 _atom_site_occupancy
  Al  Al0  1  0.98924000  0.49971000  0.49982000  1.0
  Al  Al1  1  0.98912000  0.83381000  0.83305000  1.0
  Al  Al2  1  0.98947000  0.16648000  0.16715000  1.0
  H  H3  1  0.21225000  0.05321000  0.07849000  1.0
  H  H4  1  0.19834000  0.94883000  0.07683000  1.0
  H  H5  1  0.75272000  0.85523000  0.25731000  1.0
  H  H6  1  0.75268000  0.92398000  0.05411000  1.0
  H  H7  1  0.21200000  0.74516000  0.03500000  1.0
  H  H8  1  0.19826000  0.74350000  0.14104000  1.0
  H  H9  1  0.75270000  0.72080000  0.18858000  1.0
  H  H10  1  0.21200000  0.70165000  0.38653000  1.0
  H  H11  1  0.19822000  0.80769000  0.28215000  1.0
  H  H12  1  0.77727000  0.94619000  0.63383000  1.0
  H  H13  1  0.80111000  0.05009000  0.52731000  1.0
  H  H14  1  0.24687000  0.14653000  0.61129000  1.0
  H  H15  1  0.24689000  0.07552000  0.47985000  1.0
  H  H16  1  0.77752000  0.25331000  0.27955000  1.0
  H  H17  1  0.80119000  0.25592000  0.38346000  1.0
  H  H18  1  0.24692000  0.27797000  0.40885000  1.0
  H  H19  1  0.77737000  0.30047000  0.58665000  1.0
  H  H20  1  0.80113000  0.19396000  0.58926000  1.0
  H  H21  1  0.77601000  0.63384000  0.91938000  1.0
  H  H22  1  0.79362000  0.52731000  0.92212000  1.0
  H  H23  1  0.24011000  0.61220000  0.74157000  1.0
  H  H24  1  0.24016000  0.47954000  0.94554000  1.0
  H  H25  1  0.77632000  0.28012000  0.96715000  1.0
  H  H26  1  0.79381000  0.38392000  0.86063000  1.0
  H  H27  1  0.24017000  0.40824000  0.81290000  1.0
  H  H28  1  0.77614000  0.58606000  0.61344000  1.0
  H  H29  1  0.79370000  0.58878000  0.71725000  1.0
  C  C30  1  0.48768000  0.49713000  0.58868000  1.0
  C  C31  1  0.49432000  0.58741000  0.41270000  1.0
  C  C32  1  0.48797000  0.41372000  0.49740000  1.0
  C  C33  1  0.49422000  0.83322000  0.92076000  1.0
  C  C34  1  0.48758000  0.74753000  0.83045000  1.0
  C  C35  1  0.48784000  0.92222000  0.74707000  1.0
  C  C36  1  0.49458000  0.07936000  0.16657000  1.0
  C  C37  1  0.48790000  0.25534000  0.08086000  1.0
  C  C38  1  0.48818000  0.16405000  0.25556000  1.0
  C  C39  1  0.33559000  0.00986000  0.11723000  1.0
  C  C40  1  0.32444000  0.95078000  0.11664000  1.0
  C  C41  1  0.47749000  0.89400000  0.16668000  1.0
  C  C42  1  0.63466000  0.89829000  0.21755000  1.0
  C  C43  1  0.63415000  0.95720000  0.21864000  1.0
  C  C44  1  0.49219000  0.01445000  0.16798000  1.0
  C  C45  1  0.63456000  0.88422000  0.05082000  1.0
  C  C46  1  0.63395000  0.88531000  0.99083000  1.0
  C  C47  1  0.49193000  0.83465000  0.98425000  1.0
  C  C48  1  0.33538000  0.78391000  0.03960000  1.0
  C  C49  1  0.32432000  0.78331000  0.09927000  1.0
  C  C50  1  0.47742000  0.83335000  0.10600000  1.0
  C  C51  1  0.63458000  0.71749000  0.23163000  1.0
  C  C52  1  0.63400000  0.65749000  0.29054000  1.0
  C  C53  1  0.49197000  0.65091000  0.34778000  1.0
  C  C54  1  0.33537000  0.70626000  0.34318000  1.0
  C  C55  1  0.32430000  0.76592000  0.28411000  1.0
  C  C56  1  0.47740000  0.77266000  0.22733000  1.0
  C  C57  1  0.65739000  0.99015000  0.62852000  1.0
  C  C58  1  0.67381000  0.04892000  0.56861000  1.0
  C  C59  1  0.52372000  0.10634000  0.56095000  1.0
  C  C60  1  0.36360000  0.10301000  0.61540000  1.0
  C  C61  1  0.35892000  0.04443000  0.67563000  1.0
  C  C62  1  0.49847000  0.98663000  0.68318000  1.0
  C  C63  1  0.36369000  0.11492000  0.43634000  1.0
  C  C64  1  0.35915000  0.11327000  0.37776000  1.0
  C  C65  1  0.49874000  0.16354000  0.31996000  1.0
  C  C66  1  0.65761000  0.21466000  0.32350000  1.0
  C  C67  1  0.67393000  0.21580000  0.38227000  1.0
  C  C68  1  0.52377000  0.16604000  0.43967000  1.0
  C  C69  1  0.36365000  0.28207000  0.44825000  1.0
  C  C70  1  0.35901000  0.34230000  0.44661000  1.0
  C  C71  1  0.49857000  0.34984000  0.49687000  1.0
  C  C72  1  0.65750000  0.29517000  0.54800000  1.0
  C  C73  1  0.67386000  0.23526000  0.54914000  1.0
  C  C74  1  0.52375000  0.22762000  0.49938000  1.0
  C  C75  1  0.65420000  0.62876000  0.88077000  1.0
  C  C76  1  0.66702000  0.56876000  0.88201000  1.0
  C  C77  1  0.51486000  0.56119000  0.83239000  1.0
  C  C78  1  0.35729000  0.61604000  0.78109000  1.0
  C  C79  1  0.35589000  0.67634000  0.77940000  1.0
  C  C80  1  0.49671000  0.68370000  0.82968000  1.0
  C  C81  1  0.35740000  0.43619000  0.94938000  1.0
  C  C82  1  0.35610000  0.37759000  0.00967000  1.0
  C  C83  1  0.49698000  0.31994000  0.01702000  1.0
  C  C84  1  0.65446000  0.32380000  0.96208000  1.0
  C  C85  1  0.66721000  0.38257000  0.90208000  1.0
  C  C86  1  0.51495000  0.43975000  0.89453000  1.0
  C  C87  1  0.35735000  0.44777000  0.76953000  1.0
  C  C88  1  0.35601000  0.44607000  0.71093000  1.0
  C  C89  1  0.49680000  0.49637000  0.65328000  1.0
  C  C90  1  0.65428000  0.54745000  0.65714000  1.0
  C  C91  1  0.66708000  0.54868000  0.71590000  1.0
  C  C92  1  0.51488000  0.49905000  0.77309000  1.0
  Br  Br93  1  0.82352000  0.95685000  0.29284000  1.0
  Br  Br94  1  0.82324000  0.95950000  0.91695000  1.0
  Br  Br95  1  0.82341000  0.58363000  0.29021000  1.0
  Br  Br96  1  0.16406000  0.04582000  0.74855000  1.0
  Br  Br97  1  0.16443000  0.03897000  0.37912000  1.0
  Br  Br98  1  0.16413000  0.41523000  0.37232000  1.0
  Br  Br99  1  0.16373000  0.74979000  0.70498000  1.0
  Br  Br100  1  0.16408000  0.37855000  0.08312000  1.0
  Br  Br101  1  0.16401000  0.37165000  0.71191000  1.0
  N  N102  1  0.47123000  0.83334000  0.16667000  1.0
  N  N103  1  0.53447000  0.16666667  0.50000000  1.0
  N  N104  1  0.52183000  0.50000333  0.83333000  1.0
  O  O105  1  0.72134000  0.45360000  0.46980000  1.0
  O  O106  1  0.72106000  0.46962000  0.57632000  1.0
  O  O107  1  0.72967000  0.57821000  0.45181000  1.0
  O  O108  1  0.24880000  0.42217000  0.52692000  1.0
  O  O109  1  0.25726000  0.54860000  0.42431000  1.0
  O  O110  1  0.24897000  0.52676000  0.55064000  1.0
  O  O111  1  0.24869000  0.88426000  0.75551000  1.0
  O  O112  1  0.25710000  0.86042000  0.88195000  1.0
  O  O113  1  0.24886000  0.75594000  0.86009000  1.0
  O  O114  1  0.72118000  0.90994000  0.78696000  1.0
  O  O115  1  0.72093000  0.78741000  0.80294000  1.0
  O  O116  1  0.72955000  0.80329000  0.91156000  1.0
  O  O117  1  0.24903000  0.19359000  0.21758000  1.0
  O  O118  1  0.25752000  0.09097000  0.19378000  1.0
  O  O119  1  0.24920000  0.21729000  0.08927000  1.0
  O  O120  1  0.72157000  0.13645000  0.24328000  1.0
  O  O121  1  0.72128000  0.24298000  0.12073000  1.0
  O  O122  1  0.72995000  0.11846000  0.13666000  1.0
