# generated using pymatgen
data_ZnH27C25N3O7
_symmetry_space_group_name_H-M   'P 1'
_cell_length_a   9.85241000
_cell_length_b   13.34110000
_cell_length_c   14.72220000
_cell_angle_alpha   89.90000000
_cell_angle_beta   71.34820000
_cell_angle_gamma   80.72420000
_symmetry_Int_Tables_number   1
_chemical_formula_structural   ZnH27C25N3O7
_chemical_formula_sum   'Zn2 H54 C50 N6 O14'
_cell_volume   1806.93900960
_cell_formula_units_Z   2
loop_
 _symmetry_equiv_pos_site_id
 _symmetry_equiv_pos_as_xyz
  1  'x, y, z'
loop_
 _atom_site_type_symbol
 _atom_site_label
 _atom_site_symmetry_multiplicity
 _atom_site_fract_x
 _atom_site_fract_y
 _atom_site_fract_z
 _atom_site_occupancy
  Zn  Zn0  1  0.85771000  0.04181000  0.00214000  1.0
  Zn  Zn1  1  0.14229000  0.95819000  0.99785000  1.0
  H  H2  1  0.32606000  0.61287000  0.46745000  1.0
  H  H3  1  0.67393000  0.38713000  0.53256000  1.0
  H  H4  1  0.19594000  0.36737000  0.49961000  1.0
  H  H5  1  0.80408000  0.63264000  0.50038000  1.0
  H  H6  1  0.29208000  0.62851000  0.61432000  1.0
  H  H7  1  0.70793000  0.37149000  0.38568000  1.0
  H  H8  1  0.49187000  0.25008000  0.66251000  1.0
  H  H9  1  0.50813000  0.74992000  0.33749000  1.0
  H  H10  1  0.46613000  0.44783000  0.39945000  1.0
  H  H11  1  0.53389000  0.55217000  0.60054000  1.0
  H  H12  1  0.06937000  0.36466000  0.64022000  1.0
  H  H13  1  0.93064000  0.63534000  0.35978000  1.0
  H  H14  1  0.16007000  0.49488000  0.38351000  1.0
  H  H15  1  0.83994000  0.50512000  0.61649000  1.0
  H  H16  1  0.69424000  0.22622000  0.94980000  1.0
  H  H17  1  0.30575000  0.77378000  0.05020000  1.0
  H  H18  1  0.29261000  0.15790000  0.99482000  1.0
  H  H19  1  0.70738000  0.84210000  0.00519000  1.0
  H  H20  1  0.28004000  0.21359000  0.10830000  1.0
  H  H21  1  0.71995000  0.78641000  0.89170000  1.0
  H  H22  1  0.39595000  0.09399000  0.06389000  1.0
  H  H23  1  0.60403000  0.90601000  0.93611000  1.0
  H  H24  1  0.88432000  0.78536000  0.59620000  1.0
  H  H25  1  0.11569000  0.21464000  0.40379000  1.0
  H  H26  1  0.37429000  0.15200000  0.80405000  1.0
  H  H27  1  0.62571000  0.84799000  0.19595000  1.0
  H  H28  1  0.25674000  0.73596000  0.76112000  1.0
  H  H29  1  0.74326000  0.26404000  0.23888000  1.0
  H  H30  1  0.95551000  0.27086000  0.78250000  1.0
  H  H31  1  0.04450000  0.72914000  0.21749000  1.0
  H  H32  1  0.54011000  0.35291000  0.93350000  1.0
  H  H33  1  0.45989000  0.64709000  0.06650000  1.0
  H  H34  1  0.36469000  0.37192000  0.02335000  1.0
  H  H35  1  0.63531000  0.62808000  0.97665000  1.0
  H  H36  1  0.38849000  0.31670000  0.90762000  1.0
  H  H37  1  0.61151000  0.68329000  0.09237000  1.0
  H  H38  1  0.43112000  0.58642000  0.27841000  1.0
  H  H39  1  0.56889000  0.41358000  0.72159000  1.0
  H  H40  1  0.25503000  0.62284000  0.26914000  1.0
  H  H41  1  0.74497000  0.37716000  0.73086000  1.0
  H  H42  1  0.85201000  0.89384000  0.74358000  1.0
  H  H43  1  0.14799000  0.10616000  0.25642000  1.0
  H  H44  1  0.57644000  0.40743000  0.21191000  1.0
  H  H45  1  0.42356000  0.59257000  0.78808000  1.0
  H  H46  1  0.49907000  0.32322000  0.15869000  1.0
  H  H47  1  0.50091000  0.67678000  0.84131000  1.0
  H  H48  1  0.26790000  0.44991000  0.19796000  1.0
  H  H49  1  0.73208000  0.55010000  0.80205000  1.0
  H  H50  1  0.41699000  0.50524000  0.12898000  1.0
  H  H51  1  0.58299000  0.49476000  0.87103000  1.0
  H  H52  1  0.48168000  0.27696000  0.32732000  1.0
  H  H53  1  0.51832000  0.72304000  0.67268000  1.0
  H  H54  1  0.30737000  0.31206000  0.31522000  1.0
  H  H55  1  0.69262000  0.68794000  0.68478000  1.0
  C  C56  1  0.10170000  0.63603000  0.50964000  1.0
  C  C57  1  0.89830000  0.36397000  0.49036000  1.0
  C  C58  1  0.08910000  0.14145000  0.88147000  1.0
  C  C59  1  0.91089000  0.85856000  0.11852000  1.0
  C  C60  1  0.36864000  0.36065000  0.55225000  1.0
  C  C61  1  0.63138000  0.63935000  0.44774000  1.0
  C  C62  1  0.19519000  0.68638000  0.64204000  1.0
  C  C63  1  0.80481000  0.31362000  0.35796000  1.0
  C  C64  1  0.15780000  0.20617000  0.80188000  1.0
  C  C65  1  0.84221000  0.79383000  0.19812000  1.0
  C  C66  1  0.37425000  0.25455000  0.68988000  1.0
  C  C67  1  0.62577000  0.74545000  0.31012000  1.0
  C  C68  1  0.28957000  0.31248000  0.64150000  1.0
  C  C69  1  0.71044000  0.68753000  0.35850000  1.0
  C  C70  1  0.36696000  0.42300000  0.39522000  1.0
  C  C71  1  0.63304000  0.57700000  0.60478000  1.0
  C  C72  1  0.13774000  0.31981000  0.67621000  1.0
  C  C73  1  0.86227000  0.68020000  0.32379000  1.0
  C  C74  1  0.26528000  0.51675000  0.37840000  1.0
  C  C75  1  0.73472000  0.48324000  0.62160000  1.0
  C  C76  1  0.61190000  0.17918000  0.98529000  1.0
  C  C77  1  0.38809000  0.82082000  0.01472000  1.0
  C  C78  1  0.35354000  0.16849000  0.04382000  1.0
  C  C79  1  0.64645000  0.83151000  0.95618000  1.0
  C  C80  1  0.96533000  0.77507000  0.63291000  1.0
  C  C81  1  0.03467000  0.22493000  0.36709000  1.0
  C  C82  1  0.30916000  0.20112000  0.76872000  1.0
  C  C83  1  0.69084000  0.79888000  0.23128000  1.0
  C  C84  1  0.08970000  0.70066000  0.59569000  1.0
  C  C85  1  0.91029000  0.29934000  0.40432000  1.0
  C  C86  1  0.17635000  0.74606000  0.72401000  1.0
  C  C87  1  0.82365000  0.25394000  0.27599000  1.0
  C  C88  1  0.07296000  0.26737000  0.75602000  1.0
  C  C89  1  0.92705000  0.73264000  0.24398000  1.0
  C  C90  1  0.44000000  0.32114000  0.96337000  1.0
  C  C91  1  0.56000000  0.67886000  0.03663000  1.0
  C  C92  1  0.33188000  0.55760000  0.27924000  1.0
  C  C93  1  0.66811000  0.44240000  0.72077000  1.0
  C  C94  1  0.94713000  0.83489000  0.71459000  1.0
  C  C95  1  0.05287000  0.16510000  0.28541000  1.0
  C  C96  1  0.47283000  0.38333000  0.21560000  1.0
  C  C97  1  0.52716000  0.61667000  0.78440000  1.0
  C  C98  1  0.36897000  0.47466000  0.19934000  1.0
  C  C99  1  0.63101000  0.52535000  0.80067000  1.0
  C  C100  1  0.40679000  0.34113000  0.31360000  1.0
  C  C101  1  0.59321000  0.65887000  0.68640000  1.0
  C  C102  1  0.03330000  0.88523000  0.84896000  1.0
  C  C103  1  0.96671000  0.11477000  0.15103000  1.0
  C  C104  1  0.05254000  0.82069000  0.76086000  1.0
  C  C105  1  0.94747000  0.17931000  0.23914000  1.0
  N  N106  1  0.47457000  0.22090000  0.99698000  1.0
  N  N107  1  0.52542000  0.77910000  0.00303000  1.0
  N  N108  1  0.23649000  0.59372000  0.45488000  1.0
  N  N109  1  0.76351000  0.40627000  0.54513000  1.0
  N  N110  1  0.29951000  0.38200000  0.48728000  1.0
  N  N111  1  0.70050000  0.61801000  0.51272000  1.0
  O  O112  1  0.64793000  0.09235000  0.01230000  1.0
  O  O113  1  0.35207000  0.90764000  0.98770000  1.0
  O  O114  1  0.95118000  0.15010000  0.91055000  1.0
  O  O115  1  0.04881000  0.84990000  0.08944000  1.0
  O  O116  1  0.99008000  0.62195000  0.49154000  1.0
  O  O117  1  0.00993000  0.37806000  0.50846000  1.0
  O  O118  1  0.49516000  0.37670000  0.53906000  1.0
  O  O119  1  0.50485000  0.62329000  0.46094000  1.0
  O  O120  1  0.91376000  0.94686000  0.88212000  1.0
  O  O121  1  0.08624000  0.05313000  0.11788000  1.0
  O  O122  1  0.17607000  0.08055000  0.91250000  1.0
  O  O123  1  0.82392000  0.91946000  0.08750000  1.0
  O  O124  1  0.13764000  0.87342000  0.88349000  1.0
  O  O125  1  0.86237000  0.12660000  0.11650000  1.0
