# generated using pymatgen
data_HgH22C20I2N3O2
_symmetry_space_group_name_H-M   'P 1'
_cell_length_a   7.98908000
_cell_length_b   9.64089000
_cell_length_c   15.62560000
_cell_angle_alpha   87.04500000
_cell_angle_beta   86.99490000
_cell_angle_gamma   68.71480000
_symmetry_Int_Tables_number   1
_chemical_formula_structural   HgH22C20I2N3O2
_chemical_formula_sum   'Hg2 H44 C40 I4 N6 O4'
_cell_volume   1119.18866448
_cell_formula_units_Z   2
loop_
 _symmetry_equiv_pos_site_id
 _symmetry_equiv_pos_as_xyz
  1  'x, y, z'
loop_
 _atom_site_type_symbol
 _atom_site_label
 _atom_site_symmetry_multiplicity
 _atom_site_fract_x
 _atom_site_fract_y
 _atom_site_fract_z
 _atom_site_occupancy
  Hg  Hg0  1  0.88773000  0.03683000  0.73631000  1.0
  Hg  Hg1  1  0.11226000  0.96317000  0.26369000  1.0
  H  H2  1  0.19190000  0.72012000  0.77393000  1.0
  H  H3  1  0.80811000  0.27988000  0.22607000  1.0
  H  H4  1  0.32036000  0.51959000  0.88367000  1.0
  H  H5  1  0.67965000  0.48042000  0.11633000  1.0
  H  H6  1  0.94027000  0.79648000  0.06859000  1.0
  H  H7  1  0.05973000  0.20352000  0.93141000  1.0
  H  H8  1  0.82130000  0.98565000  0.94783000  1.0
  H  H9  1  0.17870000  0.01435000  0.05216000  1.0
  H  H10  1  0.13124000  0.55748000  0.11766000  1.0
  H  H11  1  0.86876000  0.44253000  0.88234000  1.0
  H  H12  1  0.39345000  0.36267000  0.98143000  1.0
  H  H13  1  0.60656000  0.63733000  0.01857000  1.0
  H  H14  1  0.56777000  0.12539000  0.01613000  1.0
  H  H15  1  0.43221000  0.87460000  0.98387000  1.0
  H  H16  1  0.69829000  0.91516000  0.12059000  1.0
  H  H17  1  0.30168000  0.08482000  0.87941000  1.0
  H  H18  1  0.37854000  0.18406000  0.32405000  1.0
  H  H19  1  0.62148000  0.81594000  0.67595000  1.0
  H  H20  1  0.25301000  0.39437000  0.22097000  1.0
  H  H21  1  0.74702000  0.60564000  0.77903000  1.0
  H  H22  1  0.74516000  0.88377000  0.48651000  1.0
  H  H23  1  0.25485000  0.11621000  0.51350000  1.0
  H  H24  1  0.76348000  0.70889000  0.53673000  1.0
  H  H25  1  0.23652000  0.29109000  0.46327000  1.0
  H  H26  1  0.54907000  0.85384000  0.52807000  1.0
  H  H27  1  0.45093000  0.14614000  0.47194000  1.0
  H  H28  1  0.42810000  0.69156000  0.46871000  1.0
  H  H29  1  0.57190000  0.30844000  0.53129000  1.0
  H  H30  1  0.63462000  0.53623000  0.46347000  1.0
  H  H31  1  0.36537000  0.46377000  0.53652000  1.0
  H  H32  1  0.50681000  0.60264000  0.36968000  1.0
  H  H33  1  0.49318000  0.39737000  0.63032000  1.0
  H  H34  1  0.10923000  0.62505000  0.34346000  1.0
  H  H35  1  0.89077000  0.37497000  0.65654000  1.0
  H  H36  1  0.02603000  0.56189000  0.43972000  1.0
  H  H37  1  0.97399000  0.43813000  0.56028000  1.0
  H  H38  1  0.99962000  0.75321000  0.42483000  1.0
  H  H39  1  0.00038000  0.24681000  0.57516000  1.0
  H  H40  1  0.94833000  0.51952000  0.25441000  1.0
  H  H41  1  0.05168000  0.48048000  0.74560000  1.0
  H  H42  1  0.71384000  0.55850000  0.26851000  1.0
  H  H43  1  0.28617000  0.44150000  0.73149000  1.0
  H  H44  1  0.86478000  0.44420000  0.34617000  1.0
  H  H45  1  0.13524000  0.55580000  0.65384000  1.0
  C  C46  1  0.13776000  0.73087000  0.83994000  1.0
  C  C47  1  0.86225000  0.26914000  0.16006000  1.0
  C  C48  1  0.20853000  0.61972000  0.90191000  1.0
  C  C49  1  0.79148000  0.38027000  0.09809000  1.0
  C  C50  1  0.13618000  0.63849000  0.98647000  1.0
  C  C51  1  0.86382000  0.36151000  0.01353000  1.0
  C  C52  1  0.99610000  0.77460000  0.00337000  1.0
  C  C53  1  0.00390000  0.22541000  0.99663000  1.0
  C  C54  1  0.93131000  0.87978000  0.93724000  1.0
  C  C55  1  0.06869000  0.12022000  0.06276000  1.0
  C  C56  1  0.19871000  0.52627000  0.05516000  1.0
  C  C57  1  0.80130000  0.47371000  0.94483000  1.0
  C  C58  1  0.32996000  0.39133000  0.04512000  1.0
  C  C59  1  0.67003000  0.60868000  0.95489000  1.0
  C  C60  1  0.40002000  0.27451000  0.11035000  1.0
  C  C61  1  0.59998000  0.72549000  0.88965000  1.0
  C  C62  1  0.52766000  0.13759000  0.08403000  1.0
  C  C63  1  0.47233000  0.86240000  0.91597000  1.0
  C  C64  1  0.60127000  0.02014000  0.14213000  1.0
  C  C65  1  0.39871000  0.97985000  0.85786000  1.0
  C  C66  1  0.54866000  0.03510000  0.22955000  1.0
  C  C67  1  0.45133000  0.96490000  0.77045000  1.0
  C  C68  1  0.42076000  0.17147000  0.25672000  1.0
  C  C69  1  0.57925000  0.82854000  0.74327000  1.0
  C  C70  1  0.34912000  0.28914000  0.19819000  1.0
  C  C71  1  0.65091000  0.71085000  0.80181000  1.0
  C  C72  1  0.62348000  0.90959000  0.28960000  1.0
  C  C73  1  0.37651000  0.09042000  0.71039000  1.0
  C  C74  1  0.65000000  0.74230000  0.41051000  1.0
  C  C75  1  0.35000000  0.25770000  0.58949000  1.0
  C  C76  1  0.82228000  0.68054000  0.35019000  1.0
  C  C77  1  0.17772000  0.31946000  0.64981000  1.0
  C  C78  1  0.68045000  0.80121000  0.49548000  1.0
  C  C79  1  0.31955000  0.19877000  0.50452000  1.0
  C  C80  1  0.54850000  0.63615000  0.42852000  1.0
  C  C81  1  0.45149000  0.36386000  0.57148000  1.0
  C  C82  1  0.99972000  0.65498000  0.39250000  1.0
  C  C83  1  0.00027000  0.34504000  0.60750000  1.0
  C  C84  1  0.83701000  0.54184000  0.30221000  1.0
  C  C85  1  0.16299000  0.45816000  0.69780000  1.0
  I  I86  1  0.63158000  0.26272000  0.81968000  1.0
  I  I87  1  0.36841000  0.73728000  0.18032000  1.0
  I  I88  1  0.11533000  0.88213000  0.61043000  1.0
  I  I89  1  0.88465000  0.11786000  0.38956000  1.0
  N  N90  1  0.53439000  0.87548000  0.35896000  1.0
  N  N91  1  0.46560000  0.12452000  0.64105000  1.0
  N  N92  1  0.78996000  0.80439000  0.28313000  1.0
  N  N93  1  0.21003000  0.19561000  0.71687000  1.0
  N  N94  1  0.99982000  0.85805000  0.85658000  1.0
  N  N95  1  0.00018000  0.14195000  0.14343000  1.0
  O  O96  1  0.36982000  0.94591000  0.38147000  1.0
  O  O97  1  0.63018000  0.05410000  0.61853000  1.0
  O  O98  1  0.91253000  0.80074000  0.22544000  1.0
  O  O99  1  0.08745000  0.19926000  0.77455000  1.0
