# generated using pymatgen
data_CdH8C12S2(N5O)2
_symmetry_space_group_name_H-M   'P 1'
_cell_length_a   10.89460000
_cell_length_b   11.00800000
_cell_length_c   13.84200000
_cell_angle_alpha   90.00020000
_cell_angle_beta   90.00010000
_cell_angle_gamma   89.99990000
_symmetry_Int_Tables_number   1
_chemical_formula_structural   CdH8C12S2(N5O)2
_chemical_formula_sum   'Cd4 H32 C48 S8 N40 O8'
_cell_volume   1660.04000961
_cell_formula_units_Z   4
loop_
 _symmetry_equiv_pos_site_id
 _symmetry_equiv_pos_as_xyz
  1  'x, y, z'
loop_
 _atom_site_type_symbol
 _atom_site_label
 _atom_site_symmetry_multiplicity
 _atom_site_fract_x
 _atom_site_fract_y
 _atom_site_fract_z
 _atom_site_occupancy
  Cd  Cd0  1  0.56360000  0.72667000  0.86646000  1.0
  Cd  Cd1  1  0.93640000  0.27333000  0.36647000  1.0
  Cd  Cd2  1  0.06360000  0.77333000  0.13353000  1.0
  Cd  Cd3  1  0.43640000  0.22667000  0.63353000  1.0
  H  H4  1  0.07331000  0.98527000  0.83830000  1.0
  H  H5  1  0.42669000  0.01474000  0.33831000  1.0
  H  H6  1  0.57331000  0.51473000  0.16170000  1.0
  H  H7  1  0.92670000  0.48526000  0.66170000  1.0
  H  H8  1  0.15651000  0.09765000  0.68563000  1.0
  H  H9  1  0.34348000  0.90235000  0.18564000  1.0
  H  H10  1  0.65652000  0.40235000  0.31437000  1.0
  H  H11  1  0.84348000  0.59765000  0.81437000  1.0
  H  H12  1  0.01799000  0.05132000  0.53092000  1.0
  H  H13  1  0.48200000  0.94867000  0.03092000  1.0
  H  H14  1  0.51799000  0.44867000  0.46908000  1.0
  H  H15  1  0.98201000  0.55132000  0.96908000  1.0
  H  H16  1  0.19920000  0.71898000  0.67877000  1.0
  H  H17  1  0.30080000  0.28102000  0.17878000  1.0
  H  H18  1  0.69920000  0.78102000  0.32123000  1.0
  H  H19  1  0.80079000  0.21898000  0.82122000  1.0
  H  H20  1  0.05525000  0.61471000  0.54985000  1.0
  H  H21  1  0.44475000  0.38529000  0.04986000  1.0
  H  H22  1  0.55525000  0.88529000  0.45015000  1.0
  H  H23  1  0.94474000  0.11470000  0.95014000  1.0
  H  H24  1  0.07788000  0.71859000  0.37900000  1.0
  H  H25  1  0.42212000  0.28141000  0.87901000  1.0
  H  H26  1  0.57788000  0.78141000  0.62100000  1.0
  H  H27  1  0.92212000  0.21858000  0.12099000  1.0
  H  H28  1  0.97464000  0.85485000  0.92088000  1.0
  H  H29  1  0.52536000  0.14515000  0.42088000  1.0
  H  H30  1  0.47464000  0.64514000  0.07912000  1.0
  H  H31  1  0.02536000  0.35485000  0.57912000  1.0
  H  H32  1  0.32585000  0.84230000  0.74369000  1.0
  H  H33  1  0.17415000  0.15770000  0.24370000  1.0
  H  H34  1  0.82585000  0.65770000  0.25630000  1.0
  H  H35  1  0.67415000  0.34230000  0.75630000  1.0
  C  C36  1  0.81785000  0.78921000  0.98265000  1.0
  C  C37  1  0.68215000  0.21079000  0.48265000  1.0
  C  C38  1  0.31785000  0.71079000  0.01734000  1.0
  C  C39  1  0.18215000  0.28921000  0.51735000  1.0
  C  C40  1  0.84734000  0.84100000  0.81109000  1.0
  C  C41  1  0.65266000  0.15900000  0.31109000  1.0
  C  C42  1  0.34733000  0.65900000  0.18891000  1.0
  C  C43  1  0.15266000  0.34100000  0.68891000  1.0
  C  C44  1  0.92525000  0.91206000  0.74733000  1.0
  C  C45  1  0.57475000  0.08794000  0.24733000  1.0
  C  C46  1  0.42525000  0.58794000  0.25267000  1.0
  C  C47  1  0.07475000  0.41206000  0.75268000  1.0
  C  C48  1  0.03002000  0.97986000  0.76748000  1.0
  C  C49  1  0.46998000  0.02014000  0.26748000  1.0
  C  C50  1  0.53002000  0.52014000  0.23252000  1.0
  C  C51  1  0.96999000  0.47986000  0.73252000  1.0
  C  C52  1  0.07522000  0.04042000  0.68516000  1.0
  C  C53  1  0.42477000  0.95958000  0.18516000  1.0
  C  C54  1  0.57523000  0.45957000  0.31484000  1.0
  C  C55  1  0.92477000  0.54042000  0.81484000  1.0
  C  C56  1  0.00452000  0.01825000  0.60405000  1.0
  C  C57  1  0.49547000  0.98174000  0.10405000  1.0
  C  C58  1  0.50453000  0.48174000  0.39595000  1.0
  C  C59  1  0.99547000  0.51825000  0.89595000  1.0
  C  C60  1  0.45461000  0.97575000  0.75733000  1.0
  C  C61  1  0.04540000  0.02425000  0.25733000  1.0
  C  C62  1  0.95461000  0.52425000  0.24267000  1.0
  C  C63  1  0.54540000  0.47576000  0.74267000  1.0
  C  C64  1  0.34684000  0.92628000  0.60821000  1.0
  C  C65  1  0.15316000  0.07373000  0.10822000  1.0
  C  C66  1  0.84684000  0.57373000  0.39178000  1.0
  C  C67  1  0.65316000  0.42627000  0.89178000  1.0
  C  C68  1  0.25938000  0.84304000  0.56439000  1.0
  C  C69  1  0.24062000  0.15697000  0.06440000  1.0
  C  C70  1  0.75938000  0.65696000  0.43560000  1.0
  C  C71  1  0.74062000  0.34304000  0.93560000  1.0
  C  C72  1  0.19233000  0.74784000  0.60376000  1.0
  C  C73  1  0.30767000  0.25217000  0.10377000  1.0
  C  C74  1  0.69233000  0.75216000  0.39624000  1.0
  C  C75  1  0.80767000  0.24784000  0.89623000  1.0
  C  C76  1  0.11551000  0.69122000  0.53503000  1.0
  C  C77  1  0.38448000  0.30879000  0.03504000  1.0
  C  C78  1  0.61551000  0.80878000  0.46497000  1.0
  C  C79  1  0.88448000  0.19121000  0.96496000  1.0
  C  C80  1  0.12539000  0.74371000  0.44480000  1.0
  C  C81  1  0.37461000  0.25629000  0.94481000  1.0
  C  C82  1  0.62538000  0.75629000  0.55520000  1.0
  C  C83  1  0.87461000  0.24370000  0.05519000  1.0
  S  S84  1  0.88421000  0.92407000  0.62693000  1.0
  S  S85  1  0.61579000  0.07593000  0.12693000  1.0
  S  S86  1  0.38421000  0.57592000  0.37307000  1.0
  S  S87  1  0.11579000  0.42407000  0.87308000  1.0
  S  S88  1  0.22664000  0.86171000  0.44298000  1.0
  S  S89  1  0.27336000  0.13829000  0.94298000  1.0
  S  S90  1  0.72664000  0.63829000  0.55702000  1.0
  S  S91  1  0.77336000  0.36171000  0.05702000  1.0
  N  N92  1  0.69924000  0.75553000  0.98424000  1.0
  N  N93  1  0.80076000  0.24447000  0.48424000  1.0
  N  N94  1  0.19924000  0.74447000  0.01576000  1.0
  N  N95  1  0.30076000  0.25553000  0.51576000  1.0
  N  N96  1  0.67555000  0.71964000  0.07606000  1.0
  N  N97  1  0.82446000  0.28036000  0.57606000  1.0
  N  N98  1  0.17555000  0.78036000  0.92394000  1.0
  N  N99  1  0.32445000  0.21964000  0.42394000  1.0
  N  N100  1  0.77502000  0.73153000  0.12745000  1.0
  N  N101  1  0.72499000  0.26847000  0.62745000  1.0
  N  N102  1  0.27502000  0.76847000  0.87255000  1.0
  N  N103  1  0.22498000  0.23153000  0.37255000  1.0
  N  N104  1  0.88479000  0.83457000  0.90635000  1.0
  N  N105  1  0.61521000  0.16543000  0.40635000  1.0
  N  N106  1  0.38479000  0.66542000  0.09365000  1.0
  N  N107  1  0.11522000  0.33457000  0.59365000  1.0
  N  N108  1  0.52285000  0.92636000  0.82770000  1.0
  N  N109  1  0.97715000  0.07364000  0.32771000  1.0
  N  N110  1  0.02285000  0.57364000  0.17230000  1.0
  N  N111  1  0.47715000  0.42636000  0.67229000  1.0
  N  N112  1  0.36779000  0.91136000  0.70568000  1.0
  N  N113  1  0.13221000  0.08864000  0.20568000  1.0
  N  N114  1  0.86779000  0.58864000  0.29432000  1.0
  N  N115  1  0.63221000  0.41137000  0.79432000  1.0
  N  N116  1  0.59597000  0.01667000  0.86161000  1.0
  N  N117  1  0.90403000  0.98333000  0.36161000  1.0
  N  N118  1  0.09597000  0.48333000  0.13839000  1.0
  N  N119  1  0.40403000  0.51667000  0.63839000  1.0
  N  N120  1  0.57331000  0.11598000  0.81350000  1.0
  N  N121  1  0.92669000  0.88402000  0.31349000  1.0
  N  N122  1  0.07331000  0.38401000  0.18650000  1.0
  N  N123  1  0.42669000  0.61598000  0.68650000  1.0
  N  N124  1  0.86659000  0.77503000  0.07088000  1.0
  N  N125  1  0.63341000  0.22497000  0.57088000  1.0
  N  N126  1  0.36659000  0.72497000  0.92911000  1.0
  N  N127  1  0.13341000  0.27503000  0.42912000  1.0
  N  N128  1  0.48362000  0.09354000  0.74769000  1.0
  N  N129  1  0.01637000  0.90646000  0.24769000  1.0
  N  N130  1  0.98363000  0.40646000  0.25230000  1.0
  N  N131  1  0.51637000  0.59354000  0.75231000  1.0
  O  O132  1  0.75233000  0.78954000  0.78106000  1.0
  O  O133  1  0.74767000  0.21047000  0.28106000  1.0
  O  O134  1  0.25234000  0.71046000  0.21894000  1.0
  O  O135  1  0.24768000  0.28954000  0.71894000  1.0
  O  O136  1  0.39992000  0.00735000  0.56015000  1.0
  O  O137  1  0.10009000  0.99265000  0.06015000  1.0
  O  O138  1  0.89991000  0.49265000  0.43985000  1.0
  O  O139  1  0.60008000  0.50736000  0.93985000  1.0
