# generated using pymatgen
data_MnH16C24(NO2)2
_symmetry_space_group_name_H-M   'P 1'
_cell_length_a   7.20489000
_cell_length_b   11.86180000
_cell_length_c   12.21786322
_cell_angle_alpha   119.03593248
_cell_angle_beta   91.52302774
_cell_angle_gamma   90.02160000
_symmetry_Int_Tables_number   1
_chemical_formula_structural   MnH16C24(NO2)2
_chemical_formula_sum   'Mn2 H32 C48 N4 O8'
_cell_volume   912.51038098
_cell_formula_units_Z   2
loop_
 _symmetry_equiv_pos_site_id
 _symmetry_equiv_pos_as_xyz
  1  'x, y, z'
loop_
 _atom_site_type_symbol
 _atom_site_label
 _atom_site_symmetry_multiplicity
 _atom_site_fract_x
 _atom_site_fract_y
 _atom_site_fract_z
 _atom_site_occupancy
  Mn  Mn0  1  0.25019000  0.87323000  0.99996000  1.0
  Mn  Mn1  1  0.74981000  0.12677000  0.00004000  1.0
  H  H2  1  0.39832000  0.11700000  0.68505000  1.0
  H  H3  1  0.10164000  0.43214000  0.31505000  1.0
  H  H4  1  0.60167000  0.88300000  0.31495000  1.0
  H  H5  1  0.89837000  0.56786000  0.68496000  1.0
  H  H6  1  0.18890000  0.78301000  0.69103000  1.0
  H  H7  1  0.31116000  0.09195000  0.30833000  1.0
  H  H8  1  0.81109000  0.21699000  0.30897000  1.0
  H  H9  1  0.68884000  0.90806000  0.69168000  1.0
  H  H10  1  0.94612000  0.66508000  0.97406000  1.0
  H  H11  1  0.55420000  0.69075000  0.02578000  1.0
  H  H12  1  0.05387000  0.33493000  0.02594000  1.0
  H  H13  1  0.44582000  0.30925000  0.97423000  1.0
  H  H14  1  0.26960000  0.03402000  0.46890000  1.0
  H  H15  1  0.23056000  0.56495000  0.53115000  1.0
  H  H16  1  0.73039000  0.96598000  0.53110000  1.0
  H  H17  1  0.76944000  0.43506000  0.46886000  1.0
  H  H18  1  0.05970000  0.69653000  0.47482000  1.0
  H  H19  1  0.44021000  0.22127000  0.52460000  1.0
  H  H20  1  0.94029000  0.30348000  0.52518000  1.0
  H  H21  1  0.55977000  0.77874000  0.47541000  1.0
  H  H22  1  0.29484000  0.90252000  0.26917000  1.0
  H  H23  1  0.20514000  0.63289000  0.73079000  1.0
  H  H24  1  0.70515000  0.09747000  0.73082000  1.0
  H  H25  1  0.79488000  0.36710000  0.26921000  1.0
  H  H26  1  0.87910000  0.67834000  0.33044000  1.0
  H  H27  1  0.62101000  0.34767000  0.66941000  1.0
  H  H28  1  0.12090000  0.32166000  0.66955000  1.0
  H  H29  1  0.37900000  0.65233000  0.33060000  1.0
  H  H30  1  0.78448000  0.58487000  0.10594000  1.0
  H  H31  1  0.71559000  0.47865000  0.89389000  1.0
  H  H32  1  0.21551000  0.41513000  0.89406000  1.0
  H  H33  1  0.28442000  0.52135000  0.10611000  1.0
  C  C34  1  0.09396000  0.80135000  0.32167000  1.0
  C  C35  1  0.40605000  0.47926000  0.67814000  1.0
  C  C36  1  0.90604000  0.19865000  0.67833000  1.0
  C  C37  1  0.59397000  0.52076000  0.32188000  1.0
  C  C38  1  0.30361000  0.95384000  0.70135000  1.0
  C  C39  1  0.19646000  0.25259000  0.29834000  1.0
  C  C40  1  0.69638000  0.04616000  0.29865000  1.0
  C  C41  1  0.80353000  0.74743000  0.70168000  1.0
  C  C42  1  0.39496000  0.99408000  0.82771000  1.0
  C  C43  1  0.10502000  0.16654000  0.17198000  1.0
  C  C44  1  0.60504000  0.00592000  0.17229000  1.0
  C  C45  1  0.89499000  0.83345000  0.82801000  1.0
  C  C46  1  0.32508000  0.02429000  0.63775000  1.0
  C  C47  1  0.17497000  0.38661000  0.36217000  1.0
  C  C48  1  0.67491000  0.97572000  0.36225000  1.0
  C  C49  1  0.82503000  0.61340000  0.63784000  1.0
  C  C50  1  0.20466000  0.83683000  0.64083000  1.0
  C  C51  1  0.29537000  0.19595000  0.35869000  1.0
  C  C52  1  0.79534000  0.16318000  0.35917000  1.0
  C  C53  1  0.70462000  0.80405000  0.64131000  1.0
  C  C54  1  0.15981000  0.85699000  0.45341000  1.0
  C  C55  1  0.34020000  0.40328000  0.54640000  1.0
  C  C56  1  0.84018000  0.14301000  0.54659000  1.0
  C  C57  1  0.65981000  0.59672000  0.45360000  1.0
  C  C58  1  0.98518000  0.69936000  0.07214000  1.0
  C  C59  1  0.51502000  0.62692000  0.92768000  1.0
  C  C60  1  0.01482000  0.30063000  0.92785000  1.0
  C  C61  1  0.48498000  0.37306000  0.07231000  1.0
  C  C62  1  0.25421000  0.97671000  0.51583000  1.0
  C  C63  1  0.24592000  0.46072000  0.48408000  1.0
  C  C64  1  0.74578000  0.02329000  0.48416000  1.0
  C  C65  1  0.75407000  0.53928000  0.51592000  1.0
  C  C66  1  0.13360000  0.78903000  0.51953000  1.0
  C  C67  1  0.36639000  0.26923000  0.48005000  1.0
  C  C68  1  0.86639000  0.21097000  0.48047000  1.0
  C  C69  1  0.63362000  0.73075000  0.51995000  1.0
  C  C70  1  0.17689000  0.83576000  0.23920000  1.0
  C  C71  1  0.32313000  0.59607000  0.76067000  1.0
  C  C72  1  0.82311000  0.16425000  0.76080000  1.0
  C  C73  1  0.67688000  0.40393000  0.23934000  1.0
  C  C74  1  0.95032000  0.70838000  0.27117000  1.0
  C  C75  1  0.54976000  0.43692000  0.72867000  1.0
  C  C76  1  0.04968000  0.29162000  0.72883000  1.0
  C  C77  1  0.45026000  0.56308000  0.27134000  1.0
  C  C78  1  0.89626000  0.65672000  0.14569000  1.0
  C  C79  1  0.60385000  0.51075000  0.85414000  1.0
  C  C80  1  0.10374000  0.34328000  0.85431000  1.0
  C  C81  1  0.39616000  0.48925000  0.14587000  1.0
  N  N82  1  0.12413000  0.78742000  0.11852000  1.0
  N  N83  1  0.37602000  0.66850000  0.88132000  1.0
  N  N84  1  0.87586000  0.21257000  0.88147000  1.0
  N  N85  1  0.62400000  0.33149000  0.11867000  1.0
  O  O86  1  0.50322000  0.09253000  0.87364000  1.0
  O  O87  1  0.99629000  0.21907000  0.12636000  1.0
  O  O88  1  0.49678000  0.90746000  0.12635000  1.0
  O  O89  1  0.00371000  0.78093000  0.87364000  1.0
  O  O90  1  0.36601000  0.92235000  0.87591000  1.0
  O  O91  1  0.13438000  0.04665000  0.12348000  1.0
  O  O92  1  0.63398000  0.07765000  0.12409000  1.0
  O  O93  1  0.86563000  0.95335000  0.87652000  1.0
