# generated using pymatgen
data_ZnH8(C2O)5
_symmetry_space_group_name_H-M   'P 1'
_cell_length_a   4.81277000
_cell_length_b   9.48680000
_cell_length_c   11.58240000
_cell_angle_alpha   83.14070000
_cell_angle_beta   87.09680000
_cell_angle_gamma   84.72400000
_symmetry_Int_Tables_number   1
_chemical_formula_structural   ZnH8(C2O)5
_chemical_formula_sum   'Zn2 H16 C20 O10'
_cell_volume   522.39619980
_cell_formula_units_Z   2
loop_
 _symmetry_equiv_pos_site_id
 _symmetry_equiv_pos_as_xyz
  1  'x, y, z'
loop_
 _atom_site_type_symbol
 _atom_site_label
 _atom_site_symmetry_multiplicity
 _atom_site_fract_x
 _atom_site_fract_y
 _atom_site_fract_z
 _atom_site_occupancy
  Zn  Zn0  1  0.29483000  0.93149000  0.62063000  1.0
  Zn  Zn1  1  0.70517000  0.06851000  0.37937000  1.0
  H  H2  1  0.31054000  0.24642000  0.80341000  1.0
  H  H3  1  0.68946000  0.75358000  0.19659000  1.0
  H  H4  1  0.42359000  0.42583000  0.93100000  1.0
  H  H5  1  0.57641000  0.57418000  0.06900000  1.0
  H  H6  1  0.00226000  0.59387000  0.66238000  1.0
  H  H7  1  0.99774000  0.40613000  0.33762000  1.0
  H  H8  1  0.89510000  0.41006000  0.54091000  1.0
  H  H9  1  0.10490000  0.58994000  0.45909000  1.0
  H  H10  1  0.13364000  0.69315000  0.80436000  1.0
  H  H11  1  0.86636000  0.30685000  0.19564000  1.0
  H  H12  1  0.08569000  0.73811000  0.01184000  1.0
  H  H13  1  0.91431000  0.26189000  0.98816000  1.0
  H  H14  1  0.76986000  0.84929000  0.98296000  1.0
  H  H15  1  0.23014000  0.15071000  0.01704000  1.0
  H  H16  1  0.09621000  0.90004000  0.91751000  1.0
  H  H17  1  0.90379000  0.09996000  0.08249000  1.0
  C  C18  1  0.53807000  0.20723000  0.59008000  1.0
  C  C19  1  0.46193000  0.79277000  0.40992000  1.0
  C  C20  1  0.59596000  0.31738000  0.66375000  1.0
  C  C21  1  0.40404000  0.68262000  0.33625000  1.0
  C  C22  1  0.46332000  0.32226000  0.77425000  1.0
  C  C23  1  0.53668000  0.67774000  0.22575000  1.0
  C  C24  1  0.52545000  0.42208000  0.84510000  1.0
  C  C25  1  0.47455000  0.57792000  0.15490000  1.0
  C  C26  1  0.72019000  0.52057000  0.80575000  1.0
  C  C27  1  0.27981000  0.47943000  0.19425000  1.0
  C  C28  1  0.85061000  0.51865000  0.69467000  1.0
  C  C29  1  0.14939000  0.48135000  0.30533000  1.0
  C  C30  1  0.78950000  0.41612000  0.62567000  1.0
  C  C31  1  0.21050000  0.58388000  0.37433000  1.0
  C  C32  1  0.92961000  0.73122000  0.84133000  1.0
  C  C33  1  0.07039000  0.26878000  0.15867000  1.0
  C  C34  1  0.97206000  0.80981000  0.94538000  1.0
  C  C35  1  0.02794000  0.19018000  0.05462000  1.0
  C  C36  1  0.76985000  0.83162000  0.74862000  1.0
  C  C37  1  0.23015000  0.16838000  0.25138000  1.0
  O  O38  1  0.33664000  0.13101000  0.62315000  1.0
  O  O39  1  0.66336000  0.86899000  0.37685000  1.0
  O  O40  1  0.69359000  0.19618000  0.49819000  1.0
  O  O41  1  0.30641000  0.80382000  0.50181000  1.0
  O  O42  1  0.77192000  0.61262000  0.88282000  1.0
  O  O43  1  0.22808000  0.38738000  0.11718000  1.0
  O  O44  1  0.89699000  0.91480000  0.67435000  1.0
  O  O45  1  0.10301000  0.08520000  0.32565000  1.0
  O  O46  1  0.50591000  0.82871000  0.75326000  1.0
  O  O47  1  0.49409000  0.17129000  0.24674000  1.0
