# generated using pymatgen
data_Tb2H56C57N2O17
_symmetry_space_group_name_H-M   'P 1'
_cell_length_a   12.64890000
_cell_length_b   13.04660000
_cell_length_c   25.94850000
_cell_angle_alpha   83.98820000
_cell_angle_beta   87.24090000
_cell_angle_gamma   66.96010000
_symmetry_Int_Tables_number   1
_chemical_formula_structural   Tb2H56C57N2O17
_chemical_formula_sum   'Tb4 H112 C114 N4 O34'
_cell_volume   3918.78683806
_cell_formula_units_Z   2
loop_
 _symmetry_equiv_pos_site_id
 _symmetry_equiv_pos_as_xyz
  1  'x, y, z'
loop_
 _atom_site_type_symbol
 _atom_site_label
 _atom_site_symmetry_multiplicity
 _atom_site_fract_x
 _atom_site_fract_y
 _atom_site_fract_z
 _atom_site_occupancy
  Tb  Tb0  1  0.63627000  0.31061000  0.50355000  1.0
  Tb  Tb1  1  0.36374000  0.68939000  0.49645000  1.0
  Tb  Tb2  1  0.84369000  0.63342000  0.04203000  1.0
  Tb  Tb3  1  0.15631000  0.36658000  0.95797000  1.0
  H  H4  1  0.83283000  0.88828000  0.16448000  1.0
  H  H5  1  0.16717000  0.11172000  0.83552000  1.0
  H  H6  1  0.75222000  0.61108000  0.22961000  1.0
  H  H7  1  0.24778000  0.38892000  0.77040000  1.0
  H  H8  1  0.69678000  0.69552000  0.31460000  1.0
  H  H9  1  0.30323000  0.30448000  0.68540000  1.0
  H  H10  1  0.74455000  0.09532000  0.18467000  1.0
  H  H11  1  0.25545000  0.90468000  0.81533000  1.0
  H  H12  1  0.71436000  0.17931000  0.23762000  1.0
  H  H13  1  0.28564000  0.82068000  0.76238000  1.0
  H  H14  1  0.62165000  0.11179000  0.22455000  1.0
  H  H15  1  0.37835000  0.88821000  0.77545000  1.0
  H  H16  1  0.96320000  0.91811000  0.28587000  1.0
  H  H17  1  0.03679000  0.08188000  0.71413000  1.0
  H  H18  1  0.91208000  0.06648000  0.27352000  1.0
  H  H19  1  0.08793000  0.93351000  0.72649000  1.0
  H  H20  1  0.94642000  0.98108000  0.22097000  1.0
  H  H21  1  0.05358000  0.01891000  0.77903000  1.0
  H  H22  1  0.62932000  0.82880000  0.38783000  1.0
  H  H23  1  0.37070000  0.17118000  0.61218000  1.0
  H  H24  1  0.59103000  0.97741000  0.44875000  1.0
  H  H25  1  0.40898000  0.02258000  0.55125000  1.0
  H  H26  1  0.74542000  0.15271000  0.34092000  1.0
  H  H27  1  0.25457000  0.84729000  0.65908000  1.0
  H  H28  1  0.49425000  0.18340000  0.71406000  1.0
  H  H29  1  0.50577000  0.81660000  0.28594000  1.0
  H  H30  1  0.81032000  0.07413000  0.62737000  1.0
  H  H31  1  0.18969000  0.92586000  0.37263000  1.0
  H  H32  1  0.91777000  0.95944000  0.70619000  1.0
  H  H33  1  0.08224000  0.04056000  0.29381000  1.0
  H  H34  1  0.55579000  0.91616000  0.78770000  1.0
  H  H35  1  0.44421000  0.08384000  0.21230000  1.0
  H  H36  1  0.43806000  0.04867000  0.78445000  1.0
  H  H37  1  0.56194000  0.95133000  0.21555000  1.0
  H  H38  1  0.48463000  0.97247000  0.84567000  1.0
  H  H39  1  0.51537000  0.02754000  0.15433000  1.0
  H  H40  1  0.50603000  0.14259000  0.87590000  1.0
  H  H41  1  0.49397000  0.85742000  0.12409000  1.0
  H  H42  1  0.46338000  0.21835000  0.81429000  1.0
  H  H43  1  0.53663000  0.78165000  0.18571000  1.0
  H  H44  1  0.59689000  0.20209000  0.84133000  1.0
  H  H45  1  0.40312000  0.79792000  0.15867000  1.0
  H  H46  1  0.98816000  0.86289000  0.79826000  1.0
  H  H47  1  0.01184000  0.13710000  0.20174000  1.0
  H  H48  1  0.64516000  0.93559000  0.91545000  1.0
  H  H49  1  0.35484000  0.06441000  0.08454000  1.0
  H  H50  1  0.00912000  0.77600000  0.88943000  1.0
  H  H51  1  0.99089000  0.22400000  0.11057000  1.0
  H  H52  1  0.91198000  0.36667000  0.85386000  1.0
  H  H53  1  0.08802000  0.63333000  0.14614000  1.0
  H  H54  1  0.68508000  0.68834000  0.89877000  1.0
  H  H55  1  0.31493000  0.31166000  0.10122000  1.0
  H  H56  1  0.57870000  0.73104000  0.81511000  1.0
  H  H57  1  0.42131000  0.26896000  0.18489000  1.0
  H  H58  1  0.93086000  0.43550000  0.71668000  1.0
  H  H59  1  0.06913000  0.56450000  0.28333000  1.0
  H  H60  1  0.92277000  0.31173000  0.69719000  1.0
  H  H61  1  0.07723000  0.68827000  0.30281000  1.0
  H  H62  1  0.98169000  0.30918000  0.75843000  1.0
  H  H63  1  0.01830000  0.69082000  0.24157000  1.0
  H  H64  1  0.83820000  0.23291000  0.80378000  1.0
  H  H65  1  0.16180000  0.76709000  0.19623000  1.0
  H  H66  1  0.78411000  0.23295000  0.74169000  1.0
  H  H67  1  0.21589000  0.76704000  0.25831000  1.0
  H  H68  1  0.68855000  0.30363000  0.79046000  1.0
  H  H69  1  0.31145000  0.69636000  0.20954000  1.0
  H  H70  1  0.49596000  0.73281000  0.72486000  1.0
  H  H71  1  0.50404000  0.26718000  0.27514000  1.0
  H  H72  1  0.44837000  0.69268000  0.63893000  1.0
  H  H73  1  0.55164000  0.30731000  0.36107000  1.0
  H  H74  1  0.72149000  0.36685000  0.65308000  1.0
  H  H75  1  0.27850000  0.63315000  0.34692000  1.0
  H  H76  1  0.44766000  0.31671000  0.57104000  1.0
  H  H77  1  0.55234000  0.68329000  0.42896000  1.0
  H  H78  1  0.41958000  0.29934000  0.51184000  1.0
  H  H79  1  0.58043000  0.70066000  0.48816000  1.0
  H  H80  1  0.67174000  0.51875000  0.46984000  1.0
  H  H81  1  0.32826000  0.48125000  0.53016000  1.0
  H  H82  1  0.77904000  0.43470000  0.50169000  1.0
  H  H83  1  0.22095000  0.56530000  0.49831000  1.0
  H  H84  1  0.94952000  0.37610000  0.05528000  1.0
  H  H85  1  0.05047000  0.62391000  0.94472000  1.0
  H  H86  1  0.90271000  0.43577000  0.10701000  1.0
  H  H87  1  0.09728000  0.56424000  0.89298000  1.0
  H  H88  1  0.92220000  0.19043000  0.46049000  1.0
  H  H89  1  0.07779000  0.80957000  0.53951000  1.0
  H  H90  1  0.95990000  0.15242000  0.59855000  1.0
  H  H91  1  0.04009000  0.84758000  0.40146000  1.0
  H  H92  1  0.10689000  0.13834000  0.59115000  1.0
  H  H93  1  0.89310000  0.86165000  0.40886000  1.0
  H  H94  1  0.07383000  0.01764000  0.59266000  1.0
  H  H95  1  0.92616000  0.98236000  0.40734000  1.0
  H  H96  1  0.10318000  0.09266000  0.45065000  1.0
  H  H97  1  0.89679000  0.90734000  0.54935000  1.0
  H  H98  1  0.16459000  0.98263000  0.50090000  1.0
  H  H99  1  0.83540000  0.01737000  0.49910000  1.0
  H  H100  1  0.19406000  0.10583000  0.49813000  1.0
  H  H101  1  0.80593000  0.89416000  0.50187000  1.0
  H  H102  1  0.65366000  0.56327000  0.12325000  1.0
  H  H103  1  0.34633000  0.43673000  0.87674000  1.0
  H  H104  1  0.37823000  0.72974000  0.03952000  1.0
  H  H105  1  0.62176000  0.27026000  0.96047000  1.0
  H  H106  1  0.39192000  0.59289000  0.02706000  1.0
  H  H107  1  0.60808000  0.40710000  0.97293000  1.0
  H  H108  1  0.49749000  0.64684000  0.00224000  1.0
  H  H109  1  0.50251000  0.35316000  0.99776000  1.0
  H  H110  1  0.51916000  0.51243000  0.15591000  1.0
  H  H111  1  0.48083000  0.48758000  0.84408000  1.0
  H  H112  1  0.44736000  0.47029000  0.10971000  1.0
  H  H113  1  0.55263000  0.52972000  0.89029000  1.0
  H  H114  1  0.37680000  0.60100000  0.13581000  1.0
  H  H115  1  0.62320000  0.39900000  0.86419000  1.0
  C  C116  1  0.81358000  0.70225000  0.14102000  1.0
  C  C117  1  0.18642000  0.29775000  0.85898000  1.0
  C  C118  1  0.79376000  0.74611000  0.19289000  1.0
  C  C119  1  0.20623000  0.25390000  0.80711000  1.0
  C  C120  1  0.80543000  0.84720000  0.19818000  1.0
  C  C121  1  0.19457000  0.15280000  0.80183000  1.0
  C  C122  1  0.75832000  0.69026000  0.23512000  1.0
  C  C123  1  0.24168000  0.30974000  0.76488000  1.0
  C  C124  1  0.72862000  0.73660000  0.28239000  1.0
  C  C125  1  0.27138000  0.26339000  0.71761000  1.0
  C  C126  1  0.73722000  0.83905000  0.28701000  1.0
  C  C127  1  0.26278000  0.16095000  0.71299000  1.0
  C  C128  1  0.77872000  0.89229000  0.24539000  1.0
  C  C129  1  0.22127000  0.10771000  0.75461000  1.0
  C  C130  1  0.78428000  0.99964000  0.26045000  1.0
  C  C131  1  0.21572000  0.00036000  0.73955000  1.0
  C  C132  1  0.71156000  0.10284000  0.22467000  1.0
  C  C133  1  0.28844000  0.89716000  0.77534000  1.0
  C  C134  1  0.90930000  0.99031000  0.26021000  1.0
  C  C135  1  0.09070000  0.00969000  0.73979000  1.0
  C  C136  1  0.73551000  0.00351000  0.31535000  1.0
  C  C137  1  0.26449000  0.99649000  0.68465000  1.0
  C  C138  1  0.70685000  0.90995000  0.32983000  1.0
  C  C139  1  0.29315000  0.09005000  0.67017000  1.0
  C  C140  1  0.65494000  0.89904000  0.37781000  1.0
  C  C141  1  0.34507000  0.10096000  0.62219000  1.0
  C  C142  1  0.63339000  0.98172000  0.41145000  1.0
  C  C143  1  0.36661000  0.01827000  0.58855000  1.0
  C  C144  1  0.71955000  0.08220000  0.35002000  1.0
  C  C145  1  0.28045000  0.91780000  0.64998000  1.0
  C  C146  1  0.66827000  0.07099000  0.39841000  1.0
  C  C147  1  0.33172000  0.92901000  0.60159000  1.0
  C  C148  1  0.65687000  0.15137000  0.43693000  1.0
  C  C149  1  0.34313000  0.84863000  0.56307000  1.0
  C  C150  1  0.58777000  0.20074000  0.61856000  1.0
  C  C151  1  0.41224000  0.79926000  0.38144000  1.0
  C  C152  1  0.64769000  0.13482000  0.66666667  1.0
  C  C153  1  0.35232000  0.86518000  0.33333333  1.0
  C  C154  1  0.58656000  0.13462000  0.71333000  1.0
  C  C155  1  0.41345000  0.86537000  0.28667000  1.0
  C  C156  1  0.76661000  0.07181000  0.66444000  1.0
  C  C157  1  0.23340000  0.92818000  0.33556000  1.0
  C  C158  1  0.82581000  0.00869000  0.70825000  1.0
  C  C159  1  0.17420000  0.99130000  0.29174000  1.0
  C  C160  1  0.76492000  0.00885000  0.75473000  1.0
  C  C161  1  0.23510000  0.99114000  0.24526000  1.0
  C  C162  1  0.64515000  0.07115000  0.75706000  1.0
  C  C163  1  0.35486000  0.92884000  0.24293000  1.0
  C  C164  1  0.59769000  0.05183000  0.81071000  1.0
  C  C165  1  0.40231000  0.94817000  0.18929000  1.0
  C  C166  1  0.51382000  0.99343000  0.80692000  1.0
  C  C167  1  0.48618000  0.00657000  0.19308000  1.0
  C  C168  1  0.53755000  0.16057000  0.83718000  1.0
  C  C169  1  0.46246000  0.83944000  0.16281000  1.0
  C  C170  1  0.70657000  0.97322000  0.83890000  1.0
  C  C171  1  0.29344000  0.02678000  0.16110000  1.0
  C  C172  1  0.80340000  0.95010000  0.80566000  1.0
  C  C173  1  0.19660000  0.04990000  0.19433000  1.0
  C  C174  1  0.91306000  0.87975000  0.82355000  1.0
  C  C175  1  0.08694000  0.12025000  0.17645000  1.0
  C  C176  1  0.71829000  0.92258000  0.88916000  1.0
  C  C177  1  0.28171000  0.07743000  0.11084000  1.0
  C  C178  1  0.92469000  0.83053000  0.87434000  1.0
  C  C179  1  0.07531000  0.16947000  0.12566000  1.0
  C  C180  1  0.82798000  0.84955000  0.90679000  1.0
  C  C181  1  0.17202000  0.15045000  0.09321000  1.0
  C  C182  1  0.83865000  0.78699000  0.95890000  1.0
  C  C183  1  0.16135000  0.21301000  0.04110000  1.0
  C  C184  1  0.86799000  0.50588000  0.93018000  1.0
  C  C185  1  0.13202000  0.49412000  0.06982000  1.0
  C  C186  1  0.80337000  0.52561000  0.88072000  1.0
  C  C187  1  0.19664000  0.47439000  0.11928000  1.0
  C  C188  1  0.83813000  0.44470000  0.84474000  1.0
  C  C189  1  0.16188000  0.55530000  0.15526000  1.0
  C  C190  1  0.70955000  0.62775000  0.87000000  1.0
  C  C191  1  0.29046000  0.37226000  0.13000000  1.0
  C  C192  1  0.65039000  0.65101000  0.82347000  1.0
  C  C193  1  0.34962000  0.34900000  0.17653000  1.0
  C  C194  1  0.68372000  0.56970000  0.78815000  1.0
  C  C195  1  0.31627000  0.43030000  0.21185000  1.0
  C  C196  1  0.77704000  0.46611000  0.79903000  1.0
  C  C197  1  0.22295000  0.53389000  0.20097000  1.0
  C  C198  1  0.79454000  0.39126000  0.75521000  1.0
  C  C199  1  0.20545000  0.60873000  0.24480000  1.0
  C  C200  1  0.91482000  0.36032000  0.73038000  1.0
  C  C201  1  0.08517000  0.63968000  0.26962000  1.0
  C  C202  1  0.77519000  0.28379000  0.77405000  1.0
  C  C203  1  0.22481000  0.71620000  0.22595000  1.0
  C  C204  1  0.70048000  0.46683000  0.71768000  1.0
  C  C205  1  0.29951000  0.53316000  0.28233000  1.0
  C  C206  1  0.63657000  0.57028000  0.73776000  1.0
  C  C207  1  0.36343000  0.42972000  0.26224000  1.0
  C  C208  1  0.54527000  0.65256000  0.70977000  1.0
  C  C209  1  0.45473000  0.34743000  0.29023000  1.0
  C  C210  1  0.51871000  0.63067000  0.66172000  1.0
  C  C211  1  0.48129000  0.36932000  0.33828000  1.0
  C  C212  1  0.67385000  0.44574000  0.66968000  1.0
  C  C213  1  0.32615000  0.55426000  0.33032000  1.0
  C  C214  1  0.58247000  0.52848000  0.64130000  1.0
  C  C215  1  0.41752000  0.47152000  0.35870000  1.0
  C  C216  1  0.55489000  0.50806000  0.58892000  1.0
  C  C217  1  0.44511000  0.49193000  0.41108000  1.0
  C  C218  1  0.92430000  0.18506000  0.50319000  1.0
  C  C219  1  0.07568000  0.81496000  0.49682000  1.0
  C  C220  1  0.04260000  0.10754000  0.58005000  1.0
  C  C221  1  0.95739000  0.89246000  0.41995000  1.0
  C  C222  1  0.12791000  0.07370000  0.49156000  1.0
  C  C223  1  0.87207000  0.92630000  0.50844000  1.0
  C  C224  1  0.60868000  0.60304000  0.08653000  1.0
  C  C225  1  0.39132000  0.39696000  0.91347000  1.0
  C  C226  1  0.43974000  0.64397000  0.03472000  1.0
  C  C227  1  0.56025000  0.35603000  0.96527000  1.0
  C  C228  1  0.46029000  0.54172000  0.12295000  1.0
  C  C229  1  0.53970000  0.45829000  0.87704000  1.0
  N  N230  1  0.02745000  0.12515000  0.52401000  1.0
  N  N231  1  0.97254000  0.87484000  0.47600000  1.0
  N  N232  1  0.50774000  0.59502000  0.08144000  1.0
  N  N233  1  0.49226000  0.40498000  0.91855000  1.0
  O  O234  1  0.82274000  0.76592000  0.10157000  1.0
  O  O235  1  0.17726000  0.23408000  0.89843000  1.0
  O  O236  1  0.81806000  0.60370000  0.13638000  1.0
  O  O237  1  0.18193000  0.39630000  0.86362000  1.0
  O  O238  1  0.73384000  0.19302000  0.43687000  1.0
  O  O239  1  0.26616000  0.80698000  0.56313000  1.0
  O  O240  1  0.57406000  0.17645000  0.46970000  1.0
  O  O241  1  0.42593000  0.82356000  0.53030000  1.0
  O  O242  1  0.64575000  0.18837000  0.57633000  1.0
  O  O243  1  0.35426000  0.81162000  0.42367000  1.0
  O  O244  1  0.48193000  0.26616000  0.62188000  1.0
  O  O245  1  0.51807000  0.73385000  0.37812000  1.0
  O  O246  1  0.93726000  0.71292000  0.97446000  1.0
  O  O247  1  0.06274000  0.28708000  0.02554000  1.0
  O  O248  1  0.74963000  0.80217000  0.98700000  1.0
  O  O249  1  0.25037000  0.19783000  0.01300000  1.0
  O  O250  1  0.81711000  0.56297000  0.96727000  1.0
  O  O251  1  0.18290000  0.43704000  0.03273000  1.0
  O  O252  1  0.97095000  0.43426000  0.93185000  1.0
  O  O253  1  0.02905000  0.56574000  0.06815000  1.0
  O  O254  1  0.46767000  0.58067000  0.56506000  1.0
  O  O255  1  0.53233000  0.41934000  0.43493000  1.0
  O  O256  1  0.62134000  0.41842000  0.57026000  1.0
  O  O257  1  0.37866000  0.58157000  0.42974000  1.0
  O  O258  1  0.43303000  0.35298000  0.53144000  1.0
  O  O259  1  0.56696000  0.64702000  0.46856000  1.0
  O  O260  1  0.73044000  0.43956000  0.47282000  1.0
  O  O261  1  0.26956000  0.56045000  0.52718000  1.0
  O  O262  1  0.88298000  0.43658000  0.07104000  1.0
  O  O263  1  0.11702000  0.56343000  0.92895000  1.0
  O  O264  1  0.83511000  0.23134000  0.52930000  1.0
  O  O265  1  0.16490000  0.76869000  0.47070000  1.0
  O  O266  1  0.65093000  0.65191000  0.05260000  1.0
  O  O267  1  0.34906000  0.34810000  0.94740000  1.0
