# generated using pymatgen
data_Cd4H48C66O25
_symmetry_space_group_name_H-M   'P 1'
_cell_length_a   13.13450000
_cell_length_b   16.65460000
_cell_length_c   17.25360000
_cell_angle_alpha   114.45300000
_cell_angle_beta   101.97900000
_cell_angle_gamma   93.69210000
_symmetry_Int_Tables_number   1
_chemical_formula_structural   Cd4H48C66O25
_chemical_formula_sum   'Cd8 H96 C132 O50'
_cell_volume   3312.63666469
_cell_formula_units_Z   2
loop_
 _symmetry_equiv_pos_site_id
 _symmetry_equiv_pos_as_xyz
  1  'x, y, z'
loop_
 _atom_site_type_symbol
 _atom_site_label
 _atom_site_symmetry_multiplicity
 _atom_site_fract_x
 _atom_site_fract_y
 _atom_site_fract_z
 _atom_site_occupancy
  Cd  Cd0  1  0.51471000  0.48052000  0.34376000  1.0
  Cd  Cd1  1  0.48529000  0.51948000  0.65625000  1.0
  Cd  Cd2  1  0.65884000  0.32605000  0.38243000  1.0
  Cd  Cd3  1  0.34116000  0.67395000  0.61757000  1.0
  Cd  Cd4  1  0.37594000  0.68303000  0.40432000  1.0
  Cd  Cd5  1  0.62406000  0.31697000  0.59568000  1.0
  Cd  Cd6  1  0.84980000  0.22016000  0.49674000  1.0
  Cd  Cd7  1  0.15020000  0.77984000  0.50326000  1.0
  H  H8  1  0.71123000  0.02931000  0.37705000  1.0
  H  H9  1  0.28877000  0.97069000  0.62295000  1.0
  H  H10  1  0.50699000  0.77182000  0.29443000  1.0
  H  H11  1  0.49302000  0.22817000  0.70557000  1.0
  H  H12  1  0.46422000  0.16131000  0.32349000  1.0
  H  H13  1  0.53578000  0.83869000  0.67651000  1.0
  H  H14  1  0.17418000  0.96075000  0.42248000  1.0
  H  H15  1  0.82582000  0.03925000  0.57752000  1.0
  H  H16  1  0.86742000  0.36952000  0.29219000  1.0
  H  H17  1  0.13258000  0.63047000  0.70780000  1.0
  H  H18  1  0.14498000  0.54924000  0.26882000  1.0
  H  H19  1  0.85501000  0.45076000  0.73118000  1.0
  H  H20  1  0.78275000  0.38453000  0.54740000  1.0
  H  H21  1  0.21726000  0.61547000  0.45260000  1.0
  H  H22  1  0.53253000  0.61426000  0.50490000  1.0
  H  H23  1  0.46747000  0.38574000  0.49510000  1.0
  H  H24  1  0.58046000  0.44226000  0.50910000  1.0
  H  H25  1  0.41954000  0.55774000  0.49090000  1.0
  H  H26  1  0.69111000  0.51484000  0.48797000  1.0
  H  H27  1  0.30889000  0.48515000  0.51203000  1.0
  H  H28  1  0.51217000  0.85053000  0.54905000  1.0
  H  H29  1  0.48782000  0.14947000  0.45095000  1.0
  H  H30  1  0.39424000  0.84807000  0.55057000  1.0
  H  H31  1  0.60576000  0.15193000  0.44943000  1.0
  H  H32  1  0.83443000  0.24538000  0.34708000  1.0
  H  H33  1  0.16557000  0.75461000  0.65292000  1.0
  H  H34  1  0.95354000  0.24158000  0.36441000  1.0
  H  H35  1  0.04646000  0.75842000  0.63560000  1.0
  H  H36  1  0.99954000  0.33048000  0.66033000  1.0
  H  H37  1  0.00046000  0.66952000  0.33967000  1.0
  H  H38  1  0.06516000  0.26995000  0.60371000  1.0
  H  H39  1  0.93484000  0.73005000  0.39629000  1.0
  H  H40  1  0.96537000  0.08086000  0.37237000  1.0
  H  H41  1  0.03463000  0.91913000  0.62763000  1.0
  H  H42  1  0.87808000  0.03573000  0.39704000  1.0
  H  H43  1  0.12192000  0.96427000  0.60295000  1.0
  H  H44  1  0.62077000  0.06689000  0.13214000  1.0
  H  H45  1  0.37923000  0.93311000  0.86786000  1.0
  H  H46  1  0.56589000  0.96180000  0.97283000  1.0
  H  H47  1  0.43411000  0.03820000  0.02717000  1.0
  H  H48  1  0.52307000  0.80598000  0.85418000  1.0
  H  H49  1  0.47694000  0.19402000  0.14582000  1.0
  H  H50  1  0.55079000  0.67875000  0.89198000  1.0
  H  H51  1  0.44922000  0.32125000  0.10802000  1.0
  H  H52  1  0.62617000  0.70597000  0.04652000  1.0
  H  H53  1  0.37384000  0.29402000  0.95348000  1.0
  H  H54  1  0.75295000  0.59888000  0.28053000  1.0
  H  H55  1  0.24705000  0.40112000  0.71948000  1.0
  H  H56  1  0.90960000  0.58116000  0.21737000  1.0
  H  H57  1  0.09041000  0.41884000  0.78263000  1.0
  H  H58  1  0.03955000  0.64134000  0.16201000  1.0
  H  H59  1  0.96045000  0.35866000  0.83799000  1.0
  H  H60  1  0.00940000  0.77086000  0.12667000  1.0
  H  H61  1  0.99060000  0.22913000  0.87333000  1.0
  H  H62  1  0.85053000  0.83923000  0.14743000  1.0
  H  H63  1  0.14947000  0.16077000  0.85257000  1.0
  H  H64  1  0.19913000  0.30419000  0.28942000  1.0
  H  H65  1  0.80087000  0.69581000  0.71058000  1.0
  H  H66  1  0.00577000  0.25834000  0.23651000  1.0
  H  H67  1  0.99423000  0.74166000  0.76349000  1.0
  H  H68  1  0.84629000  0.14550000  0.19216000  1.0
  H  H69  1  0.15371000  0.85450000  0.80784000  1.0
  H  H70  1  0.86431000  0.99745000  0.19289000  1.0
  H  H71  1  0.13569000  0.00255000  0.80711000  1.0
  H  H72  1  0.04066000  0.95931000  0.23098000  1.0
  H  H73  1  0.95934000  0.04070000  0.76903000  1.0
  H  H74  1  0.28173000  0.73153000  0.22796000  1.0
  H  H75  1  0.71827000  0.26847000  0.77205000  1.0
  H  H76  1  0.34324000  0.70635000  0.09687000  1.0
  H  H77  1  0.65677000  0.29365000  0.90313000  1.0
  H  H78  1  0.37860000  0.75855000  0.98762000  1.0
  H  H79  1  0.62141000  0.24145000  0.01239000  1.0
  H  H80  1  0.35353000  0.91198000  0.00770000  1.0
  H  H81  1  0.64647000  0.08802000  0.99230000  1.0
  H  H82  1  0.29624000  0.01437000  0.13539000  1.0
  H  H83  1  0.70377000  0.98564000  0.86461000  1.0
  H  H84  1  0.61013000  0.44038000  0.13309000  1.0
  H  H85  1  0.38987000  0.55962000  0.86690000  1.0
  H  H86  1  0.60055000  0.48628000  0.01350000  1.0
  H  H87  1  0.39946000  0.51372000  0.98649000  1.0
  H  H88  1  0.67926000  0.50379000  0.90085000  1.0
  H  H89  1  0.32075000  0.49621000  0.09915000  1.0
  H  H90  1  0.85784000  0.46403000  0.88998000  1.0
  H  H91  1  0.14217000  0.53598000  0.11002000  1.0
  H  H92  1  0.95782000  0.40940000  0.99040000  1.0
  H  H93  1  0.04219000  0.59060000  0.00960000  1.0
  H  H94  1  0.29117000  0.31362000  0.14215000  1.0
  H  H95  1  0.70883000  0.68639000  0.85784000  1.0
  H  H96  1  0.22376000  0.15525000  0.04735000  1.0
  H  H97  1  0.77623000  0.84475000  0.95265000  1.0
  H  H98  1  0.07106000  0.03057000  0.96025000  1.0
  H  H99  1  0.92894000  0.96944000  0.03974000  1.0
  H  H100  1  0.88809000  0.06433000  0.94235000  1.0
  H  H101  1  0.11190000  0.93567000  0.05764000  1.0
  H  H102  1  0.85443000  0.21852000  0.01294000  1.0
  H  H103  1  0.14556000  0.78149000  0.98705000  1.0
  C  C104  1  0.67470000  0.86670000  0.19005000  1.0
  C  C105  1  0.32531000  0.13329000  0.80995000  1.0
  C  C106  1  0.68871000  0.95328000  0.25617000  1.0
  C  C107  1  0.31129000  0.04672000  0.74383000  1.0
  C  C108  1  0.66827000  0.02640000  0.23485000  1.0
  C  C109  1  0.33173000  0.97359000  0.76515000  1.0
  C  C110  1  0.63496000  0.01043000  0.14716000  1.0
  C  C111  1  0.36503000  0.98957000  0.85284000  1.0
  C  C112  1  0.57838000  0.90554000  0.98858000  1.0
  C  C113  1  0.42162000  0.09447000  0.01142000  1.0
  C  C114  1  0.55502000  0.81920000  0.92275000  1.0
  C  C115  1  0.44498000  0.18080000  0.07725000  1.0
  C  C116  1  0.57168000  0.74688000  0.94444000  1.0
  C  C117  1  0.42833000  0.25312000  0.05556000  1.0
  C  C118  1  0.61281000  0.76193000  0.03052000  1.0
  C  C119  1  0.38720000  0.23807000  0.96948000  1.0
  C  C120  1  0.63631000  0.85001000  0.10029000  1.0
  C  C121  1  0.36369000  0.14999000  0.89972000  1.0
  C  C122  1  0.61735000  0.92327000  0.07847000  1.0
  C  C123  1  0.38265000  0.07673000  0.92153000  1.0
  C  C124  1  0.69796000  0.79304000  0.21457000  1.0
  C  C125  1  0.30205000  0.20696000  0.78543000  1.0
  C  C126  1  0.62968000  0.76352000  0.25332000  1.0
  C  C127  1  0.37032000  0.23648000  0.74669000  1.0
  C  C128  1  0.65126000  0.69326000  0.27890000  1.0
  C  C129  1  0.34874000  0.30673000  0.72110000  1.0
  C  C130  1  0.73876000  0.65324000  0.26221000  1.0
  C  C131  1  0.26124000  0.34675000  0.73779000  1.0
  C  C132  1  0.89867000  0.64010000  0.20571000  1.0
  C  C133  1  0.10133000  0.35990000  0.79429000  1.0
  C  C134  1  0.97014000  0.67238000  0.17284000  1.0
  C  C135  1  0.02987000  0.32762000  0.82717000  1.0
  C  C136  1  0.95289000  0.74571000  0.15301000  1.0
  C  C137  1  0.04712000  0.25429000  0.84699000  1.0
  C  C138  1  0.86425000  0.78446000  0.16520000  1.0
  C  C139  1  0.13575000  0.21554000  0.83480000  1.0
  C  C140  1  0.78948000  0.75389000  0.20044000  1.0
  C  C141  1  0.21052000  0.24610000  0.79956000  1.0
  C  C142  1  0.80884000  0.68113000  0.22285000  1.0
  C  C143  1  0.19117000  0.31888000  0.77715000  1.0
  C  C144  1  0.68459000  0.11837000  0.30527000  1.0
  C  C145  1  0.31541000  0.88163000  0.69472000  1.0
  C  C146  1  0.58218000  0.66200000  0.32325000  1.0
  C  C147  1  0.41782000  0.33800000  0.67675000  1.0
  C  C148  1  0.22941000  0.06605000  0.27584000  1.0
  C  C149  1  0.77059000  0.93395000  0.72416000  1.0
  C  C150  1  0.31746000  0.13092000  0.30088000  1.0
  C  C151  1  0.68253000  0.86909000  0.69912000  1.0
  C  C152  1  0.30705000  0.21842000  0.30653000  1.0
  C  C153  1  0.69295000  0.78158000  0.69347000  1.0
  C  C154  1  0.20703000  0.23846000  0.28693000  1.0
  C  C155  1  0.79296000  0.76153000  0.71307000  1.0
  C  C156  1  0.01337000  0.19376000  0.23717000  1.0
  C  C157  1  0.98663000  0.80624000  0.76283000  1.0
  C  C158  1  0.92449000  0.13088000  0.21246000  1.0
  C  C159  1  0.07551000  0.86912000  0.78754000  1.0
  C  C160  1  0.93495000  0.04667000  0.21250000  1.0
  C  C161  1  0.06505000  0.95332000  0.78750000  1.0
  C  C162  1  0.03346000  0.02539000  0.23415000  1.0
  C  C163  1  0.96654000  0.97462000  0.76585000  1.0
  C  C164  1  0.12687000  0.08792000  0.25816000  1.0
  C  C165  1  0.87313000  0.91208000  0.74184000  1.0
  C  C166  1  0.11578000  0.17468000  0.26181000  1.0
  C  C167  1  0.88422000  0.82532000  0.73819000  1.0
  C  C168  1  0.24494000  0.97430000  0.26279000  1.0
  C  C169  1  0.75506000  0.02570000  0.73721000  1.0
  C  C170  1  0.22220000  0.94240000  0.32132000  1.0
  C  C171  1  0.77780000  0.05760000  0.67868000  1.0
  C  C172  1  0.23663000  0.85352000  0.30875000  1.0
  C  C173  1  0.76338000  0.14648000  0.69126000  1.0
  C  C174  1  0.27273000  0.79945000  0.23766000  1.0
  C  C175  1  0.72727000  0.20055000  0.76235000  1.0
  C  C176  1  0.33262000  0.77329000  0.10439000  1.0
  C  C177  1  0.66739000  0.22671000  0.89562000  1.0
  C  C178  1  0.35261000  0.80234000  0.04425000  1.0
  C  C179  1  0.64740000  0.19766000  0.95576000  1.0
  C  C180  1  0.33877000  0.88994000  0.05629000  1.0
  C  C181  1  0.66123000  0.11006000  0.94371000  1.0
  C  C182  1  0.30611000  0.94710000  0.12748000  1.0
  C  C183  1  0.69389000  0.05290000  0.87252000  1.0
  C  C184  1  0.28291000  0.91875000  0.19012000  1.0
  C  C185  1  0.71709000  0.08125000  0.80988000  1.0
  C  C186  1  0.29653000  0.82958000  0.17734000  1.0
  C  C187  1  0.70348000  0.17042000  0.82266000  1.0
  C  C188  1  0.40223000  0.28643000  0.33129000  1.0
  C  C189  1  0.59777000  0.71358000  0.66871000  1.0
  C  C190  1  0.21302000  0.81825000  0.36981000  1.0
  C  C191  1  0.78698000  0.18175000  0.63019000  1.0
  C  C192  1  0.89537000  0.38857000  0.12226000  1.0
  C  C193  1  0.10463000  0.61143000  0.87774000  1.0
  C  C194  1  0.85255000  0.38564000  0.18863000  1.0
  C  C195  1  0.14745000  0.61436000  0.81137000  1.0
  C  C196  1  0.74677000  0.40161000  0.19051000  1.0
  C  C197  1  0.25322000  0.59839000  0.80949000  1.0
  C  C198  1  0.68989000  0.42734000  0.12996000  1.0
  C  C199  1  0.31011000  0.57266000  0.87003000  1.0
  C  C200  1  0.67847000  0.46946000  0.00761000  1.0
  C  C201  1  0.32153000  0.53054000  0.99238000  1.0
  C  C202  1  0.72212000  0.47903000  0.94530000  1.0
  C  C203  1  0.27789000  0.52097000  0.05469000  1.0
  C  C204  1  0.82338000  0.45640000  0.93929000  1.0
  C  C205  1  0.17662000  0.54361000  0.06071000  1.0
  C  C206  1  0.87949000  0.42558000  0.99520000  1.0
  C  C207  1  0.12052000  0.57442000  0.00480000  1.0
  C  C208  1  0.83741000  0.41609000  0.06102000  1.0
  C  C209  1  0.16259000  0.58391000  0.93898000  1.0
  C  C210  1  0.73387000  0.43792000  0.06639000  1.0
  C  C211  1  0.26613000  0.56208000  0.93361000  1.0
  C  C212  1  0.00345000  0.36665000  0.12227000  1.0
  C  C213  1  0.99655000  0.63335000  0.87773000  1.0
  C  C214  1  0.08957000  0.43268000  0.17906000  1.0
  C  C215  1  0.91043000  0.56732000  0.82094000  1.0
  C  C216  1  0.19485000  0.41331000  0.18461000  1.0
  C  C217  1  0.80515000  0.58669000  0.81539000  1.0
  C  C218  1  0.21080000  0.32745000  0.13589000  1.0
  C  C219  1  0.78919000  0.67255000  0.86410000  1.0
  C  C220  1  0.14272000  0.16817000  0.03959000  1.0
  C  C221  1  0.85728000  0.83183000  0.96040000  1.0
  C  C222  1  0.05849000  0.09953000  0.99132000  1.0
  C  C223  1  0.94151000  0.90048000  0.00867000  1.0
  C  C224  1  0.95444000  0.11881000  0.98157000  1.0
  C  C225  1  0.04555000  0.88119000  0.01843000  1.0
  C  C226  1  0.93520000  0.20525000  0.02086000  1.0
  C  C227  1  0.06479000  0.79475000  0.97913000  1.0
  C  C228  1  0.02005000  0.27754000  0.07397000  1.0
  C  C229  1  0.97995000  0.72246000  0.92603000  1.0
  C  C230  1  0.12571000  0.25772000  0.08193000  1.0
  C  C231  1  0.87428000  0.74228000  0.91807000  1.0
  C  C232  1  0.69762000  0.38918000  0.25511000  1.0
  C  C233  1  0.30237000  0.61082000  0.74488000  1.0
  C  C234  1  0.28754000  0.48195000  0.24510000  1.0
  C  C235  1  0.71245000  0.51805000  0.75490000  1.0
  O  O236  1  0.69185000  0.18505000  0.28750000  1.0
  O  O237  1  0.30816000  0.81495000  0.71250000  1.0
  O  O238  1  0.69397000  0.12765000  0.38539000  1.0
  O  O239  1  0.30602000  0.87234000  0.61461000  1.0
  O  O240  1  0.72561000  0.96783000  0.34164000  1.0
  O  O241  1  0.27439000  0.03217000  0.65836000  1.0
  O  O242  1  0.60967000  0.60407000  0.34930000  1.0
  O  O243  1  0.39034000  0.39594000  0.65071000  1.0
  O  O244  1  0.49811000  0.69803000  0.33327000  1.0
  O  O245  1  0.50189000  0.30197000  0.66666667  1.0
  O  O246  1  0.54400000  0.80241000  0.26601000  1.0
  O  O247  1  0.45600000  0.19758000  0.73399000  1.0
  O  O248  1  0.39469000  0.36745000  0.35207000  1.0
  O  O249  1  0.60531000  0.63255000  0.64793000  1.0
  O  O250  1  0.49131000  0.25609000  0.33127000  1.0
  O  O251  1  0.50869000  0.74391000  0.66873000  1.0
  O  O252  1  0.41489000  0.10984000  0.32036000  1.0
  O  O253  1  0.58511000  0.89016000  0.67964000  1.0
  O  O254  1  0.22589000  0.73932000  0.35826000  1.0
  O  O255  1  0.77411000  0.26069000  0.64175000  1.0
  O  O256  1  0.17686000  0.86890000  0.43485000  1.0
  O  O257  1  0.82313000  0.13110000  0.56515000  1.0
  O  O258  1  0.18624000  0.99668000  0.38961000  1.0
  O  O259  1  0.81376000  0.00332000  0.61039000  1.0
  O  O260  1  0.59908000  0.38695000  0.24730000  1.0
  O  O261  1  0.40092000  0.61306000  0.75269000  1.0
  O  O262  1  0.75924000  0.37769000  0.31778000  1.0
  O  O263  1  0.24075000  0.62231000  0.68222000  1.0
  O  O264  1  0.91253000  0.36664000  0.25060000  1.0
  O  O265  1  0.08746000  0.63337000  0.74940000  1.0
  O  O266  1  0.37895000  0.46756000  0.23613000  1.0
  O  O267  1  0.62105000  0.53244000  0.76387000  1.0
  O  O268  1  0.26857000  0.55396000  0.30442000  1.0
  O  O269  1  0.73143000  0.44604000  0.69557000  1.0
  O  O270  1  0.07293000  0.51611000  0.22910000  1.0
  O  O271  1  0.92707000  0.48389000  0.77090000  1.0
  O  O272  1  0.74172000  0.32512000  0.50846000  1.0
  O  O273  1  0.25828000  0.67487000  0.49154000  1.0
  O  O274  1  0.46360000  0.59051000  0.46221000  1.0
  O  O275  1  0.53640000  0.40949000  0.53779000  1.0
  O  O276  1  0.62819000  0.46926000  0.45744000  1.0
  O  O277  1  0.37181000  0.53074000  0.54256000  1.0
  O  O278  1  0.44061000  0.82895000  0.50979000  1.0
  O  O279  1  0.55939000  0.17105000  0.49021000  1.0
  O  O280  1  0.90002000  0.26714000  0.39505000  1.0
  O  O281  1  0.09998000  0.73286000  0.60495000  1.0
  O  O282  1  0.00750000  0.30340000  0.59986000  1.0
  O  O283  1  0.99250000  0.69661000  0.40014000  1.0
  O  O284  1  0.93154000  0.08975000  0.42017000  1.0
  O  O285  1  0.06846000  0.91025000  0.57983000  1.0
