# generated using pymatgen
data_Cd2H14C24Br4N4O9
_symmetry_space_group_name_H-M   'P 1'
_cell_length_a   11.70670000
_cell_length_b   11.70670000
_cell_length_c   14.77080000
_cell_angle_alpha   109.12300000
_cell_angle_beta   109.12300000
_cell_angle_gamma   98.49010000
_symmetry_Int_Tables_number   1
_chemical_formula_structural   Cd2H14C24Br4N4O9
_chemical_formula_sum   'Cd4 H28 C48 Br8 N8 O18'
_cell_volume   1731.77365333
_cell_formula_units_Z   2
loop_
 _symmetry_equiv_pos_site_id
 _symmetry_equiv_pos_as_xyz
  1  'x, y, z'
loop_
 _atom_site_type_symbol
 _atom_site_label
 _atom_site_symmetry_multiplicity
 _atom_site_fract_x
 _atom_site_fract_y
 _atom_site_fract_z
 _atom_site_occupancy
  Cd  Cd0  1  0.21959000  0.97674000  0.21385000  1.0
  Cd  Cd1  1  0.02326000  0.78041000  0.28615000  1.0
  Cd  Cd2  1  0.78042000  0.02326000  0.78615000  1.0
  Cd  Cd3  1  0.97674000  0.21958000  0.71385000  1.0
  H  H4  1  0.20107000  0.73463000  0.18200000  1.0
  H  H5  1  0.26537000  0.79893000  0.31800000  1.0
  H  H6  1  0.79893000  0.26537000  0.81800000  1.0
  H  H7  1  0.73463000  0.20107000  0.68200000  1.0
  H  H8  1  0.88198000  0.96807000  0.98264000  1.0
  H  H9  1  0.03193000  0.11803000  0.51736000  1.0
  H  H10  1  0.11802000  0.03193000  0.01736000  1.0
  H  H11  1  0.96807000  0.88197000  0.48264000  1.0
  H  H12  1  0.80342000  0.56934000  0.91178000  1.0
  H  H13  1  0.43066000  0.19658000  0.58822000  1.0
  H  H14  1  0.19658000  0.43066000  0.08822000  1.0
  H  H15  1  0.56934000  0.80342000  0.41178000  1.0
  H  H16  1  0.69827000  0.71657000  0.67147000  1.0
  H  H17  1  0.28343000  0.30173000  0.82853000  1.0
  H  H18  1  0.30173000  0.28343000  0.32853000  1.0
  H  H19  1  0.71657000  0.69827000  0.17147000  1.0
  H  H20  1  0.09364000  0.47030000  0.91130000  1.0
  H  H21  1  0.52970000  0.90636000  0.58870000  1.0
  H  H22  1  0.90635000  0.52970000  0.08870000  1.0
  H  H23  1  0.47030000  0.09364000  0.41130000  1.0
  H  H24  1  0.09870000  0.80424000  0.84708000  1.0
  H  H25  1  0.19576000  0.90130000  0.65292000  1.0
  H  H26  1  0.90130000  0.19576000  0.15292000  1.0
  H  H27  1  0.80424000  0.09869000  0.34708000  1.0
  H  H28  1  0.94661000  0.42619000  0.60137000  1.0
  H  H29  1  0.57381000  0.05339000  0.89863000  1.0
  H  H30  1  0.05339000  0.57381000  0.39863000  1.0
  H  H31  1  0.42619000  0.94661000  0.10137000  1.0
  C  C32  1  0.84232000  0.86983000  0.92715000  1.0
  C  C33  1  0.13017000  0.15768000  0.57285000  1.0
  C  C34  1  0.15768000  0.13017000  0.07285000  1.0
  C  C35  1  0.86983000  0.84232000  0.42715000  1.0
  C  C36  1  0.84994000  0.77234000  0.96153000  1.0
  C  C37  1  0.22767000  0.15006000  0.53847000  1.0
  C  C38  1  0.15006000  0.22766000  0.03847000  1.0
  C  C39  1  0.77234000  0.84994000  0.46153000  1.0
  C  C40  1  0.79831000  0.64751000  0.88729000  1.0
  C  C41  1  0.35249000  0.20169000  0.61272000  1.0
  C  C42  1  0.20169000  0.35249000  0.11271000  1.0
  C  C43  1  0.64751000  0.79831000  0.38729000  1.0
  C  C44  1  0.74436000  0.62682000  0.78170000  1.0
  C  C45  1  0.37318000  0.25564000  0.71830000  1.0
  C  C46  1  0.25564000  0.37318000  0.21830000  1.0
  C  C47  1  0.62682000  0.74436000  0.28170000  1.0
  C  C48  1  0.73929000  0.72899000  0.75307000  1.0
  C  C49  1  0.27101000  0.26071000  0.74693000  1.0
  C  C50  1  0.26071000  0.27101000  0.24693000  1.0
  C  C51  1  0.72899000  0.73929000  0.25307000  1.0
  C  C52  1  0.91987000  0.80622000  0.07673000  1.0
  C  C53  1  0.19378000  0.08013000  0.42327000  1.0
  C  C54  1  0.08013000  0.19378000  0.92327000  1.0
  C  C55  1  0.80622000  0.91987000  0.57673000  1.0
  C  C56  1  0.07415000  0.51597000  0.85683000  1.0
  C  C57  1  0.48403000  0.92585000  0.64317000  1.0
  C  C58  1  0.92585000  0.48403000  0.14317000  1.0
  C  C59  1  0.51597000  0.07415000  0.35683000  1.0
  C  C60  1  0.10503000  0.64726000  0.89356000  1.0
  C  C61  1  0.35274000  0.89497000  0.60644000  1.0
  C  C62  1  0.89497000  0.35274000  0.10644000  1.0
  C  C63  1  0.64726000  0.10503000  0.39356000  1.0
  C  C64  1  0.07693000  0.70204000  0.82078000  1.0
  C  C65  1  0.29796000  0.92307000  0.67922000  1.0
  C  C66  1  0.92307000  0.29796000  0.17922000  1.0
  C  C67  1  0.70204000  0.07693000  0.32078000  1.0
  C  C68  1  0.01978000  0.62179000  0.71481000  1.0
  C  C69  1  0.37821000  0.98022000  0.78519000  1.0
  C  C70  1  0.98022000  0.37820000  0.28519000  1.0
  C  C71  1  0.62179000  0.01978000  0.21481000  1.0
  C  C72  1  0.99223000  0.49121000  0.68365000  1.0
  C  C73  1  0.50879000  0.00777000  0.81635000  1.0
  C  C74  1  0.00777000  0.50879000  0.31635000  1.0
  C  C75  1  0.49121000  0.99223000  0.18365000  1.0
  C  C76  1  0.16302000  0.72413000  0.01043000  1.0
  C  C77  1  0.27587000  0.83698000  0.48957000  1.0
  C  C78  1  0.83698000  0.27587000  0.98957000  1.0
  C  C79  1  0.72413000  0.16302000  0.51043000  1.0
  Br  Br80  1  0.68159000  0.46102000  0.67541000  1.0
  Br  Br81  1  0.53898000  0.31841000  0.82459000  1.0
  Br  Br82  1  0.31841000  0.53898000  0.32458000  1.0
  Br  Br83  1  0.46102000  0.68159000  0.17541000  1.0
  Br  Br84  1  0.97538000  0.68725000  0.61013000  1.0
  Br  Br85  1  0.31275000  0.02462000  0.88987000  1.0
  Br  Br86  1  0.02462000  0.31275000  0.38987000  1.0
  Br  Br87  1  0.68725000  0.97538000  0.11013000  1.0
  N  N88  1  0.78693000  0.84812000  0.82572000  1.0
  N  N89  1  0.15188000  0.21307000  0.67428000  1.0
  N  N90  1  0.21307000  0.15188000  0.17428000  1.0
  N  N91  1  0.84812000  0.78693000  0.32572000  1.0
  N  N92  1  0.01961000  0.44017000  0.75456000  1.0
  N  N93  1  0.55983000  0.98039000  0.74544000  1.0
  N  N94  1  0.98039000  0.55983000  0.24544000  1.0
  N  N95  1  0.44017000  0.01961000  0.25456000  1.0
  O  O96  1  0.99711000  0.91520000  0.12994000  1.0
  O  O97  1  0.08480000  0.00289000  0.37006000  1.0
  O  O98  1  0.00289000  0.08480000  0.87006000  1.0
  O  O99  1  0.91520000  0.99711000  0.62994000  1.0
  O  O100  1  0.89622000  0.72240000  0.11067000  1.0
  O  O101  1  0.27760000  0.10379000  0.38933000  1.0
  O  O102  1  0.10378000  0.27759000  0.88933000  1.0
  O  O103  1  0.72240000  0.89622000  0.61067000  1.0
  O  O104  1  0.17955000  0.66154000  0.06738000  1.0
  O  O105  1  0.33846000  0.82045000  0.43261000  1.0
  O  O106  1  0.82045000  0.33846000  0.93262000  1.0
  O  O107  1  0.66154000  0.17955000  0.56738000  1.0
  O  O108  1  0.18827000  0.84348000  0.04149000  1.0
  O  O109  1  0.15652000  0.81173000  0.45851000  1.0
  O  O110  1  0.81173000  0.15652000  0.95851000  1.0
  O  O111  1  0.84348000  0.18827000  0.54149000  1.0
  O  O112  1  0.20217000  0.79783000  0.25000000  1.0
  O  O113  1  0.79783000  0.20217000  0.75000000  1.0
