# generated using pymatgen
data_SmZnH9C12N4O9
_symmetry_space_group_name_H-M   'P 1'
_cell_length_a   11.45550000
_cell_length_b   12.80160000
_cell_length_c   13.35000000
_cell_angle_alpha   116.07700000
_cell_angle_beta   90.00000000
_cell_angle_gamma   90.00000000
_symmetry_Int_Tables_number   1
_chemical_formula_structural   SmZnH9C12N4O9
_chemical_formula_sum   'Sm4 Zn4 H36 C48 N16 O36'
_cell_volume   1758.46854674
_cell_formula_units_Z   4
loop_
 _symmetry_equiv_pos_site_id
 _symmetry_equiv_pos_as_xyz
  1  'x, y, z'
loop_
 _atom_site_type_symbol
 _atom_site_label
 _atom_site_symmetry_multiplicity
 _atom_site_fract_x
 _atom_site_fract_y
 _atom_site_fract_z
 _atom_site_occupancy
  Sm  Sm0  1  0.70854000  0.38833000  0.68125000  1.0
  Sm  Sm1  1  0.20854000  0.61167000  0.81876000  1.0
  Sm  Sm2  1  0.29146000  0.61166000  0.31875000  1.0
  Sm  Sm3  1  0.79146000  0.38834000  0.18125000  1.0
  Zn  Zn4  1  0.44778000  0.06757000  0.84403000  1.0
  Zn  Zn5  1  0.94778000  0.93243000  0.65597000  1.0
  Zn  Zn6  1  0.55222000  0.93244000  0.15597000  1.0
  Zn  Zn7  1  0.05222000  0.06756000  0.34403000  1.0
  H  H8  1  0.48997000  0.25390000  0.02264000  1.0
  H  H9  1  0.98997000  0.74610000  0.47737000  1.0
  H  H10  1  0.51002000  0.74610000  0.97737000  1.0
  H  H11  1  0.01002000  0.25389000  0.52263000  1.0
  H  H12  1  0.49393000  0.14451000  0.04935000  1.0
  H  H13  1  0.99392000  0.85549000  0.45065000  1.0
  H  H14  1  0.50608000  0.85549000  0.95065000  1.0
  H  H15  1  0.00607000  0.14451000  0.54935000  1.0
  H  H16  1  0.33920000  0.33969000  0.36868000  1.0
  H  H17  1  0.83921000  0.66031000  0.13132000  1.0
  H  H18  1  0.66079000  0.66031000  0.63132000  1.0
  H  H19  1  0.16079000  0.33969000  0.86868000  1.0
  H  H20  1  0.72933000  0.93297000  0.90950000  1.0
  H  H21  1  0.22933000  0.06703000  0.59051000  1.0
  H  H22  1  0.27067000  0.06703000  0.09051000  1.0
  H  H23  1  0.77067000  0.93297000  0.40949000  1.0
  H  H24  1  0.78250000  0.82581000  0.78019000  1.0
  H  H25  1  0.28250000  0.17419000  0.71982000  1.0
  H  H26  1  0.21750000  0.17419000  0.21982000  1.0
  H  H27  1  0.71750000  0.82581000  0.28018000  1.0
  H  H28  1  0.62815000  0.84264000  0.80994000  1.0
  H  H29  1  0.12816000  0.15736000  0.69007000  1.0
  H  H30  1  0.37184000  0.15736000  0.19006000  1.0
  H  H31  1  0.87184000  0.84264000  0.30994000  1.0
  H  H32  1  0.27801000  0.31890000  0.55279000  1.0
  H  H33  1  0.77801000  0.68111000  0.94721000  1.0
  H  H34  1  0.72199000  0.68110000  0.44721000  1.0
  H  H35  1  0.22199000  0.31890000  0.05280000  1.0
  H  H36  1  0.39545000  0.28762000  0.62450000  1.0
  H  H37  1  0.89546000  0.71238000  0.87551000  1.0
  H  H38  1  0.60454000  0.71238000  0.37550000  1.0
  H  H39  1  0.10454000  0.28762000  0.12450000  1.0
  H  H40  1  0.34682000  0.18046000  0.49266000  1.0
  H  H41  1  0.84683000  0.81954000  0.00735000  1.0
  H  H42  1  0.65318000  0.81954000  0.50734000  1.0
  H  H43  1  0.15317000  0.18046000  0.99266000  1.0
  C  C44  1  0.63886000  0.11382000  0.73530000  1.0
  C  C45  1  0.13886000  0.88618000  0.76470000  1.0
  C  C46  1  0.36114000  0.88617000  0.26470000  1.0
  C  C47  1  0.86114000  0.11383000  0.23530000  1.0
  C  C48  1  0.75229000  0.08586000  0.69352000  1.0
  C  C49  1  0.25228000  0.91414000  0.80648000  1.0
  C  C50  1  0.24772000  0.91414000  0.30649000  1.0
  C  C51  1  0.74772000  0.08586000  0.19352000  1.0
  C  C52  1  0.70423000  0.97302000  0.77219000  1.0
  C  C53  1  0.20423000  0.02698000  0.72781000  1.0
  C  C54  1  0.29577000  0.02698000  0.22781000  1.0
  C  C55  1  0.79576000  0.97302000  0.27219000  1.0
  C  C56  1  0.54965000  0.20064000  0.74135000  1.0
  C  C57  1  0.04965000  0.79936000  0.75865000  1.0
  C  C58  1  0.45034000  0.79936000  0.25864000  1.0
  C  C59  1  0.95034000  0.20065000  0.24136000  1.0
  C  C60  1  0.83256000  0.12822000  0.63347000  1.0
  C  C61  1  0.33255000  0.87178000  0.86653000  1.0
  C  C62  1  0.16745000  0.87178000  0.36653000  1.0
  C  C63  1  0.66745000  0.12823000  0.13347000  1.0
  C  C64  1  0.71147000  0.88779000  0.81940000  1.0
  C  C65  1  0.21148000  0.11222000  0.68060000  1.0
  C  C66  1  0.28852000  0.11222000  0.18060000  1.0
  C  C67  1  0.78852000  0.88779000  0.31940000  1.0
  C  C68  1  0.60755000  0.37269000  0.43302000  1.0
  C  C69  1  0.10756000  0.62730000  0.06697000  1.0
  C  C70  1  0.39244000  0.62731000  0.56697000  1.0
  C  C71  1  0.89244000  0.37269000  0.93302000  1.0
  C  C72  1  0.51845000  0.37600000  0.36340000  1.0
  C  C73  1  0.01846000  0.62398000  0.13658000  1.0
  C  C74  1  0.48154000  0.62400000  0.63660000  1.0
  C  C75  1  0.98154000  0.37600000  0.86341000  1.0
  C  C76  1  0.44846000  0.31721000  0.48712000  1.0
  C  C77  1  0.94847000  0.68278000  0.01287000  1.0
  C  C78  1  0.55154000  0.68279000  0.51287000  1.0
  C  C79  1  0.05154000  0.31721000  0.98713000  1.0
  C  C80  1  0.73195000  0.40989000  0.44430000  1.0
  C  C81  1  0.23195000  0.59010000  0.05570000  1.0
  C  C82  1  0.26805000  0.59011000  0.55569000  1.0
  C  C83  1  0.76806000  0.40989000  0.94431000  1.0
  C  C84  1  0.50536000  0.42124000  0.27909000  1.0
  C  C85  1  0.00535000  0.57875000  0.22090000  1.0
  C  C86  1  0.49465000  0.57876000  0.72091000  1.0
  C  C87  1  0.99465000  0.42124000  0.77909000  1.0
  C  C88  1  0.36210000  0.27420000  0.54293000  1.0
  C  C89  1  0.86210000  0.72580000  0.95707000  1.0
  C  C90  1  0.63790000  0.72580000  0.45706000  1.0
  C  C91  1  0.13790000  0.27420000  0.04293000  1.0
  N  N92  1  0.61063000  0.04133000  0.78304000  1.0
  N  N93  1  0.11064000  0.95866000  0.71695000  1.0
  N  N94  1  0.38936000  0.95866000  0.21695000  1.0
  N  N95  1  0.88936000  0.04134000  0.28305000  1.0
  N  N96  1  0.79123000  0.99730000  0.71753000  1.0
  N  N97  1  0.29123000  0.00270000  0.78248000  1.0
  N  N98  1  0.20878000  0.00270000  0.28247000  1.0
  N  N99  1  0.70877000  0.99730000  0.21752000  1.0
  N  N100  1  0.56255000  0.33758000  0.50955000  1.0
  N  N101  1  0.06256000  0.66242000  0.99044000  1.0
  N  N102  1  0.43744000  0.66243000  0.49045000  1.0
  N  N103  1  0.93744000  0.33758000  0.00956000  1.0
  N  N104  1  0.42029000  0.34095000  0.40038000  1.0
  N  N105  1  0.92030000  0.65905000  0.09961000  1.0
  N  N106  1  0.57970000  0.65906000  0.59962000  1.0
  N  N107  1  0.07970000  0.34095000  0.90038000  1.0
  O  O108  1  0.45525000  0.20176000  0.79220000  1.0
  O  O109  1  0.95526000  0.79825000  0.70780000  1.0
  O  O110  1  0.54474000  0.79825000  0.20779000  1.0
  O  O111  1  0.04474000  0.20175000  0.29221000  1.0
  O  O112  1  0.56859000  0.26816000  0.69638000  1.0
  O  O113  1  0.06859000  0.73184000  0.80362000  1.0
  O  O114  1  0.43141000  0.73184000  0.30362000  1.0
  O  O115  1  0.93141000  0.26817000  0.19639000  1.0
  O  O116  1  0.80439000  0.20946000  0.60822000  1.0
  O  O117  1  0.30440000  0.79054000  0.89179000  1.0
  O  O118  1  0.19560000  0.79053000  0.39178000  1.0
  O  O119  1  0.69561000  0.20946000  0.10821000  1.0
  O  O120  1  0.93292000  0.07811000  0.60795000  1.0
  O  O121  1  0.43292000  0.92190000  0.89205000  1.0
  O  O122  1  0.06709000  0.92189000  0.39205000  1.0
  O  O123  1  0.56709000  0.07811000  0.10795000  1.0
  O  O124  1  0.78393000  0.42074000  0.53270000  1.0
  O  O125  1  0.28392000  0.57926000  0.96730000  1.0
  O  O126  1  0.21607000  0.57926000  0.46729000  1.0
  O  O127  1  0.71608000  0.42074000  0.03271000  1.0
  O  O128  1  0.77940000  0.43054000  0.36938000  1.0
  O  O129  1  0.27940000  0.56945000  0.13062000  1.0
  O  O130  1  0.22060000  0.56947000  0.63062000  1.0
  O  O131  1  0.72061000  0.43054000  0.86938000  1.0
  O  O132  1  0.59280000  0.44105000  0.23288000  1.0
  O  O133  1  0.09281000  0.55894000  0.26711000  1.0
  O  O134  1  0.40720000  0.55895000  0.76712000  1.0
  O  O135  1  0.90719000  0.44104000  0.73288000  1.0
  O  O136  1  0.39922000  0.43996000  0.26032000  1.0
  O  O137  1  0.89923000  0.56004000  0.23967000  1.0
  O  O138  1  0.60078000  0.56004000  0.73967000  1.0
  O  O139  1  0.10078000  0.43995000  0.76032000  1.0
  O  O140  1  0.44792000  0.18260000  0.00920000  1.0
  O  O141  1  0.94792000  0.81740000  0.49080000  1.0
  O  O142  1  0.55207000  0.81740000  0.99080000  1.0
  O  O143  1  0.05207000  0.18259000  0.50920000  1.0
