# generated using pymatgen
data_Cd3H14C18(NO3)4
_symmetry_space_group_name_H-M   'P 1'
_cell_length_a   8.85432000
_cell_length_b   8.85435000
_cell_length_c   16.01521875
_cell_angle_alpha   75.43773956
_cell_angle_beta   80.34857668
_cell_angle_gamma   104.00380000
_symmetry_Int_Tables_number   1
_chemical_formula_structural   Cd3H14C18(NO3)4
_chemical_formula_sum   'Cd6 H28 C36 N8 O24'
_cell_volume   1143.69297936
_cell_formula_units_Z   2
loop_
 _symmetry_equiv_pos_site_id
 _symmetry_equiv_pos_as_xyz
  1  'x, y, z'
loop_
 _atom_site_type_symbol
 _atom_site_label
 _atom_site_symmetry_multiplicity
 _atom_site_fract_x
 _atom_site_fract_y
 _atom_site_fract_z
 _atom_site_occupancy
  Cd  Cd0  1  0.23965000  0.81839000  0.84462000  1.0
  Cd  Cd1  1  0.66302000  0.58427000  0.65538000  1.0
  Cd  Cd2  1  0.76035000  0.18160000  0.15538000  1.0
  Cd  Cd3  1  0.33699000  0.41572000  0.34462000  1.0
  Cd  Cd4  1  0.97555000  0.22555000  0.75000000  1.0
  Cd  Cd5  1  0.02445000  0.77445000  0.25000000  1.0
  H  H6  1  0.35450000  0.66086000  0.03546000  1.0
  H  H7  1  0.69633000  0.88996000  0.46454000  1.0
  H  H8  1  0.64551000  0.33913000  0.96454000  1.0
  H  H9  1  0.30368000  0.11004000  0.53546000  1.0
  H  H10  1  0.58874000  0.10122000  0.74114000  1.0
  H  H11  1  0.84236000  0.82988000  0.75886000  1.0
  H  H12  1  0.41126000  0.89878000  0.25886000  1.0
  H  H13  1  0.15763000  0.17012000  0.24114000  1.0
  H  H14  1  0.90356000  0.05606000  0.97412000  1.0
  H  H15  1  0.03018000  0.37769000  0.52587000  1.0
  H  H16  1  0.09644000  0.94395000  0.02587000  1.0
  H  H17  1  0.96983000  0.62232000  0.47412000  1.0
  H  H18  1  0.98127000  0.70928000  0.02834000  1.0
  H  H19  1  0.73762000  0.50951000  0.47170000  1.0
  H  H20  1  0.01880000  0.29068000  0.97170000  1.0
  H  H21  1  0.26238000  0.49040000  0.52834000  1.0
  H  H22  1  0.93188000  0.58765000  0.97630000  1.0
  H  H23  1  0.56384000  0.40833000  0.52368000  1.0
  H  H24  1  0.06799000  0.41248000  0.02368000  1.0
  H  H25  1  0.43605000  0.59181000  0.47630000  1.0
  H  H26  1  0.23268000  0.47023000  0.86720000  1.0
  H  H27  1  0.33743000  0.59988000  0.63280000  1.0
  H  H28  1  0.76732000  0.52976000  0.13280000  1.0
  H  H29  1  0.66257000  0.40012000  0.36720000  1.0
  H  H30  1  0.40034000  0.57149000  0.87412000  1.0
  H  H31  1  0.44562000  0.77446000  0.62588000  1.0
  H  H32  1  0.59966000  0.42850000  0.12588000  1.0
  H  H33  1  0.55439000  0.22555000  0.37412000  1.0
  C  C34  1  0.48660000  0.61327000  0.17448000  1.0
  C  C35  1  0.78775000  0.16108000  0.32552000  1.0
  C  C36  1  0.51340000  0.38673000  0.82552000  1.0
  C  C37  1  0.21225000  0.83892000  0.67448000  1.0
  C  C38  1  0.56138000  0.73913000  0.08585000  1.0
  C  C39  1  0.82498000  0.14722000  0.41415000  1.0
  C  C40  1  0.43863000  0.26087000  0.91415000  1.0
  C  C41  1  0.17502000  0.85277000  0.58585000  1.0
  C  C42  1  0.47306000  0.74793000  0.02111000  1.0
  C  C43  1  0.76904000  0.99417000  0.47889000  1.0
  C  C44  1  0.52694000  0.25207000  0.97889000  1.0
  C  C45  1  0.23096000  0.00583000  0.52111000  1.0
  C  C46  1  0.53969000  0.87158000  0.94021000  1.0
  C  C47  1  0.81179000  0.97990000  0.55979000  1.0
  C  C48  1  0.46031000  0.12842000  0.05979000  1.0
  C  C49  1  0.18822000  0.02010000  0.44021000  1.0
  C  C50  1  0.59969000  0.04118000  0.80687000  1.0
  C  C51  1  0.84805000  0.90656000  0.69313000  1.0
  C  C52  1  0.40030000  0.95881000  0.19313000  1.0
  C  C53  1  0.15195000  0.09344000  0.30687000  1.0
  C  C54  1  0.69541000  0.98229000  0.92284000  1.0
  C  C55  1  0.90513000  0.11825000  0.57716000  1.0
  C  C56  1  0.30459000  0.01771000  0.07716000  1.0
  C  C57  1  0.09487000  0.88175000  0.42284000  1.0
  C  C58  1  0.78367000  0.97315000  0.98737000  1.0
  C  C59  1  0.96052000  0.27103000  0.51263000  1.0
  C  C60  1  0.21633000  0.02684000  0.01263000  1.0
  C  C61  1  0.03948000  0.72896000  0.48737000  1.0
  C  C62  1  0.71532000  0.85220000  0.06903000  1.0
  C  C63  1  0.92123000  0.28435000  0.43097000  1.0
  C  C64  1  0.28468000  0.14780000  0.93097000  1.0
  C  C65  1  0.07878000  0.71565000  0.56903000  1.0
  C  C66  1  0.81683000  0.83854000  0.13467000  1.0
  C  C67  1  0.97322000  0.45149000  0.36532000  1.0
  C  C68  1  0.18318000  0.16146000  0.86532000  1.0
  C  C69  1  0.02679000  0.54851000  0.63467000  1.0
  N  N70  1  0.48151000  0.91397000  0.86535000  1.0
  N  N71  1  0.77932000  0.84686000  0.63465000  1.0
  N  N72  1  0.51849000  0.08603000  0.13465000  1.0
  N  N73  1  0.22068000  0.15314000  0.36535000  1.0
  N  N74  1  0.73050000  0.08828000  0.83787000  1.0
  N  N75  1  0.92614000  0.06838000  0.66213000  1.0
  N  N76  1  0.26950000  0.91173000  0.16213000  1.0
  N  N77  1  0.07386000  0.93163000  0.33787000  1.0
  O  O78  1  0.40516000  0.47091000  0.17777000  1.0
  O  O79  1  0.64868000  0.08291000  0.32224000  1.0
  O  O80  1  0.59485000  0.52909000  0.82223000  1.0
  O  O81  1  0.35132000  0.91707000  0.67777000  1.0
  O  O82  1  0.50776000  0.65340000  0.24430000  1.0
  O  O83  1  0.89769000  0.25206000  0.25570000  1.0
  O  O84  1  0.49224000  0.34660000  0.75570000  1.0
  O  O85  1  0.10230000  0.74794000  0.74430000  1.0
  O  O86  1  0.85947000  0.95098000  0.16922000  1.0
  O  O87  1  0.12022000  0.52869000  0.33078000  1.0
  O  O88  1  0.14052000  0.04899000  0.83079000  1.0
  O  O89  1  0.87980000  0.47131000  0.66922000  1.0
  O  O90  1  0.87275000  0.71450000  0.14916000  1.0
  O  O91  1  0.86367000  0.52189000  0.35083000  1.0
  O  O92  1  0.12727000  0.28551000  0.85083000  1.0
  O  O93  1  0.13634000  0.47810000  0.64916000  1.0
  O  O94  1  0.28432000  0.55931000  0.88977000  1.0
  O  O95  1  0.44908000  0.67410000  0.61022000  1.0
  O  O96  1  0.71569000  0.44070000  0.11022000  1.0
  O  O97  1  0.55092000  0.32592000  0.38977000  1.0
  O  O98  1  0.02170000  0.67665000  0.97678000  1.0
  O  O99  1  0.65346000  0.49845000  0.52325000  1.0
  O  O100  1  0.97831000  0.32329000  0.02325000  1.0
  O  O101  1  0.34657000  0.50152000  0.47678000  1.0
