# generated using pymatgen
data_ZnH11C11(N2O)2
_symmetry_space_group_name_H-M   'P 1'
_cell_length_a   14.70000000
_cell_length_b   16.63990000
_cell_length_c   17.33500000
_cell_angle_alpha   92.87610000
_cell_angle_beta   92.61060000
_cell_angle_gamma   98.35300000
_symmetry_Int_Tables_number   1
_chemical_formula_structural   ZnH11C11(N2O)2
_chemical_formula_sum   'Zn8 H88 C88 N32 O16'
_cell_volume   4183.99424413
_cell_formula_units_Z   8
loop_
 _symmetry_equiv_pos_site_id
 _symmetry_equiv_pos_as_xyz
  1  'x, y, z'
loop_
 _atom_site_type_symbol
 _atom_site_label
 _atom_site_symmetry_multiplicity
 _atom_site_fract_x
 _atom_site_fract_y
 _atom_site_fract_z
 _atom_site_occupancy
  Zn  Zn0  1  0.52834000  0.43060000  0.11146000  1.0
  Zn  Zn1  1  0.50117000  0.55917000  0.92060000  1.0
  Zn  Zn2  1  0.99243000  0.07232000  0.59025000  1.0
  Zn  Zn3  1  0.99612000  0.95429000  0.35017000  1.0
  Zn  Zn4  1  0.37367000  0.42007000  0.98679000  1.0
  Zn  Zn5  1  0.83020000  0.97255000  0.50183000  1.0
  Zn  Zn6  1  0.68839000  0.52216000  0.01195000  1.0
  Zn  Zn7  1  0.14425000  0.01807000  0.46660000  1.0
  H  H8  1  0.47977000  0.23121000  0.16279000  1.0
  H  H9  1  0.41130000  0.49034000  0.71923000  1.0
  H  H10  1  0.88657000  0.80295000  0.60047000  1.0
  H  H11  1  0.85376000  0.86164000  0.22445000  1.0
  H  H12  1  0.17019000  0.64834000  0.76274000  1.0
  H  H13  1  0.25099000  0.53473000  0.35058000  1.0
  H  H14  1  0.80150000  0.14372000  0.29772000  1.0
  H  H15  1  0.67731000  0.09190000  0.83973000  1.0
  H  H16  1  0.89232000  0.16661000  0.23508000  1.0
  H  H17  1  0.79098000  0.14488000  0.84261000  1.0
  H  H18  1  0.27994000  0.67161000  0.72453000  1.0
  H  H19  1  0.36308000  0.59001000  0.34523000  1.0
  H  H20  1  0.94878000  0.31648000  0.18136000  1.0
  H  H21  1  0.73012000  0.36921000  0.81450000  1.0
  H  H22  1  0.28824000  0.90438000  0.69480000  1.0
  H  H23  1  0.29876000  0.79955000  0.27772000  1.0
  H  H24  1  0.36948000  0.81487000  0.76031000  1.0
  H  H25  1  0.38382000  0.69547000  0.24265000  1.0
  H  H26  1  0.03465000  0.26269000  0.27803000  1.0
  H  H27  1  0.81363000  0.27433000  0.75981000  1.0
  H  H28  1  0.08497000  0.87020000  0.81140000  1.0
  H  H29  1  0.07336000  0.67258000  0.24847000  1.0
  H  H30  1  0.88705000  0.41985000  0.34889000  1.0
  H  H31  1  0.50397000  0.24581000  0.76882000  1.0
  H  H32  1  0.12494000  0.72917000  0.87799000  1.0
  H  H33  1  0.13743000  0.52049000  0.23545000  1.0
  H  H34  1  0.78276000  0.26392000  0.39641000  1.0
  H  H35  1  0.56709000  0.09879000  0.72574000  1.0
  H  H36  1  0.18624000  0.82996000  0.89912000  1.0
  H  H37  1  0.15103000  0.59538000  0.16635000  1.0
  H  H38  1  0.88658000  0.32169000  0.44202000  1.0
  H  H39  1  0.58194000  0.18718000  0.67293000  1.0
  H  H40  1  0.97220000  0.40773000  0.23998000  1.0
  H  H41  1  0.63718000  0.34443000  0.74550000  1.0
  H  H42  1  0.23606000  0.93475000  0.77896000  1.0
  H  H43  1  0.20666000  0.76197000  0.21095000  1.0
  H  H44  1  0.47578000  0.37392000  0.82814000  1.0
  H  H45  1  0.64224000  0.36066000  0.24100000  1.0
  H  H46  1  0.00361000  0.75752000  0.32841000  1.0
  H  H47  1  0.99077000  0.92075000  0.71552000  1.0
  H  H48  1  0.34546000  0.86922000  0.84535000  1.0
  H  H49  1  0.31117000  0.68407000  0.15737000  1.0
  H  H50  1  0.02376000  0.34137000  0.34749000  1.0
  H  H51  1  0.74040000  0.27607000  0.67631000  1.0
  H  H52  1  0.33992000  0.34723000  0.61090000  1.0
  H  H53  1  0.35729000  0.15739000  0.22765000  1.0
  H  H54  1  0.71552000  0.80527000  0.13992000  1.0
  H  H55  1  0.85078000  0.70770000  0.74420000  1.0
  H  H56  1  0.60312000  0.76135000  0.28123000  1.0
  H  H57  1  0.64863000  0.68067000  0.68162000  1.0
  H  H58  1  0.18056000  0.31593000  0.71935000  1.0
  H  H59  1  0.23151000  0.10423000  0.08234000  1.0
  H  H60  1  0.21235000  0.35875000  0.86168000  1.0
  H  H61  1  0.26777000  0.23092000  0.98081000  1.0
  H  H62  1  0.65970000  0.88911000  0.40072000  1.0
  H  H63  1  0.59086000  0.79459000  0.60818000  1.0
  H  H64  1  0.87514000  0.46179000  0.11488000  1.0
  H  H65  1  0.67964000  0.33872000  0.00531000  1.0
  H  H66  1  0.20068000  0.87683000  0.55814000  1.0
  H  H67  1  0.27827000  0.85542000  0.42002000  1.0
  H  H68  1  0.54154000  0.61481000  0.21639000  1.0
  H  H69  1  0.58468000  0.63953000  0.77767000  1.0
  H  H70  1  0.07924000  0.24810000  0.63962000  1.0
  H  H71  1  0.10962000  0.00652000  0.17489000  1.0
  H  H72  1  0.41470000  0.66292000  0.80703000  1.0
  H  H73  1  0.40972000  0.47655000  0.27412000  1.0
  H  H74  1  0.05574000  0.13335000  0.33022000  1.0
  H  H75  1  0.89897000  0.17803000  0.72655000  1.0
  H  H76  1  0.84662000  0.59693000  0.87877000  1.0
  H  H77  1  0.66233000  0.70911000  0.00966000  1.0
  H  H78  1  0.30050000  0.12066000  0.35982000  1.0
  H  H79  1  0.31171000  0.18578000  0.51710000  1.0
  H  H80  1  0.67345000  0.18287000  0.24366000  1.0
  H  H81  1  0.58868000  0.15644000  0.93556000  1.0
  H  H82  1  0.07431000  0.72745000  0.60987000  1.0
  H  H83  1  0.15605000  0.61530000  0.42946000  1.0
  H  H84  1  0.02969000  0.71975000  0.73209000  1.0
  H  H85  1  0.04099000  0.54689000  0.31796000  1.0
  H  H86  1  0.73736000  0.43942000  0.33720000  1.0
  H  H87  1  0.46572000  0.11235000  0.81659000  1.0
  H  H88  1  0.29953000  0.59526000  0.03232000  1.0
  H  H89  1  0.19633000  0.75579000  0.97834000  1.0
  H  H90  1  0.65347000  0.96611000  0.58283000  1.0
  H  H91  1  0.81503000  0.21582000  0.47822000  1.0
  H  H92  1  0.75135000  0.25852000  0.12475000  1.0
  H  H93  1  0.80809000  0.23805000  0.94687000  1.0
  H  H94  1  0.23930000  0.71328000  0.58830000  1.0
  H  H95  1  0.37479000  0.69948000  0.43663000  1.0
  C  C96  1  0.43553000  0.24334000  0.11408000  1.0
  C  C97  1  0.37056000  0.46457000  0.76523000  1.0
  C  C98  1  0.81463000  0.81105000  0.59445000  1.0
  C  C99  1  0.81657000  0.87889000  0.27394000  1.0
  C  C100  1  0.77488000  0.60003000  0.86312000  1.0
  C  C101  1  0.62757000  0.67403000  0.05384000  1.0
  C  C102  1  0.24387000  0.08659000  0.32394000  1.0
  C  C103  1  0.24626000  0.18876000  0.54296000  1.0
  C  C104  1  0.61647000  0.69645000  0.13112000  1.0
  C  C105  1  0.73666000  0.63534000  0.79939000  1.0
  C  C106  1  0.21988000  0.25082000  0.59163000  1.0
  C  C107  1  0.23342000  0.07798000  0.24268000  1.0
  C  C108  1  0.30882000  0.71301000  0.87724000  1.0
  C  C109  1  0.31476000  0.53448000  0.19582000  1.0
  C  C110  1  0.94218000  0.17877000  0.39244000  1.0
  C  C111  1  0.75336000  0.12199000  0.69147000  1.0
  C  C112  1  0.79133000  0.24946000  0.23235000  1.0
  C  C113  1  0.69169000  0.21700000  0.88735000  1.0
  C  C114  1  0.18165000  0.74581000  0.68246000  1.0
  C  C115  1  0.26050000  0.66565000  0.37585000  1.0
  C  C116  1  0.84827000  0.19385000  0.27534000  1.0
  C  C117  1  0.71831000  0.15092000  0.83021000  1.0
  C  C118  1  0.22202000  0.69861000  0.74723000  1.0
  C  C119  1  0.28954000  0.59097000  0.33079000  1.0
  C  C120  1  0.93931000  0.34385000  0.23884000  1.0
  C  C121  1  0.68540000  0.31800000  0.78379000  1.0
  C  C122  1  0.25286000  0.88141000  0.74533000  1.0
  C  C123  1  0.25474000  0.74377000  0.25511000  1.0
  C  C124  1  0.10452000  0.81201000  0.79001000  1.0
  C  C125  1  0.12231000  0.64163000  0.28182000  1.0
  C  C126  1  0.83140000  0.36747000  0.33794000  1.0
  C  C127  1  0.55360000  0.20965000  0.79461000  1.0
  C  C128  1  0.83513000  0.34105000  0.25005000  1.0
  C  C129  1  0.62801000  0.26884000  0.84320000  1.0
  C  C130  1  0.15997000  0.82883000  0.71720000  1.0
  C  C131  1  0.19655000  0.70772000  0.32132000  1.0
  C  C132  1  0.25440000  0.75516000  0.82015000  1.0
  C  C133  1  0.27191000  0.59544000  0.24300000  1.0
  C  C134  1  0.90935000  0.24175000  0.34224000  1.0
  C  C135  1  0.70262000  0.17196000  0.74511000  1.0
  C  C136  1  0.31330000  0.83276000  0.79397000  1.0
  C  C137  1  0.31161000  0.68201000  0.22051000  1.0
  C  C138  1  0.98495000  0.29824000  0.30342000  1.0
  C  C139  1  0.74138000  0.26311000  0.73787000  1.0
  C  C140  1  0.52156000  0.37636000  0.87932000  1.0
  C  C141  1  0.68958000  0.39362000  0.20355000  1.0
  C  C142  1  0.06589000  0.79320000  0.35504000  1.0
  C  C143  1  0.03834000  0.92003000  0.66945000  1.0
  C  C144  1  0.16682000  0.78107000  0.85340000  1.0
  C  C145  1  0.16640000  0.58427000  0.22716000  1.0
  C  C146  1  0.85145000  0.29725000  0.38648000  1.0
  C  C147  1  0.59766000  0.16338000  0.72931000  1.0
  C  C148  1  0.27371000  0.32179000  0.63236000  1.0
  C  C149  1  0.29824000  0.12233000  0.19444000  1.0
  C  C150  1  0.66365000  0.76943000  0.17265000  1.0
  C  C151  1  0.77731000  0.68401000  0.73844000  1.0
  C  C152  1  0.65737000  0.79290000  0.24786000  1.0
  C  C153  1  0.72142000  0.70692000  0.68177000  1.0
  C  C154  1  0.24496000  0.34886000  0.70064000  1.0
  C  C155  1  0.29084000  0.13491000  0.11819000  1.0
  C  C156  1  0.26831000  0.39840000  0.83794000  1.0
  C  C157  1  0.32792000  0.24258000  0.02085000  1.0
  C  C158  1  0.71767000  0.89254000  0.36368000  1.0
  C  C159  1  0.66361000  0.80735000  0.59687000  1.0
  C  C160  1  0.80865000  0.44402000  0.13883000  1.0
  C  C161  1  0.62529000  0.35829000  0.96995000  1.0
  C  C162  1  0.14493000  0.89792000  0.58817000  1.0
  C  C163  1  0.20567000  0.84428000  0.40198000  1.0
  C  C164  1  0.35126000  0.19845000  0.08380000  1.0
  C  C165  1  0.29091000  0.40520000  0.76054000  1.0
  C  C166  1  0.73629000  0.76823000  0.62582000  1.0
  C  C167  1  0.72440000  0.85352000  0.29071000  1.0
  C  C168  1  0.58963000  0.32818000  0.89649000  1.0
  C  C169  1  0.78502000  0.39341000  0.19985000  1.0
  C  C170  1  0.15587000  0.77542000  0.36079000  1.0
  C  C171  1  0.11171000  0.87562000  0.66000000  1.0
  C  C172  1  0.56512000  0.62541000  0.15875000  1.0
  C  C173  1  0.64154000  0.62088000  0.81098000  1.0
  C  C174  1  0.12847000  0.22048000  0.60620000  1.0
  C  C175  1  0.14680000  0.02883000  0.22911000  1.0
  C  C176  1  0.38337000  0.67192000  0.86183000  1.0
  C  C177  1  0.37998000  0.48515000  0.21708000  1.0
  C  C178  1  0.00661000  0.12778000  0.37509000  1.0
  C  C179  1  0.84963000  0.13610000  0.69004000  1.0
  C  C180  1  0.30514000  0.52246000  0.11447000  1.0
  C  C181  1  0.30086000  0.70396000  0.95734000  1.0
  C  C182  1  0.72775000  0.05956000  0.63252000  1.0
  C  C183  1  0.89746000  0.14150000  0.45444000  1.0
  N  N184  1  0.45862000  0.30936000  0.07375000  1.0
  N  N185  1  0.39405000  0.48884000  0.83941000  1.0
  N  N186  1  0.78843000  0.86990000  0.55168000  1.0
  N  N187  1  0.86062000  0.92858000  0.33208000  1.0
  N  N188  1  0.51731000  0.43248000  0.93830000  1.0
  N  N189  1  0.65934000  0.43913000  0.14963000  1.0
  N  N190  1  0.06261000  0.86742000  0.39080000  1.0
  N  N191  1  0.03037000  0.96597000  0.60763000  1.0
  N  N192  1  0.33088000  0.44768000  0.88430000  1.0
  N  N193  1  0.39165000  0.30899000  0.01589000  1.0
  N  N194  1  0.79872000  0.93731000  0.38813000  1.0
  N  N195  1  0.69495000  0.86930000  0.55391000  1.0
  N  N196  1  0.73226000  0.47135000  0.10871000  1.0
  N  N197  1  0.58302000  0.42148000  0.99452000  1.0
  N  N198  1  0.09610000  0.95196000  0.55791000  1.0
  N  N199  1  0.14963000  0.89825000  0.41926000  1.0
  N  N200  1  0.54957000  0.56582000  0.10319000  1.0
  N  N201  1  0.62473000  0.58140000  0.87509000  1.0
  N  N202  1  0.10442000  0.14608000  0.57158000  1.0
  N  N203  1  0.11000000  0.01057000  0.29738000  1.0
  N  N204  1  0.41453000  0.64034000  0.92647000  1.0
  N  N205  1  0.40639000  0.44475000  0.15445000  1.0
  N  N206  1  0.00092000  0.06348000  0.42074000  1.0
  N  N207  1  0.87878000  0.08804000  0.63500000  1.0
  N  N208  1  0.35901000  0.46780000  0.09074000  1.0
  N  N209  1  0.36231000  0.65945000  0.98658000  1.0
  N  N210  1  0.80352000  0.04135000  0.59809000  1.0
  N  N211  1  0.93189000  0.07226000  0.47207000  1.0
  N  N212  1  0.70700000  0.56762000  0.90849000  1.0
  N  N213  1  0.58803000  0.59501000  0.03716000  1.0
  N  N214  1  0.17038000  0.04701000  0.35552000  1.0
  N  N215  1  0.17686000  0.12569000  0.53211000  1.0
  O  O216  1  0.69910000  0.23954000  0.25719000  1.0
  O  O217  1  0.65103000  0.18227000  0.95333000  1.0
  O  O218  1  0.09914000  0.69585000  0.64996000  1.0
  O  O219  1  0.21846000  0.64235000  0.44580000  1.0
  O  O220  1  0.01947000  0.75829000  0.77469000  1.0
  O  O221  1  0.07208000  0.59845000  0.34159000  1.0
  O  O222  1  0.74790000  0.39087000  0.36341000  1.0
  O  O223  1  0.50553000  0.15538000  0.84702000  1.0
  O  O224  1  0.25385000  0.55713000  0.06366000  1.0
  O  O225  1  0.24197000  0.73152000  0.00800000  1.0
  O  O226  1  0.64362000  0.01933000  0.60958000  1.0
  O  O227  1  0.82854000  0.16367000  0.49542000  1.0
  O  O228  1  0.79110000  0.22601000  0.15244000  1.0
  O  O229  1  0.77168000  0.27097000  0.91648000  1.0
  O  O230  1  0.24366000  0.76243000  0.62259000  1.0
  O  O231  1  0.33856000  0.72433000  0.39852000  1.0
