# generated using pymatgen
data_Cu5H32C40(N6Cl5)2
_symmetry_space_group_name_H-M   'P 1'
_cell_length_a   10.28410000
_cell_length_b   10.51440000
_cell_length_c   11.18960000
_cell_angle_alpha   100.94100000
_cell_angle_beta   104.33200000
_cell_angle_gamma   90.68020000
_symmetry_Int_Tables_number   1
_chemical_formula_structural   Cu5H32C40(N6Cl5)2
_chemical_formula_sum   'Cu5 H32 C40 N12 Cl10'
_cell_volume   1148.77440977
_cell_formula_units_Z   1
loop_
 _symmetry_equiv_pos_site_id
 _symmetry_equiv_pos_as_xyz
  1  'x, y, z'
loop_
 _atom_site_type_symbol
 _atom_site_label
 _atom_site_symmetry_multiplicity
 _atom_site_fract_x
 _atom_site_fract_y
 _atom_site_fract_z
 _atom_site_occupancy
  Cu  Cu0  1  0.10186000  0.56390000  0.92523000  1.0
  Cu  Cu1  1  0.89805000  0.43609000  0.07411000  1.0
  Cu  Cu2  1  0.25357000  0.64835000  0.75614000  1.0
  Cu  Cu3  1  0.74658000  0.35124000  0.24460000  1.0
  Cu  Cu4  1  0.00060000  0.49982000  0.49971000  1.0
  H  H5  1  0.64028000  0.18394000  0.90225000  1.0
  H  H6  1  0.35976000  0.81607000  0.09772000  1.0
  H  H7  1  0.43531000  0.30854000  0.86817000  1.0
  H  H8  1  0.56477000  0.69161000  0.13190000  1.0
  H  H9  1  0.20805000  0.19967000  0.79476000  1.0
  H  H10  1  0.79199000  0.80053000  0.20521000  1.0
  H  H11  1  0.17451000  0.95778000  0.75482000  1.0
  H  H12  1  0.82546000  0.04245000  0.24508000  1.0
  H  H13  1  0.78348000  0.81122000  0.90817000  1.0
  H  H14  1  0.21642000  0.18872000  0.09170000  1.0
  H  H15  1  0.79176000  0.97977000  0.97140000  1.0
  H  H16  1  0.20823000  0.02016000  0.02850000  1.0
  H  H17  1  0.81945000  0.82252000  0.47656000  1.0
  H  H18  1  0.18065000  0.17734000  0.52339000  1.0
  H  H19  1  0.89777000  0.05115000  0.49704000  1.0
  H  H20  1  0.10228000  0.94869000  0.50288000  1.0
  H  H21  1  0.93612000  0.20437000  0.70368000  1.0
  H  H22  1  0.06382000  0.79556000  0.29619000  1.0
  H  H23  1  0.86825000  0.13365000  0.88014000  1.0
  H  H24  1  0.13170000  0.86628000  0.11974000  1.0
  H  H25  1  0.85460000  0.65740000  0.69083000  1.0
  H  H26  1  0.14547000  0.34254000  0.30915000  1.0
  H  H27  1  0.69349000  0.69063000  0.71504000  1.0
  H  H28  1  0.30663000  0.30934000  0.28510000  1.0
  H  H29  1  0.43192000  0.45549000  0.16621000  1.0
  H  H30  1  0.56794000  0.54425000  0.83391000  1.0
  H  H31  1  0.23602000  0.57805000  0.20820000  1.0
  H  H32  1  0.76407000  0.42222000  0.79163000  1.0
  H  H33  1  0.25373000  0.73131000  0.40799000  1.0
  H  H34  1  0.74633000  0.26884000  0.59194000  1.0
  H  H35  1  0.46939000  0.77809000  0.57355000  1.0
  H  H36  1  0.53066000  0.22201000  0.42637000  1.0
  C  C37  1  0.39066000  0.93534000  0.80698000  1.0
  C  C38  1  0.60929000  0.06478000  0.19295000  1.0
  C  C39  1  0.52068000  0.99894000  0.84653000  1.0
  C  C40  1  0.47929000  0.00115000  0.15343000  1.0
  C  C41  1  0.54069000  0.13441000  0.86901000  1.0
  C  C42  1  0.45931000  0.86569000  0.13098000  1.0
  C  C43  1  0.42535000  0.20295000  0.84966000  1.0
  C  C44  1  0.57467000  0.79720000  0.15040000  1.0
  C  C45  1  0.29474000  0.14024000  0.80815000  1.0
  C  C46  1  0.70529000  0.85994000  0.19186000  1.0
  C  C47  1  0.27475000  0.00619000  0.78612000  1.0
  C  C48  1  0.72523000  0.99398000  0.21384000  1.0
  C  C49  1  0.75353000  0.90547000  0.88577000  1.0
  C  C50  1  0.24641000  0.09449000  0.11412000  1.0
  C  C51  1  0.80388000  0.93894000  0.77851000  1.0
  C  C52  1  0.19609000  0.06099000  0.22139000  1.0
  C  C53  1  0.79534000  0.84869000  0.66571000  1.0
  C  C54  1  0.20463000  0.15121000  0.33419000  1.0
  C  C55  1  0.82828000  0.89093000  0.56506000  1.0
  C  C56  1  0.17172000  0.10895000  0.43485000  1.0
  C  C57  1  0.87502000  0.01902000  0.57698000  1.0
  C  C58  1  0.12497000  0.98087000  0.42293000  1.0
  C  C59  1  0.89446000  0.10546000  0.69188000  1.0
  C  C60  1  0.10551000  0.89447000  0.30801000  1.0
  C  C61  1  0.85690000  0.06544000  0.79106000  1.0
  C  C62  1  0.14306000  0.93449000  0.20883000  1.0
  C  C63  1  0.76226000  0.70617000  0.65747000  1.0
  C  C64  1  0.23776000  0.29374000  0.34256000  1.0
  C  C65  1  0.57065000  0.63985000  0.46114000  1.0
  C  C66  1  0.42928000  0.35998000  0.53892000  1.0
  C  C67  1  0.56094000  0.54832000  0.34851000  1.0
  C  C68  1  0.43889000  0.45124000  0.65169000  1.0
  C  C69  1  0.44030000  0.52521000  0.25337000  1.0
  C  C70  1  0.55962000  0.47456000  0.74673000  1.0
  C  C71  1  0.33270000  0.59430000  0.27787000  1.0
  C  C72  1  0.66730000  0.40574000  0.72209000  1.0
  C  C73  1  0.34274000  0.68328000  0.39240000  1.0
  C  C74  1  0.65727000  0.31679000  0.60753000  1.0
  C  C75  1  0.46188000  0.70935000  0.48586000  1.0
  C  C76  1  0.53814000  0.29067000  0.51409000  1.0
  N  N77  1  0.40683000  0.80393000  0.79723000  1.0
  N  N78  1  0.59306000  0.19616000  0.20263000  1.0
  N  N79  1  0.53557000  0.78430000  0.82719000  1.0
  N  N80  1  0.46431000  0.21576000  0.17265000  1.0
  N  N81  1  0.60600000  0.89995000  0.85709000  1.0
  N  N82  1  0.39395000  0.10011000  0.14280000  1.0
  N  N83  1  0.70006000  0.63604000  0.53027000  1.0
  N  N84  1  0.29987000  0.36370000  0.46984000  1.0
  N  N85  1  0.76617000  0.54978000  0.46734000  1.0
  N  N86  1  0.23355000  0.44955000  0.53302000  1.0
  N  N87  1  0.68465000  0.49609000  0.35919000  1.0
  N  N88  1  0.31512000  0.50321000  0.64130000  1.0
  Cl  Cl89  1  0.08555000  0.37904000  0.00127000  1.0
  Cl  Cl90  1  0.91449000  0.62213000  0.99968000  1.0
  Cl  Cl91  1  0.12161000  0.76517000  0.88346000  1.0
  Cl  Cl92  1  0.87730000  0.23456000  0.11521000  1.0
  Cl  Cl93  1  0.32507000  0.54404000  0.92766000  1.0
  Cl  Cl94  1  0.67627000  0.45745000  0.07359000  1.0
  Cl  Cl95  1  0.10190000  0.70594000  0.58785000  1.0
  Cl  Cl96  1  0.89898000  0.29372000  0.41194000  1.0
  Cl  Cl97  1  0.99409000  0.55130000  0.30446000  1.0
  Cl  Cl98  1  0.00516000  0.44901000  0.69589000  1.0
