# generated using pymatgen
data_YbH18C18(NO2)4
_symmetry_space_group_name_H-M   'P 1'
_cell_length_a   9.79845000
_cell_length_b   10.24580000
_cell_length_c   10.99040000
_cell_angle_alpha   77.11290000
_cell_angle_beta   76.37380000
_cell_angle_gamma   65.35520000
_symmetry_Int_Tables_number   1
_chemical_formula_structural   YbH18C18(NO2)4
_chemical_formula_sum   'Yb2 H36 C36 N8 O16'
_cell_volume   964.85195966
_cell_formula_units_Z   2
loop_
 _symmetry_equiv_pos_site_id
 _symmetry_equiv_pos_as_xyz
  1  'x, y, z'
loop_
 _atom_site_type_symbol
 _atom_site_label
 _atom_site_symmetry_multiplicity
 _atom_site_fract_x
 _atom_site_fract_y
 _atom_site_fract_z
 _atom_site_occupancy
  Yb  Yb0  1  0.05545000  0.77160000  0.67549000  1.0
  Yb  Yb1  1  0.94455000  0.22840000  0.32451000  1.0
  H  H2  1  0.07758000  0.46174000  0.86619000  1.0
  H  H3  1  0.92242000  0.53826000  0.13381000  1.0
  H  H4  1  0.96808000  0.38233000  0.56123000  1.0
  H  H5  1  0.03192000  0.61767000  0.43877000  1.0
  H  H6  1  0.44841000  0.63437000  0.56738000  1.0
  H  H7  1  0.55159000  0.36563000  0.43262000  1.0
  H  H8  1  0.28066000  0.85058000  0.24858000  1.0
  H  H9  1  0.71934000  0.14942000  0.75142000  1.0
  H  H10  1  0.56704000  0.58750000  0.77307000  1.0
  H  H11  1  0.43296000  0.41250000  0.22692000  1.0
  H  H12  1  0.24037000  0.49989000  0.08295000  1.0
  H  H13  1  0.75963000  0.50011000  0.91705000  1.0
  H  H14  1  0.60850000  0.12802000  0.30746000  1.0
  H  H15  1  0.39150000  0.87198000  0.69254000  1.0
  H  H16  1  0.66396000  0.84865000  0.66205000  1.0
  H  H17  1  0.33604000  0.15134000  0.33795000  1.0
  H  H18  1  0.70731000  0.08239000  0.99509000  1.0
  H  H19  1  0.29269000  0.91761000  0.00491000  1.0
  H  H20  1  0.55258000  0.79781000  0.88419000  1.0
  H  H21  1  0.44742000  0.20219000  0.11581000  1.0
  H  H22  1  0.67490000  0.56545000  0.37358000  1.0
  H  H23  1  0.32510000  0.43455000  0.62641000  1.0
  H  H24  1  0.63967000  0.73560000  0.41666000  1.0
  H  H25  1  0.36033000  0.26440000  0.58334000  1.0
  H  H26  1  0.53190000  0.86000000  0.23185000  1.0
  H  H27  1  0.46810000  0.14000000  0.76815000  1.0
  H  H28  1  0.58245000  0.69013000  0.18171000  1.0
  H  H29  1  0.41755000  0.30987000  0.81829000  1.0
  H  H30  1  0.98479000  0.24927000  0.95015000  1.0
  H  H31  1  0.01521000  0.75073000  0.04985000  1.0
  H  H32  1  0.16301000  0.18122000  0.84779000  1.0
  H  H33  1  0.83699000  0.81878000  0.15221000  1.0
  H  H34  1  0.00649000  0.14778000  0.72593000  1.0
  H  H35  1  0.99351000  0.85222000  0.27407000  1.0
  H  H36  1  0.84119000  0.29389000  0.78310000  1.0
  H  H37  1  0.15882000  0.70611000  0.21690000  1.0
  C  C38  1  0.39145000  0.55064000  0.91943000  1.0
  C  C39  1  0.60855000  0.44936000  0.08057000  1.0
  C  C40  1  0.53861000  0.54846000  0.87257000  1.0
  C  C41  1  0.46139000  0.45154000  0.12743000  1.0
  C  C42  1  0.35349000  0.50126000  0.04750000  1.0
  C  C43  1  0.64651000  0.49874000  0.95250000  1.0
  C  C44  1  0.27515000  0.60880000  0.83371000  1.0
  C  C45  1  0.72485000  0.39120000  0.16629000  1.0
  C  C46  1  0.65045000  0.98688000  0.48269000  1.0
  C  C47  1  0.34955000  0.01312000  0.51731000  1.0
  C  C48  1  0.55952000  0.07173000  0.39057000  1.0
  C  C49  1  0.44047000  0.92826000  0.60943000  1.0
  C  C50  1  0.59061000  0.91489000  0.59218000  1.0
  C  C51  1  0.40938000  0.08512000  0.40782000  1.0
  C  C52  1  0.80940000  0.97822000  0.46753000  1.0
  C  C53  1  0.19060000  0.02178000  0.53246000  1.0
  C  C54  1  0.64545000  0.93275000  0.93206000  1.0
  C  C55  1  0.35455000  0.06725000  0.06794000  1.0
  C  C56  1  0.61607000  0.04658000  0.99802000  1.0
  C  C57  1  0.38393000  0.95342000  0.00198000  1.0
  C  C58  1  0.52834000  0.88667000  0.93508000  1.0
  C  C59  1  0.47166000  0.11334000  0.06492000  1.0
  C  C60  1  0.79683000  0.86677000  0.85196000  1.0
  C  C61  1  0.20317000  0.13323000  0.14804000  1.0
  C  C62  1  0.32807000  0.72550000  0.41925000  1.0
  C  C63  1  0.67193000  0.27450000  0.58075000  1.0
  C  C64  1  0.58870000  0.67466000  0.38425000  1.0
  C  C65  1  0.41130000  0.32534000  0.61575000  1.0
  C  C66  1  0.52320000  0.75365000  0.26031000  1.0
  C  C67  1  0.47680000  0.24635000  0.73969000  1.0
  C  C68  1  0.03137000  0.45569000  0.69322000  1.0
  C  C69  1  0.96864000  0.54431000  0.30678000  1.0
  C  C70  1  0.04525000  0.26291000  0.85385000  1.0
  C  C71  1  0.95475000  0.73709000  0.14615000  1.0
  C  C72  1  0.96516000  0.25617000  0.75212000  1.0
  C  C73  1  0.03485000  0.74383000  0.24788000  1.0
  N  N74  1  0.04468000  0.40940000  0.81702000  1.0
  N  N75  1  0.95532000  0.59060000  0.18298000  1.0
  N  N76  1  0.00168000  0.35967000  0.64751000  1.0
  N  N77  1  0.99832000  0.64033000  0.35249000  1.0
  N  N78  1  0.45517000  0.66733000  0.47229000  1.0
  N  N79  1  0.54483000  0.33267000  0.52771000  1.0
  N  N80  1  0.36396000  0.76855000  0.29281000  1.0
  N  N81  1  0.63604000  0.23145000  0.70719000  1.0
  O  O82  1  0.13664000  0.62502000  0.87640000  1.0
  O  O83  1  0.86336000  0.37498000  0.12360000  1.0
  O  O84  1  0.31358000  0.64715000  0.71607000  1.0
  O  O85  1  0.68642000  0.35285000  0.28393000  1.0
  O  O86  1  0.88530000  0.90090000  0.55456000  1.0
  O  O87  1  0.11470000  0.09910000  0.44544000  1.0
  O  O88  1  0.85816000  0.05007000  0.36997000  1.0
  O  O89  1  0.14184000  0.94993000  0.63003000  1.0
  O  O90  1  0.83154000  0.74794000  0.81168000  1.0
  O  O91  1  0.16846000  0.25206000  0.18833000  1.0
  O  O92  1  0.88673000  0.93532000  0.81992000  1.0
  O  O93  1  0.11327000  0.06468000  0.18008000  1.0
  O  O94  1  0.04792000  0.56921000  0.62893000  1.0
  O  O95  1  0.95208000  0.43079000  0.37107000  1.0
  O  O96  1  0.19630000  0.73701000  0.47509000  1.0
  O  O97  1  0.80370000  0.26298000  0.52491000  1.0
