# generated using pymatgen
data_CdH7C7N5O2
_symmetry_space_group_name_H-M   'P 1'
_cell_length_a   7.01191000
_cell_length_b   8.40561000
_cell_length_c   16.04530000
_cell_angle_alpha   90.00020000
_cell_angle_beta   90.00060000
_cell_angle_gamma   113.87000000
_symmetry_Int_Tables_number   1
_chemical_formula_structural   CdH7C7N5O2
_chemical_formula_sum   'Cd4 H28 C28 N20 O8'
_cell_volume   864.81050272
_cell_formula_units_Z   4
loop_
 _symmetry_equiv_pos_site_id
 _symmetry_equiv_pos_as_xyz
  1  'x, y, z'
loop_
 _atom_site_type_symbol
 _atom_site_label
 _atom_site_symmetry_multiplicity
 _atom_site_fract_x
 _atom_site_fract_y
 _atom_site_fract_z
 _atom_site_occupancy
  Cd  Cd0  1  0.38079000  0.65143000  0.69315000  1.0
  Cd  Cd1  1  0.11920000  0.34857000  0.19315000  1.0
  Cd  Cd2  1  0.61921000  0.34857000  0.30685000  1.0
  Cd  Cd3  1  0.88079000  0.65143000  0.80685000  1.0
  H  H4  1  0.75807000  0.87982000  0.98939000  1.0
  H  H5  1  0.74192000  0.12017000  0.48939000  1.0
  H  H6  1  0.24192000  0.12018000  0.01061000  1.0
  H  H7  1  0.25808000  0.87982000  0.51060000  1.0
  H  H8  1  0.83450000  0.39350000  0.06355000  1.0
  H  H9  1  0.66550000  0.60650000  0.56355000  1.0
  H  H10  1  0.16550000  0.60650000  0.93646000  1.0
  H  H11  1  0.33451000  0.39350000  0.43645000  1.0
  H  H12  1  0.58431000  0.19895000  0.82146000  1.0
  H  H13  1  0.91569000  0.80105000  0.32146000  1.0
  H  H14  1  0.41569000  0.80105000  0.17854000  1.0
  H  H15  1  0.08430000  0.19895000  0.67854000  1.0
  H  H16  1  0.91418000  0.00810000  0.11880000  1.0
  H  H17  1  0.58582000  0.99190000  0.61880000  1.0
  H  H18  1  0.08582000  0.99190000  0.88120000  1.0
  H  H19  1  0.41418000  0.00810000  0.38120000  1.0
  H  H20  1  0.75335000  0.08837000  0.15820000  1.0
  H  H21  1  0.74665000  0.91164000  0.65820000  1.0
  H  H22  1  0.24665000  0.91164000  0.84180000  1.0
  H  H23  1  0.25335000  0.08836000  0.34179000  1.0
  H  H24  1  0.72545000  0.55391000  0.97326000  1.0
  H  H25  1  0.77456000  0.44609000  0.47326000  1.0
  H  H26  1  0.27455000  0.44609000  0.02674000  1.0
  H  H27  1  0.22545000  0.55391000  0.52674000  1.0
  H  H28  1  0.54725000  0.45302000  0.90083000  1.0
  H  H29  1  0.95276000  0.54698000  0.40083000  1.0
  H  H30  1  0.45275000  0.54698000  0.09917000  1.0
  H  H31  1  0.04724000  0.45302000  0.59917000  1.0
  C  C32  1  0.57910000  0.87836000  0.83909000  1.0
  C  C33  1  0.92089000  0.12164000  0.33909000  1.0
  C  C34  1  0.42090000  0.12164000  0.16091000  1.0
  C  C35  1  0.07910000  0.87835000  0.66091000  1.0
  C  C36  1  0.66848000  0.02718000  0.89875000  1.0
  C  C37  1  0.83152000  0.97282000  0.39875000  1.0
  C  C38  1  0.33152000  0.97282000  0.10125000  1.0
  C  C39  1  0.16848000  0.02718000  0.60125000  1.0
  C  C40  1  0.75120000  0.00389000  0.97494000  1.0
  C  C41  1  0.74880000  0.99610000  0.47494000  1.0
  C  C42  1  0.24880000  0.99611000  0.02506000  1.0
  C  C43  1  0.25120000  0.00389000  0.52506000  1.0
  C  C44  1  0.80873000  0.13593000  0.03457000  1.0
  C  C45  1  0.69126000  0.86407000  0.53457000  1.0
  C  C46  1  0.19126000  0.86407000  0.96543000  1.0
  C  C47  1  0.30874000  0.13593000  0.46543000  1.0
  C  C48  1  0.79136000  0.29193000  0.01653000  1.0
  C  C49  1  0.70864000  0.70807000  0.51653000  1.0
  C  C50  1  0.20863000  0.70806000  0.98347000  1.0
  C  C51  1  0.29137000  0.29193000  0.48347000  1.0
  C  C52  1  0.71188000  0.31588000  0.94008000  1.0
  C  C53  1  0.78813000  0.68412000  0.44008000  1.0
  C  C54  1  0.28813000  0.68413000  0.05992000  1.0
  C  C55  1  0.21187000  0.31587000  0.55992000  1.0
  C  C56  1  0.64990000  0.18308000  0.88083000  1.0
  C  C57  1  0.85010000  0.81691000  0.38084000  1.0
  C  C58  1  0.35010000  0.81692000  0.11917000  1.0
  C  C59  1  0.14990000  0.18308000  0.61916000  1.0
  N  N60  1  0.87477000  0.11279000  0.11634000  1.0
  N  N61  1  0.62523000  0.88721000  0.61634000  1.0
  N  N62  1  0.12523000  0.88721000  0.88366000  1.0
  N  N63  1  0.37477000  0.11279000  0.38366000  1.0
  N  N64  1  0.69441000  0.47477000  0.92196000  1.0
  N  N65  1  0.80560000  0.52523000  0.42197000  1.0
  N  N66  1  0.30559000  0.52523000  0.07804000  1.0
  N  N67  1  0.19441000  0.47477000  0.57803000  1.0
  N  N68  1  0.60813000  0.48427000  0.71345000  1.0
  N  N69  1  0.89188000  0.51573000  0.21345000  1.0
  N  N70  1  0.39188000  0.51573000  0.28655000  1.0
  N  N71  1  0.10812000  0.48428000  0.78655000  1.0
  N  N72  1  0.66097000  0.40465000  0.66265000  1.0
  N  N73  1  0.83904000  0.59535000  0.16266000  1.0
  N  N74  1  0.33904000  0.59535000  0.33735000  1.0
  N  N75  1  0.16096000  0.40465000  0.83734000  1.0
  N  N76  1  0.71476000  0.32846000  0.61340000  1.0
  N  N77  1  0.78524000  0.67154000  0.11341000  1.0
  N  N78  1  0.28524000  0.67154000  0.38660000  1.0
  N  N79  1  0.21476000  0.32847000  0.88660000  1.0
  O  O80  1  0.46255000  0.89379000  0.78053000  1.0
  O  O81  1  0.03745000  0.10621000  0.28053000  1.0
  O  O82  1  0.53745000  0.10621000  0.21947000  1.0
  O  O83  1  0.96255000  0.89378000  0.71946000  1.0
  O  O84  1  0.61094000  0.74187000  0.84962000  1.0
  O  O85  1  0.88906000  0.25814000  0.34963000  1.0
  O  O86  1  0.38906000  0.25814000  0.15038000  1.0
  O  O87  1  0.11094000  0.74186000  0.65036000  1.0
