# generated using pymatgen
data_CuH4C5BrN7
_symmetry_space_group_name_H-M   'P 1'
_cell_length_a   5.71946000
_cell_length_b   8.42097000
_cell_length_c   10.20170000
_cell_angle_alpha   81.13350000
_cell_angle_beta   74.46340000
_cell_angle_gamma   87.60480000
_symmetry_Int_Tables_number   1
_chemical_formula_structural   CuH4C5BrN7
_chemical_formula_sum   'Cu2 H8 C10 Br2 N14'
_cell_volume   467.73741219
_cell_formula_units_Z   2
loop_
 _symmetry_equiv_pos_site_id
 _symmetry_equiv_pos_as_xyz
  1  'x, y, z'
loop_
 _atom_site_type_symbol
 _atom_site_label
 _atom_site_symmetry_multiplicity
 _atom_site_fract_x
 _atom_site_fract_y
 _atom_site_fract_z
 _atom_site_occupancy
  Cu  Cu0  1  0.79132000  0.47178000  0.43117000  1.0
  Cu  Cu1  1  0.20869000  0.52822000  0.56883000  1.0
  H  H2  1  0.05571000  0.21777000  0.99844000  1.0
  H  H3  1  0.94429000  0.78224000  0.00156000  1.0
  H  H4  1  0.70535000  0.02231000  0.05895000  1.0
  H  H5  1  0.29465000  0.97769000  0.94104000  1.0
  H  H6  1  0.39976000  0.01386000  0.28854000  1.0
  H  H7  1  0.60024000  0.98615000  0.71146000  1.0
  H  H8  1  0.45613000  0.20025000  0.44793000  1.0
  H  H9  1  0.54386000  0.79975000  0.55207000  1.0
  C  C10  1  0.92778000  0.30960000  0.19039000  1.0
  C  C11  1  0.07222000  0.69040000  0.80961000  1.0
  C  C12  1  0.91690000  0.20885000  0.09600000  1.0
  C  C13  1  0.08310000  0.79115000  0.90400000  1.0
  C  C14  1  0.72388000  0.10133000  0.13070000  1.0
  C  C15  1  0.27612000  0.89867000  0.86930000  1.0
  C  C16  1  0.55393000  0.09557000  0.25826000  1.0
  C  C17  1  0.44607000  0.90443000  0.74174000  1.0
  C  C18  1  0.58102000  0.19889000  0.34682000  1.0
  C  C19  1  0.41898000  0.80111000  0.65318000  1.0
  Br  Br20  1  0.17665000  0.46601000  0.14746000  1.0
  Br  Br21  1  0.82334000  0.53399000  0.85254000  1.0
  N  N22  1  0.76430000  0.30611000  0.31257000  1.0
  N  N23  1  0.23570000  0.69389000  0.68743000  1.0
  N  N24  1  0.03603000  0.34889000  0.51766000  1.0
  N  N25  1  0.96397000  0.65110000  0.48233000  1.0
  N  N26  1  0.01403000  0.21114000  0.57660000  1.0
  N  N27  1  0.98596000  0.78885000  0.42340000  1.0
  N  N28  1  0.99800000  0.07915000  0.63144000  1.0
  N  N29  1  0.00198000  0.92086000  0.36857000  1.0
  N  N30  1  0.54479000  0.62137000  0.37831000  1.0
  N  N31  1  0.45521000  0.37863000  0.62169000  1.0
  N  N32  1  0.54361000  0.67171000  0.26110000  1.0
  N  N33  1  0.45640000  0.32829000  0.73889000  1.0
  N  N34  1  0.53335000  0.72360000  0.14975000  1.0
  N  N35  1  0.46666000  0.27639000  0.85025000  1.0
