# generated using pymatgen
data_Ti3H27C39NO12
_symmetry_space_group_name_H-M   'P 1'
_cell_length_a   11.94330000
_cell_length_b   25.00120000
_cell_length_c   25.00120000
_cell_angle_alpha   120.00000000
_cell_angle_beta   90.00000000
_cell_angle_gamma   90.00000000
_symmetry_Int_Tables_number   1
_chemical_formula_structural   Ti3H27C39NO12
_chemical_formula_sum   'Ti12 H108 C156 N4 O48'
_cell_volume   6465.12136010
_cell_formula_units_Z   4
loop_
 _symmetry_equiv_pos_site_id
 _symmetry_equiv_pos_as_xyz
  1  'x, y, z'
loop_
 _atom_site_type_symbol
 _atom_site_label
 _atom_site_symmetry_multiplicity
 _atom_site_fract_x
 _atom_site_fract_y
 _atom_site_fract_z
 _atom_site_occupancy
  Ti  Ti0  1  0.60586000  0.08193000  0.08193000  1.0
  Ti  Ti1  1  0.60586000  1.00000000  0.91807000  1.0
  Ti  Ti2  1  0.60586000  0.91807000  0.00000000  1.0
  Ti  Ti3  1  0.10586000  0.91807000  0.91807000  1.0
  Ti  Ti4  1  0.10586000  0.00000000  0.08193000  1.0
  Ti  Ti5  1  0.10586000  0.08193000  0.00000000  1.0
  Ti  Ti6  1  0.89414000  0.08193000  0.08193000  1.0
  Ti  Ti7  1  0.89414000  0.91807000  0.00000000  1.0
  Ti  Ti8  1  0.89414000  1.00000000  0.91807000  1.0
  Ti  Ti9  1  0.39414000  0.91807000  0.91807000  1.0
  Ti  Ti10  1  0.39414000  0.08193000  1.00000000  1.0
  Ti  Ti11  1  0.39414000  0.00000000  0.08193000  1.0
  H  H12  1  0.65606000  0.23974000  0.39279000  1.0
  H  H13  1  0.65606000  0.15305000  0.76026000  1.0
  H  H14  1  0.65606000  0.60720000  0.84694000  1.0
  H  H15  1  0.15606000  0.76026000  0.60721000  1.0
  H  H16  1  0.15606000  0.84695000  0.23974000  1.0
  H  H17  1  0.15606000  0.39280000  0.15306000  1.0
  H  H18  1  0.84394000  0.39279000  0.23974000  1.0
  H  H19  1  0.84394000  0.76026000  0.15305000  1.0
  H  H20  1  0.84394000  0.84695000  0.60721000  1.0
  H  H21  1  0.34394000  0.60721000  0.76026000  1.0
  H  H22  1  0.34394000  0.23974000  0.84695000  1.0
  H  H23  1  0.34394000  0.15305000  0.39279000  1.0
  H  H24  1  0.34394000  0.76026000  0.60721000  1.0
  H  H25  1  0.34394000  0.84695000  0.23974000  1.0
  H  H26  1  0.34394000  0.39280000  0.15306000  1.0
  H  H27  1  0.84394000  0.23974000  0.39279000  1.0
  H  H28  1  0.84394000  0.15305000  0.76026000  1.0
  H  H29  1  0.84394000  0.60720000  0.84694000  1.0
  H  H30  1  0.15606000  0.60721000  0.76026000  1.0
  H  H31  1  0.15606000  0.23974000  0.84695000  1.0
  H  H32  1  0.15606000  0.15305000  0.39279000  1.0
  H  H33  1  0.65606000  0.39279000  0.23974000  1.0
  H  H34  1  0.65606000  0.76026000  0.15305000  1.0
  H  H35  1  0.65606000  0.84695000  0.60721000  1.0
  H  H36  1  0.65261000  0.18429000  0.27822000  1.0
  H  H37  1  0.65261000  0.09393000  0.81571000  1.0
  H  H38  1  0.65261000  0.72178000  0.90607000  1.0
  H  H39  1  0.15261000  0.81571000  0.72178000  1.0
  H  H40  1  0.15261000  0.90607000  0.18429000  1.0
  H  H41  1  0.15261000  0.27822000  0.09393000  1.0
  H  H42  1  0.84740000  0.27822000  0.18429000  1.0
  H  H43  1  0.84740000  0.81572000  0.09394000  1.0
  H  H44  1  0.84740000  0.90607000  0.72179000  1.0
  H  H45  1  0.34740000  0.72178000  0.81571000  1.0
  H  H46  1  0.34740000  0.18428000  0.90606000  1.0
  H  H47  1  0.34740000  0.09393000  0.27821000  1.0
  H  H48  1  0.34739000  0.81571000  0.72178000  1.0
  H  H49  1  0.34739000  0.90607000  0.18429000  1.0
  H  H50  1  0.34739000  0.27822000  0.09393000  1.0
  H  H51  1  0.84739000  0.18429000  0.27822000  1.0
  H  H52  1  0.84739000  0.09393000  0.81571000  1.0
  H  H53  1  0.84739000  0.72178000  0.90607000  1.0
  H  H54  1  0.15260000  0.72178000  0.81571000  1.0
  H  H55  1  0.15260000  0.18428000  0.90606000  1.0
  H  H56  1  0.15260000  0.09393000  0.27821000  1.0
  H  H57  1  0.65260000  0.27822000  0.18429000  1.0
  H  H58  1  0.65260000  0.81572000  0.09394000  1.0
  H  H59  1  0.65260000  0.90607000  0.72179000  1.0
  H  H60  1  0.60713000  0.36588000  0.59307000  1.0
  H  H61  1  0.60713000  0.22719000  0.63413000  1.0
  H  H62  1  0.60713000  0.40694000  0.77282000  1.0
  H  H63  1  0.10713000  0.63412000  0.40693000  1.0
  H  H64  1  0.10713000  0.77281000  0.36587000  1.0
  H  H65  1  0.10713000  0.59306000  0.22718000  1.0
  H  H66  1  0.89288000  0.59307000  0.36588000  1.0
  H  H67  1  0.89288000  0.63412000  0.22719000  1.0
  H  H68  1  0.89288000  0.77281000  0.40693000  1.0
  H  H69  1  0.39288000  0.40693000  0.63412000  1.0
  H  H70  1  0.39288000  0.36588000  0.77282000  1.0
  H  H71  1  0.39288000  0.22719000  0.59307000  1.0
  H  H72  1  0.39287000  0.63412000  0.40693000  1.0
  H  H73  1  0.39287000  0.77281000  0.36587000  1.0
  H  H74  1  0.39287000  0.59306000  0.22718000  1.0
  H  H75  1  0.89287000  0.36588000  0.59307000  1.0
  H  H76  1  0.89287000  0.22719000  0.63413000  1.0
  H  H77  1  0.89287000  0.40694000  0.77282000  1.0
  H  H78  1  0.10712000  0.40693000  0.63412000  1.0
  H  H79  1  0.10712000  0.36588000  0.77282000  1.0
  H  H80  1  0.10712000  0.22719000  0.59307000  1.0
  H  H81  1  0.60712000  0.59307000  0.36588000  1.0
  H  H82  1  0.60712000  0.63412000  0.22719000  1.0
  H  H83  1  0.60712000  0.77281000  0.40693000  1.0
  H  H84  1  0.60395000  0.31044000  0.47985000  1.0
  H  H85  1  0.60395000  0.16941000  0.68956000  1.0
  H  H86  1  0.60395000  0.52015000  0.83059000  1.0
  H  H87  1  0.10395000  0.68956000  0.52015000  1.0
  H  H88  1  0.10395000  0.83059000  0.31044000  1.0
  H  H89  1  0.10395000  0.47985000  0.16941000  1.0
  H  H90  1  0.89605000  0.47985000  0.31044000  1.0
  H  H91  1  0.89605000  0.68956000  0.16941000  1.0
  H  H92  1  0.89605000  0.83059000  0.52015000  1.0
  H  H93  1  0.39605000  0.52015000  0.68956000  1.0
  H  H94  1  0.39605000  0.31044000  0.83059000  1.0
  H  H95  1  0.39605000  0.16941000  0.47985000  1.0
  H  H96  1  0.39605000  0.68956000  0.52015000  1.0
  H  H97  1  0.39605000  0.83059000  0.31044000  1.0
  H  H98  1  0.39605000  0.47985000  0.16941000  1.0
  H  H99  1  0.89605000  0.31044000  0.47985000  1.0
  H  H100  1  0.89605000  0.16941000  0.68956000  1.0
  H  H101  1  0.89605000  0.52015000  0.83059000  1.0
  H  H102  1  0.10395000  0.52015000  0.68956000  1.0
  H  H103  1  0.10395000  0.31044000  0.83059000  1.0
  H  H104  1  0.10395000  0.16941000  0.47985000  1.0
  H  H105  1  0.60395000  0.47985000  0.31044000  1.0
  H  H106  1  0.60395000  0.68956000  0.16941000  1.0
  H  H107  1  0.60395000  0.83059000  0.52015000  1.0
  H  H108  1  0.75000000  0.04431000  0.13848000  1.0
  H  H109  1  0.75000000  0.09417000  0.95568000  1.0
  H  H110  1  0.75000000  0.86151000  0.90582000  1.0
  H  H111  1  0.25000000  0.95569000  0.86152000  1.0
  H  H112  1  0.25000000  0.90583000  0.04432000  1.0
  H  H113  1  0.25000000  0.13849000  0.09418000  1.0
  H  H114  1  0.75000000  0.13849000  0.04431000  1.0
  H  H115  1  0.75000000  0.95569000  0.09418000  1.0
  H  H116  1  0.75000000  0.90582000  0.86151000  1.0
  H  H117  1  0.25000000  0.86151000  0.95569000  1.0
  H  H118  1  0.25000000  0.04431000  0.90582000  1.0
  H  H119  1  0.25000000  0.09418000  0.13849000  1.0
  C  C120  1  0.58640000  0.20902000  0.36823000  1.0
  C  C121  1  0.58640000  0.15921000  0.79099000  1.0
  C  C122  1  0.58640000  0.63177000  0.84079000  1.0
  C  C123  1  0.08640000  0.79098000  0.63177000  1.0
  C  C124  1  0.08640000  0.84079000  0.20901000  1.0
  C  C125  1  0.08640000  0.36823000  0.15921000  1.0
  C  C126  1  0.91360000  0.36822000  0.20901000  1.0
  C  C127  1  0.91360000  0.79098000  0.15920000  1.0
  C  C128  1  0.91360000  0.84079000  0.63177000  1.0
  C  C129  1  0.41360000  0.63178000  0.79099000  1.0
  C  C130  1  0.41360000  0.20902000  0.84080000  1.0
  C  C131  1  0.41360000  0.15921000  0.36823000  1.0
  C  C132  1  0.41360000  0.79098000  0.63177000  1.0
  C  C133  1  0.41360000  0.84079000  0.20901000  1.0
  C  C134  1  0.41360000  0.36822000  0.15920000  1.0
  C  C135  1  0.91360000  0.20902000  0.36823000  1.0
  C  C136  1  0.91360000  0.15921000  0.79099000  1.0
  C  C137  1  0.91360000  0.63178000  0.84080000  1.0
  C  C138  1  0.08640000  0.63178000  0.79099000  1.0
  C  C139  1  0.08640000  0.20902000  0.84080000  1.0
  C  C140  1  0.08640000  0.15921000  0.36823000  1.0
  C  C141  1  0.58640000  0.36822000  0.20901000  1.0
  C  C142  1  0.58640000  0.79098000  0.15920000  1.0
  C  C143  1  0.58640000  0.84079000  0.63177000  1.0
  C  C144  1  0.58597000  0.17755000  0.30406000  1.0
  C  C145  1  0.58597000  0.12651000  0.82244000  1.0
  C  C146  1  0.58597000  0.69593000  0.87348000  1.0
  C  C147  1  0.08597000  0.82245000  0.69594000  1.0
  C  C148  1  0.08598000  0.87349000  0.17756000  1.0
  C  C149  1  0.08598000  0.30407000  0.12652000  1.0
  C  C150  1  0.91403000  0.30407000  0.17755000  1.0
  C  C151  1  0.91403000  0.82245000  0.12652000  1.0
  C  C152  1  0.91403000  0.87349000  0.69594000  1.0
  C  C153  1  0.41403000  0.69593000  0.82244000  1.0
  C  C154  1  0.41403000  0.17755000  0.87348000  1.0
  C  C155  1  0.41403000  0.12651000  0.30406000  1.0
  C  C156  1  0.41403000  0.82245000  0.69594000  1.0
  C  C157  1  0.41402000  0.87349000  0.17756000  1.0
  C  C158  1  0.41402000  0.30407000  0.12652000  1.0
  C  C159  1  0.91403000  0.17755000  0.30406000  1.0
  C  C160  1  0.91402000  0.12651000  0.82244000  1.0
  C  C161  1  0.91403000  0.69593000  0.87348000  1.0
  C  C162  1  0.08597000  0.69593000  0.82244000  1.0
  C  C163  1  0.08597000  0.17755000  0.87348000  1.0
  C  C164  1  0.08597000  0.12651000  0.30406000  1.0
  C  C165  1  0.58597000  0.30407000  0.17755000  1.0
  C  C166  1  0.58597000  0.82245000  0.12652000  1.0
  C  C167  1  0.58597000  0.87349000  0.69594000  1.0
  C  C168  1  0.56016000  0.32291000  0.56816000  1.0
  C  C169  1  0.56016000  0.24525000  0.67708000  1.0
  C  C170  1  0.56016000  0.43183000  0.75474000  1.0
  C  C171  1  0.06016000  0.67709000  0.43184000  1.0
  C  C172  1  0.06016000  0.75475000  0.32292000  1.0
  C  C173  1  0.06016000  0.56817000  0.24526000  1.0
  C  C174  1  0.93985000  0.56817000  0.32291000  1.0
  C  C175  1  0.93985000  0.67709000  0.24526000  1.0
  C  C176  1  0.93985000  0.75475000  0.43184000  1.0
  C  C177  1  0.43985000  0.43183000  0.67709000  1.0
  C  C178  1  0.43985000  0.32291000  0.75474000  1.0
  C  C179  1  0.43985000  0.24525000  0.56816000  1.0
  C  C180  1  0.43984000  0.67709000  0.43184000  1.0
  C  C181  1  0.43984000  0.75475000  0.32292000  1.0
  C  C182  1  0.43984000  0.56817000  0.24526000  1.0
  C  C183  1  0.93984000  0.32291000  0.56816000  1.0
  C  C184  1  0.93984000  0.24525000  0.67708000  1.0
  C  C185  1  0.93984000  0.43183000  0.75474000  1.0
  C  C186  1  0.06015000  0.43183000  0.67709000  1.0
  C  C187  1  0.06015000  0.32291000  0.75474000  1.0
  C  C188  1  0.06015000  0.24525000  0.56816000  1.0
  C  C189  1  0.56015000  0.56817000  0.32291000  1.0
  C  C190  1  0.56015000  0.67709000  0.24526000  1.0
  C  C191  1  0.56015000  0.75475000  0.43184000  1.0
  C  C192  1  0.55876000  0.29098000  0.50403000  1.0
  C  C193  1  0.55877000  0.21305000  0.70902000  1.0
  C  C194  1  0.55877000  0.49597000  0.78695000  1.0
  C  C195  1  0.05877000  0.70902000  0.49597000  1.0
  C  C196  1  0.05877000  0.78695000  0.29098000  1.0
  C  C197  1  0.05877000  0.50403000  0.21305000  1.0
  C  C198  1  0.94124000  0.50403000  0.29098000  1.0
  C  C199  1  0.94124000  0.70902000  0.21305000  1.0
  C  C200  1  0.94124000  0.78695000  0.49597000  1.0
  C  C201  1  0.44123000  0.49597000  0.70902000  1.0
  C  C202  1  0.44124000  0.29098000  0.78695000  1.0
  C  C203  1  0.44124000  0.21305000  0.50403000  1.0
  C  C204  1  0.44123000  0.70902000  0.49597000  1.0
  C  C205  1  0.44123000  0.78695000  0.29098000  1.0
  C  C206  1  0.44123000  0.50403000  0.21305000  1.0
  C  C207  1  0.94124000  0.29098000  0.50403000  1.0
  C  C208  1  0.94123000  0.21305000  0.70902000  1.0
  C  C209  1  0.94123000  0.49597000  0.78695000  1.0
  C  C210  1  0.05877000  0.49597000  0.70902000  1.0
  C  C211  1  0.05876000  0.29098000  0.78695000  1.0
  C  C212  1  0.05876000  0.21305000  0.50403000  1.0
  C  C213  1  0.55876000  0.50403000  0.29098000  1.0
  C  C214  1  0.55876000  0.70902000  0.21305000  1.0
  C  C215  1  0.55876000  0.78695000  0.49597000  1.0
  C  C216  1  0.50000000  0.30067000  0.60134000  1.0
  C  C217  1  0.50000000  0.30067000  0.69932000  1.0
  C  C218  1  0.50000000  0.39865000  0.69933000  1.0
  C  C219  1  1.00000000  0.69933000  0.39866000  1.0
  C  C220  1  1.00000000  0.69933000  0.30068000  1.0
  C  C221  1  0.00000000  0.60135000  0.30067000  1.0
  C  C222  1  0.50000000  0.69932000  0.39865000  1.0
  C  C223  1  0.50000000  0.69933000  0.30068000  1.0
  C  C224  1  0.50000000  0.60135000  0.30067000  1.0
  C  C225  1  0.00000000  0.30067000  0.60134000  1.0
  C  C226  1  1.00000000  0.30067000  0.69932000  1.0
  C  C227  1  0.00000000  0.39865000  0.69933000  1.0
  C  C228  1  0.50000000  0.23502000  0.47004000  1.0
  C  C229  1  0.50000000  0.23502000  0.76497000  1.0
  C  C230  1  0.50000000  0.52995000  0.76497000  1.0
  C  C231  1  1.00000000  0.76498000  0.52996000  1.0
  C  C232  1  0.00000000  0.76498000  0.23503000  1.0
  C  C233  1  0.00000000  0.47005000  0.23502000  1.0
  C  C234  1  0.50000000  0.76498000  0.52996000  1.0
  C  C235  1  0.50000000  0.76498000  0.23503000  1.0
  C  C236  1  0.50000000  0.47005000  0.23503000  1.0
  C  C237  1  0.00000000  0.23502000  0.47004000  1.0
  C  C238  1  0.00000000  0.23502000  0.76497000  1.0
  C  C239  1  0.00000000  0.52995000  0.76497000  1.0
  C  C240  1  0.50000000  0.20096000  0.40192000  1.0
  C  C241  1  0.50000000  0.20096000  0.79905000  1.0
  C  C242  1  0.50000000  0.59809000  0.79905000  1.0
  C  C243  1  0.00000000  0.79904000  0.59808000  1.0
  C  C244  1  1.00000000  0.79904000  0.20095000  1.0
  C  C245  1  0.00000000  0.40191000  0.20095000  1.0
  C  C246  1  0.50000000  0.79904000  0.59808000  1.0
  C  C247  1  0.50000000  0.79904000  0.20095000  1.0
  C  C248  1  0.50000000  0.40191000  0.20095000  1.0
  C  C249  1  1.00000000  0.20096000  0.40192000  1.0
  C  C250  1  0.00000000  0.20096000  0.79905000  1.0
  C  C251  1  1.00000000  0.59809000  0.79905000  1.0
  C  C252  1  0.50000000  0.13565000  0.27130000  1.0
  C  C253  1  0.50000000  0.13565000  0.86435000  1.0
  C  C254  1  0.50000000  0.72870000  0.86435000  1.0
  C  C255  1  0.00000000  0.86435000  0.72870000  1.0
  C  C256  1  0.00000000  0.86435000  0.13565000  1.0
  C  C257  1  0.00000000  0.27130000  0.13565000  1.0
  C  C258  1  0.50000000  0.86435000  0.72870000  1.0
  C  C259  1  0.50000000  0.86435000  0.13565000  1.0
  C  C260  1  0.50000000  0.27130000  0.13565000  1.0
  C  C261  1  0.00000000  0.13565000  0.27130000  1.0
  C  C262  1  0.00000000  0.13565000  0.86435000  1.0
  C  C263  1  0.00000000  0.72870000  0.86435000  1.0
  C  C264  1  0.49999000  0.10127000  0.20255000  1.0
  C  C265  1  0.50000000  0.10127000  0.89872000  1.0
  C  C266  1  0.49999000  0.79745000  0.89872000  1.0
  C  C267  1  0.00000000  0.89873000  0.79746000  1.0
  C  C268  1  0.00001000  0.89873000  0.10128000  1.0
  C  C269  1  0.00001000  0.20255000  0.10127000  1.0
  C  C270  1  0.50000000  0.89872000  0.79745000  1.0
  C  C271  1  0.49999000  0.89873000  0.10128000  1.0
  C  C272  1  0.49999000  0.20255000  0.10127000  1.0
  C  C273  1  0.00001000  0.10127000  0.20255000  1.0
  C  C274  1  0.00000000  0.10127000  0.89872000  1.0
  C  C275  1  0.00001000  0.79745000  0.89872000  1.0
  N  N276  1  0.50000000  0.33333333  0.66666667  1.0
  N  N277  1  0.00000000  0.66666667  0.33333333  1.0
  N  N278  1  0.50000000  0.66666667  0.33333333  1.0
  N  N279  1  0.00000000  0.33333333  0.66666667  1.0
  O  O280  1  0.56989000  0.11789000  0.17531000  1.0
  O  O281  1  0.56989000  0.05742000  0.88211000  1.0
  O  O282  1  0.56989000  0.82469000  0.94258000  1.0
  O  O283  1  0.06988000  0.88211000  0.82469000  1.0
  O  O284  1  0.06988000  0.94257000  0.11789000  1.0
  O  O285  1  0.06988000  0.17531000  0.05742000  1.0
  O  O286  1  0.93011000  0.17531000  0.11788000  1.0
  O  O287  1  0.93011000  0.88211000  0.05742000  1.0
  O  O288  1  0.93011000  0.94258000  0.82469000  1.0
  O  O289  1  0.43012000  0.82469000  0.88212000  1.0
  O  O290  1  0.43012000  0.11789000  0.94258000  1.0
  O  O291  1  0.43012000  0.05743000  0.17532000  1.0
  O  O292  1  0.43012000  0.88211000  0.82469000  1.0
  O  O293  1  0.43012000  0.94257000  0.11788000  1.0
  O  O294  1  0.43012000  0.17531000  0.05742000  1.0
  O  O295  1  0.93011000  0.11789000  0.17531000  1.0
  O  O296  1  0.93011000  0.05742000  0.88211000  1.0
  O  O297  1  0.93011000  0.82469000  0.94258000  1.0
  O  O298  1  0.06988000  0.82469000  0.88212000  1.0
  O  O299  1  0.06988000  0.11789000  0.94258000  1.0
  O  O300  1  0.06988000  0.05743000  0.17532000  1.0
  O  O301  1  0.56989000  0.17531000  0.11789000  1.0
  O  O302  1  0.56989000  0.88211000  0.05742000  1.0
  O  O303  1  0.56989000  0.94258000  0.82469000  1.0
  O  O304  1  0.75000000  0.06644000  0.11595000  1.0
  O  O305  1  0.75000000  0.04951000  0.93356000  1.0
  O  O306  1  0.75000000  0.88405000  0.95049000  1.0
  O  O307  1  0.25000000  0.93356000  0.88405000  1.0
  O  O308  1  0.25000000  0.95049000  0.06644000  1.0
  O  O309  1  0.25000000  0.11595000  0.04951000  1.0
  O  O310  1  0.75000000  0.11595000  0.06644000  1.0
  O  O311  1  0.75000000  0.93356000  0.04951000  1.0
  O  O312  1  0.75000000  0.95049000  0.88405000  1.0
  O  O313  1  0.25000000  0.88405000  0.93356000  1.0
  O  O314  1  0.25000000  0.06644000  0.95049000  1.0
  O  O315  1  0.25000000  0.04951000  0.11595000  1.0
  O  O316  1  0.42575000  0.06767000  0.06767000  1.0
  O  O317  1  0.42575000  0.00000000  0.93233000  1.0
  O  O318  1  0.42575000  0.93233000  0.00000000  1.0
  O  O319  1  0.92574000  0.93233000  0.93233000  1.0
  O  O320  1  0.92574000  0.00000000  0.06767000  1.0
  O  O321  1  0.92575000  0.06767000  1.00000000  1.0
  O  O322  1  0.07425000  0.06767000  0.06767000  1.0
  O  O323  1  0.07425000  0.93233000  0.00000000  1.0
  O  O324  1  0.07425000  0.00000000  0.93233000  1.0
  O  O325  1  0.57425000  0.93233000  0.93233000  1.0
  O  O326  1  0.57425000  0.06767000  0.00000000  1.0
  O  O327  1  0.57426000  0.00000000  0.06767000  1.0
