# generated using pymatgen
data_Zn4H11C24S4N4ClO13
_symmetry_space_group_name_H-M   'P 1'
_cell_length_a   19.66640000
_cell_length_b   19.67260000
_cell_length_c   33.37930000
_cell_angle_alpha   79.19850000
_cell_angle_beta   79.22660000
_cell_angle_gamma   63.93500000
_symmetry_Int_Tables_number   1
_chemical_formula_structural   Zn4H11C24S4N4ClO13
_chemical_formula_sum   'Zn16 H44 C96 S16 N16 Cl4 O52'
_cell_volume   11314.82396384
_cell_formula_units_Z   4
loop_
 _symmetry_equiv_pos_site_id
 _symmetry_equiv_pos_as_xyz
  1  'x, y, z'
loop_
 _atom_site_type_symbol
 _atom_site_label
 _atom_site_symmetry_multiplicity
 _atom_site_fract_x
 _atom_site_fract_y
 _atom_site_fract_z
 _atom_site_occupancy
  Zn  Zn0  1  0.59978000  0.94511000  0.52194000  1.0
  Zn  Zn1  1  0.51667000  0.01565000  0.43938000  1.0
  Zn  Zn2  1  0.44042000  0.94068000  0.51798000  1.0
  Zn  Zn3  1  0.44347000  0.09850000  0.52025000  1.0
  Zn  Zn4  1  0.65091000  0.30663000  0.72822000  1.0
  Zn  Zn5  1  0.81082000  0.31043000  0.73349000  1.0
  Zn  Zn6  1  0.73243000  0.23161000  0.80923000  1.0
  Zn  Zn7  1  0.80551000  0.15174000  0.72807000  1.0
  Zn  Zn8  1  0.23327000  0.73297000  0.30954000  1.0
  Zn  Zn9  1  0.30445000  0.65114000  0.22782000  1.0
  Zn  Zn10  1  0.15113000  0.80785000  0.22899000  1.0
  Zn  Zn11  1  0.31090000  0.80985000  0.23254000  1.0
  Zn  Zn12  1  0.94013000  0.44028000  0.01687000  1.0
  Zn  Zn13  1  0.94502000  0.59805000  0.02128000  1.0
  Zn  Zn14  1  0.09983000  0.44378000  0.02134000  1.0
  Zn  Zn15  1  0.01726000  0.51724000  0.93960000  1.0
  H  H16  1  0.75079000  0.04455000  0.64816000  1.0
  H  H17  1  0.54697000  0.25308000  0.65039000  1.0
  H  H18  1  0.69830000  0.00144000  0.59986000  1.0
  H  H19  1  0.40355000  0.90351000  0.30007000  1.0
  H  H20  1  0.29927000  0.79763000  0.40107000  1.0
  H  H21  1  0.44935000  0.94948000  0.35035000  1.0
  H  H22  1  0.94981000  0.44987000  0.84614000  1.0
  H  H23  1  0.84793000  0.35000000  0.95136000  1.0
  H  H24  1  0.89999000  0.39902000  0.80036000  1.0
  H  H25  1  0.20517000  0.49862000  0.10197000  1.0
  H  H26  1  0.99663000  0.70249000  0.10007000  1.0
  H  H27  1  0.24867000  0.55108000  0.15009000  1.0
  H  H28  1  0.44533000  0.68483000  0.60447000  1.0
  H  H29  1  0.44791000  0.76638000  0.57387000  1.0
  H  H30  1  0.79723000  0.57464000  0.65511000  1.0
  H  H31  1  0.80058000  0.48604000  0.67828000  1.0
  H  H32  1  0.47673000  0.23479000  0.31440000  1.0
  H  H33  1  0.48307000  0.16515000  0.35625000  1.0
  H  H34  1  0.29666000  0.51561000  0.43539000  1.0
  H  H35  1  0.27268000  0.58482000  0.39303000  1.0
  H  H36  1  0.73425000  0.95318000  0.31431000  1.0
  H  H37  1  0.66527000  0.97727000  0.35669000  1.0
  H  H38  1  0.01519000  0.77439000  0.43543000  1.0
  H  H39  1  0.08510000  0.76696000  0.39351000  1.0
  H  H40  1  0.19621000  0.25626000  0.61519000  1.0
  H  H41  1  0.27472000  0.20428000  0.58210000  1.0
  H  H42  1  0.06528000  0.98486000  0.64501000  1.0
  H  H43  1  0.97821000  0.04408000  0.66977000  1.0
  H  H44  1  0.51547000  0.27614000  0.93519000  1.0
  H  H45  1  0.58551000  0.26699000  0.89304000  1.0
  H  H46  1  0.23391000  0.45596000  0.81403000  1.0
  H  H47  1  0.16470000  0.47893000  0.85662000  1.0
  H  H48  1  0.91354000  0.85433000  0.77390000  1.0
  H  H49  1  0.88209000  0.95246000  0.76073000  1.0
  H  H50  1  0.81537000  0.89574000  0.97499000  1.0
  H  H51  1  0.86322000  0.79766000  0.98897000  1.0
  H  H52  1  0.56496000  0.48411000  0.14474000  1.0
  H  H53  1  0.47837000  0.54307000  0.17010000  1.0
  H  H54  1  0.69666000  0.75480000  0.11599000  1.0
  H  H55  1  0.77473000  0.70329000  0.08270000  1.0
  H  H56  1  0.29710000  0.07558000  0.15494000  1.0
  H  H57  1  0.30090000  0.98679000  0.17798000  1.0
  H  H58  1  0.94491000  0.18431000  0.10476000  1.0
  H  H59  1  0.94712000  0.26605000  0.07424000  1.0
  C  C60  1  0.68438000  0.93979000  0.43755000  1.0
  C  C61  1  0.43034000  0.93093000  0.43090000  1.0
  C  C62  1  0.56157000  0.81512000  0.56144000  1.0
  C  C63  1  0.31493000  0.06276000  0.56168000  1.0
  C  C64  1  0.56768000  0.07022000  0.56920000  1.0
  C  C65  1  0.43765000  0.18396000  0.43693000  1.0
  C  C66  1  0.68969000  0.43498000  0.68802000  1.0
  C  C67  1  0.81989000  0.31783000  0.81927000  1.0
  C  C68  1  0.56550000  0.31162000  0.81193000  1.0
  C  C69  1  0.81213000  0.06381000  0.81063000  1.0
  C  C70  1  0.68131000  0.17929000  0.68110000  1.0
  C  C71  1  0.93505000  0.18761000  0.68811000  1.0
  C  C72  1  0.31053000  0.56571000  0.31203000  1.0
  C  C73  1  0.17993000  0.68153000  0.18099000  1.0
  C  C74  1  0.06594000  0.81284000  0.31261000  1.0
  C  C75  1  0.19008000  0.93561000  0.18821000  1.0
  C  C76  1  0.32043000  0.81897000  0.31863000  1.0
  C  C77  1  0.43505000  0.68691000  0.18809000  1.0
  C  C78  1  0.81497000  0.56289000  0.06135000  1.0
  C  C79  1  0.06958000  0.56823000  0.06954000  1.0
  C  C80  1  0.06068000  0.31487000  0.06114000  1.0
  C  C81  1  0.18478000  0.43938000  0.93758000  1.0
  C  C82  1  0.93093000  0.43201000  0.92998000  1.0
  C  C83  1  0.93848000  0.68575000  0.93892000  1.0
  C  C84  1  0.59356000  0.10183000  0.59797000  1.0
  C  C85  1  0.65167000  0.15145000  0.65237000  1.0
  C  C86  1  0.55089000  0.17366000  0.61255000  1.0
  C  C87  1  0.69486000  0.08020000  0.63813000  1.0
  C  C88  1  0.58015000  0.19764000  0.63944000  1.0
  C  C89  1  0.66570000  0.05649000  0.61140000  1.0
  C  C90  1  0.40043000  0.90023000  0.40370000  1.0
  C  C91  1  0.34855000  0.84767000  0.34767000  1.0
  C  C92  1  0.35752000  0.85677000  0.41789000  1.0
  C  C93  1  0.39095000  0.89072000  0.33306000  1.0
  C  C94  1  0.33220000  0.83106000  0.38990000  1.0
  C  C95  1  0.41617000  0.91608000  0.36092000  1.0
  C  C96  1  0.54597000  0.69588000  0.59829000  1.0
  C  C97  1  0.70589000  0.55347000  0.65041000  1.0
  C  C98  1  0.58683000  0.74122000  0.58553000  1.0
  C  C99  1  0.66513000  0.50811000  0.66311000  1.0
  C  C100  1  0.66141000  0.62234000  0.62691000  1.0
  C  C101  1  0.59005000  0.62751000  0.62229000  1.0
  C  C102  1  0.42323000  0.27345000  0.36978000  1.0
  C  C103  1  0.32478000  0.47635000  0.37920000  1.0
  C  C104  1  0.41266000  0.25789000  0.41278000  1.0
  C  C105  1  0.33492000  0.49182000  0.33617000  1.0
  C  C106  1  0.35802000  0.39613000  0.39116000  1.0
  C  C107  1  0.39141000  0.35369000  0.35789000  1.0
  C  C108  1  0.77375000  0.92555000  0.37039000  1.0
  C  C109  1  0.97669000  0.82686000  0.37978000  1.0
  C  C110  1  0.75834000  0.91545000  0.41341000  1.0
  C  C111  1  0.99212000  0.83766000  0.33677000  1.0
  C  C112  1  0.89643000  0.85877000  0.39169000  1.0
  C  C113  1  0.85394000  0.89232000  0.35842000  1.0
  C  C114  1  0.19939000  0.15705000  0.60205000  1.0
  C  C115  1  0.05003000  0.09434000  0.64685000  1.0
  C  C116  1  0.24113000  0.08720000  0.58578000  1.0
  C  C117  1  0.00812000  0.16409000  0.66319000  1.0
  C  C118  1  0.12040000  0.09209000  0.62498000  1.0
  C  C119  1  0.12983000  0.15855000  0.62481000  1.0
  C  C120  1  0.84650000  0.34581000  0.84951000  1.0
  C  C121  1  0.90196000  0.40272000  0.90164000  1.0
  C  C122  1  0.83188000  0.33224000  0.89271000  1.0
  C  C123  1  0.91684000  0.41687000  0.85890000  1.0
  C  C124  1  0.85955000  0.36068000  0.91818000  1.0
  C  C125  1  0.88922000  0.38868000  0.83365000  1.0
  C  C126  1  0.47676000  0.32656000  0.87928000  1.0
  C  C127  1  0.27358000  0.42557000  0.87031000  1.0
  C  C128  1  0.49184000  0.33703000  0.83621000  1.0
  C  C129  1  0.25851000  0.41525000  0.91337000  1.0
  C  C130  1  0.35376000  0.39230000  0.85819000  1.0
  C  C131  1  0.39652000  0.35876000  0.89134000  1.0
  C  C132  1  0.87748000  0.91851000  0.82176000  1.0
  C  C133  1  0.87542000  0.83119000  0.92788000  1.0
  C  C134  1  0.83772000  0.99072000  0.83553000  1.0
  C  C135  1  0.91505000  0.75889000  0.91411000  1.0
  C  C136  1  0.86131000  0.88918000  0.89371000  1.0
  C  C137  1  0.89027000  0.86048000  0.85586000  1.0
  C  C138  1  0.14820000  0.65566000  0.15227000  1.0
  C  C139  1  0.09787000  0.59756000  0.09820000  1.0
  C  C140  1  0.07626000  0.69850000  0.13777000  1.0
  C  C141  1  0.16943000  0.55439000  0.11216000  1.0
  C  C142  1  0.05202000  0.66914000  0.11107000  1.0
  C  C143  1  0.19339000  0.58359000  0.13876000  1.0
  C  C144  1  0.55021000  0.59341000  0.14695000  1.0
  C  C145  1  0.69909000  0.65672000  0.10191000  1.0
  C  C146  1  0.50829000  0.66313000  0.16330000  1.0
  C  C147  1  0.74105000  0.58709000  0.08548000  1.0
  C  C148  1  0.62965000  0.65804000  0.12466000  1.0
  C  C149  1  0.62039000  0.59148000  0.12483000  1.0
  C  C150  1  0.20594000  0.05407000  0.15032000  1.0
  C  C151  1  0.04540000  0.19574000  0.09842000  1.0
  C  C152  1  0.16536000  0.00859000  0.16324000  1.0
  C  C153  1  0.08600000  0.24123000  0.08544000  1.0
  C  C154  1  0.08977000  0.12760000  0.12246000  1.0
  C  C155  1  0.16113000  0.12277000  0.12685000  1.0
  S  S156  1  0.67726000  0.70009000  0.60223000  1.0
  S  S157  1  0.57495000  0.54892000  0.64614000  1.0
  S  S158  1  0.36411000  0.33990000  0.43778000  1.0
  S  S159  1  0.38329000  0.40979000  0.31119000  1.0
  S  S160  1  0.84039000  0.86697000  0.43838000  1.0
  S  S161  1  0.91003000  0.88649000  0.31179000  1.0
  S  S162  1  0.19555000  0.02574000  0.59771000  1.0
  S  S163  1  0.05373000  0.22555000  0.65127000  1.0
  S  S164  1  0.40950000  0.38603000  0.81144000  1.0
  S  S165  1  0.34084000  0.36671000  0.93815000  1.0
  S  S166  1  0.81770000  0.98724000  0.88901000  1.0
  S  S167  1  0.93538000  0.76246000  0.86061000  1.0
  S  S168  1  0.55359000  0.72488000  0.15124000  1.0
  S  S169  1  0.69560000  0.52549000  0.09734000  1.0
  S  S170  1  0.07504000  0.04895000  0.14652000  1.0
  S  S171  1  0.17657000  0.20060000  0.10193000  1.0
  N  N172  1  0.47576000  0.71323000  0.58832000  1.0
  N  N173  1  0.77810000  0.53369000  0.65824000  1.0
  N  N174  1  0.45655000  0.21979000  0.34320000  1.0
  N  N175  1  0.28655000  0.52985000  0.40566000  1.0
  N  N176  1  0.72010000  0.96397000  0.34393000  1.0
  N  N177  1  0.03031000  0.79324000  0.40635000  1.0
  N  N178  1  0.22092000  0.21548000  0.59605000  1.0
  N  N179  1  0.02624000  0.03792000  0.65018000  1.0
  N  N180  1  0.53051000  0.29280000  0.90567000  1.0
  N  N181  1  0.21984000  0.46374000  0.84406000  1.0
  N  N182  1  0.90237000  0.90578000  0.78173000  1.0
  N  N183  1  0.85546000  0.84424000  0.96793000  1.0
  N  N184  1  0.52645000  0.53698000  0.15055000  1.0
  N  N185  1  0.72031000  0.71554000  0.09592000  1.0
  N  N186  1  0.27824000  0.03445000  0.15797000  1.0
  N  N187  1  0.97518000  0.21285000  0.08856000  1.0
  Cl  Cl188  1  0.46191000  0.23772000  0.59905000  1.0
  Cl  Cl189  1  0.33306000  0.83105000  0.46913000  1.0
  Cl  Cl190  1  0.77999000  0.28170000  0.91789000  1.0
  Cl  Cl191  1  0.01290000  0.78789000  0.15078000  1.0
  O  O192  1  0.50138000  0.99959000  0.49930000  1.0
  O  O193  1  0.68285000  0.92395000  0.47665000  1.0
  O  O194  1  0.47251000  0.96475000  0.41296000  1.0
  O  O195  1  0.49451000  0.84241000  0.54956000  1.0
  O  O196  1  0.62545000  0.97571000  0.41761000  1.0
  O  O197  1  0.60696000  0.84818000  0.55369000  1.0
  O  O198  1  0.41150000  0.92151000  0.46930000  1.0
  O  O199  1  0.34497000  0.99496000  0.55141000  1.0
  O  O200  1  0.50152000  0.10989000  0.55829000  1.0
  O  O201  1  0.34520000  0.11108000  0.55234000  1.0
  O  O202  1  0.61454000  0.00532000  0.55802000  1.0
  O  O203  1  0.47271000  0.12469000  0.41728000  1.0
  O  O204  1  0.42313000  0.18290000  0.47609000  1.0
  O  O205  1  0.75054000  0.25021000  0.74926000  1.0
  O  O206  1  0.64304000  0.40333000  0.69659000  1.0
  O  O207  1  0.83429000  0.33911000  0.78125000  1.0
  O  O208  1  0.62471000  0.27590000  0.83167000  1.0
  O  O209  1  0.75678000  0.40716000  0.69986000  1.0
  O  O210  1  0.56690000  0.32613000  0.77272000  1.0
  O  O211  1  0.78560000  0.27521000  0.83353000  1.0
  O  O212  1  0.77358000  0.12300000  0.82942000  1.0
  O  O213  1  0.74647000  0.13422000  0.69252000  1.0
  O  O214  1  0.82990000  0.06392000  0.77127000  1.0
  O  O215  1  0.63901000  0.24551000  0.69161000  1.0
  O  O216  1  0.90713000  0.25322000  0.70096000  1.0
  O  O217  1  0.90345000  0.14029000  0.69564000  1.0
  O  O218  1  0.25095000  0.74968000  0.24975000  1.0
  O  O219  1  0.27390000  0.62464000  0.33187000  1.0
  O  O220  1  0.24547000  0.63500000  0.19166000  1.0
  O  O221  1  0.06731000  0.82796000  0.27346000  1.0
  O  O222  1  0.32702000  0.56735000  0.27291000  1.0
  O  O223  1  0.12523000  0.77708000  0.33233000  1.0
  O  O224  1  0.13987000  0.74708000  0.19246000  1.0
  O  O225  1  0.14312000  0.90438000  0.19734000  1.0
  O  O226  1  0.33488000  0.83770000  0.28040000  1.0
  O  O227  1  0.25761000  0.90737000  0.19956000  1.0
  O  O228  1  0.28442000  0.77825000  0.33475000  1.0
  O  O229  1  0.40320000  0.63988000  0.19591000  1.0
  O  O230  1  0.40733000  0.75293000  0.20048000  1.0
  O  O231  1  0.00060000  0.49997000  0.99970000  1.0
  O  O232  1  0.84451000  0.49577000  0.05025000  1.0
  O  O233  1  0.00300000  0.61091000  0.05926000  1.0
  O  O234  1  0.10650000  0.34744000  0.05313000  1.0
  O  O235  1  0.84579000  0.61086000  0.05285000  1.0
  O  O236  1  0.99352000  0.34243000  0.04936000  1.0
  O  O237  1  0.11419000  0.50338000  0.05791000  1.0
  O  O238  1  0.18345000  0.42329000  0.97672000  1.0
  O  O239  1  0.97074000  0.46872000  0.91330000  1.0
  O  O240  1  0.12563000  0.47535000  0.91783000  1.0
  O  O241  1  0.91330000  0.41764000  0.96837000  1.0
  O  O242  1  0.92291000  0.68588000  0.97838000  1.0
  O  O243  1  0.97274000  0.62625000  0.92002000  1.0
