# generated using pymatgen
data_NdPH7C3O10
_symmetry_space_group_name_H-M   'P 1'
_cell_length_a   6.90512000
_cell_length_b   10.19210000
_cell_length_c   13.38580000
_cell_angle_alpha   89.99970000
_cell_angle_beta   89.99980000
_cell_angle_gamma   100.50800000
_symmetry_Int_Tables_number   1
_chemical_formula_structural   NdPH7C3O10
_chemical_formula_sum   'Nd4 P4 H28 C12 O40'
_cell_volume   926.26257667
_cell_formula_units_Z   4
loop_
 _symmetry_equiv_pos_site_id
 _symmetry_equiv_pos_as_xyz
  1  'x, y, z'
loop_
 _atom_site_type_symbol
 _atom_site_label
 _atom_site_symmetry_multiplicity
 _atom_site_fract_x
 _atom_site_fract_y
 _atom_site_fract_z
 _atom_site_occupancy
  Nd  Nd0  1  0.15855000  0.27930000  0.89765000  1.0
  Nd  Nd1  1  0.84145000  0.22070000  0.39765000  1.0
  Nd  Nd2  1  0.84145000  0.72070000  0.10235000  1.0
  Nd  Nd3  1  0.15854000  0.77930000  0.60235000  1.0
  P  P4  1  0.77984000  0.07375000  0.05315000  1.0
  P  P5  1  0.22016000  0.42625000  0.55314000  1.0
  P  P6  1  0.22017000  0.92625000  0.94686000  1.0
  P  P7  1  0.77983000  0.57375000  0.44685000  1.0
  H  H8  1  0.54322000  0.19762000  0.05456000  1.0
  H  H9  1  0.45679000  0.30238000  0.55455000  1.0
  H  H10  1  0.45679000  0.80238000  0.94544000  1.0
  H  H11  1  0.54322000  0.69762000  0.44544000  1.0
  H  H12  1  0.90308000  0.98853000  0.25558000  1.0
  H  H13  1  0.09692000  0.51146000  0.75558000  1.0
  H  H14  1  0.09692000  0.01146000  0.74442000  1.0
  H  H15  1  0.90308000  0.48854000  0.24442000  1.0
  H  H16  1  0.79079000  0.34642000  0.94946000  1.0
  H  H17  1  0.20920000  0.15357000  0.44947000  1.0
  H  H18  1  0.20921000  0.65358000  0.05054000  1.0
  H  H19  1  0.79079000  0.84643000  0.55053000  1.0
  H  H20  1  0.87550000  0.48740000  0.89961000  1.0
  H  H21  1  0.12449000  0.01260000  0.39961000  1.0
  H  H22  1  0.12449000  0.51259000  0.10039000  1.0
  H  H23  1  0.87550000  0.98740000  0.60039000  1.0
  H  H24  1  0.60218000  0.32646000  0.81616000  1.0
  H  H25  1  0.39783000  0.17355000  0.31617000  1.0
  H  H26  1  0.39782000  0.67355000  0.18384000  1.0
  H  H27  1  0.60217000  0.82645000  0.68384000  1.0
  H  H28  1  0.46027000  0.34130000  0.72450000  1.0
  H  H29  1  0.53973000  0.15870000  0.22451000  1.0
  H  H30  1  0.53973000  0.65870000  0.27549000  1.0
  H  H31  1  0.46027000  0.84130000  0.77550000  1.0
  H  H32  1  0.09522000  0.09593000  0.13625000  1.0
  H  H33  1  0.90478000  0.40407000  0.63625000  1.0
  H  H34  1  0.90478000  0.90408000  0.86376000  1.0
  H  H35  1  0.09522000  0.59593000  0.36375000  1.0
  C  C36  1  0.95882000  0.13349000  0.15372000  1.0
  C  C37  1  0.04118000  0.36651000  0.65372000  1.0
  C  C38  1  0.04118000  0.86651000  0.84628000  1.0
  C  C39  1  0.95881000  0.63349000  0.34628000  1.0
  C  C40  1  0.00444000  0.28449000  0.15887000  1.0
  C  C41  1  0.99555000  0.21551000  0.65886000  1.0
  C  C42  1  0.99556000  0.71551000  0.84114000  1.0
  C  C43  1  0.00444000  0.78449000  0.34113000  1.0
  C  C44  1  0.45305000  0.55506000  0.97468000  1.0
  C  C45  1  0.54697000  0.94495000  0.47468000  1.0
  C  C46  1  0.54696000  0.44495000  0.02532000  1.0
  C  C47  1  0.45306000  0.05506000  0.52532000  1.0
  O  O48  1  0.58475000  0.12100000  0.09223000  1.0
  O  O49  1  0.41525000  0.37901000  0.59223000  1.0
  O  O50  1  0.41526000  0.87901000  0.90777000  1.0
  O  O51  1  0.58475000  0.62100000  0.40777000  1.0
  O  O52  1  0.84958000  0.14082000  0.95535000  1.0
  O  O53  1  0.15042000  0.35918000  0.45535000  1.0
  O  O54  1  0.15043000  0.85918000  0.04465000  1.0
  O  O55  1  0.84958000  0.64082000  0.54465000  1.0
  O  O56  1  0.74859000  0.92334000  0.05801000  1.0
  O  O57  1  0.25141000  0.57666000  0.55802000  1.0
  O  O58  1  0.25142000  0.07666000  0.94199000  1.0
  O  O59  1  0.74859000  0.42334000  0.44199000  1.0
  O  O60  1  0.87210000  0.08015000  0.24482000  1.0
  O  O61  1  0.12790000  0.41985000  0.74482000  1.0
  O  O62  1  0.12790000  0.91985000  0.75518000  1.0
  O  O63  1  0.87210000  0.58015000  0.25518000  1.0
  O  O64  1  0.07984000  0.34806000  0.08242000  1.0
  O  O65  1  0.92016000  0.15193000  0.58242000  1.0
  O  O66  1  0.92016000  0.65194000  0.91758000  1.0
  O  O67  1  0.07984000  0.84806000  0.41758000  1.0
  O  O68  1  0.95998000  0.33920000  0.23946000  1.0
  O  O69  1  0.04002000  0.16080000  0.73946000  1.0
  O  O70  1  0.04002000  0.66080000  0.76054000  1.0
  O  O71  1  0.95998000  0.83920000  0.26054000  1.0
  O  O72  1  0.30060000  0.51955000  0.92288000  1.0
  O  O73  1  0.69939000  0.98045000  0.42289000  1.0
  O  O74  1  0.69940000  0.48045000  0.07711000  1.0
  O  O75  1  0.30060000  0.01955000  0.57712000  1.0
  O  O76  1  0.53555000  0.67499000  0.99281000  1.0
  O  O77  1  0.46445000  0.82501000  0.49282000  1.0
  O  O78  1  0.46446000  0.32501000  0.00718000  1.0
  O  O79  1  0.53555000  0.17499000  0.50718000  1.0
  O  O80  1  0.84993000  0.38790000  0.88825000  1.0
  O  O81  1  0.15007000  0.11210000  0.38826000  1.0
  O  O82  1  0.15007000  0.61210000  0.11174000  1.0
  O  O83  1  0.84993000  0.88790000  0.61175000  1.0
  O  O84  1  0.46658000  0.30087000  0.79113000  1.0
  O  O85  1  0.53342000  0.19912000  0.29114000  1.0
  O  O86  1  0.53342000  0.69913000  0.20886000  1.0
  O  O87  1  0.46658000  0.80087000  0.70886000  1.0
