# generated using pymatgen
data_Zn4H24C24N12O13
_symmetry_space_group_name_H-M   'P 1'
_cell_length_a   18.57275932
_cell_length_b   18.57270000
_cell_length_c   18.57230000
_cell_angle_alpha   89.99920000
_cell_angle_beta   119.99992756
_cell_angle_gamma   120.00135242
_symmetry_Int_Tables_number   1
_chemical_formula_structural   Zn4H24C24N12O13
_chemical_formula_sum   'Zn8 H48 C48 N24 O26'
_cell_volume   4529.98534100
_cell_formula_units_Z   2
loop_
 _symmetry_equiv_pos_site_id
 _symmetry_equiv_pos_as_xyz
  1  'x, y, z'
loop_
 _atom_site_type_symbol
 _atom_site_label
 _atom_site_symmetry_multiplicity
 _atom_site_fract_x
 _atom_site_fract_y
 _atom_site_fract_z
 _atom_site_occupancy
  Zn  Zn0  1  0.58535000  0.95732000  0.54267000  1.0
  Zn  Zn1  1  0.41465000  0.95733000  0.54269000  1.0
  Zn  Zn2  1  0.41468000  0.95735000  0.37200000  1.0
  Zn  Zn3  1  0.58534000  0.12801000  0.54266000  1.0
  Zn  Zn4  1  0.41468000  0.54270000  0.95734000  1.0
  Zn  Zn5  1  0.58535000  0.54269000  0.12801000  1.0
  Zn  Zn6  1  0.58534000  0.54268000  0.95732000  1.0
  Zn  Zn7  1  0.41465000  0.37199000  0.95730000  1.0
  H  H8  1  0.82444000  0.29440000  0.67280000  1.0
  H  H9  1  0.93899000  0.38917000  0.75413000  1.0
  H  H10  1  0.17556000  0.20558000  0.84835000  1.0
  H  H11  1  0.06104000  0.11082000  0.81516000  1.0
  H  H12  1  0.17559000  0.46997000  0.82723000  1.0
  H  H13  1  0.06105000  0.45018000  0.74593000  1.0
  H  H14  1  0.82443000  0.03001000  0.65167000  1.0
  H  H15  1  0.93896000  0.04980000  0.68488000  1.0
  H  H16  1  0.17557000  0.82723000  0.20559000  1.0
  H  H17  1  0.06106000  0.74594000  0.11083000  1.0
  H  H18  1  0.82444000  0.65165000  0.29439000  1.0
  H  H19  1  0.93896000  0.68487000  0.38914000  1.0
  H  H20  1  0.82443000  0.67277000  0.03000000  1.0
  H  H21  1  0.93899000  0.75412000  0.04980000  1.0
  H  H22  1  0.17559000  0.84835000  0.46997000  1.0
  H  H23  1  0.06104000  0.81514000  0.45019000  1.0
  H  H24  1  0.37835000  0.84834000  0.20558000  1.0
  H  H25  1  0.36491000  0.81513000  0.11083000  1.0
  H  H26  1  0.64274000  0.67279000  0.29440000  1.0
  H  H27  1  0.70429000  0.75409000  0.38917000  1.0
  H  H28  1  0.35724000  0.65167000  0.03001000  1.0
  H  H29  1  0.29570000  0.68488000  0.04982000  1.0
  H  H30  1  0.62162000  0.82723000  0.46996000  1.0
  H  H31  1  0.63506000  0.74591000  0.45019000  1.0
  H  H32  1  0.62162000  0.29441000  0.65166000  1.0
  H  H33  1  0.63507000  0.38918000  0.68488000  1.0
  H  H34  1  0.35724000  0.20559000  0.82722000  1.0
  H  H35  1  0.29569000  0.11082000  0.74590000  1.0
  H  H36  1  0.64273000  0.46996000  0.84834000  1.0
  H  H37  1  0.70427000  0.45019000  0.81514000  1.0
  H  H38  1  0.37836000  0.03003000  0.67278000  1.0
  H  H39  1  0.36493000  0.04980000  0.75410000  1.0
  H  H40  1  0.35727000  0.82723000  0.65166000  1.0
  H  H41  1  0.29571000  0.74592000  0.68486000  1.0
  H  H42  1  0.62160000  0.65162000  0.82723000  1.0
  H  H43  1  0.63507000  0.68486000  0.74592000  1.0
  H  H44  1  0.37840000  0.67278000  0.84837000  1.0
  H  H45  1  0.36495000  0.75410000  0.81515000  1.0
  H  H46  1  0.64274000  0.84832000  0.67278000  1.0
  H  H47  1  0.70431000  0.81515000  0.75411000  1.0
  H  H48  1  0.35723000  0.03001000  0.20556000  1.0
  H  H49  1  0.29570000  0.04982000  0.11082000  1.0
  H  H50  1  0.62164000  0.46997000  0.29442000  1.0
  H  H51  1  0.63506000  0.45018000  0.38917000  1.0
  H  H52  1  0.37837000  0.20559000  0.03002000  1.0
  H  H53  1  0.36491000  0.11083000  0.04980000  1.0
  H  H54  1  0.64275000  0.29438000  0.46998000  1.0
  H  H55  1  0.70426000  0.38915000  0.45018000  1.0
  C  C56  1  0.50002000  0.86086000  0.63915000  1.0
  C  C57  1  0.22170000  0.86084000  0.36084000  1.0
  C  C58  1  0.49999000  0.86084000  0.36085000  1.0
  C  C59  1  0.49998000  0.13912000  0.36083000  1.0
  C  C60  1  0.77829000  0.13913000  0.63916000  1.0
  C  C61  1  0.50000000  0.13915000  0.63914000  1.0
  C  C62  1  0.50001000  0.63915000  0.13914000  1.0
  C  C63  1  0.77829000  0.63916000  0.13912000  1.0
  C  C64  1  0.50002000  0.63916000  0.86087000  1.0
  C  C65  1  0.49999000  0.36084000  0.86086000  1.0
  C  C66  1  0.22173000  0.36085000  0.86086000  1.0
  C  C67  1  0.49999000  0.36085000  0.13914000  1.0
  C  C68  1  0.89056000  0.19526000  0.69530000  1.0
  C  C69  1  0.10946000  0.30473000  0.80473000  1.0
  C  C70  1  0.94617000  0.28914000  0.72451000  1.0
  C  C71  1  0.05383000  0.21083000  0.77834000  1.0
  C  C72  1  0.05387000  0.34300000  0.77552000  1.0
  C  C73  1  0.94615000  0.15698000  0.72166000  1.0
  C  C74  1  0.10945000  0.80472000  0.30470000  1.0
  C  C75  1  0.89056000  0.69530000  0.19528000  1.0
  C  C76  1  0.05387000  0.77553000  0.21084000  1.0
  C  C77  1  0.94616000  0.72168000  0.28915000  1.0
  C  C78  1  0.94618000  0.72452000  0.15701000  1.0
  C  C79  1  0.05384000  0.77834000  0.34298000  1.0
  C  C80  1  0.50000000  0.80471000  0.30473000  1.0
  C  C81  1  0.50000000  0.69530000  0.19527000  1.0
  C  C82  1  0.43532000  0.77833000  0.21084000  1.0
  C  C83  1  0.56748000  0.72450000  0.28914000  1.0
  C  C84  1  0.43250000  0.72168000  0.15702000  1.0
  C  C85  1  0.56466000  0.77551000  0.34300000  1.0
  C  C86  1  0.49998000  0.19528000  0.69528000  1.0
  C  C87  1  0.49998000  0.30471000  0.80470000  1.0
  C  C88  1  0.56464000  0.28915000  0.72166000  1.0
  C  C89  1  0.43251000  0.21083000  0.77550000  1.0
  C  C90  1  0.56749000  0.34300000  0.77834000  1.0
  C  C91  1  0.43533000  0.15699000  0.72449000  1.0
  C  C92  1  0.50003000  0.80474000  0.69529000  1.0
  C  C93  1  0.50000000  0.69527000  0.80474000  1.0
  C  C94  1  0.43252000  0.77552000  0.72166000  1.0
  C  C95  1  0.56467000  0.72167000  0.77551000  1.0
  C  C96  1  0.43535000  0.72451000  0.77834000  1.0
  C  C97  1  0.56751000  0.77835000  0.72451000  1.0
  C  C98  1  0.49997000  0.19526000  0.30470000  1.0
  C  C99  1  0.49999000  0.30471000  0.19528000  1.0
  C  C100  1  0.43249000  0.15700000  0.21083000  1.0
  C  C101  1  0.56464000  0.34299000  0.28915000  1.0
  C  C102  1  0.43533000  0.21085000  0.15700000  1.0
  C  C103  1  0.56746000  0.28914000  0.34297000  1.0
  N  N104  1  0.90104000  0.33446000  0.70334000  1.0
  N  N105  1  0.09896000  0.16551000  0.80229000  1.0
  N  N106  1  0.09900000  0.43342000  0.79668000  1.0
  N  N107  1  0.90102000  0.06656000  0.69770000  1.0
  N  N108  1  0.09898000  0.79668000  0.16553000  1.0
  N  N109  1  0.90102000  0.69770000  0.33444000  1.0
  N  N110  1  0.90104000  0.70334000  0.06657000  1.0
  N  N111  1  0.09899000  0.80230000  0.43343000  1.0
  N  N112  1  0.36885000  0.80231000  0.16554000  1.0
  N  N113  1  0.63674000  0.70333000  0.33444000  1.0
  N  N114  1  0.36322000  0.69770000  0.06656000  1.0
  N  N115  1  0.63111000  0.79666000  0.43342000  1.0
  N  N116  1  0.63112000  0.33446000  0.69769000  1.0
  N  N117  1  0.36322000  0.16552000  0.79667000  1.0
  N  N118  1  0.63675000  0.43342000  0.80231000  1.0
  N  N119  1  0.36887000  0.06656000  0.70333000  1.0
  N  N120  1  0.36325000  0.79668000  0.69770000  1.0
  N  N121  1  0.63113000  0.69769000  0.79669000  1.0
  N  N122  1  0.36889000  0.70333000  0.80232000  1.0
  N  N123  1  0.63677000  0.80230000  0.70333000  1.0
  N  N124  1  0.36322000  0.06657000  0.16552000  1.0
  N  N125  1  0.63111000  0.43343000  0.33446000  1.0
  N  N126  1  0.36886000  0.16555000  0.06655000  1.0
  N  N127  1  0.63675000  0.33442000  0.43342000  1.0
  O  O128  1  0.49999000  0.99998000  0.50002000  1.0
  O  O129  1  0.55805000  0.88203000  0.61266000  1.0
  O  O130  1  0.26942000  0.88206000  0.44539000  1.0
  O  O131  1  0.43667000  0.88206000  0.32404000  1.0
  O  O132  1  0.44199000  0.88734000  0.61796000  1.0
  O  O133  1  0.56335000  0.88736000  0.44538000  1.0
  O  O134  1  0.26940000  0.88736000  0.32400000  1.0
  O  O135  1  0.44191000  0.05457000  0.32394000  1.0
  O  O136  1  0.73061000  0.17600000  0.61268000  1.0
  O  O137  1  0.55804000  0.17599000  0.44538000  1.0
  O  O138  1  0.73064000  0.05459000  0.61799000  1.0
  O  O139  1  0.43666000  0.05463000  0.61263000  1.0
  O  O140  1  0.56332000  0.17600000  0.61793000  1.0
  O  O141  1  0.50001000  0.50001000  0.99999000  1.0
  O  O142  1  0.44196000  0.61798000  0.05460000  1.0
  O  O143  1  0.73062000  0.61796000  0.17601000  1.0
  O  O144  1  0.56338000  0.61797000  0.88735000  1.0
  O  O145  1  0.55810000  0.61271000  0.17602000  1.0
  O  O146  1  0.43665000  0.61266000  0.88206000  1.0
  O  O147  1  0.73061000  0.61266000  0.05457000  1.0
  O  O148  1  0.55801000  0.44538000  0.88204000  1.0
  O  O149  1  0.26937000  0.32394000  0.88203000  1.0
  O  O150  1  0.44192000  0.32397000  0.88733000  1.0
  O  O151  1  0.26940000  0.44539000  0.88735000  1.0
  O  O152  1  0.56332000  0.44539000  0.17597000  1.0
  O  O153  1  0.43666000  0.32401000  0.05460000  1.0
