# generated using pymatgen
data_Cu3H18C16Br4(NO2)2
_symmetry_space_group_name_H-M   'P 1'
_cell_length_a   7.79487000
_cell_length_b   8.62087000
_cell_length_c   9.05242000
_cell_angle_alpha   82.37640000
_cell_angle_beta   81.42780000
_cell_angle_gamma   66.71860000
_symmetry_Int_Tables_number   1
_chemical_formula_structural   Cu3H18C16Br4(NO2)2
_chemical_formula_sum   'Cu3 H18 C16 Br4 N2 O4'
_cell_volume   550.71126141
_cell_formula_units_Z   1
loop_
 _symmetry_equiv_pos_site_id
 _symmetry_equiv_pos_as_xyz
  1  'x, y, z'
loop_
 _atom_site_type_symbol
 _atom_site_label
 _atom_site_symmetry_multiplicity
 _atom_site_fract_x
 _atom_site_fract_y
 _atom_site_fract_z
 _atom_site_occupancy
  Cu  Cu0  1  0.09396000  0.48456000  0.87241000  1.0
  Cu  Cu1  1  0.90892000  0.51436000  0.12444000  1.0
  Cu  Cu2  1  0.99843000  0.49998000  0.50008000  1.0
  H  H3  1  0.64406000  0.27692000  0.85228000  1.0
  H  H4  1  0.35616000  0.72233000  0.14847000  1.0
  H  H5  1  0.51751000  0.14249000  0.90790000  1.0
  H  H6  1  0.48265000  0.85686000  0.09300000  1.0
  H  H7  1  0.73446000  0.09629000  0.98143000  1.0
  H  H8  1  0.26505000  0.90378000  0.02025000  1.0
  H  H9  1  0.93956000  0.22977000  0.71066000  1.0
  H  H10  1  0.06135000  0.76894000  0.29082000  1.0
  H  H11  1  0.08782000  0.91211000  0.73811000  1.0
  H  H12  1  0.91373000  0.08669000  0.26203000  1.0
  H  H13  1  0.34226000  0.76179000  0.54160000  1.0
  H  H14  1  0.65833000  0.23815000  0.45748000  1.0
  H  H15  1  0.44388000  0.93592000  0.32876000  1.0
  H  H16  1  0.55512000  0.06539000  0.67040000  1.0
  H  H17  1  0.37147000  0.41327000  0.03668000  1.0
  H  H18  1  0.62726000  0.58674000  0.96296000  1.0
  H  H19  1  0.58469000  0.36189000  0.11845000  1.0
  H  H20  1  0.41369000  0.63975000  0.88125000  1.0
  C  C21  1  0.05042000  0.15910000  0.62818000  1.0
  C  C22  1  0.95008000  0.84021000  0.37274000  1.0
  C  C23  1  0.13457000  0.98264000  0.64274000  1.0
  C  C24  1  0.86622000  0.01665000  0.35742000  1.0
  C  C25  1  0.27618000  0.89983000  0.53388000  1.0
  C  C26  1  0.72413000  0.10011000  0.46571000  1.0
  C  C27  1  0.33176000  0.99602000  0.41475000  1.0
  C  C28  1  0.66775000  0.00462000  0.58501000  1.0
  C  C29  1  0.24318000  0.17198000  0.40838000  1.0
  C  C30  1  0.75626000  0.82864000  0.59222000  1.0
  C  C31  1  0.29736000  0.28668000  0.28987000  1.0
  C  C32  1  0.70150000  0.71423000  0.71073000  1.0
  C  C33  1  0.49918000  0.30893000  0.07143000  1.0
  C  C34  1  0.49972000  0.69174000  0.92882000  1.0
  C  C35  1  0.60587000  0.19815000  0.94643000  1.0
  C  C36  1  0.39384000  0.80163000  0.05453000  1.0
  Br  Br37  1  0.29302000  0.47013000  0.65062000  1.0
  Br  Br38  1  0.71077000  0.52925000  0.34736000  1.0
  Br  Br39  1  0.04329000  0.24712000  0.01171000  1.0
  Br  Br40  1  0.95757000  0.75242000  0.98584000  1.0
  N  N41  1  0.10346000  0.25181000  0.51336000  1.0
  N  N42  1  0.89633000  0.74817000  0.48777000  1.0
  O  O43  1  0.21582000  0.44270000  0.28424000  1.0
  O  O44  1  0.78208000  0.55815000  0.71593000  1.0
  O  O45  1  0.44098000  0.20411000  0.19347000  1.0
  O  O46  1  0.55830000  0.79697000  0.80739000  1.0
