# generated using pymatgen
data_H8PbC14(NO)4
_symmetry_space_group_name_H-M   'P 1'
_cell_length_a   4.54764000
_cell_length_b   7.98451000
_cell_length_c   19.52433528
_cell_angle_alpha   92.15476845
_cell_angle_beta   96.66804040
_cell_angle_gamma   106.48840000
_symmetry_Int_Tables_number   1
_chemical_formula_structural   H8PbC14(NO)4
_chemical_formula_sum   'H16 Pb2 C28 N8 O8'
_cell_volume   673.33446070
_cell_formula_units_Z   2
loop_
 _symmetry_equiv_pos_site_id
 _symmetry_equiv_pos_as_xyz
  1  'x, y, z'
loop_
 _atom_site_type_symbol
 _atom_site_label
 _atom_site_symmetry_multiplicity
 _atom_site_fract_x
 _atom_site_fract_y
 _atom_site_fract_z
 _atom_site_occupancy
  H  H0  1  0.28040000  0.45285000  0.59802000  1.0
  H  H1  1  0.72862000  0.04731000  0.90248000  1.0
  H  H2  1  0.71960000  0.54715000  0.40198000  1.0
  H  H3  1  0.27138000  0.95269000  0.09752000  1.0
  H  H4  1  0.60033000  0.35855000  0.73226000  1.0
  H  H5  1  0.01040000  0.14236000  0.76785000  1.0
  H  H6  1  0.39967000  0.64145000  0.26774000  1.0
  H  H7  1  0.98960000  0.85764000  0.23215000  1.0
  H  H8  1  0.93647000  0.68717000  0.51852000  1.0
  H  H9  1  0.23110000  0.81277000  0.98161000  1.0
  H  H10  1  0.06352000  0.31283000  0.48148000  1.0
  H  H11  1  0.76889000  0.18723000  0.01839000  1.0
  H  H12  1  0.47369000  0.06704000  0.64026000  1.0
  H  H13  1  0.26916000  0.43469000  0.85941000  1.0
  H  H14  1  0.52631000  0.93296000  0.35974000  1.0
  H  H15  1  0.73084000  0.56530000  0.14059000  1.0
  Pb  Pb16  1  0.32683000  0.75062000  0.75006000  1.0
  Pb  Pb17  1  0.67321000  0.24938000  0.24995000  1.0
  C  C18  1  0.07759000  0.39004000  0.62191000  1.0
  C  C19  1  0.56521000  0.11027000  0.87841000  1.0
  C  C20  1  0.92241000  0.60996000  0.37809000  1.0
  C  C21  1  0.43478000  0.88973000  0.12159000  1.0
  C  C22  1  0.80143000  0.84976000  0.62717000  1.0
  C  C23  1  0.82483000  0.65075000  0.87288000  1.0
  C  C24  1  0.19857000  0.15024000  0.37283000  1.0
  C  C25  1  0.17519000  0.34925000  0.12712000  1.0
  C  C26  1  0.89634000  0.93008000  0.56126000  1.0
  C  C27  1  0.90569000  0.57021000  0.93872000  1.0
  C  C28  1  0.10366000  0.06992000  0.43875000  1.0
  C  C29  1  0.09431000  0.42979000  0.06128000  1.0
  C  C30  1  0.72342000  0.33475000  0.69042000  1.0
  C  C31  1  0.19878000  0.16604000  0.80976000  1.0
  C  C32  1  0.27658000  0.66525000  0.30958000  1.0
  C  C33  1  0.80122000  0.83396000  0.19024000  1.0
  C  C34  1  0.93933000  0.10828000  0.55096000  1.0
  C  C35  1  0.78074000  0.39210000  0.94903000  1.0
  C  C36  1  0.06067000  0.89172000  0.44904000  1.0
  C  C37  1  0.21925000  0.60790000  0.05097000  1.0
  C  C38  1  0.95837000  0.82394000  0.50978000  1.0
  C  C39  1  0.12461000  0.67606000  0.99028000  1.0
  C  C40  1  0.04162000  0.17606000  0.49022000  1.0
  C  C41  1  0.87538000  0.32394000  0.00972000  1.0
  C  C42  1  0.66124000  0.18796000  0.64604000  1.0
  C  C43  1  0.32864000  0.31317000  0.85387000  1.0
  C  C44  1  0.33875000  0.81205000  0.35396000  1.0
  C  C45  1  0.67136000  0.68683000  0.14613000  1.0
  N  N46  1  0.98319000  0.45932000  0.67498000  1.0
  N  N47  1  0.34821000  0.04090000  0.82544000  1.0
  N  N48  1  0.01682000  0.54068000  0.32502000  1.0
  N  N49  1  0.65178000  0.95909000  0.17455000  1.0
  N  N50  1  0.88914000  0.22386000  0.60253000  1.0
  N  N51  1  0.56340000  0.27687000  0.89749000  1.0
  N  N52  1  0.11086000  0.77614000  0.39747000  1.0
  N  N53  1  0.43659000  0.72312000  0.10251000  1.0
  O  O54  1  0.99782000  0.90138000  0.68173000  1.0
  O  O55  1  0.91554000  0.59992000  0.81821000  1.0
  O  O56  1  0.00218000  0.09861000  0.31827000  1.0
  O  O57  1  0.08450000  0.40009000  0.18179000  1.0
  O  O58  1  0.53765000  0.74100000  0.62360000  1.0
  O  O59  1  0.67190000  0.75892000  0.87662000  1.0
  O  O60  1  0.46234000  0.25900000  0.37640000  1.0
  O  O61  1  0.32809000  0.24108000  0.12337000  1.0
