# generated using pymatgen
data_NaH4C3(NO)3
_symmetry_space_group_name_H-M   'P 1'
_cell_length_a   6.88916000
_cell_length_b   9.35467000
_cell_length_c   9.35445000
_cell_angle_alpha   112.63900000
_cell_angle_beta   96.05800000
_cell_angle_gamma   96.05760000
_symmetry_Int_Tables_number   1
_chemical_formula_structural   NaH4C3(NO)3
_chemical_formula_sum   'Na4 H16 C12 N12 O12'
_cell_volume   546.23675988
_cell_formula_units_Z   4
loop_
 _symmetry_equiv_pos_site_id
 _symmetry_equiv_pos_as_xyz
  1  'x, y, z'
loop_
 _atom_site_type_symbol
 _atom_site_label
 _atom_site_symmetry_multiplicity
 _atom_site_fract_x
 _atom_site_fract_y
 _atom_site_fract_z
 _atom_site_occupancy
  Na  Na0  1  0.48458000  0.56399000  0.18789000  1.0
  Na  Na1  1  0.01543000  0.81212000  0.43603000  1.0
  Na  Na2  1  0.51543000  0.43602000  0.81211000  1.0
  Na  Na3  1  0.98457000  0.18788000  0.56398000  1.0
  H  H4  1  0.16510000  0.55652000  0.93370000  1.0
  H  H5  1  0.33490000  0.06629000  0.44347000  1.0
  H  H6  1  0.83491000  0.44348000  0.06630000  1.0
  H  H7  1  0.66510000  0.93371000  0.55654000  1.0
  H  H8  1  0.15042000  0.38382000  0.92441000  1.0
  H  H9  1  0.34960000  0.07559000  0.61618000  1.0
  H  H10  1  0.84960000  0.61618000  0.07560000  1.0
  H  H11  1  0.65041000  0.92442000  0.38383000  1.0
  H  H12  1  0.17129000  0.52245000  0.34820000  1.0
  H  H13  1  0.32873000  0.65180000  0.47757000  1.0
  H  H14  1  0.82872000  0.47755000  0.65181000  1.0
  H  H15  1  0.67128000  0.34820000  0.52244000  1.0
  H  H16  1  0.79970000  0.49942000  0.37367000  1.0
  H  H17  1  0.70030000  0.62633000  0.50060000  1.0
  H  H18  1  0.20030000  0.50058000  0.62634000  1.0
  H  H19  1  0.29970000  0.37367000  0.49940000  1.0
  C  C20  1  0.50755000  0.89075000  0.08691000  1.0
  C  C21  1  0.99245000  0.91306000  0.10924000  1.0
  C  C22  1  0.49237000  0.10924000  0.91307000  1.0
  C  C23  1  0.00755000  0.08694000  0.89074000  1.0
  C  C24  1  0.46997000  0.05301000  0.15546000  1.0
  C  C25  1  0.02998000  0.84454000  0.94699000  1.0
  C  C26  1  0.53003000  0.94699000  0.84453000  1.0
  C  C27  1  0.96998000  0.15545000  0.05300000  1.0
  C  C28  1  0.46669000  0.15581000  0.07802000  1.0
  C  C29  1  0.03336000  0.92200000  0.84421000  1.0
  C  C30  1  0.53333000  0.84420000  0.92198000  1.0
  C  C31  1  0.96662000  0.07801000  0.15579000  1.0
  N  N32  1  0.43114000  0.29469000  0.18114000  1.0
  N  N33  1  0.06889000  0.81889000  0.70535000  1.0
  N  N34  1  0.56884000  0.70532000  0.81886000  1.0
  N  N35  1  0.93112000  0.18113000  0.29466000  1.0
  N  N36  1  0.41236000  0.27736000  0.31525000  1.0
  N  N37  1  0.08767000  0.68477000  0.72272000  1.0
  N  N38  1  0.58768000  0.72265000  0.68477000  1.0
  N  N39  1  0.91233000  0.31524000  0.27732000  1.0
  N  N40  1  0.43432000  0.13154000  0.30214000  1.0
  N  N41  1  0.06565000  0.69789000  0.86851000  1.0
  N  N42  1  0.56564000  0.86846000  0.69785000  1.0
  N  N43  1  0.93434000  0.30213000  0.13152000  1.0
  O  O44  1  0.52103000  0.80783000  0.16311000  1.0
  O  O45  1  0.97898000  0.83685000  0.19214000  1.0
  O  O46  1  0.47900000  0.19216000  0.83689000  1.0
  O  O47  1  0.02102000  0.16309000  0.80778000  1.0
  O  O48  1  0.24120000  0.48337000  0.96126000  1.0
  O  O49  1  0.25880000  0.03875000  0.51662000  1.0
  O  O50  1  0.75881000  0.51663000  0.03875000  1.0
  O  O51  1  0.74121000  0.96125000  0.48338000  1.0
  O  O52  1  0.24999000  0.62517000  0.37480000  1.0
  O  O53  1  0.75002000  0.37483000  0.62520000  1.0
  O  O54  1  0.75001000  0.60061000  0.39941000  1.0
  O  O55  1  0.25000000  0.39939000  0.60059000  1.0
