# generated using pymatgen
data_P4H18Pb5(C7O5)4
_symmetry_space_group_name_H-M   'P 1'
_cell_length_a   9.83319000
_cell_length_b   9.91764000
_cell_length_c   10.29330000
_cell_angle_alpha   92.63910000
_cell_angle_beta   91.57260000
_cell_angle_gamma   118.46600000
_symmetry_Int_Tables_number   1
_chemical_formula_structural   P4H18Pb5(C7O5)4
_chemical_formula_sum   'P4 H18 Pb5 C28 O20'
_cell_volume   880.13015378
_cell_formula_units_Z   1
loop_
 _symmetry_equiv_pos_site_id
 _symmetry_equiv_pos_as_xyz
  1  'x, y, z'
loop_
 _atom_site_type_symbol
 _atom_site_label
 _atom_site_symmetry_multiplicity
 _atom_site_fract_x
 _atom_site_fract_y
 _atom_site_fract_z
 _atom_site_occupancy
  P  P0  1  0.87425000  0.68685000  0.43944000  1.0
  P  P1  1  0.07742000  0.27868000  0.52920000  1.0
  P  P2  1  0.45496000  0.81375000  0.35429000  1.0
  P  P3  1  0.50603000  0.09715000  0.66591000  1.0
  H  H4  1  0.02109000  0.91650000  0.85961000  1.0
  H  H5  1  0.03037000  0.55607000  0.27794000  1.0
  H  H6  1  0.08995000  0.57451000  0.04304000  1.0
  H  H7  1  0.85465000  0.84113000  0.99211000  1.0
  H  H8  1  0.79212000  0.82024000  0.22417000  1.0
  H  H9  1  0.23539000  0.17202000  0.71757000  1.0
  H  H10  1  0.21034000  0.13810000  0.95620000  1.0
  H  H11  1  0.90442000  0.34177000  0.72453000  1.0
  H  H12  1  0.86768000  0.29535000  0.95232000  1.0
  H  H13  1  0.27501000  0.53379000  0.18598000  1.0
  H  H14  1  0.28194000  0.47359000  0.94797000  1.0
  H  H15  1  0.67820000  0.91603000  0.92139000  1.0
  H  H16  1  0.66527000  0.98177000  0.15604000  1.0
  H  H17  1  0.39941000  0.94528000  0.90372000  1.0
  H  H18  1  0.40283000  0.03768000  0.13283000  1.0
  H  H19  1  0.62388000  0.50459000  0.02195000  1.0
  H  H20  1  0.63326000  0.41415000  0.79459000  1.0
  H  H21  1  0.91395000  0.30273000  0.12110000  1.0
  Pb  Pb22  1  0.50537000  0.49665000  0.50320000  1.0
  Pb  Pb23  1  0.22743000  0.03928000  0.39666000  1.0
  Pb  Pb24  1  0.21717000  0.69083000  0.58913000  1.0
  Pb  Pb25  1  0.73610000  0.93574000  0.59209000  1.0
  Pb  Pb26  1  0.76139000  0.26512000  0.41022000  1.0
  C  C27  1  0.90583000  0.68671000  0.26605000  1.0
  C  C28  1  0.98837000  0.61530000  0.21449000  1.0
  C  C29  1  0.02286000  0.62553000  0.08415000  1.0
  C  C30  1  0.97918000  0.71061000  0.00370000  1.0
  C  C31  1  0.89587000  0.78061000  0.05450000  1.0
  C  C32  1  0.85852000  0.76764000  0.18453000  1.0
  C  C33  1  0.02647000  0.72414000  0.86755000  1.0
  C  C34  1  0.07172000  0.25973000  0.70469000  1.0
  C  C35  1  0.15574000  0.19934000  0.77014000  1.0
  C  C36  1  0.13970000  0.17713000  0.90269000  1.0
  C  C37  1  0.03745000  0.21183000  0.97160000  1.0
  C  C38  1  0.95138000  0.26903000  0.90504000  1.0
  C  C39  1  0.97026000  0.29491000  0.77354000  1.0
  C  C40  1  0.03277000  0.19453000  0.11413000  1.0
  C  C41  1  0.46743000  0.76320000  0.18563000  1.0
  C  C42  1  0.36046000  0.61915000  0.12687000  1.0
  C  C43  1  0.36528000  0.58426000  0.99506000  1.0
  C  C44  1  0.48108000  0.68984000  0.92088000  1.0
  C  C45  1  0.58965000  0.83275000  0.97977000  1.0
  C  C46  1  0.58157000  0.86987000  0.11052000  1.0
  C  C47  1  0.49058000  0.64736000  0.78106000  1.0
  C  C48  1  0.51396000  0.17216000  0.83277000  1.0
  C  C49  1  0.44871000  0.06789000  0.92952000  1.0
  C  C50  1  0.45021000  0.11974000  0.05801000  1.0
  C  C51  1  0.51198000  0.27731000  0.09191000  1.0
  C  C52  1  0.57625000  0.38232000  0.99527000  1.0
  C  C53  1  0.57951000  0.33052000  0.86756000  1.0
  C  C54  1  0.50675000  0.33116000  0.22947000  1.0
  O  O55  1  0.03455000  0.79707000  0.50558000  1.0
  O  O56  1  0.75540000  0.74570000  0.45676000  1.0
  O  O57  1  0.80566000  0.52149000  0.48151000  1.0
  O  O58  1  0.06179000  0.63313000  0.81240000  1.0
  O  O59  1  0.03474000  0.84232000  0.80255000  1.0
  O  O60  1  0.93434000  0.13036000  0.47121000  1.0
  O  O61  1  0.05199000  0.41701000  0.50131000  1.0
  O  O62  1  0.22812000  0.28896000  0.48233000  1.0
  O  O63  1  0.95020000  0.25106000  0.18088000  1.0
  O  O64  1  0.09824000  0.13574000  0.17293000  1.0
  O  O65  1  0.61362000  0.95286000  0.39761000  1.0
  O  O66  1  0.41844000  0.67480000  0.43758000  1.0
  O  O67  1  0.31868000  0.84843000  0.36306000  1.0
  O  O68  1  0.62492000  0.69186000  0.73815000  1.0
  O  O69  1  0.36477000  0.56617000  0.71202000  1.0
  O  O70  1  0.37765000  0.11436000  0.59211000  1.0
  O  O71  1  0.66888000  0.19753000  0.61410000  1.0
  O  O72  1  0.47277000  0.92937000  0.67307000  1.0
  O  O73  1  0.48929000  0.23735000  0.31971000  1.0
  O  O74  1  0.52094000  0.46298000  0.25318000  1.0
