# generated using pymatgen
data_FeAg2H12C28(N2O)4
_symmetry_space_group_name_H-M   'P 1'
_cell_length_a   11.33610000
_cell_length_b   11.41760000
_cell_length_c   16.51980000
_cell_angle_alpha   89.94170000
_cell_angle_beta   89.98020000
_cell_angle_gamma   60.32100000
_symmetry_Int_Tables_number   1
_chemical_formula_structural   FeAg2H12C28(N2O)4
_chemical_formula_sum   'Fe2 Ag4 H24 C56 N16 O8'
_cell_volume   1857.67348208
_cell_formula_units_Z   2
loop_
 _symmetry_equiv_pos_site_id
 _symmetry_equiv_pos_as_xyz
  1  'x, y, z'
loop_
 _atom_site_type_symbol
 _atom_site_label
 _atom_site_symmetry_multiplicity
 _atom_site_fract_x
 _atom_site_fract_y
 _atom_site_fract_z
 _atom_site_occupancy
  Fe  Fe0  1  0.00000000  0.00000000  0.00000000  1.0
  Fe  Fe1  1  0.50000000  0.00000000  0.50000000  1.0
  Ag  Ag2  1  0.84196000  0.00008000  0.30054000  1.0
  Ag  Ag3  1  0.65886000  0.00025000  0.80036000  1.0
  Ag  Ag4  1  0.34113000  0.99976000  0.19964000  1.0
  Ag  Ag5  1  0.15804000  0.99992000  0.69946000  1.0
  H  H6  1  0.95391000  0.76989000  0.05948000  1.0
  H  H7  1  0.54640000  0.23065000  0.55895000  1.0
  H  H8  1  0.22440000  0.22979000  0.44067000  1.0
  H  H9  1  0.27657000  0.77044000  0.94152000  1.0
  H  H10  1  0.04609000  0.23011000  0.94052000  1.0
  H  H11  1  0.45360000  0.76935000  0.44105000  1.0
  H  H12  1  0.77560000  0.77021000  0.55933000  1.0
  H  H13  1  0.72343000  0.22956000  0.05848000  1.0
  H  H14  1  0.07187000  0.51870000  0.06188000  1.0
  H  H15  1  0.42769000  0.48188000  0.56198000  1.0
  H  H16  1  0.09081000  0.48102000  0.43819000  1.0
  H  H17  1  0.40885000  0.51935000  0.93799000  1.0
  H  H18  1  0.92813000  0.48130000  0.93812000  1.0
  H  H19  1  0.57231000  0.51812000  0.43802000  1.0
  H  H20  1  0.90919000  0.51898000  0.56181000  1.0
  H  H21  1  0.59115000  0.48065000  0.06201000  1.0
  H  H22  1  0.25305000  0.12654000  0.83936000  1.0
  H  H23  1  0.24670000  0.87348000  0.33936000  1.0
  H  H24  1  0.87972000  0.87313000  0.66070000  1.0
  H  H25  1  0.62035000  0.12663000  0.16063000  1.0
  H  H26  1  0.74695000  0.87346000  0.16064000  1.0
  H  H27  1  0.75330000  0.12652000  0.66064000  1.0
  H  H28  1  0.12027000  0.12687000  0.33930000  1.0
  H  H29  1  0.37965000  0.87337000  0.83937000  1.0
  C  C30  1  0.05470000  0.71052000  0.03320000  1.0
  C  C31  1  0.44542000  0.29000000  0.53286000  1.0
  C  C32  1  0.26550000  0.28953000  0.46698000  1.0
  C  C33  1  0.23502000  0.71080000  0.96747000  1.0
  C  C34  1  0.94530000  0.28948000  0.96680000  1.0
  C  C35  1  0.55458000  0.71000000  0.46714000  1.0
  C  C36  1  0.73450000  0.71047000  0.53302000  1.0
  C  C37  1  0.76498000  0.28921000  0.03253000  1.0
  C  C38  1  0.12094000  0.57033000  0.03441000  1.0
  C  C39  1  0.37879000  0.43016000  0.53450000  1.0
  C  C40  1  0.19138000  0.42969000  0.46562000  1.0
  C  C41  1  0.30847000  0.57065000  0.96564000  1.0
  C  C42  1  0.87906000  0.42967000  0.96560000  1.0
  C  C43  1  0.62121000  0.56984000  0.46550000  1.0
  C  C44  1  0.80862000  0.57031000  0.53438000  1.0
  C  C45  1  0.69153000  0.42935000  0.03436000  1.0
  C  C46  1  0.24982000  0.50013000  0.99997000  1.0
  C  C47  1  0.24984000  0.50014000  0.50013000  1.0
  C  C48  1  0.75018000  0.49987000  0.00003000  1.0
  C  C49  1  0.75017000  0.49986000  0.49987000  1.0
  C  C50  1  0.28073000  0.29023000  0.94319000  1.0
  C  C51  1  0.21898000  0.70991000  0.44324000  1.0
  C  C52  1  0.07088000  0.70974000  0.55689000  1.0
  C  C53  1  0.42889000  0.29031000  0.05677000  1.0
  C  C54  1  0.71927000  0.70977000  0.05681000  1.0
  C  C55  1  0.78103000  0.29009000  0.55676000  1.0
  C  C56  1  0.92911000  0.29026000  0.44311000  1.0
  C  C57  1  0.57111000  0.70969000  0.94323000  1.0
  C  C58  1  0.36081000  0.14173000  0.94174000  1.0
  C  C59  1  0.13897000  0.85837000  0.44174000  1.0
  C  C60  1  0.00251000  0.85821000  0.55832000  1.0
  C  C61  1  0.49735000  0.14179000  0.05828000  1.0
  C  C62  1  0.63919000  0.85827000  0.05826000  1.0
  C  C63  1  0.86103000  0.14163000  0.55826000  1.0
  C  C64  1  0.99749000  0.14179000  0.44168000  1.0
  C  C65  1  0.50265000  0.85821000  0.94172000  1.0
  C  C66  1  0.33233000  0.07052000  0.88388000  1.0
  C  C67  1  0.16748000  0.92959000  0.38384000  1.0
  C  C68  1  0.90295000  0.92929000  0.61617000  1.0
  C  C69  1  0.59711000  0.07059000  0.11610000  1.0
  C  C70  1  0.66767000  0.92948000  0.11612000  1.0
  C  C71  1  0.83252000  0.07041000  0.61616000  1.0
  C  C72  1  0.09705000  0.07071000  0.38383000  1.0
  C  C73  1  0.40288000  0.92941000  0.88390000  1.0
  C  C74  1  0.46404000  0.07186000  0.00000000  1.0
  C  C75  1  0.03587000  0.92816000  0.50002000  1.0
  C  C76  1  0.53596000  0.92814000  0.00000000  1.0
  C  C77  1  0.96413000  0.07184000  0.49998000  1.0
  C  C78  1  0.91503000  0.99968000  0.18872000  1.0
  C  C79  1  0.58616000  0.00021000  0.68859000  1.0
  C  C80  1  0.41383000  0.99979000  0.31141000  1.0
  C  C81  1  0.08497000  0.00032000  0.81128000  1.0
  C  C82  1  0.74329000  0.00094000  0.40272000  1.0
  C  C83  1  0.75642000  0.99993000  0.90275000  1.0
  C  C84  1  0.24358000  0.00007000  0.09725000  1.0
  C  C85  1  0.25671000  0.99905000  0.59728000  1.0
  N  N86  1  0.11058000  0.77964000  0.00052000  1.0
  N  N87  1  0.39005000  0.22077000  0.49987000  1.0
  N  N88  1  0.88942000  0.22036000  0.99948000  1.0
  N  N89  1  0.60995000  0.77923000  0.50013000  1.0
  N  N90  1  0.32246000  0.35489000  0.00000000  1.0
  N  N91  1  0.17717000  0.64531000  0.50010000  1.0
  N  N92  1  0.67754000  0.64511000  1.00000000  1.0
  N  N93  1  0.82284000  0.35469000  0.49990000  1.0
  N  N94  1  0.94328000  0.99999000  0.12058000  1.0
  N  N95  1  0.55668000  0.00031000  0.62071000  1.0
  N  N96  1  0.44332000  0.99969000  0.37929000  1.0
  N  N97  1  0.05672000  0.00001000  0.87942000  1.0
  N  N98  1  0.67388000  0.00086000  0.45530000  1.0
  N  N99  1  0.82647000  0.99967000  0.95496000  1.0
  N  N100  1  0.17353000  0.00033000  0.04504000  1.0
  N  N101  1  0.32612000  0.99914000  0.54470000  1.0
  O  O102  1  0.18302000  0.35716000  0.89843000  1.0
  O  O103  1  0.31665000  0.64302000  0.39850000  1.0
  O  O104  1  0.04015000  0.64265000  0.60169000  1.0
  O  O105  1  0.45976000  0.35731000  0.10146000  1.0
  O  O106  1  0.81698000  0.64284000  0.10157000  1.0
  O  O107  1  0.68335000  0.35698000  0.60150000  1.0
  O  O108  1  0.95984000  0.35735000  0.39831000  1.0
  O  O109  1  0.54025000  0.64269000  0.89854000  1.0
