# generated using pymatgen
data_AgH9C16S3N2(OF)3
_symmetry_space_group_name_H-M   'P 1'
_cell_length_a   9.23322000
_cell_length_b   13.56420000
_cell_length_c   17.82140000
_cell_angle_alpha   82.42650000
_cell_angle_beta   77.42670000
_cell_angle_gamma   72.30030000
_symmetry_Int_Tables_number   1
_chemical_formula_structural   AgH9C16S3N2(OF)3
_chemical_formula_sum   'Ag4 H36 C64 S12 N8 O12 F12'
_cell_volume   2070.15301961
_cell_formula_units_Z   4
loop_
 _symmetry_equiv_pos_site_id
 _symmetry_equiv_pos_as_xyz
  1  'x, y, z'
loop_
 _atom_site_type_symbol
 _atom_site_label
 _atom_site_symmetry_multiplicity
 _atom_site_fract_x
 _atom_site_fract_y
 _atom_site_fract_z
 _atom_site_occupancy
  Ag  Ag0  1  0.83412000  0.39423000  0.11705000  1.0
  Ag  Ag1  1  0.16589000  0.60577000  0.88295000  1.0
  Ag  Ag2  1  0.34208000  0.11683000  0.38664000  1.0
  Ag  Ag3  1  0.65791000  0.88317000  0.61335000  1.0
  H  H4  1  0.42986000  0.52525000  0.35818000  1.0
  H  H5  1  0.57015000  0.47476000  0.64182000  1.0
  H  H6  1  0.44251000  0.35509000  0.45324000  1.0
  H  H7  1  0.55748000  0.64493000  0.54677000  1.0
  H  H8  1  0.69183000  0.20735000  0.41097000  1.0
  H  H9  1  0.30817000  0.79267000  0.58905000  1.0
  H  H10  1  0.90855000  0.14076000  0.43742000  1.0
  H  H11  1  0.09145000  0.85925000  0.56258000  1.0
  H  H12  1  0.16273000  0.97767000  0.43869000  1.0
  H  H13  1  0.83725000  0.02232000  0.56133000  1.0
  H  H14  1  0.34094000  0.96963000  0.29913000  1.0
  H  H15  1  0.65904000  0.03036000  0.70088000  1.0
  H  H16  1  0.31020000  0.24494000  0.04917000  1.0
  H  H17  1  0.68979000  0.75506000  0.95082000  1.0
  H  H18  1  0.58539000  0.14990000  0.97215000  1.0
  H  H19  1  0.41459000  0.85008000  0.02785000  1.0
  H  H20  1  0.70945000  0.96961000  0.04592000  1.0
  H  H21  1  0.29054000  0.03038000  0.95408000  1.0
  H  H22  1  0.92575000  0.46707000  0.41476000  1.0
  H  H23  1  0.07426000  0.53295000  0.58522000  1.0
  H  H24  1  0.93072000  0.54967000  0.27078000  1.0
  H  H25  1  0.06931000  0.45036000  0.72921000  1.0
  H  H26  1  0.17954000  0.45561000  0.17852000  1.0
  H  H27  1  0.82048000  0.54442000  0.82146000  1.0
  H  H28  1  0.39004000  0.47427000  0.12602000  1.0
  H  H29  1  0.60998000  0.52572000  0.87396000  1.0
  H  H30  1  0.63585000  0.43330000  0.00986000  1.0
  H  H31  1  0.36418000  0.56668000  0.99013000  1.0
  H  H32  1  0.81997000  0.24497000  0.03821000  1.0
  H  H33  1  0.18004000  0.75502000  0.96179000  1.0
  H  H34  1  0.82483000  0.97854000  0.29319000  1.0
  H  H35  1  0.17511000  0.02147000  0.70683000  1.0
  H  H36  1  0.09904000  0.85145000  0.23838000  1.0
  H  H37  1  0.90091000  0.14854000  0.76166000  1.0
  H  H38  1  0.20191000  0.91133000  0.09401000  1.0
  H  H39  1  0.79811000  0.08865000  0.90604000  1.0
  C  C40  1  0.52170000  0.45258000  0.35492000  1.0
  C  C41  1  0.47832000  0.54744000  0.64508000  1.0
  C  C42  1  0.53118000  0.36384000  0.40370000  1.0
  C  C43  1  0.46880000  0.63618000  0.59631000  1.0
  C  C44  1  0.66798000  0.28403000  0.38110000  1.0
  C  C45  1  0.33201000  0.71599000  0.61891000  1.0
  C  C46  1  0.76306000  0.31256000  0.31536000  1.0
  C  C47  1  0.23694000  0.68746000  0.68465000  1.0
  C  C48  1  0.91348000  0.25339000  0.27775000  1.0
  C  C49  1  0.08652000  0.74661000  0.72226000  1.0
  C  C50  1  0.01196000  0.16715000  0.31233000  1.0
  C  C51  1  0.98804000  0.83285000  0.68767000  1.0
  C  C52  1  0.00236000  0.11793000  0.38876000  1.0
  C  C53  1  0.99763000  0.88206000  0.61124000  1.0
  C  C54  1  0.13900000  0.03523000  0.39102000  1.0
  C  C55  1  0.86098000  0.96478000  0.60899000  1.0
  C  C56  1  0.23851000  0.03287000  0.31738000  1.0
  C  C57  1  0.76148000  0.96712000  0.68263000  1.0
  C  C58  1  0.15811000  0.11486000  0.26741000  1.0
  C  C59  1  0.84188000  0.88514000  0.73259000  1.0
  C  C60  1  0.19877000  0.15337000  0.19145000  1.0
  C  C61  1  0.80123000  0.84662000  0.80855000  1.0
  C  C62  1  0.34120000  0.11652000  0.13655000  1.0
  C  C63  1  0.65881000  0.88349000  0.86345000  1.0
  C  C64  1  0.38463000  0.17078000  0.06763000  1.0
  C  C65  1  0.61537000  0.82922000  0.93236000  1.0
  C  C66  1  0.53212000  0.11938000  0.02715000  1.0
  C  C67  1  0.46789000  0.88061000  0.97285000  1.0
  C  C68  1  0.59937000  0.02619000  0.06431000  1.0
  C  C69  1  0.40062000  0.97381000  0.93570000  1.0
  C  C70  1  0.01716000  0.44429000  0.36508000  1.0
  C  C71  1  0.98285000  0.55573000  0.63491000  1.0
  C  C72  1  0.02233000  0.48620000  0.29000000  1.0
  C  C73  1  0.97769000  0.51382000  0.70999000  1.0
  C  C74  1  0.15879000  0.43579000  0.24023000  1.0
  C  C75  1  0.84120000  0.56424000  0.75976000  1.0
  C  C76  1  0.25829000  0.35610000  0.27780000  1.0
  C  C77  1  0.74171000  0.64391000  0.72220000  1.0
  C  C78  1  0.40942000  0.29095000  0.24617000  1.0
  C  C79  1  0.59058000  0.70905000  0.75382000  1.0
  C  C80  1  0.50229000  0.31494000  0.17641000  1.0
  C  C81  1  0.49772000  0.68505000  0.82358000  1.0
  C  C82  1  0.48575000  0.40374000  0.12224000  1.0
  C  C83  1  0.51429000  0.59625000  0.87774000  1.0
  C  C84  1  0.61809000  0.38494000  0.06274000  1.0
  C  C85  1  0.38194000  0.61505000  0.93725000  1.0
  C  C86  1  0.72165000  0.28622000  0.07926000  1.0
  C  C87  1  0.27837000  0.71378000  0.92074000  1.0
  C  C88  1  0.64833000  0.24148000  0.15047000  1.0
  C  C89  1  0.35169000  0.75852000  0.84952000  1.0
  C  C90  1  0.69551000  0.15042000  0.19686000  1.0
  C  C91  1  0.30449000  0.84960000  0.80315000  1.0
  C  C92  1  0.83942000  0.06781000  0.18279000  1.0
  C  C93  1  0.16058000  0.93219000  0.81723000  1.0
  C  C94  1  0.89213000  0.98662000  0.23566000  1.0
  C  C95  1  0.10786000  0.01339000  0.76436000  1.0
  C  C96  1  0.03809000  0.91942000  0.20616000  1.0
  C  C97  1  0.96187000  0.08055000  0.79387000  1.0
  C  C98  1  0.09475000  0.94888000  0.13117000  1.0
  C  C99  1  0.90526000  0.05110000  0.86887000  1.0
  C  C100  1  0.34241000  0.22435000  0.63549000  1.0
  C  C101  1  0.65757000  0.77562000  0.36450000  1.0
  C  C102  1  0.86520000  0.74089000  0.11185000  1.0
  C  C103  1  0.13482000  0.25911000  0.88814000  1.0
  S  S104  1  0.48313000  0.00152000  0.14904000  1.0
  S  S105  1  0.51687000  0.99848000  0.85097000  1.0
  S  S106  1  0.67910000  0.43941000  0.28192000  1.0
  S  S107  1  0.32092000  0.56060000  0.71808000  1.0
  S  S108  1  0.97130000  0.05833000  0.09672000  1.0
  S  S109  1  0.02873000  0.94166000  0.90330000  1.0
  S  S110  1  0.17851000  0.34429000  0.37542000  1.0
  S  S111  1  0.82147000  0.65572000  0.62456000  1.0
  S  S112  1  0.44573000  0.13564000  0.55666000  1.0
  S  S113  1  0.55427000  0.86435000  0.44331000  1.0
  S  S114  1  0.96126000  0.61014000  0.07470000  1.0
  S  S115  1  0.03875000  0.38986000  0.92529000  1.0
  N  N116  1  0.09928000  0.23908000  0.16244000  1.0
  N  N117  1  0.90072000  0.76092000  0.83756000  1.0
  N  N118  1  0.96537000  0.28515000  0.20298000  1.0
  N  N119  1  0.03462000  0.71485000  0.79703000  1.0
  N  N120  1  0.46742000  0.19992000  0.28755000  1.0
  N  N121  1  0.53255000  0.80009000  0.71246000  1.0
  N  N122  1  0.60223000  0.13400000  0.26513000  1.0
  N  N123  1  0.39776000  0.86602000  0.73487000  1.0
  O  O124  1  0.35347000  0.18306000  0.49649000  1.0
  O  O125  1  0.64652000  0.81697000  0.50349000  1.0
  O  O126  1  0.60238000  0.14500000  0.54027000  1.0
  O  O127  1  0.39762000  0.85500000  0.45972000  1.0
  O  O128  1  0.42770000  0.03480000  0.59027000  1.0
  O  O129  1  0.57229000  0.96518000  0.40969000  1.0
  O  O130  1  0.87354000  0.54813000  0.12957000  1.0
  O  O131  1  0.12647000  0.45187000  0.87042000  1.0
  O  O132  1  0.93216000  0.62311000  0.99620000  1.0
  O  O133  1  0.06786000  0.37688000  0.00380000  1.0
  O  O134  1  0.12176000  0.58968000  0.08197000  1.0
  O  O135  1  0.87825000  0.41032000  0.91802000  1.0
  F  F136  1  0.19144000  0.22606000  0.65571000  1.0
  F  F137  1  0.80854000  0.77389000  0.34428000  1.0
  F  F138  1  0.34833000  0.32329000  0.61318000  1.0
  F  F139  1  0.65164000  0.67670000  0.38682000  1.0
  F  F140  1  0.40905000  0.19252000  0.69876000  1.0
  F  F141  1  0.59092000  0.80743000  0.30123000  1.0
  F  F142  1  0.71004000  0.76884000  0.11384000  1.0
  F  F143  1  0.28998000  0.23115000  0.88615000  1.0
  F  F144  1  0.92299000  0.81373000  0.06528000  1.0
  F  F145  1  0.07703000  0.18626000  0.93471000  1.0
  F  F146  1  0.88880000  0.74296000  0.18379000  1.0
  F  F147  1  0.11122000  0.25703000  0.81620000  1.0
