# generated using pymatgen
data_ZnH6C22N3O4
_symmetry_space_group_name_H-M   'P 1'
_cell_length_a   13.93820000
_cell_length_b   14.16310000
_cell_length_c   15.35700000
_cell_angle_alpha   86.80520000
_cell_angle_beta   89.99560000
_cell_angle_gamma   89.97920000
_symmetry_Int_Tables_number   1
_chemical_formula_structural   ZnH6C22N3O4
_chemical_formula_sum   'Zn2 H12 C44 N6 O8'
_cell_volume   3026.88467333
_cell_formula_units_Z   2
loop_
 _symmetry_equiv_pos_site_id
 _symmetry_equiv_pos_as_xyz
  1  'x, y, z'
loop_
 _atom_site_type_symbol
 _atom_site_label
 _atom_site_symmetry_multiplicity
 _atom_site_fract_x
 _atom_site_fract_y
 _atom_site_fract_z
 _atom_site_occupancy
  Zn  Zn0  1  0.60101000  0.49998000  0.49999000  1.0
  Zn  Zn1  1  0.39899000  0.50003000  0.50001000  1.0
  H  H2  1  0.34593000  0.50200000  0.22053000  1.0
  H  H3  1  0.24727000  0.44281000  0.62690000  1.0
  H  H4  1  0.75274000  0.44279000  0.62688000  1.0
  H  H5  1  0.24726000  0.55721000  0.37312000  1.0
  H  H6  1  0.65407000  0.49801000  0.77947000  1.0
  H  H7  1  0.65406000  0.50099000  0.22056000  1.0
  H  H8  1  0.34593000  0.49901000  0.77944000  1.0
  H  H9  1  0.74422000  0.50073000  0.08064000  1.0
  H  H10  1  0.25578000  0.49927000  0.91936000  1.0
  H  H11  1  0.74420000  0.49760000  0.91941000  1.0
  H  H12  1  0.25580000  0.50240000  0.08059000  1.0
  H  H13  1  0.75272000  0.55719000  0.37310000  1.0
  C  C14  1  0.50000000  0.49689000  0.67277000  1.0
  C  C15  1  0.32317000  0.50109000  0.04448000  1.0
  C  C16  1  0.79698000  0.53247000  0.42844000  1.0
  C  C17  1  0.20302000  0.46753000  0.57156000  1.0
  C  C18  1  0.79699000  0.46750000  0.57154000  1.0
  C  C19  1  0.20301000  0.53250000  0.42846000  1.0
  C  C20  1  0.89761000  0.46603000  0.57519000  1.0
  C  C21  1  0.10239000  0.53397000  0.42481000  1.0
  C  C22  1  0.89760000  0.53395000  0.42480000  1.0
  C  C23  1  0.10239000  0.46604000  0.57520000  1.0
  C  C24  1  0.94911000  0.50000000  0.50000000  1.0
  C  C25  1  0.50000000  0.50311000  0.32723000  1.0
  C  C26  1  0.05088000  0.50000000  0.50000000  1.0
  C  C27  1  0.95008000  0.43232000  0.65163000  1.0
  C  C28  1  0.04992000  0.56768000  0.34837000  1.0
  C  C29  1  0.95007000  0.56767000  0.34836000  1.0
  C  C30  1  0.04993000  0.43232000  0.65164000  1.0
  C  C31  1  0.49999000  0.67778000  0.49739000  1.0
  C  C32  1  0.50001000  0.32222000  0.50261000  1.0
  C  C33  1  0.49998000  0.77754000  0.49934000  1.0
  C  C34  1  0.50002000  0.22246000  0.50066000  1.0
  C  C35  1  0.49999000  0.86342000  0.50018000  1.0
  C  C36  1  0.50000000  0.50030000  0.04622000  1.0
  C  C37  1  0.50001000  0.13658000  0.49982000  1.0
  C  C38  1  0.49999000  0.95677000  0.50028000  1.0
  C  C39  1  0.50000000  0.04323000  0.49971000  1.0
  C  C40  1  0.41301000  0.50155000  0.18413000  1.0
  C  C41  1  0.58699000  0.49845000  0.81587000  1.0
  C  C42  1  0.49999000  0.50172000  0.22967000  1.0
  C  C43  1  0.50001000  0.49828000  0.77033000  1.0
  C  C44  1  0.58698000  0.50095000  0.18416000  1.0
  C  C45  1  0.41302000  0.49905000  0.81584000  1.0
  C  C46  1  0.58881000  0.50033000  0.09279000  1.0
  C  C47  1  0.50000000  0.49969000  0.95378000  1.0
  C  C48  1  0.41119000  0.49967000  0.90721000  1.0
  C  C49  1  0.89840000  0.40059000  0.72764000  1.0
  C  C50  1  0.10160000  0.59941000  0.27236000  1.0
  C  C51  1  0.89839000  0.59940000  0.27234000  1.0
  C  C52  1  0.10161000  0.40060000  0.72766000  1.0
  C  C53  1  0.41119000  0.50099000  0.09276000  1.0
  C  C54  1  0.58880000  0.49901000  0.90724000  1.0
  C  C55  1  0.67684000  0.49980000  0.04454000  1.0
  C  C56  1  0.32316000  0.50020000  0.95546000  1.0
  C  C57  1  0.67683000  0.49891000  0.95552000  1.0
  N  N58  1  0.74978000  0.49998000  0.49999000  1.0
  N  N59  1  0.25022000  0.50002000  0.50001000  1.0
  N  N60  1  0.85421000  0.37616000  0.78952000  1.0
  N  N61  1  0.14578000  0.62384000  0.21048000  1.0
  N  N62  1  0.85421000  0.62382000  0.21046000  1.0
  N  N63  1  0.14578000  0.37618000  0.78954000  1.0
  O  O64  1  0.58136000  0.49640000  0.63455000  1.0
  O  O65  1  0.41864000  0.50360000  0.36545000  1.0
  O  O66  1  0.58137000  0.50355000  0.36543000  1.0
  O  O67  1  0.41863000  0.49645000  0.63457000  1.0
  O  O68  1  0.58237000  0.63929000  0.49665000  1.0
  O  O69  1  0.41763000  0.36072000  0.50335000  1.0
  O  O70  1  0.58238000  0.36068000  0.50334000  1.0
  O  O71  1  0.41762000  0.63932000  0.49666000  1.0
