# generated using pymatgen
data_Al3H15C38N(ClO7)2
_symmetry_space_group_name_H-M   'P 1'
_cell_length_a   12.48480000
_cell_length_b   12.51670000
_cell_length_c   28.75790000
_cell_angle_alpha   90.07110000
_cell_angle_beta   90.05560000
_cell_angle_gamma   60.84140000
_symmetry_Int_Tables_number   1
_chemical_formula_structural   Al3H15C38N(ClO7)2
_chemical_formula_sum   'Al6 H30 C76 N2 Cl4 O28'
_cell_volume   3924.45125160
_cell_formula_units_Z   2
loop_
 _symmetry_equiv_pos_site_id
 _symmetry_equiv_pos_as_xyz
  1  'x, y, z'
loop_
 _atom_site_type_symbol
 _atom_site_label
 _atom_site_symmetry_multiplicity
 _atom_site_fract_x
 _atom_site_fract_y
 _atom_site_fract_z
 _atom_site_occupancy
  Al  Al0  1  0.59315000  0.58184000  0.49971000  1.0
  Al  Al1  1  0.33746000  0.57776000  0.49907000  1.0
  Al  Al2  1  0.57070000  0.33695000  0.50017000  1.0
  Al  Al3  1  0.07473000  0.07690000  0.00037000  1.0
  Al  Al4  1  0.08412000  0.32876000  0.00042000  1.0
  Al  Al5  1  0.32351000  0.09387000  0.00004000  1.0
  H  H6  1  0.17951000  0.53309000  0.21924000  1.0
  H  H7  1  0.67873000  0.51978000  0.28963000  1.0
  H  H8  1  0.51354000  0.80929000  0.29605000  1.0
  H  H9  1  0.50517000  0.84712000  0.21047000  1.0
  H  H10  1  0.15795000  0.83111000  0.28881000  1.0
  H  H11  1  0.36058000  0.14986000  0.78706000  1.0
  H  H12  1  0.29060000  0.52187000  0.80223000  1.0
  H  H13  1  0.30287000  0.53676000  0.71639000  1.0
  H  H14  1  0.63540000  0.40900000  0.71603000  1.0
  H  H15  1  0.12709000  0.40326000  0.28763000  1.0
  H  H16  1  0.66267000  0.41651000  0.80170000  1.0
  H  H17  1  0.16613000  0.81011000  0.71232000  1.0
  H  H18  1  0.16602000  0.84675000  0.79776000  1.0
  H  H19  1  0.49599000  0.83809000  0.69821000  1.0
  H  H20  1  0.52830000  0.25815000  0.21408000  1.0
  H  H21  1  0.47276000  0.12933000  0.28175000  1.0
  H  H22  1  0.25225000  0.18714000  0.23402000  1.0
  H  H23  1  0.94198000  0.13536000  0.29616000  1.0
  H  H24  1  0.97791000  0.13418000  0.21084000  1.0
  H  H25  1  0.71624000  0.51924000  0.20433000  1.0
  H  H26  1  0.13222000  0.15136000  0.71144000  1.0
  H  H27  1  0.04261000  0.04947000  0.65241000  1.0
  H  H28  1  0.15855000  0.08671000  0.63633000  1.0
  H  H29  1  0.00310000  0.18779000  0.62207000  1.0
  H  H30  1  0.37343000  0.55048000  0.29372000  1.0
  H  H31  1  0.47917000  0.59954000  0.23691000  1.0
  H  H32  1  0.35805000  0.59244000  0.20640000  1.0
  H  H33  1  0.51003000  0.46620000  0.20507000  1.0
  H  H34  1  0.69983000  0.67823000  0.52878000  1.0
  H  H35  1  0.95884000  0.98942000  0.97236000  1.0
  C  C36  1  0.38298000  0.71151000  0.43289000  1.0
  C  C37  1  0.35677000  0.36449000  0.38837000  1.0
  C  C38  1  0.28582000  0.25116000  0.24187000  1.0
  C  C39  1  0.31628000  0.32358000  0.20320000  1.0
  C  C40  1  0.40797000  0.21898000  0.26767000  1.0
  C  C41  1  0.33805000  0.33889000  0.29829000  1.0
  C  C42  1  0.43878000  0.29040000  0.23045000  1.0
  C  C43  1  0.36969000  0.41079000  0.25956000  1.0
  C  C44  1  0.30527000  0.31370000  0.15467000  1.0
  C  C45  1  0.34831000  0.35124000  0.34667000  1.0
  C  C46  1  0.76282000  0.33902000  0.38798000  1.0
  C  C47  1  0.37938000  0.38871000  0.43494000  1.0
  C  C48  1  0.89318000  0.21896000  0.27585000  1.0
  C  C49  1  0.91344000  0.21836000  0.22845000  1.0
  C  C50  1  0.76545000  0.43586000  0.22472000  1.0
  C  C51  1  0.74485000  0.43632000  0.27207000  1.0
  C  C52  1  0.80871000  0.32797000  0.29836000  1.0
  C  C53  1  0.85005000  0.32696000  0.20221000  1.0
  C  C54  1  0.87339000  0.32410000  0.15405000  1.0
  C  C55  1  0.78602000  0.33081000  0.34657000  1.0
  C  C56  1  0.89830000  0.31527000  0.11279000  1.0
  C  C57  1  0.35480000  0.76306000  0.38688000  1.0
  C  C58  1  0.71410000  0.36694000  0.43431000  1.0
  C  C59  1  0.43435000  0.82315000  0.27558000  1.0
  C  C60  1  0.42963000  0.84394000  0.22814000  1.0
  C  C61  1  0.22993000  0.85540000  0.22414000  1.0
  C  C62  1  0.23368000  0.83520000  0.27175000  1.0
  C  C63  1  0.33624000  0.81809000  0.29797000  1.0
  C  C64  1  0.32812000  0.86004000  0.20118000  1.0
  C  C65  1  0.32445000  0.88100000  0.15294000  1.0
  C  C66  1  0.34339000  0.79110000  0.34592000  1.0
  C  C67  1  0.31824000  0.90213000  0.11140000  1.0
  C  C68  1  0.35361000  0.37190000  0.61225000  1.0
  C  C69  1  0.37460000  0.71772000  0.56464000  1.0
  C  C70  1  0.35047000  0.24528000  0.72377000  1.0
  C  C71  1  0.34662000  0.23510000  0.77174000  1.0
  C  C72  1  0.30800000  0.44439000  0.78009000  1.0
  C  C73  1  0.31420000  0.45281000  0.73220000  1.0
  C  C74  1  0.33514000  0.35397000  0.70274000  1.0
  C  C75  1  0.32394000  0.33515000  0.80056000  1.0
  C  C76  1  0.31419000  0.32433000  0.84922000  1.0
  C  C77  1  0.34349000  0.36324000  0.65405000  1.0
  C  C78  1  0.30328000  0.31176000  0.89069000  1.0
  C  C79  1  0.76604000  0.33607000  0.61254000  1.0
  C  C80  1  0.37923000  0.39119000  0.56523000  1.0
  C  C81  1  0.72688000  0.36504000  0.73127000  1.0
  C  C82  1  0.74131000  0.37031000  0.77869000  1.0
  C  C83  1  0.96171000  0.25386000  0.76787000  1.0
  C  C84  1  0.95008000  0.24606000  0.71904000  1.0
  C  C85  1  0.82810000  0.30569000  0.70090000  1.0
  C  C86  1  0.86061000  0.31477000  0.79769000  1.0
  C  C87  1  0.87921000  0.31715000  0.84607000  1.0
  C  C88  1  0.80083000  0.31660000  0.65282000  1.0
  C  C89  1  0.89798000  0.31594000  0.88768000  1.0
  C  C90  1  0.34512000  0.77123000  0.61034000  1.0
  C  C91  1  0.71255000  0.36996000  0.56702000  1.0
  C  C92  1  0.23785000  0.82378000  0.72814000  1.0
  C  C93  1  0.23801000  0.84369000  0.77550000  1.0
  C  C94  1  0.42281000  0.86054000  0.76745000  1.0
  C  C95  1  0.42385000  0.83984000  0.71994000  1.0
  C  C96  1  0.33138000  0.82114000  0.69975000  1.0
  C  C97  1  0.33018000  0.86234000  0.79635000  1.0
  C  C98  1  0.32544000  0.88621000  0.84443000  1.0
  C  C99  1  0.33577000  0.79670000  0.65158000  1.0
  C  C100  1  0.31438000  0.91020000  0.88580000  1.0
  C  C101  1  0.94876000  0.28508000  0.06675000  1.0
  C  C102  1  0.21583000  0.37147000  0.27069000  1.0
  C  C103  1  0.26998000  0.28514000  0.06600000  1.0
  C  C104  1  0.29253000  0.95051000  0.06489000  1.0
  C  C105  1  0.94518000  0.29347000  0.93439000  1.0
  C  C106  1  0.27902000  0.28391000  0.93667000  1.0
  C  C107  1  0.28355000  0.95871000  0.93219000  1.0
  C  C108  1  0.24513000  0.44366000  0.23339000  1.0
  C  C109  1  0.29435000  0.30591000  0.11281000  1.0
  C  C110  1  0.06385000  0.12489000  0.64861000  1.0
  C  C111  1  0.44212000  0.53931000  0.22726000  1.0
  N  N112  1  0.05370000  0.18736000  0.69243000  1.0
  N  N113  1  0.42238000  0.48555000  0.26930000  1.0
  Cl  Cl114  1  0.10507000  0.87303000  0.19265000  1.0
  Cl  Cl115  1  0.37307000  0.12346000  0.68911000  1.0
  Cl  Cl116  1  0.10740000  0.18339000  0.79186000  1.0
  Cl  Cl117  1  0.53463000  0.88647000  0.79128000  1.0
  O  O118  1  0.69532000  0.46761000  0.45132000  1.0
  O  O119  1  0.30278000  0.49164000  0.54586000  1.0
  O  O120  1  0.47969000  0.30951000  0.54734000  1.0
  O  O121  1  0.68992000  0.29203000  0.54590000  1.0
  O  O122  1  0.49914000  0.49832000  0.49987000  1.0
  O  O123  1  0.19368000  0.96749000  0.04667000  1.0
  O  O124  1  0.98191000  0.17751000  0.05315000  1.0
  O  O125  1  0.96038000  0.36772000  0.04401000  1.0
  O  O126  1  0.16602000  0.36231000  0.04862000  1.0
  O  O127  1  0.35057000  0.18837000  0.04548000  1.0
  O  O128  1  0.37102000  0.97760000  0.04694000  1.0
  O  O129  1  0.48775000  0.68302000  0.44864000  1.0
  O  O130  1  0.17748000  0.98627000  0.94629000  1.0
  O  O131  1  0.96122000  0.19628000  0.95372000  1.0
  O  O132  1  0.97294000  0.37204000  0.95167000  1.0
  O  O133  1  0.17953000  0.36131000  0.95634000  1.0
  O  O134  1  0.35677000  0.17961000  0.95321000  1.0
  O  O135  1  0.36471000  0.97405000  0.95449000  1.0
  O  O136  1  0.16188000  0.16732000  0.99991000  1.0
  O  O137  1  0.29980000  0.69511000  0.45295000  1.0
  O  O138  1  0.30258000  0.49189000  0.45290000  1.0
  O  O139  1  0.47763000  0.30840000  0.45483000  1.0
  O  O140  1  0.68876000  0.28905000  0.45379000  1.0
  O  O141  1  0.68825000  0.47415000  0.55198000  1.0
  O  O142  1  0.47880000  0.69105000  0.54873000  1.0
  O  O143  1  0.29369000  0.69692000  0.54491000  1.0
  O  O144  1  0.67763000  0.65943000  0.49890000  1.0
  O  O145  1  0.99785000  0.99177000  0.00109000  1.0
