# generated using pymatgen
data_Ag2HC5O4
_symmetry_space_group_name_H-M   'P 1'
_cell_length_a   6.66511000
_cell_length_b   9.05577000
_cell_length_c   18.92580000
_cell_angle_alpha   90.00000000
_cell_angle_beta   89.99980000
_cell_angle_gamma   100.85500000
_symmetry_Int_Tables_number   1
_chemical_formula_structural   Ag2HC5O4
_chemical_formula_sum   'Ag16 H8 C40 O32'
_cell_volume   1121.87824056
_cell_formula_units_Z   8
loop_
 _symmetry_equiv_pos_site_id
 _symmetry_equiv_pos_as_xyz
  1  'x, y, z'
loop_
 _atom_site_type_symbol
 _atom_site_label
 _atom_site_symmetry_multiplicity
 _atom_site_fract_x
 _atom_site_fract_y
 _atom_site_fract_z
 _atom_site_occupancy
  Ag  Ag0  1  0.83976000  0.30900000  0.24104000  1.0
  Ag  Ag1  1  0.66024000  0.19099000  0.74104000  1.0
  Ag  Ag2  1  0.16023000  0.69101000  0.75896000  1.0
  Ag  Ag3  1  0.33976000  0.80900000  0.25896000  1.0
  Ag  Ag4  1  0.90741000  0.00473000  0.25750000  1.0
  Ag  Ag5  1  0.59259000  0.49526000  0.75750000  1.0
  Ag  Ag6  1  0.09259000  0.99527000  0.74250000  1.0
  Ag  Ag7  1  0.40741000  0.50473000  0.24250000  1.0
  Ag  Ag8  1  0.06117000  0.87409000  0.10823000  1.0
  Ag  Ag9  1  0.43883000  0.62591000  0.60823000  1.0
  Ag  Ag10  1  0.93882000  0.12591000  0.89177000  1.0
  Ag  Ag11  1  0.56117000  0.37409000  0.39177000  1.0
  Ag  Ag12  1  0.88385000  0.57061000  0.15138000  1.0
  Ag  Ag13  1  0.61614000  0.92939000  0.65138000  1.0
  Ag  Ag14  1  0.11614000  0.42939000  0.84862000  1.0
  Ag  Ag15  1  0.38385000  0.07061000  0.34862000  1.0
  H  H16  1  0.75111000  0.35681000  0.48340000  1.0
  H  H17  1  0.74888000  0.14318000  0.98340000  1.0
  H  H18  1  0.24889000  0.64321000  0.51660000  1.0
  H  H19  1  0.25110000  0.85680000  0.01660000  1.0
  H  H20  1  0.23949000  0.10335000  0.48193000  1.0
  H  H21  1  0.26053000  0.39665000  0.98194000  1.0
  H  H22  1  0.76052000  0.89667000  0.51806000  1.0
  H  H23  1  0.73949000  0.60335000  0.01807000  1.0
  C  C24  1  0.87630000  0.31432000  0.50843000  1.0
  C  C25  1  0.62370000  0.18567000  0.00843000  1.0
  C  C26  1  0.12370000  0.68569000  0.49157000  1.0
  C  C27  1  0.37629000  0.81432000  0.99157000  1.0
  C  C28  1  0.91583000  0.35595000  0.57861000  1.0
  C  C29  1  0.58417000  0.14405000  0.07861000  1.0
  C  C30  1  0.08418000  0.64406000  0.42139000  1.0
  C  C31  1  0.41582000  0.85594000  0.92139000  1.0
  C  C32  1  0.07322000  0.30431000  0.61541000  1.0
  C  C33  1  0.42679000  0.19569000  0.11542000  1.0
  C  C34  1  0.92679000  0.69570000  0.38459000  1.0
  C  C35  1  0.57321000  0.80430000  0.88459000  1.0
  C  C36  1  0.18947000  0.21370000  0.57828000  1.0
  C  C37  1  0.31054000  0.28630000  0.07829000  1.0
  C  C38  1  0.81054000  0.78631000  0.42171000  1.0
  C  C39  1  0.68946000  0.71369000  0.92171000  1.0
  C  C40  1  0.14695000  0.17506000  0.50754000  1.0
  C  C41  1  0.35306000  0.32494000  0.00755000  1.0
  C  C42  1  0.85306000  0.82495000  0.49245000  1.0
  C  C43  1  0.64694000  0.67506000  0.99245000  1.0
  C  C44  1  0.98848000  0.22475000  0.47151000  1.0
  C  C45  1  0.51152000  0.27525000  0.97152000  1.0
  C  C46  1  0.01153000  0.77526000  0.52848000  1.0
  C  C47  1  0.48847000  0.72475000  0.02848000  1.0
  C  C48  1  0.93872000  0.18598000  0.39601000  1.0
  C  C49  1  0.56128000  0.31403000  0.89601000  1.0
  C  C50  1  0.06129000  0.81403000  0.60399000  1.0
  C  C51  1  0.43871000  0.68597000  0.10399000  1.0
  C  C52  1  0.78608000  0.45695000  0.61087000  1.0
  C  C53  1  0.71392000  0.04304000  0.11087000  1.0
  C  C54  1  0.21392000  0.54306000  0.38913000  1.0
  C  C55  1  0.28607000  0.95694000  0.88913000  1.0
  C  C56  1  0.11727000  0.34968000  0.69182000  1.0
  C  C57  1  0.38274000  0.15033000  0.19182000  1.0
  C  C58  1  0.88274000  0.65033000  0.30818000  1.0
  C  C59  1  0.61726000  0.84967000  0.80818000  1.0
  C  C60  1  0.35729000  0.15333000  0.61459000  1.0
  C  C61  1  0.14273000  0.34668000  0.11460000  1.0
  C  C62  1  0.64272000  0.84667000  0.38540000  1.0
  C  C63  1  0.85727000  0.65332000  0.88541000  1.0
  O  O64  1  0.79074000  0.23307000  0.36553000  1.0
  O  O65  1  0.70926000  0.26693000  0.86553000  1.0
  O  O66  1  0.20925000  0.76693000  0.63447000  1.0
  O  O67  1  0.29074000  0.73308000  0.13447000  1.0
  O  O68  1  0.04438000  0.10460000  0.36279000  1.0
  O  O69  1  0.45562000  0.39541000  0.86279000  1.0
  O  O70  1  0.95562000  0.89541000  0.63721000  1.0
  O  O71  1  0.54438000  0.60460000  0.13721000  1.0
  O  O72  1  0.64389000  0.48848000  0.57176000  1.0
  O  O73  1  0.85610000  0.01151000  0.07176000  1.0
  O  O74  1  0.35611000  0.51153000  0.42824000  1.0
  O  O75  1  0.14388000  0.98847000  0.92824000  1.0
  O  O76  1  0.82762000  0.50428000  0.67328000  1.0
  O  O77  1  0.67237000  0.99572000  0.17329000  1.0
  O  O78  1  0.17237000  0.49572000  0.32672000  1.0
  O  O79  1  0.32762000  0.00428000  0.82672000  1.0
  O  O80  1  0.24934000  0.46815000  0.70324000  1.0
  O  O81  1  0.25066000  0.03185000  0.20325000  1.0
  O  O82  1  0.75066000  0.53185000  0.29676000  1.0
  O  O83  1  0.74934000  0.96815000  0.79676000  1.0
  O  O84  1  0.01824000  0.27222000  0.74159000  1.0
  O  O85  1  0.48177000  0.22778000  0.24159000  1.0
  O  O86  1  0.98176000  0.72777000  0.25841000  1.0
  O  O87  1  0.51824000  0.77222000  0.75841000  1.0
  O  O88  1  0.37762000  0.18392000  0.68083000  1.0
  O  O89  1  0.12240000  0.31608000  0.18084000  1.0
  O  O90  1  0.62239000  0.81607000  0.31916000  1.0
  O  O91  1  0.87760000  0.68391000  0.81917000  1.0
  O  O92  1  0.46068000  0.07467000  0.57993000  1.0
  O  O93  1  0.03934000  0.42534000  0.07994000  1.0
  O  O94  1  0.53934000  0.92534000  0.42006000  1.0
  O  O95  1  0.96066000  0.57466000  0.92007000  1.0
