# generated using pymatgen
data_Ca3Sm2H42C42(NO6)6
_symmetry_space_group_name_H-M   'P 1'
_cell_length_a   9.60635000
_cell_length_b   15.46560000
_cell_length_c   23.03440000
_cell_angle_alpha   71.46800000
_cell_angle_beta   89.99940000
_cell_angle_gamma   89.99950000
_symmetry_Int_Tables_number   1
_chemical_formula_structural   Ca3Sm2H42C42(NO6)6
_chemical_formula_sum   'Ca6 Sm4 H84 C84 N12 O72'
_cell_volume   3244.72155543
_cell_formula_units_Z   2
loop_
 _symmetry_equiv_pos_site_id
 _symmetry_equiv_pos_as_xyz
  1  'x, y, z'
loop_
 _atom_site_type_symbol
 _atom_site_label
 _atom_site_symmetry_multiplicity
 _atom_site_fract_x
 _atom_site_fract_y
 _atom_site_fract_z
 _atom_site_occupancy
  Ca  Ca0  1  0.99999000  0.50000000  0.00000000  1.0
  Ca  Ca1  1  0.00001000  0.50000000  0.50000000  1.0
  Ca  Ca2  1  0.99999000  0.00000000  0.00000000  1.0
  Ca  Ca3  1  0.00001000  0.00001000  0.49999000  1.0
  Ca  Ca4  1  0.01769000  0.50000000  0.25000000  1.0
  Ca  Ca5  1  0.98232000  0.50000000  0.75000000  1.0
  Sm  Sm6  1  0.51278000  0.70579000  0.09772000  1.0
  Sm  Sm7  1  0.51277000  0.29424000  0.40228000  1.0
  Sm  Sm8  1  0.48723000  0.29420000  0.90229000  1.0
  Sm  Sm9  1  0.48725000  0.70578000  0.59771000  1.0
  H  H10  1  0.34190000  0.40675000  0.03327000  1.0
  H  H11  1  0.34197000  0.59330000  0.46674000  1.0
  H  H12  1  0.65810000  0.59325000  0.96674000  1.0
  H  H13  1  0.65804000  0.40669000  0.53328000  1.0
  H  H14  1  0.52819000  0.29763000  0.08904000  1.0
  H  H15  1  0.52826000  0.70240000  0.41096000  1.0
  H  H16  1  0.47181000  0.70236000  0.91097000  1.0
  H  H17  1  0.47174000  0.29761000  0.58906000  1.0
  H  H18  1  0.70056000  0.34972000  0.15400000  1.0
  H  H19  1  0.70057000  0.65030000  0.34599000  1.0
  H  H20  1  0.29947000  0.65027000  0.84600000  1.0
  H  H21  1  0.29942000  0.34972000  0.65402000  1.0
  H  H22  1  0.36157000  0.02918000  0.92374000  1.0
  H  H23  1  0.36158000  0.97083000  0.57624000  1.0
  H  H24  1  0.63840000  0.97082000  0.07627000  1.0
  H  H25  1  0.63842000  0.02918000  0.42373000  1.0
  H  H26  1  0.56617000  0.04442000  0.85163000  1.0
  H  H27  1  0.56616000  0.95558000  0.64837000  1.0
  H  H28  1  0.43380000  0.95558000  0.14838000  1.0
  H  H29  1  0.43380000  0.04443000  0.35163000  1.0
  H  H30  1  0.74147000  0.91635000  0.87512000  1.0
  H  H31  1  0.74148000  0.08365000  0.62488000  1.0
  H  H32  1  0.25850000  0.08365000  0.12488000  1.0
  H  H33  1  0.25848000  0.91636000  0.37513000  1.0
  H  H34  1  0.11519000  0.34015000  0.09001000  1.0
  H  H35  1  0.11520000  0.65985000  0.40999000  1.0
  H  H36  1  0.88480000  0.65984000  0.91000000  1.0
  H  H37  1  0.88481000  0.34015000  0.59001000  1.0
  H  H38  1  0.11010000  0.41997000  0.12185000  1.0
  H  H39  1  0.11009000  0.58002000  0.37816000  1.0
  H  H40  1  0.88989000  0.58002000  0.87816000  1.0
  H  H41  1  0.88991000  0.41997000  0.62185000  1.0
  H  H42  1  0.83341000  0.62657000  0.04825000  1.0
  H  H43  1  0.83341000  0.37343000  0.45175000  1.0
  H  H44  1  0.16659000  0.37343000  0.95175000  1.0
  H  H45  1  0.16659000  0.62657000  0.54825000  1.0
  H  H46  1  0.88143000  0.53848000  0.10256000  1.0
  H  H47  1  0.88144000  0.46152000  0.39744000  1.0
  H  H48  1  0.11858000  0.46152000  0.89744000  1.0
  H  H49  1  0.11857000  0.53849000  0.60256000  1.0
  H  H50  1  0.98799000  0.79708000  0.05831000  1.0
  H  H51  1  0.98800000  0.20293000  0.44168000  1.0
  H  H52  1  0.01199000  0.20292000  0.94168000  1.0
  H  H53  1  0.01198000  0.79709000  0.55832000  1.0
  H  H54  1  0.83969000  0.83134000  0.07078000  1.0
  H  H55  1  0.83969000  0.16867000  0.42921000  1.0
  H  H56  1  0.16030000  0.16867000  0.92921000  1.0
  H  H57  1  0.16031000  0.83134000  0.57077000  1.0
  H  H58  1  0.91090000  0.95970000  0.12956000  1.0
  H  H59  1  0.91092000  0.04032000  0.37043000  1.0
  H  H60  1  0.08909000  0.04031000  0.87043000  1.0
  H  H61  1  0.08909000  0.95969000  0.62955000  1.0
  H  H62  1  0.94785000  0.06489000  0.10950000  1.0
  H  H63  1  0.94785000  0.93513000  0.39048000  1.0
  H  H64  1  0.05213000  0.93513000  0.89049000  1.0
  H  H65  1  0.05214000  0.06488000  0.60951000  1.0
  H  H66  1  0.26290000  0.72983000  0.30854000  1.0
  H  H67  1  0.26290000  0.27017000  0.19146000  1.0
  H  H68  1  0.73709000  0.27017000  0.69146000  1.0
  H  H69  1  0.73709000  0.72982000  0.80855000  1.0
  H  H70  1  0.42630000  0.84400000  0.32900000  1.0
  H  H71  1  0.42632000  0.15601000  0.17100000  1.0
  H  H72  1  0.57368000  0.15601000  0.67100000  1.0
  H  H73  1  0.57364000  0.84397000  0.82901000  1.0
  H  H74  1  0.21102000  0.56367000  0.15391000  1.0
  H  H75  1  0.21104000  0.43634000  0.34609000  1.0
  H  H76  1  0.78898000  0.43632000  0.84609000  1.0
  H  H77  1  0.78897000  0.56367000  0.65391000  1.0
  H  H78  1  0.07306000  0.57677000  0.11473000  1.0
  H  H79  1  0.07308000  0.42322000  0.38527000  1.0
  H  H80  1  0.92694000  0.42323000  0.88528000  1.0
  H  H81  1  0.92693000  0.57678000  0.61473000  1.0
  H  H82  1  0.83180000  0.64770000  0.18548000  1.0
  H  H83  1  0.83180000  0.35231000  0.31452000  1.0
  H  H84  1  0.16821000  0.35231000  0.81452000  1.0
  H  H85  1  0.16821000  0.64770000  0.68549000  1.0
  H  H86  1  0.94379000  0.70591000  0.20796000  1.0
  H  H87  1  0.94378000  0.29409000  0.29203000  1.0
  H  H88  1  0.05622000  0.29409000  0.79203000  1.0
  H  H89  1  0.05623000  0.70593000  0.70797000  1.0
  H  H90  1  0.64205000  0.89000000  0.26332000  1.0
  H  H91  1  0.64206000  0.11001000  0.23668000  1.0
  H  H92  1  0.35794000  0.11001000  0.73667000  1.0
  H  H93  1  0.35789000  0.88996000  0.76333000  1.0
  C  C94  1  0.41538000  0.51363000  0.06648000  1.0
  C  C95  1  0.41540000  0.48641000  0.43352000  1.0
  C  C96  1  0.58464000  0.48636000  0.93353000  1.0
  C  C97  1  0.58460000  0.51360000  0.56648000  1.0
  C  C98  1  0.41718000  0.42548000  0.06243000  1.0
  C  C99  1  0.41722000  0.57456000  0.43757000  1.0
  C  C100  1  0.58283000  0.57451000  0.93758000  1.0
  C  C101  1  0.58278000  0.42544000  0.56244000  1.0
  C  C102  1  0.52029000  0.36531000  0.09382000  1.0
  C  C103  1  0.52033000  0.63471000  0.40618000  1.0
  C  C104  1  0.47973000  0.63467000  0.90618000  1.0
  C  C105  1  0.47968000  0.36529000  0.59384000  1.0
  C  C106  1  0.61625000  0.39340000  0.12966000  1.0
  C  C107  1  0.61626000  0.60663000  0.37032000  1.0
  C  C108  1  0.38378000  0.60659000  0.87033000  1.0
  C  C109  1  0.38372000  0.39339000  0.62968000  1.0
  C  C110  1  0.60522000  0.48192000  0.13237000  1.0
  C  C111  1  0.60525000  0.51809000  0.36763000  1.0
  C  C112  1  0.39481000  0.51806000  0.86763000  1.0
  C  C113  1  0.39477000  0.48192000  0.63238000  1.0
  C  C114  1  0.31478000  0.58728000  0.03083000  1.0
  C  C115  1  0.31481000  0.41277000  0.46916000  1.0
  C  C116  1  0.68521000  0.41271000  0.96917000  1.0
  C  C117  1  0.68520000  0.58722000  0.53084000  1.0
  C  C118  1  0.70710000  0.52215000  0.16663000  1.0
  C  C119  1  0.70710000  0.47787000  0.33333333  1.0
  C  C120  1  0.29294000  0.47785000  0.83336000  1.0
  C  C121  1  0.29290000  0.52217000  0.66666667  1.0
  C  C122  1  0.43424000  0.90140000  0.98399000  1.0
  C  C123  1  0.43424000  0.09862000  0.51601000  1.0
  C  C124  1  0.56576000  0.09861000  0.01603000  1.0
  C  C125  1  0.56575000  0.90140000  0.48397000  1.0
  C  C126  1  0.44118000  0.97688000  0.93116000  1.0
  C  C127  1  0.44119000  0.02312000  0.56883000  1.0
  C  C128  1  0.55879000  0.02311000  0.06884000  1.0
  C  C129  1  0.55880000  0.97689000  0.43116000  1.0
  C  C130  1  0.55367000  0.98418000  0.89158000  1.0
  C  C131  1  0.55365000  0.01582000  0.60842000  1.0
  C  C132  1  0.44631000  0.01582000  0.10843000  1.0
  C  C133  1  0.44632000  0.98420000  0.39158000  1.0
  C  C134  1  0.65140000  0.91398000  0.90427000  1.0
  C  C135  1  0.65140000  0.08602000  0.59573000  1.0
  C  C136  1  0.34857000  0.08602000  0.09573000  1.0
  C  C137  1  0.34858000  0.91397000  0.40427000  1.0
  C  C138  1  0.63325000  0.83876000  0.95668000  1.0
  C  C139  1  0.63326000  0.16125000  0.54332000  1.0
  C  C140  1  0.36672000  0.16123000  0.04332000  1.0
  C  C141  1  0.36674000  0.83875000  0.45667000  1.0
  C  C142  1  0.32206000  0.89009000  0.03213000  1.0
  C  C143  1  0.32205000  0.10993000  0.46787000  1.0
  C  C144  1  0.67793000  0.10989000  0.96788000  1.0
  C  C145  1  0.67798000  0.89008000  0.53211000  1.0
  C  C146  1  0.72527000  0.75547000  0.97160000  1.0
  C  C147  1  0.72527000  0.24453000  0.52840000  1.0
  C  C148  1  0.27473000  0.24452000  0.02840000  1.0
  C  C149  1  0.27472000  0.75547000  0.47160000  1.0
  C  C150  1  0.38593000  0.71895000  0.23306000  1.0
  C  C151  1  0.38593000  0.28105000  0.26695000  1.0
  C  C152  1  0.61408000  0.28104000  0.76695000  1.0
  C  C153  1  0.61406000  0.71894000  0.73306000  1.0
  C  C154  1  0.35566000  0.75321000  0.28084000  1.0
  C  C155  1  0.35566000  0.24678000  0.21916000  1.0
  C  C156  1  0.64435000  0.24677000  0.71917000  1.0
  C  C157  1  0.64433000  0.75321000  0.78084000  1.0
  C  C158  1  0.44715000  0.81625000  0.29194000  1.0
  C  C159  1  0.44716000  0.18374000  0.20806000  1.0
  C  C160  1  0.55285000  0.18374000  0.70806000  1.0
  C  C161  1  0.55282000  0.81626000  0.79194000  1.0
  C  C162  1  0.56618000  0.84218000  0.25597000  1.0
  C  C163  1  0.56618000  0.15781000  0.24403000  1.0
  C  C164  1  0.43382000  0.15781000  0.74403000  1.0
  C  C165  1  0.43380000  0.84219000  0.75596000  1.0
  C  C166  1  0.58685000  0.80635000  0.20805000  1.0
  C  C167  1  0.58685000  0.19367000  0.29195000  1.0
  C  C168  1  0.41315000  0.19366000  0.79195000  1.0
  C  C169  1  0.41316000  0.80635000  0.70804000  1.0
  C  C170  1  0.29668000  0.64809000  0.21832000  1.0
  C  C171  1  0.29668000  0.35191000  0.28168000  1.0
  C  C172  1  0.70334000  0.35189000  0.78169000  1.0
  C  C173  1  0.70333000  0.64809000  0.71832000  1.0
  C  C174  1  0.70696000  0.83542000  0.16359000  1.0
  C  C175  1  0.70696000  0.16459000  0.33641000  1.0
  C  C176  1  0.29302000  0.16459000  0.83641000  1.0
  C  C177  1  0.29302000  0.83541000  0.66358000  1.0
  N  N178  1  0.50824000  0.54043000  0.10059000  1.0
  N  N179  1  0.50827000  0.45960000  0.39941000  1.0
  N  N180  1  0.49178000  0.45955000  0.89942000  1.0
  N  N181  1  0.49176000  0.54041000  0.60059000  1.0
  N  N182  1  0.52935000  0.83464000  0.99631000  1.0
  N  N183  1  0.52935000  0.16538000  0.50369000  1.0
  N  N184  1  0.47064000  0.16536000  0.00369000  1.0
  N  N185  1  0.47068000  0.83463000  0.49630000  1.0
  N  N186  1  0.49754000  0.74693000  0.19695000  1.0
  N  N187  1  0.49754000  0.25308000  0.30305000  1.0
  N  N188  1  0.50246000  0.25306000  0.80305000  1.0
  N  N189  1  0.50246000  0.74692000  0.69695000  1.0
  O  O190  1  0.34171000  0.66771000  0.03137000  1.0
  O  O191  1  0.34173000  0.33234000  0.46862000  1.0
  O  O192  1  0.65829000  0.33229000  0.96864000  1.0
  O  O193  1  0.65829000  0.66766000  0.53137000  1.0
  O  O194  1  0.21550000  0.56443000  0.00310000  1.0
  O  O195  1  0.21556000  0.43562000  0.49691000  1.0
  O  O196  1  0.78450000  0.43556000  0.99690000  1.0
  O  O197  1  0.78447000  0.56438000  0.50309000  1.0
  O  O198  1  0.67834000  0.60242000  0.16825000  1.0
  O  O199  1  0.67835000  0.39759000  0.33174000  1.0
  O  O200  1  0.32168000  0.39756000  0.83175000  1.0
  O  O201  1  0.32168000  0.60243000  0.66825000  1.0
  O  O202  1  0.81687000  0.47826000  0.18719000  1.0
  O  O203  1  0.81687000  0.52177000  0.31280000  1.0
  O  O204  1  0.18315000  0.52173000  0.81282000  1.0
  O  O205  1  0.18314000  0.47827000  0.68720000  1.0
  O  O206  1  0.34049000  0.82653000  0.08240000  1.0
  O  O207  1  0.34045000  0.17350000  0.41760000  1.0
  O  O208  1  0.65953000  0.17346000  0.91761000  1.0
  O  O209  1  0.65956000  0.82651000  0.58238000  1.0
  O  O210  1  0.22110000  0.94498000  0.01898000  1.0
  O  O211  1  0.22110000  0.05503000  0.48101000  1.0
  O  O212  1  0.77890000  0.05500000  0.98103000  1.0
  O  O213  1  0.77891000  0.94499000  0.51897000  1.0
  O  O214  1  0.70467000  0.69615000  0.02499000  1.0
  O  O215  1  0.70468000  0.30385000  0.47502000  1.0
  O  O216  1  0.29534000  0.30384000  0.97501000  1.0
  O  O217  1  0.29533000  0.69616000  0.52498000  1.0
  O  O218  1  0.80790000  0.74796000  0.93147000  1.0
  O  O219  1  0.80790000  0.25203000  0.56853000  1.0
  O  O220  1  0.19210000  0.25203000  0.06853000  1.0
  O  O221  1  0.19211000  0.74796000  0.43147000  1.0
  O  O222  1  0.33431000  0.62720000  0.17081000  1.0
  O  O223  1  0.33430000  0.37281000  0.32918000  1.0
  O  O224  1  0.66572000  0.37279000  0.82919000  1.0
  O  O225  1  0.66572000  0.62721000  0.67081000  1.0
  O  O226  1  0.19614000  0.61443000  0.25259000  1.0
  O  O227  1  0.19614000  0.38556000  0.24741000  1.0
  O  O228  1  0.80386000  0.38556000  0.74741000  1.0
  O  O229  1  0.80386000  0.61444000  0.75259000  1.0
  O  O230  1  0.69896000  0.80976000  0.11563000  1.0
  O  O231  1  0.69894000  0.19026000  0.38437000  1.0
  O  O232  1  0.30105000  0.19024000  0.88437000  1.0
  O  O233  1  0.30105000  0.80976000  0.61562000  1.0
  O  O234  1  0.80180000  0.88284000  0.17570000  1.0
  O  O235  1  0.80181000  0.11718000  0.32431000  1.0
  O  O236  1  0.19819000  0.11718000  0.82430000  1.0
  O  O237  1  0.19817000  0.88281000  0.67569000  1.0
  O  O238  1  0.06008000  0.39126000  0.09546000  1.0
  O  O239  1  0.06007000  0.60874000  0.40455000  1.0
  O  O240  1  0.93991000  0.60874000  0.90455000  1.0
  O  O241  1  0.93994000  0.39125000  0.59546000  1.0
  O  O242  1  0.91169000  0.58114000  0.06318000  1.0
  O  O243  1  0.91171000  0.41885000  0.43682000  1.0
  O  O244  1  0.08831000  0.41887000  0.93682000  1.0
  O  O245  1  0.08830000  0.58115000  0.56318000  1.0
  O  O246  1  0.92248000  0.84703000  0.04267000  1.0
  O  O247  1  0.92248000  0.15298000  0.45733000  1.0
  O  O248  1  0.07750000  0.15297000  0.95733000  1.0
  O  O249  1  0.07752000  0.84704000  0.54266000  1.0
  O  O250  1  0.97141000  0.00842000  0.10186000  1.0
  O  O251  1  0.97142000  0.99160000  0.39812000  1.0
  O  O252  1  0.02859000  0.99160000  0.89813000  1.0
  O  O253  1  0.02860000  0.00840000  0.60186000  1.0
  O  O254  1  0.12528000  0.53122000  0.14680000  1.0
  O  O255  1  0.12528000  0.46878000  0.35320000  1.0
  O  O256  1  0.87472000  0.46878000  0.85320000  1.0
  O  O257  1  0.87472000  0.53122000  0.64681000  1.0
  O  O258  1  0.93307000  0.65545000  0.19180000  1.0
  O  O259  1  0.93307000  0.34456000  0.30820000  1.0
  O  O260  1  0.06694000  0.34456000  0.80819000  1.0
  O  O261  1  0.06694000  0.65545000  0.69182000  1.0
