# generated using pymatgen
data_AlH15(C5O3)6
_symmetry_space_group_name_H-M   'P 1'
_cell_length_a   4.08403000
_cell_length_b   28.89860000
_cell_length_c   28.89860000
_cell_angle_alpha   60.00000000
_cell_angle_beta   89.99960000
_cell_angle_gamma   89.99980000
_symmetry_Int_Tables_number   1
_chemical_formula_structural   AlH15(C5O3)6
_chemical_formula_sum   'Al2 H30 C60 O36'
_cell_volume   2953.74611092
_cell_formula_units_Z   2
loop_
 _symmetry_equiv_pos_site_id
 _symmetry_equiv_pos_as_xyz
  1  'x, y, z'
loop_
 _atom_site_type_symbol
 _atom_site_label
 _atom_site_symmetry_multiplicity
 _atom_site_fract_x
 _atom_site_fract_y
 _atom_site_fract_z
 _atom_site_occupancy
  Al  Al0  1  0.00126000  0.50000000  0.00000000  1.0
  Al  Al1  1  0.00126000  0.16667000  0.66666000  1.0
  H  H2  1  0.46836000  0.35573000  0.41354000  1.0
  H  H3  1  0.52962000  0.20182000  0.42254000  1.0
  H  H4  1  0.52962000  0.46488000  0.24412000  1.0
  H  H5  1  0.46838000  0.31097000  0.25313000  1.0
  H  H6  1  0.50283000  0.27836000  0.33677000  1.0
  H  H7  1  0.50283000  0.38835000  0.32989000  1.0
  H  H8  1  0.46837000  0.23073000  0.85573000  1.0
  H  H9  1  0.52960000  0.37564000  0.70182000  1.0
  H  H10  1  0.52961000  0.29100000  0.96488000  1.0
  H  H11  1  0.46840000  0.43590000  0.81096000  1.0
  H  H12  1  0.50282000  0.38488000  0.77835000  1.0
  H  H13  1  0.50283000  0.28176000  0.88835000  1.0
  H  H14  1  0.46836000  0.91354000  0.73073000  1.0
  H  H15  1  0.52962000  0.92254000  0.87564000  1.0
  H  H16  1  0.52962000  0.74411000  0.79101000  1.0
  H  H17  1  0.46838000  0.75314000  0.93589000  1.0
  H  H18  1  0.50282000  0.83677000  0.88487000  1.0
  H  H19  1  0.50282000  0.82989000  0.78176000  1.0
  H  H20  1  0.92636000  0.14443000  0.56537000  1.0
  H  H21  1  0.07462000  0.28300000  0.55668000  1.0
  H  H22  1  0.07459000  0.38368000  0.10999000  1.0
  H  H23  1  0.92638000  0.52226000  0.10128000  1.0
  H  H24  1  0.92636000  0.29020000  0.64443000  1.0
  H  H25  1  0.07461000  0.16032000  0.78300000  1.0
  H  H26  1  0.07462000  0.50634000  0.88366000  1.0
  H  H27  1  0.92637000  0.37646000  0.02225000  1.0
  H  H28  1  0.92636000  0.06537000  0.79020000  1.0
  H  H29  1  0.07462000  0.05668000  0.66031000  1.0
  H  H30  1  0.07460000  0.60999000  0.00634000  1.0
  H  H31  1  0.92638000  0.60129000  0.87646000  1.0
  C  C32  1  0.50131000  0.58368000  0.95387000  1.0
  C  C33  1  0.50131000  0.46245000  0.08368000  1.0
  C  C34  1  0.50130000  0.45387000  0.96245000  1.0
  C  C35  1  0.50130000  0.20423000  0.58298000  1.0
  C  C36  1  0.50130000  0.21279000  0.70423000  1.0
  C  C37  1  0.50129000  0.08298000  0.71279000  1.0
  C  C38  1  0.50138000  0.23125000  0.52288000  1.0
  C  C39  1  0.47677000  0.28746000  0.49105000  1.0
  C  C40  1  0.48256000  0.31225000  0.43552000  1.0
  C  C41  1  0.50048000  0.28267000  0.40909000  1.0
  C  C42  1  0.51809000  0.22685000  0.44091000  1.0
  C  C43  1  0.52508000  0.20131000  0.49661000  1.0
  C  C44  1  0.50058000  0.30687000  0.35116000  1.0
  C  C45  1  0.50058000  0.35983000  0.31550000  1.0
  C  C46  1  0.51809000  0.43986000  0.22574000  1.0
  C  C47  1  0.50048000  0.38403000  0.25757000  1.0
  C  C48  1  0.48258000  0.35445000  0.23114000  1.0
  C  C49  1  0.47675000  0.37923000  0.17562000  1.0
  C  C50  1  0.50139000  0.43544000  0.14378000  1.0
  C  C51  1  0.52508000  0.46538000  0.17005000  1.0
  C  C52  1  0.50137000  0.24587000  0.73125000  1.0
  C  C53  1  0.47675000  0.22149000  0.78746000  1.0
  C  C54  1  0.48256000  0.25223000  0.81224000  1.0
  C  C55  1  0.50048000  0.30824000  0.78267000  1.0
  C  C56  1  0.51807000  0.33224000  0.72684000  1.0
  C  C57  1  0.52507000  0.30208000  0.70131000  1.0
  C  C58  1  0.50058000  0.34197000  0.80687000  1.0
  C  C59  1  0.50058000  0.32467000  0.85983000  1.0
  C  C60  1  0.51808000  0.33441000  0.93985000  1.0
  C  C61  1  0.50048000  0.35840000  0.88403000  1.0
  C  C62  1  0.48258000  0.41441000  0.85445000  1.0
  C  C63  1  0.47676000  0.44515000  0.87923000  1.0
  C  C64  1  0.50138000  0.42078000  0.93544000  1.0
  C  C65  1  0.52507000  0.36457000  0.96538000  1.0
  C  C66  1  0.50138000  0.02288000  0.74587000  1.0
  C  C67  1  0.47676000  0.99105000  0.72149000  1.0
  C  C68  1  0.48256000  0.93553000  0.75222000  1.0
  C  C69  1  0.50048000  0.90909000  0.80824000  1.0
  C  C70  1  0.51808000  0.94092000  0.83223000  1.0
  C  C71  1  0.52508000  0.99661000  0.80208000  1.0
  C  C72  1  0.50057000  0.85116000  0.84197000  1.0
  C  C73  1  0.50057000  0.81550000  0.82467000  1.0
  C  C74  1  0.51809000  0.72574000  0.83440000  1.0
  C  C75  1  0.50048000  0.75757000  0.85840000  1.0
  C  C76  1  0.48257000  0.73114000  0.91441000  1.0
  C  C77  1  0.47675000  0.67562000  0.94515000  1.0
  C  C78  1  0.50139000  0.64378000  0.92078000  1.0
  C  C79  1  0.52508000  0.67005000  0.86457000  1.0
  C  C80  1  0.55010000  0.14150000  0.52559000  1.0
  C  C81  1  0.44779000  0.32400000  0.51378000  1.0
  C  C82  1  0.44779000  0.34269000  0.15289000  1.0
  C  C83  1  0.55013000  0.52520000  0.14106000  1.0
  C  C84  1  0.55010000  0.33291000  0.64150000  1.0
  C  C85  1  0.44780000  0.16223000  0.82399000  1.0
  C  C86  1  0.44782000  0.50442000  0.84268000  1.0
  C  C87  1  0.55011000  0.33374000  0.02520000  1.0
  C  C88  1  0.55009000  0.02559000  0.83292000  1.0
  C  C89  1  0.44780000  0.01378000  0.66222000  1.0
  C  C90  1  0.44781000  0.65290000  0.00441000  1.0
  C  C91  1  0.55012000  0.64106000  0.83374000  1.0
  O  O92  1  0.26405000  0.44765000  0.99397000  1.0
  O  O93  1  0.26405000  0.55838000  0.94765000  1.0
  O  O94  1  0.26405000  0.49397000  0.05838000  1.0
  O  O95  1  0.73832000  0.48655000  0.95232000  1.0
  O  O96  1  0.73832000  0.45232000  0.06113000  1.0
  O  O97  1  0.73832000  0.56113000  0.98655000  1.0
  O  O98  1  0.26405000  0.10828000  0.71901000  1.0
  O  O99  1  0.26405000  0.17271000  0.60828000  1.0
  O  O100  1  0.26405000  0.21901000  0.67271000  1.0
  O  O101  1  0.73832000  0.10554000  0.68011000  1.0
  O  O102  1  0.73832000  0.18011000  0.71435000  1.0
  O  O103  1  0.73832000  0.21435000  0.60554000  1.0
  O  O104  1  0.76092000  0.11899000  0.56727000  1.0
  O  O105  1  0.38352000  0.11491000  0.51286000  1.0
  O  O106  1  0.23683000  0.30877000  0.55504000  1.0
  O  O107  1  0.60989000  0.36446000  0.49653000  1.0
  O  O108  1  0.23682000  0.35791000  0.11164000  1.0
  O  O109  1  0.60989000  0.30222000  0.17016000  1.0
  O  O110  1  0.76094000  0.54770000  0.09938000  1.0
  O  O111  1  0.38356000  0.55179000  0.15379000  1.0
  O  O112  1  0.76091000  0.31374000  0.61899000  1.0
  O  O113  1  0.38352000  0.37223000  0.61491000  1.0
  O  O114  1  0.23683000  0.13619000  0.80877000  1.0
  O  O115  1  0.60989000  0.13901000  0.86446000  1.0
  O  O116  1  0.23684000  0.53046000  0.85790000  1.0
  O  O117  1  0.60993000  0.52762000  0.80223000  1.0
  O  O118  1  0.76092000  0.35292000  0.04770000  1.0
  O  O119  1  0.38353000  0.29442000  0.05179000  1.0
  O  O120  1  0.76091000  0.06727000  0.81374000  1.0
  O  O121  1  0.38351000  0.01286000  0.87223000  1.0
  O  O122  1  0.23683000  0.05504000  0.63618000  1.0
  O  O123  1  0.60990000  0.99652000  0.63902000  1.0
  O  O124  1  0.23684000  0.61164000  0.03045000  1.0
  O  O125  1  0.60992000  0.67015000  0.02762000  1.0
  O  O126  1  0.76093000  0.59938000  0.85292000  1.0
  O  O127  1  0.38355000  0.65379000  0.79442000  1.0
