# generated using pymatgen
data_CdH8C14S2(N3O)2
_symmetry_space_group_name_H-M   'P 1'
_cell_length_a   10.59220000
_cell_length_b   10.81080000
_cell_length_c   17.49260000
_cell_angle_alpha   90.00110000
_cell_angle_beta   90.00020000
_cell_angle_gamma   92.54720000
_symmetry_Int_Tables_number   1
_chemical_formula_structural   CdH8C14S2(N3O)2
_chemical_formula_sum   'Cd4 H32 C56 S8 N24 O8'
_cell_volume   2001.10120499
_cell_formula_units_Z   4
loop_
 _symmetry_equiv_pos_site_id
 _symmetry_equiv_pos_as_xyz
  1  'x, y, z'
loop_
 _atom_site_type_symbol
 _atom_site_label
 _atom_site_symmetry_multiplicity
 _atom_site_fract_x
 _atom_site_fract_y
 _atom_site_fract_z
 _atom_site_occupancy
  Cd  Cd0  1  0.24754000  0.16085000  0.74811000  1.0
  Cd  Cd1  1  0.75247000  0.33915000  0.24812000  1.0
  Cd  Cd2  1  0.75247000  0.83915000  0.25189000  1.0
  Cd  Cd3  1  0.24754000  0.66085000  0.75189000  1.0
  H  H4  1  0.97400000  0.73131000  0.15484000  1.0
  H  H5  1  0.02603000  0.76870000  0.65483000  1.0
  H  H6  1  0.02600000  0.26869000  0.84516000  1.0
  H  H7  1  0.97397000  0.23130000  0.34518000  1.0
  H  H8  1  0.06689000  0.72162000  0.02398000  1.0
  H  H9  1  0.93312000  0.77838000  0.52398000  1.0
  H  H10  1  0.93310000  0.27837000  0.97601000  1.0
  H  H11  1  0.06685000  0.22161000  0.47604000  1.0
  H  H12  1  0.78777000  0.97599000  0.94999000  1.0
  H  H13  1  0.21220000  0.52397000  0.44999000  1.0
  H  H14  1  0.21221000  0.02399000  0.05000000  1.0
  H  H15  1  0.78775000  0.47601000  0.55003000  1.0
  H  H16  1  0.70323000  0.97154000  0.08416000  1.0
  H  H17  1  0.29676000  0.52843000  0.58415000  1.0
  H  H18  1  0.29677000  0.02846000  0.91584000  1.0
  H  H19  1  0.70321000  0.47156000  0.41586000  1.0
  H  H20  1  0.78673000  0.00442000  0.41029000  1.0
  H  H21  1  0.21330000  0.49557000  0.91028000  1.0
  H  H22  1  0.21327000  0.99560000  0.58969000  1.0
  H  H23  1  0.78672000  0.50442000  0.08972000  1.0
  H  H24  1  0.69899000  0.01674000  0.54335000  1.0
  H  H25  1  0.30104000  0.48325000  0.04334000  1.0
  H  H26  1  0.30100000  0.98329000  0.45664000  1.0
  H  H27  1  0.69900000  0.51675000  0.95665000  1.0
  H  H28  1  0.46212000  0.69193000  0.49056000  1.0
  H  H29  1  0.53789000  0.80808000  0.99056000  1.0
  H  H30  1  0.53787000  0.30809000  0.50943000  1.0
  H  H31  1  0.46214000  0.19193000  0.00944000  1.0
  H  H32  1  0.55945000  0.69249000  0.36052000  1.0
  H  H33  1  0.44055000  0.80752000  0.86051000  1.0
  H  H34  1  0.44055000  0.30752000  0.63948000  1.0
  H  H35  1  0.55946000  0.19249000  0.13949000  1.0
  C  C36  1  0.93448000  0.78338000  0.10794000  1.0
  C  C37  1  0.06555000  0.71663000  0.60794000  1.0
  C  C38  1  0.06553000  0.21662000  0.89205000  1.0
  C  C39  1  0.93443000  0.28336000  0.39207000  1.0
  C  C40  1  0.98589000  0.77755000  0.03524000  1.0
  C  C41  1  0.01412000  0.72245000  0.53524000  1.0
  C  C42  1  0.01410000  0.22244000  0.96475000  1.0
  C  C43  1  0.98585000  0.27754000  0.46478000  1.0
  C  C44  1  0.93400000  0.84786000  0.97651000  1.0
  C  C45  1  0.06602000  0.65215000  0.47651000  1.0
  C  C46  1  0.06600000  0.15214000  0.02348000  1.0
  C  C47  1  0.93395000  0.34783000  0.52352000  1.0
  C  C48  1  0.83054000  0.91965000  0.99379000  1.0
  C  C49  1  0.16945000  0.58033000  0.49378000  1.0
  C  C50  1  0.16945000  0.08034000  0.00621000  1.0
  C  C51  1  0.83050000  0.41964000  0.50624000  1.0
  C  C52  1  0.78382000  0.91766000  0.06813000  1.0
  C  C53  1  0.21618000  0.58232000  0.56812000  1.0
  C  C54  1  0.21617000  0.08233000  0.93187000  1.0
  C  C55  1  0.78379000  0.41767000  0.43190000  1.0
  C  C56  1  0.99186000  0.84729000  0.90154000  1.0
  C  C57  1  0.00816000  0.65271000  0.40154000  1.0
  C  C58  1  0.00814000  0.15271000  0.09845000  1.0
  C  C59  1  0.99182000  0.34728000  0.59848000  1.0
  C  C60  1  0.04655000  0.90989000  0.78712000  1.0
  C  C61  1  0.95346000  0.59010000  0.28712000  1.0
  C  C62  1  0.95346000  0.09010000  0.21288000  1.0
  C  C63  1  0.04655000  0.40990000  0.71290000  1.0
  C  C64  1  0.71446000  0.93711000  0.43064000  1.0
  C  C65  1  0.28556000  0.56289000  0.93063000  1.0
  C  C66  1  0.28553000  0.06291000  0.56935000  1.0
  C  C67  1  0.71446000  0.43712000  0.06937000  1.0
  C  C68  1  0.66588000  0.94366000  0.50441000  1.0
  C  C69  1  0.33416000  0.55634000  0.00441000  1.0
  C  C70  1  0.33412000  0.05636000  0.49558000  1.0
  C  C71  1  0.66586000  0.44367000  0.99560000  1.0
  C  C72  1  0.57237000  0.85514000  0.52714000  1.0
  C  C73  1  0.42765000  0.64485000  0.02714000  1.0
  C  C74  1  0.42763000  0.14488000  0.47285000  1.0
  C  C75  1  0.57237000  0.35516000  0.97286000  1.0
  C  C76  1  0.53413000  0.76235000  0.47468000  1.0
  C  C77  1  0.46589000  0.73765000  0.97467000  1.0
  C  C78  1  0.46587000  0.23766000  0.52531000  1.0
  C  C79  1  0.53413000  0.26236000  0.02532000  1.0
  C  C80  1  0.58731000  0.76368000  0.40230000  1.0
  C  C81  1  0.41270000  0.73631000  0.90229000  1.0
  C  C82  1  0.41269000  0.23633000  0.59770000  1.0
  C  C83  1  0.58731000  0.26369000  0.09771000  1.0
  C  C84  1  0.51112000  0.85789000  0.60105000  1.0
  C  C85  1  0.48889000  0.64211000  0.10105000  1.0
  C  C86  1  0.48888000  0.14211000  0.39894000  1.0
  C  C87  1  0.51113000  0.35790000  0.89895000  1.0
  C  C88  1  0.45123000  0.92526000  0.71240000  1.0
  C  C89  1  0.54876000  0.57475000  0.21240000  1.0
  C  C90  1  0.54878000  0.07474000  0.28759000  1.0
  C  C91  1  0.45125000  0.42526000  0.78760000  1.0
  S  S92  1  0.05037000  0.00073000  0.70901000  1.0
  S  S93  1  0.94962000  0.49925000  0.20901000  1.0
  S  S94  1  0.94964000  0.99926000  0.29099000  1.0
  S  S95  1  0.05038000  0.50074000  0.79100000  1.0
  S  S96  1  0.44557000  0.02053000  0.78822000  1.0
  S  S97  1  0.55441000  0.47947000  0.28822000  1.0
  S  S98  1  0.55444000  0.97947000  0.21177000  1.0
  S  S99  1  0.44559000  0.52054000  0.71177000  1.0
  N  N100  1  0.83475000  0.85151000  0.12443000  1.0
  N  N101  1  0.16528000  0.64848000  0.62443000  1.0
  N  N102  1  0.16526000  0.14849000  0.87557000  1.0
  N  N103  1  0.83471000  0.35151000  0.37559000  1.0
  N  N104  1  0.07703000  0.77246000  0.87787000  1.0
  N  N105  1  0.92298000  0.72754000  0.37786000  1.0
  N  N106  1  0.92297000  0.22753000  0.12213000  1.0
  N  N107  1  0.07701000  0.27246000  0.62215000  1.0
  N  N108  1  0.11148000  0.81090000  0.80557000  1.0
  N  N109  1  0.88852000  0.68909000  0.30557000  1.0
  N  N110  1  0.88853000  0.18909000  0.19443000  1.0
  N  N111  1  0.11148000  0.31092000  0.69444000  1.0
  N  N112  1  0.67539000  0.84989000  0.38012000  1.0
  N  N113  1  0.32462000  0.65010000  0.88011000  1.0
  N  N114  1  0.32461000  0.15012000  0.61988000  1.0
  N  N115  1  0.67539000  0.34991000  0.11989000  1.0
  N  N116  1  0.42625000  0.77681000  0.62657000  1.0
  N  N117  1  0.57376000  0.72319000  0.12657000  1.0
  N  N118  1  0.57376000  0.22319000  0.37341000  1.0
  N  N119  1  0.42626000  0.27682000  0.87343000  1.0
  N  N120  1  0.38825000  0.81847000  0.69672000  1.0
  N  N121  1  0.61175000  0.68154000  0.19672000  1.0
  N  N122  1  0.61176000  0.18154000  0.30327000  1.0
  N  N123  1  0.38827000  0.31846000  0.80328000  1.0
  O  O124  1  0.96562000  0.93465000  0.84797000  1.0
  O  O125  1  0.03440000  0.56535000  0.34796000  1.0
  O  O126  1  0.03439000  0.06534000  0.15203000  1.0
  O  O127  1  0.96558000  0.43463000  0.65205000  1.0
  O  O128  1  0.53336000  0.95322000  0.65137000  1.0
  O  O129  1  0.46664000  0.54678000  0.15136000  1.0
  O  O130  1  0.46665000  0.04678000  0.34862000  1.0
  O  O131  1  0.53338000  0.45323000  0.84864000  1.0
