# generated using pymatgen
data_NiH22C30(N3O2)2
_symmetry_space_group_name_H-M   'P 1'
_cell_length_a   11.10950000
_cell_length_b   11.10960000
_cell_length_c   12.91660000
_cell_angle_alpha   109.31400000
_cell_angle_beta   109.31400000
_cell_angle_gamma   99.89350000
_symmetry_Int_Tables_number   1
_chemical_formula_structural   NiH22C30(N3O2)2
_chemical_formula_sum   'Ni2 H44 C60 N12 O8'
_cell_volume   1347.16773649
_cell_formula_units_Z   2
loop_
 _symmetry_equiv_pos_site_id
 _symmetry_equiv_pos_as_xyz
  1  'x, y, z'
loop_
 _atom_site_type_symbol
 _atom_site_label
 _atom_site_symmetry_multiplicity
 _atom_site_fract_x
 _atom_site_fract_y
 _atom_site_fract_z
 _atom_site_occupancy
  Ni  Ni0  1  0.92044000  0.08014000  0.25083000  1.0
  Ni  Ni1  1  0.08014000  0.92043000  0.75083000  1.0
  H  H2  1  0.46581000  0.10358000  0.49579000  1.0
  H  H3  1  0.10358000  0.46582000  0.99579000  1.0
  H  H4  1  0.43458000  0.17709000  0.68515000  1.0
  H  H5  1  0.17709000  0.43459000  0.18515000  1.0
  H  H6  1  0.63124000  0.30788000  0.88234000  1.0
  H  H7  1  0.30787000  0.63125000  0.38234000  1.0
  H  H8  1  0.86265000  0.36670000  0.88785000  1.0
  H  H9  1  0.36669000  0.86266000  0.38785000  1.0
  H  H10  1  0.89382000  0.29603000  0.69941000  1.0
  H  H11  1  0.29604000  0.89382000  0.19941000  1.0
  H  H12  1  0.49446000  0.06031000  0.31864000  1.0
  H  H13  1  0.06030000  0.49446000  0.81865000  1.0
  H  H14  1  0.23509000  0.48412000  0.68492000  1.0
  H  H15  1  0.48412000  0.23511000  0.18492000  1.0
  H  H16  1  0.38579000  0.67023000  0.88453000  1.0
  H  H17  1  0.67023000  0.38581000  0.38454000  1.0
  H  H18  1  0.63024000  0.74785000  0.94461000  1.0
  H  H19  1  0.74785000  0.63026000  0.44462000  1.0
  H  H20  1  0.72745000  0.63930000  0.80183000  1.0
  H  H21  1  0.63929000  0.72748000  0.30183000  1.0
  H  H22  1  0.57898000  0.45338000  0.60315000  1.0
  H  H23  1  0.45337000  0.57899000  0.10315000  1.0
  H  H24  1  0.40966000  0.33067000  0.38690000  1.0
  H  H25  1  0.33066000  0.40965000  0.88690000  1.0
  H  H26  1  0.87731000  0.81517000  0.06311000  1.0
  H  H27  1  0.81519000  0.87731000  0.56312000  1.0
  H  H28  1  0.86706000  0.58506000  0.04823000  1.0
  H  H29  1  0.58507000  0.86706000  0.54824000  1.0
  H  H30  1  0.95956000  0.74109000  0.43112000  1.0
  H  H31  1  0.74110000  0.95955000  0.93112000  1.0
  H  H32  1  0.97286000  0.96290000  0.42996000  1.0
  H  H33  1  0.96291000  0.97286000  0.92996000  1.0
  H  H34  1  0.83694000  0.17855000  0.05567000  1.0
  H  H35  1  0.17856000  0.83692000  0.55566000  1.0
  H  H36  1  0.82705000  0.39502000  0.04378000  1.0
  H  H37  1  0.39503000  0.82703000  0.54378000  1.0
  H  H38  1  0.98704000  0.57692000  0.43427000  1.0
  H  H39  1  0.57693000  0.98704000  0.93427000  1.0
  H  H40  1  0.98192000  0.35614000  0.42911000  1.0
  H  H41  1  0.35614000  0.98192000  0.92910000  1.0
  H  H42  1  0.91625000  0.18792000  0.53593000  1.0
  H  H43  1  0.18793000  0.91625000  0.03592000  1.0
  H  H44  1  0.14610000  0.26392000  0.55205000  1.0
  H  H45  1  0.26392000  0.14611000  0.05206000  1.0
  C  C46  1  0.68236000  0.19254000  0.58384000  1.0
  C  C47  1  0.19254000  0.68237000  0.08384000  1.0
  C  C48  1  0.55314000  0.16067000  0.58185000  1.0
  C  C49  1  0.16066000  0.55315000  0.08185000  1.0
  C  C50  1  0.53540000  0.20224000  0.68843000  1.0
  C  C51  1  0.20223000  0.53540000  0.18843000  1.0
  C  C52  1  0.64625000  0.27581000  0.79937000  1.0
  C  C53  1  0.27580000  0.64625000  0.29937000  1.0
  C  C54  1  0.77480000  0.30839000  0.80221000  1.0
  C  C55  1  0.30839000  0.77481000  0.30221000  1.0
  C  C56  1  0.79314000  0.26797000  0.69580000  1.0
  C  C57  1  0.26797000  0.79314000  0.19580000  1.0
  C  C58  1  0.69870000  0.14542000  0.47104000  1.0
  C  C59  1  0.14541000  0.69870000  0.97103000  1.0
  C  C60  1  0.60233000  0.08200000  0.35139000  1.0
  C  C61  1  0.08200000  0.60233000  0.85139000  1.0
  C  C62  1  0.67473000  0.05485000  0.28038000  1.0
  C  C63  1  0.05485000  0.67472000  0.78038000  1.0
  C  C64  1  0.62978000  0.98660000  0.14734000  1.0
  C  C65  1  0.98660000  0.62978000  0.64734000  1.0
  C  C66  1  0.39681000  0.45466000  0.63008000  1.0
  C  C67  1  0.45466000  0.39682000  0.13008000  1.0
  C  C68  1  0.34320000  0.51637000  0.71069000  1.0
  C  C69  1  0.51637000  0.34322000  0.21069000  1.0
  C  C70  1  0.42756000  0.62051000  0.82319000  1.0
  C  C71  1  0.62051000  0.42759000  0.32319000  1.0
  C  C72  1  0.56612000  0.66479000  0.85702000  1.0
  C  C73  1  0.66478000  0.56614000  0.35703000  1.0
  C  C74  1  0.61967000  0.60500000  0.77692000  1.0
  C  C75  1  0.60499000  0.61970000  0.27692000  1.0
  C  C76  1  0.53604000  0.50093000  0.66422000  1.0
  C  C77  1  0.50093000  0.53605000  0.16423000  1.0
  C  C78  1  0.30963000  0.34415000  0.51263000  1.0
  C  C79  1  0.34415000  0.30964000  0.01263000  1.0
  C  C80  1  0.32530000  0.29369000  0.40478000  1.0
  C  C81  1  0.29369000  0.32529000  0.90478000  1.0
  C  C82  1  0.20485000  0.18914000  0.32224000  1.0
  C  C83  1  0.18915000  0.20484000  0.82223000  1.0
  C  C84  1  0.15251000  0.10067000  0.19184000  1.0
  C  C85  1  0.10067000  0.15249000  0.69183000  1.0
  C  C86  1  0.89518000  0.79309000  0.14197000  1.0
  C  C87  1  0.79310000  0.89518000  0.64197000  1.0
  C  C88  1  0.88955000  0.66481000  0.13501000  1.0
  C  C89  1  0.66482000  0.88955000  0.63502000  1.0
  C  C90  1  0.91384000  0.64137000  0.23919000  1.0
  C  C91  1  0.64138000  0.91384000  0.73919000  1.0
  C  C92  1  0.94333000  0.75145000  0.34687000  1.0
  C  C93  1  0.75146000  0.94332000  0.84688000  1.0
  C  C94  1  0.94866000  0.87666000  0.34658000  1.0
  C  C95  1  0.87666000  0.94866000  0.84658000  1.0
  C  C96  1  0.86954000  0.27007000  0.13706000  1.0
  C  C97  1  0.27007000  0.86952000  0.63706000  1.0
  C  C98  1  0.86560000  0.39193000  0.13160000  1.0
  C  C99  1  0.39194000  0.86558000  0.63160000  1.0
  C  C100  1  0.91090000  0.50837000  0.23849000  1.0
  C  C101  1  0.50837000  0.91089000  0.73849000  1.0
  C  C102  1  0.95472000  0.49370000  0.34706000  1.0
  C  C103  1  0.49370000  0.95472000  0.84706000  1.0
  C  C104  1  0.95276000  0.36809000  0.34498000  1.0
  C  C105  1  0.36810000  0.95275000  0.84498000  1.0
  N  N106  1  0.82075000  0.15372000  0.46579000  1.0
  N  N107  1  0.15373000  0.82075000  0.96579000  1.0
  N  N108  1  0.80745000  0.09924000  0.35136000  1.0
  N  N109  1  0.09924000  0.80745000  0.85135000  1.0
  N  N110  1  0.18549000  0.26805000  0.48992000  1.0
  N  N111  1  0.26805000  0.18549000  0.98992000  1.0
  N  N112  1  0.12081000  0.17443000  0.37572000  1.0
  N  N113  1  0.17445000  0.12080000  0.87572000  1.0
  N  N114  1  0.92432000  0.89751000  0.24590000  1.0
  N  N115  1  0.89752000  0.92432000  0.74590000  1.0
  N  N116  1  0.91334000  0.25796000  0.24243000  1.0
  N  N117  1  0.25796000  0.91333000  0.74243000  1.0
  O  O118  1  0.50716000  0.93361000  0.08072000  1.0
  O  O119  1  0.93360000  0.50715000  0.58072000  1.0
  O  O120  1  0.72649000  0.98772000  0.11141000  1.0
  O  O121  1  0.98772000  0.72648000  0.61141000  1.0
  O  O122  1  0.02522000  0.04843000  0.13492000  1.0
  O  O123  1  0.04844000  0.02520000  0.63492000  1.0
  O  O124  1  0.23612000  0.07971000  0.14503000  1.0
  O  O125  1  0.07972000  0.23611000  0.64503000  1.0
