# generated using pymatgen
data_Zn4H46C73N20
_symmetry_space_group_name_H-M   'P 1'
_cell_length_a   19.75200000
_cell_length_b   20.25000000
_cell_length_c   21.53720000
_cell_angle_alpha   105.01700000
_cell_angle_beta   108.95500000
_cell_angle_gamma   111.70600000
_symmetry_Int_Tables_number   1
_chemical_formula_structural   Zn4H46C73N20
_chemical_formula_sum   'Zn4 H46 C73 N20'
_cell_volume   6828.31160234
_cell_formula_units_Z   1
loop_
 _symmetry_equiv_pos_site_id
 _symmetry_equiv_pos_as_xyz
  1  'x, y, z'
loop_
 _atom_site_type_symbol
 _atom_site_label
 _atom_site_symmetry_multiplicity
 _atom_site_fract_x
 _atom_site_fract_y
 _atom_site_fract_z
 _atom_site_occupancy
  Zn  Zn0  1  0.40617000  0.40024000  0.49595000  1.0
  Zn  Zn1  1  0.63094000  0.63610000  0.53218000  1.0
  Zn  Zn2  1  0.42497000  0.49297000  0.38648000  1.0
  Zn  Zn3  1  0.61030000  0.51642000  0.62023000  1.0
  H  H4  1  0.21508000  0.24833000  0.38785000  1.0
  H  H5  1  0.23700000  0.47387000  0.34628000  1.0
  H  H6  1  0.69391000  0.66560000  0.78934000  1.0
  H  H7  1  0.64519000  0.77770000  0.64736000  1.0
  H  H8  1  0.30952000  0.46453000  0.55514000  1.0
  H  H9  1  0.59201000  0.53214000  0.75872000  1.0
  H  H10  1  0.38121000  0.62940000  0.38365000  1.0
  H  H11  1  0.42944000  0.98243000  0.29773000  1.0
  H  H12  1  0.56351000  0.95453000  0.34524000  1.0
  H  H13  1  0.35966000  0.89945000  0.36858000  1.0
  H  H14  1  0.70781000  0.56911000  0.43438000  1.0
  H  H15  1  0.44648000  0.04238000  0.49651000  1.0
  H  H16  1  0.58094000  0.01420000  0.54446000  1.0
  H  H17  1  0.65073000  0.09753000  0.47316000  1.0
  H  H18  1  0.83708000  0.29006000  0.38736000  1.0
  H  H19  1  0.91067000  0.34664000  0.30564000  1.0
  H  H20  1  0.99538000  0.36520000  0.50844000  1.0
  H  H21  1  0.98276000  0.50261000  0.55668000  1.0
  H  H22  1  0.05720000  0.55979000  0.47457000  1.0
  H  H23  1  0.41812000  0.32343000  0.13730000  1.0
  H  H24  1  0.43181000  0.36417000  0.26773000  1.0
  H  H25  1  0.42111000  0.28680000  0.01929000  1.0
  H  H26  1  0.35462000  0.29050000  0.82913000  1.0
  H  H27  1  0.34552000  0.32449000  0.72474000  1.0
  H  H28  1  0.67770000  0.49333000  0.24666000  1.0
  H  H29  1  0.61900000  0.41961000  0.92959000  1.0
  H  H30  1  0.67994000  0.45592000  0.12786000  1.0
  H  H31  1  0.61132000  0.45204000  0.82481000  1.0
  H  H32  1  0.69686000  0.76435000  0.88022000  1.0
  H  H33  1  0.77795000  0.88809000  0.99392000  1.0
  H  H34  1  0.95963000  0.02797000  0.18030000  1.0
  H  H35  1  0.62504000  0.34029000  0.59946000  1.0
  H  H36  1  0.10151000  0.12679000  0.28042000  1.0
  H  H37  1  0.98101000  0.17157000  0.06412000  1.0
  H  H38  1  0.79990000  0.02330000  0.87028000  1.0
  H  H39  1  0.12223000  0.27171000  0.16434000  1.0
  H  H40  1  0.63889000  0.57900000  0.31115000  1.0
  H  H41  1  0.43802000  0.28878000  0.39137000  1.0
  H  H42  1  0.72337000  0.45062000  0.57485000  1.0
  H  H43  1  0.27635000  0.32116000  0.23218000  1.0
  H  H44  1  0.35497000  0.32320000  0.60767000  1.0
  H  H45  1  0.68850000  0.82428000  0.47924000  1.0
  H  H46  1  0.66824000  0.86738000  0.54872000  1.0
  H  H47  1  0.71184000  0.80511000  0.55733000  1.0
  H  H48  1  0.89792000  0.48365000  0.35301000  1.0
  H  H49  1  0.72190000  0.90017000  0.75589000  1.0
  C  C50  1  0.24356000  0.27416000  0.35839000  1.0
  C  C51  1  0.73373000  0.49577000  0.49154000  1.0
  C  C52  1  0.54011000  0.45200000  0.26389000  1.0
  C  C53  1  0.53189000  0.28353000  0.48086000  1.0
  C  C54  1  0.41336000  0.37795000  0.63550000  1.0
  C  C55  1  0.58275000  0.74435000  0.48129000  1.0
  C  C56  1  0.26836000  0.47442000  0.39834000  1.0
  C  C57  1  0.67845000  0.68186000  0.74459000  1.0
  C  C58  1  0.65486000  0.74009000  0.67302000  1.0
  C  C59  1  0.30526000  0.46990000  0.50532000  1.0
  C  C60  1  0.53477000  0.48382000  0.71198000  1.0
  C  C61  1  0.70704000  0.54737000  0.47522000  1.0
  C  C62  1  0.44775000  0.65903000  0.41612000  1.0
  C  C63  1  0.47472000  0.41620000  0.70863000  1.0
  C  C64  1  0.50669000  0.73808000  0.43996000  1.0
  C  C65  1  0.23868000  0.46286000  0.44829000  1.0
  C  C66  1  0.67820000  0.75173000  0.74563000  1.0
  C  C67  1  0.53773000  0.97468000  0.37907000  1.0
  C  C68  1  0.46315000  0.98934000  0.35267000  1.0
  C  C69  1  0.52642000  0.20975000  0.45236000  1.0
  C  C70  1  0.49694000  0.79967000  0.42763000  1.0
  C  C71  1  0.58610000  0.05288000  0.45025000  1.0
  C  C72  1  0.48080000  0.42356000  0.28657000  1.0
  C  C73  1  0.51174000  0.06940000  0.42416000  1.0
  C  C74  1  0.54752000  0.00815000  0.48982000  1.0
  C  C75  1  0.49902000  0.92773000  0.41867000  1.0
  C  C76  1  0.47261000  0.02193000  0.46321000  1.0
  C  C77  1  0.42445000  0.94393000  0.39199000  1.0
  C  C78  1  0.51978000  0.14440000  0.43393000  1.0
  C  C79  1  0.49564000  0.85712000  0.42035000  1.0
  C  C80  1  0.92664000  0.38167000  0.36154000  1.0
  C  C81  1  0.88627000  0.35021000  0.40698000  1.0
  C  C82  1  0.77535000  0.46379000  0.46315000  1.0
  C  C83  1  0.57987000  0.34029000  0.55429000  1.0
  C  C84  1  0.15977000  0.44600000  0.44049000  1.0
  C  C85  1  0.92064000  0.45793000  0.38796000  1.0
  C  C86  1  0.87925000  0.42712000  0.43393000  1.0
  C  C87  1  0.00740000  0.50019000  0.45548000  1.0
  C  C88  1  0.01563000  0.42408000  0.42916000  1.0
  C  C89  1  0.96821000  0.46842000  0.50107000  1.0
  C  C90  1  0.97350000  0.39199000  0.47426000  1.0
  C  C91  1  0.81631000  0.43899000  0.44374000  1.0
  C  C92  1  0.09033000  0.42996000  0.43169000  1.0
  C  C93  1  0.47780000  0.39202000  0.76736000  1.0
  C  C94  1  0.58753000  0.53382000  0.31130000  1.0
  C  C95  1  0.55460000  0.41708000  0.82570000  1.0
  C  C96  1  0.55962000  0.39844000  0.88397000  1.0
  C  C97  1  0.48699000  0.35312000  0.88586000  1.0
  C  C98  1  0.41031000  0.32498000  0.82668000  1.0
  C  C99  1  0.40576000  0.34423000  0.76856000  1.0
  C  C100  1  0.47705000  0.33141000  0.06953000  1.0
  C  C101  1  0.47592000  0.35216000  0.13556000  1.0
  C  C102  1  0.54989000  0.37258000  0.06588000  1.0
  C  C103  1  0.54646000  0.41502000  0.19991000  1.0
  C  C104  1  0.62127000  0.44810000  0.19691000  1.0
  C  C105  1  0.48476000  0.31373000  0.44731000  1.0
  C  C106  1  0.62315000  0.42707000  0.13103000  1.0
  C  C107  1  0.12306000  0.20601000  0.22925000  1.0
  C  C108  1  0.08678000  0.21807000  0.16790000  1.0
  C  C109  1  0.00781000  0.16310000  0.11224000  1.0
  C  C110  1  0.96178000  0.09330000  0.11606000  1.0
  C  C111  1  0.99573000  0.08255000  0.17848000  1.0
  C  C112  1  0.07481000  0.13787000  0.23399000  1.0
  C  C113  1  0.76427000  0.88969000  0.94127000  1.0
  C  C114  1  0.71998000  0.82094000  0.87747000  1.0
  C  C115  1  0.79715000  0.96341000  0.93924000  1.0
  C  C116  1  0.71431000  0.48696000  0.54750000  1.0
  C  C117  1  0.70745000  0.82275000  0.80956000  1.0
  C  C118  1  0.73241000  0.89661000  0.80758000  1.0
  C  C119  1  0.77612000  0.96588000  0.87131000  1.0
  C  C120  1  0.27491000  0.31268000  0.27968000  1.0
  C  C121  1  0.20808000  0.26100000  0.28517000  1.0
  C  C122  1  0.66720000  0.81373000  0.51885000  1.0
  N  N123  1  0.32393000  0.32892000  0.39241000  1.0
  N  N124  1  0.56754000  0.67336000  0.48005000  1.0
  N  N125  1  0.34546000  0.48652000  0.42422000  1.0
  N  N126  1  0.65895000  0.63392000  0.67767000  1.0
  N  N127  1  0.64387000  0.66990000  0.63301000  1.0
  N  N128  1  0.36929000  0.48359000  0.49018000  1.0
  N  N129  1  0.51167000  0.48524000  0.64615000  1.0
  N  N130  1  0.48504000  0.62053000  0.44022000  1.0
  N  N131  1  0.48400000  0.34010000  0.94632000  1.0
  N  N132  1  0.55398000  0.37208000  0.00182000  1.0
  N  N133  1  0.88794000  0.02762000  0.05847000  1.0
  N  N134  1  0.67526000  0.56755000  0.51896000  1.0
  N  N135  1  0.85932000  0.03524000  0.00024000  1.0
  N  N136  1  0.49362000  0.48498000  0.34246000  1.0
  N  N137  1  0.56109000  0.39799000  0.56335000  1.0
  N  N138  1  0.55948000  0.55362000  0.35757000  1.0
  N  N139  1  0.50224000  0.38209000  0.49731000  1.0
  N  N140  1  0.67967000  0.53018000  0.56373000  1.0
  N  N141  1  0.34434000  0.35310000  0.34394000  1.0
  N  N142  1  0.43658000  0.41920000  0.59906000  1.0
