# generated using pymatgen
data_Zn3H36C53N4O19
_symmetry_space_group_name_H-M   'P 1'
_cell_length_a   14.62500000
_cell_length_b   15.10377848
_cell_length_c   16.37990000
_cell_angle_alpha   79.89729781
_cell_angle_beta   67.19030000
_cell_angle_gamma   61.89900172
_symmetry_Int_Tables_number   1
_chemical_formula_structural   Zn3H36C53N4O19
_chemical_formula_sum   'Zn6 H72 C106 N8 O38'
_cell_volume   2941.97038245
_cell_formula_units_Z   2
loop_
 _symmetry_equiv_pos_site_id
 _symmetry_equiv_pos_as_xyz
  1  'x, y, z'
loop_
 _atom_site_type_symbol
 _atom_site_label
 _atom_site_symmetry_multiplicity
 _atom_site_fract_x
 _atom_site_fract_y
 _atom_site_fract_z
 _atom_site_occupancy
  Zn  Zn0  1  0.50761000  0.99750000  0.66747000  1.0
  Zn  Zn1  1  0.34720000  0.77285000  0.92631000  1.0
  Zn  Zn2  1  0.49239000  0.00250000  0.33252000  1.0
  Zn  Zn3  1  0.72719000  0.41877000  0.30782000  1.0
  Zn  Zn4  1  0.65280000  0.22717000  0.07368000  1.0
  Zn  Zn5  1  0.27280000  0.58122000  0.69219000  1.0
  H  H6  1  0.77006000  0.59452000  0.87812000  1.0
  H  H7  1  0.90163000  0.85211000  0.73974000  1.0
  H  H8  1  0.27465000  0.82246000  0.43719000  1.0
  H  H9  1  0.33874000  0.08888000  0.50455000  1.0
  H  H10  1  0.90994000  0.24168000  0.52664000  1.0
  H  H11  1  0.99060000  0.59769000  0.11291000  1.0
  H  H12  1  0.79294000  0.60941000  0.38542000  1.0
  H  H13  1  0.66127000  0.91111000  0.49544000  1.0
  H  H14  1  0.40763000  0.29929000  0.75216000  1.0
  H  H15  1  0.83225000  0.26382000  0.01029000  1.0
  H  H16  1  0.04670000  0.91869000  0.39511000  1.0
  H  H17  1  0.60026000  0.08634000  0.88681000  1.0
  H  H18  1  0.28304000  0.95830000  0.40847000  1.0
  H  H19  1  0.46530000  0.34777000  0.84304000  1.0
  H  H20  1  0.87251000  0.58724000  0.71824000  1.0
  H  H21  1  0.87864000  0.48975000  0.61960000  1.0
  H  H22  1  0.60042000  0.41262000  0.01940000  1.0
  H  H23  1  0.91974000  0.44709000  0.31239000  1.0
  H  H24  1  0.32249000  0.65849000  0.51285000  1.0
  H  H25  1  0.59237000  0.70072000  0.24784000  1.0
  H  H26  1  0.67391000  0.89225000  0.33808000  1.0
  H  H27  1  0.84848000  0.18050000  0.95060000  1.0
  H  H28  1  0.76065000  0.88513000  0.66926000  1.0
  H  H29  1  0.47413000  0.58782000  0.87921000  1.0
  H  H30  1  0.59754000  0.11024000  0.42035000  1.0
  H  H31  1  0.00938000  0.40232000  0.88711000  1.0
  H  H32  1  0.00983000  0.32763000  0.54364000  1.0
  H  H33  1  0.45292000  0.47904000  0.42688000  1.0
  H  H34  1  0.39976000  0.91367000  0.11318000  1.0
  H  H35  1  0.42460000  0.21067000  0.25430000  1.0
  H  H36  1  0.54706000  0.52096000  0.57312000  1.0
  H  H37  1  0.03760000  0.96122000  0.69110000  1.0
  H  H38  1  0.09837000  0.14788000  0.26026000  1.0
  H  H39  1  0.16776000  0.73619000  0.98971000  1.0
  H  H40  1  0.32611000  0.10775000  0.66190000  1.0
  H  H41  1  0.09727000  0.79056000  0.75646000  1.0
  H  H42  1  0.29210000  0.21946000  0.80104000  1.0
  H  H43  1  0.19873000  0.14093000  0.10033000  1.0
  H  H44  1  0.78935000  0.74232000  0.42662000  1.0
  H  H45  1  0.39960000  0.58739000  0.98059000  1.0
  H  H46  1  0.61374000  0.66677000  0.99191000  1.0
  H  H47  1  0.70790000  0.78055000  0.19895000  1.0
  H  H48  1  0.99017000  0.67236000  0.45637000  1.0
  H  H49  1  0.52587000  0.41220000  0.12077000  1.0
  H  H50  1  0.12136000  0.51025000  0.38040000  1.0
  H  H51  1  0.20012000  0.20354000  0.96466000  1.0
  H  H52  1  0.20707000  0.39057000  0.61458000  1.0
  H  H53  1  0.96241000  0.03878000  0.30893000  1.0
  H  H54  1  0.12748000  0.41276000  0.28176000  1.0
  H  H55  1  0.38628000  0.33321000  0.00808000  1.0
  H  H56  1  0.23935000  0.11485000  0.33074000  1.0
  H  H57  1  0.40248000  0.88975000  0.57964000  1.0
  H  H58  1  0.30671000  0.38466000  0.31439000  1.0
  H  H59  1  0.29428000  0.56222000  0.86576000  1.0
  H  H60  1  0.71695000  0.04169000  0.59154000  1.0
  H  H61  1  0.80126000  0.85907000  0.89967000  1.0
  H  H62  1  0.53471000  0.65222000  0.15696000  1.0
  H  H63  1  0.67509000  0.00349000  0.31160000  1.0
  H  H64  1  0.15152000  0.81951000  0.04939000  1.0
  H  H65  1  0.32492000  0.99651000  0.68839000  1.0
  H  H66  1  0.72533000  0.17754000  0.56283000  1.0
  H  H67  1  0.90273000  0.20945000  0.24357000  1.0
  H  H68  1  0.79987000  0.79647000  0.03534000  1.0
  H  H69  1  0.09007000  0.75832000  0.47337000  1.0
  H  H70  1  0.69329000  0.61534000  0.68561000  1.0
  H  H71  1  0.67749000  0.34150000  0.48717000  1.0
  H  H72  1  0.22993000  0.40548000  0.12188000  1.0
  H  H73  1  0.70572000  0.43777000  0.13426000  1.0
  H  H74  1  0.57540000  0.78933000  0.74569000  1.0
  H  H75  1  0.21066000  0.25767000  0.57337000  1.0
  H  H76  1  0.08027000  0.55289000  0.68761000  1.0
  H  H77  1  0.95330000  0.08132000  0.60491000  1.0
  C  C78  1  0.30775000  0.32168000  0.35885000  1.0
  C  C79  1  0.53373000  0.65384000  0.49552000  1.0
  C  C80  1  0.69223000  0.67833000  0.64114000  1.0
  C  C81  1  0.56552000  0.19144000  0.42083000  1.0
  C  C82  1  0.57984000  0.59835000  0.41001000  1.0
  C  C83  1  0.82630000  0.56320000  0.50859000  1.0
  C  C84  1  0.47082000  0.18172000  0.58196000  1.0
  C  C85  1  0.82435000  0.89084000  0.60915000  1.0
  C  C86  1  0.81748000  0.79813000  0.86089000  1.0
  C  C87  1  0.45858000  0.65232000  0.65708000  1.0
  C  C88  1  0.11402000  0.51932000  0.44760000  1.0
  C  C89  1  0.93066000  0.50403000  0.08787000  1.0
  C  C90  1  0.58688000  0.24201000  0.34097000  1.0
  C  C91  1  0.15100000  0.90831000  0.55728000  1.0
  C  C92  1  0.28186000  0.27081000  0.00163000  1.0
  C  C93  1  0.92838000  0.80859000  0.57695000  1.0
  C  C94  1  0.13926000  0.49474000  0.81689000  1.0
  C  C95  1  0.37622000  0.22477000  0.32490000  1.0
  C  C96  1  0.52893000  0.00049000  0.81552000  1.0
  C  C97  1  0.07162000  0.19140000  0.42306000  1.0
  C  C98  1  0.44401000  0.59239000  0.74097000  1.0
  C  C99  1  0.00509000  0.44419000  0.93739000  1.0
  C  C100  1  0.62378000  0.77523000  0.67509000  1.0
  C  C101  1  0.23268000  0.81991000  0.50819000  1.0
  C  C102  1  0.86075000  0.50525000  0.18313000  1.0
  C  C103  1  0.55599000  0.40761000  0.25903000  1.0
  C  C104  1  0.49746000  0.75790000  0.49781000  1.0
  C  C105  1  0.20153000  0.34831000  0.15158000  1.0
  C  C106  1  0.46625000  0.34616000  0.50448000  1.0
  C  C107  1  0.67237000  0.84349000  0.53532000  1.0
  C  C108  1  0.13369000  0.80175000  0.68579000  1.0
  C  C109  1  0.24628000  0.33704000  0.45003000  1.0
  C  C110  1  0.12563000  0.20541000  0.22974000  1.0
  C  C111  1  0.15891000  0.45082000  0.57909000  1.0
  C  C112  1  0.77740000  0.72712000  0.90237000  1.0
  C  C113  1  0.96066000  0.38877000  0.50965000  1.0
  C  C114  1  0.89936000  0.10359000  0.35155000  1.0
  C  C115  1  0.42015000  0.40165000  0.58998000  1.0
  C  C116  1  0.51621000  0.60202000  0.57551000  1.0
  C  C117  1  0.41312000  0.75799000  0.65903000  1.0
  C  C118  1  0.10064000  0.89642000  0.64848000  1.0
  C  C119  1  0.08725000  0.54324000  0.62099000  1.0
  C  C120  1  0.54082000  0.05445000  0.02616000  1.0
  C  C121  1  0.93492000  0.44849000  0.02483000  1.0
  C  C122  1  0.79847000  0.65169000  0.84842000  1.0
  C  C123  1  0.85664000  0.64702000  0.75793000  1.0
  C  C124  1  0.87437000  0.79458000  0.77025000  1.0
  C  C125  1  0.86142000  0.39768000  0.04981000  1.0
  C  C126  1  0.63886000  0.69133000  0.03472000  1.0
  C  C127  1  0.47109000  0.99952000  0.18446000  1.0
  C  C128  1  0.69138000  0.75766000  0.14900000  1.0
  C  C129  1  0.50253000  0.24210000  0.50218000  1.0
  C  C130  1  0.84900000  0.09169000  0.44274000  1.0
  C  C131  1  0.32763000  0.15650000  0.46467000  1.0
  C  C132  1  0.74024000  0.76569000  0.05871000  1.0
  C  C133  1  0.00766000  0.82016000  0.49844000  1.0
  C  C134  1  0.57557000  0.12187000  0.05063000  1.0
  C  C135  1  0.10498000  0.28091000  0.28325000  1.0
  C  C136  1  0.26040000  0.72789000  0.54960000  1.0
  C  C137  1  0.87798000  0.99399000  0.48638000  1.0
  C  C138  1  0.12202000  0.00601000  0.51364000  1.0
  C  C139  1  0.45918000  0.94558000  0.97382000  1.0
  C  C140  1  0.06935000  0.49595000  0.91215000  1.0
  C  C141  1  0.36114000  0.30866000  0.96528000  1.0
  C  C142  1  0.44322000  0.95169000  0.06269000  1.0
  C  C143  1  0.71815000  0.72918000  0.99837000  1.0
  C  C144  1  0.02518000  0.62446000  0.57815000  1.0
  C  C145  1  0.18251000  0.20187000  0.13911000  1.0
  C  C146  1  0.51576000  0.99577000  0.91080000  1.0
  C  C147  1  0.42443000  0.87816000  0.94935000  1.0
  C  C148  1  0.06508000  0.55150000  0.97518000  1.0
  C  C149  1  0.19973000  0.01851000  0.43467000  1.0
  C  C150  1  0.65470000  0.18406000  0.25486000  1.0
  C  C151  1  0.75372000  0.66295000  0.54996000  1.0
  C  C152  1  0.73958000  0.27211000  0.45042000  1.0
  C  C153  1  0.86631000  0.19825000  0.31423000  1.0
  C  C154  1  0.17564000  0.10915000  0.39085000  1.0
  C  C155  1  0.25684000  0.25081000  0.50250000  1.0
  C  C156  1  0.97482000  0.37553000  0.42185000  1.0
  C  C157  1  0.43449000  0.80856000  0.57916000  1.0
  C  C158  1  0.84109000  0.54917000  0.42091000  1.0
  C  C159  1  0.48425000  0.00425000  0.08918000  1.0
  C  C160  1  0.55680000  0.04833000  0.93729000  1.0
  C  C161  1  0.03934000  0.61122000  0.49036000  1.0
  C  C162  1  0.54141000  0.34768000  0.34292000  1.0
  C  C163  1  0.40751000  0.31534000  0.87467000  1.0
  C  C164  1  0.99492000  0.55580000  0.06263000  1.0
  C  C165  1  0.48377000  0.39799000  0.42448000  1.0
  C  C166  1  0.25977000  0.23431000  0.94129000  1.0
  C  C167  1  0.17371000  0.43679000  0.49141000  1.0
  C  C168  1  0.99234000  0.17984000  0.50158000  1.0
  C  C169  1  0.89502000  0.71908000  0.71675000  1.0
  C  C170  1  0.13858000  0.60232000  0.95019000  1.0
  C  C171  1  0.34529000  0.81595000  0.74514000  1.0
  C  C172  1  0.98222000  0.91100000  0.45389000  1.0
  C  C173  1  0.76731000  0.18009000  0.49183000  1.0
  C  C174  1  0.52918000  0.81828000  0.41803000  1.0
  C  C175  1  0.74316000  0.74918000  0.49749000  1.0
  C  C176  1  0.14336000  0.35297000  0.24206000  1.0
  C  C177  1  0.91275000  0.45675000  0.37901000  1.0
  C  C178  1  0.59251000  0.68465000  0.12532000  1.0
  C  C179  1  0.30862000  0.24234000  0.85099000  1.0
  C  C180  1  0.88599000  0.48067000  0.55240000  1.0
  C  C181  1  0.01778000  0.08900000  0.54613000  1.0
  C  C182  1  0.22260000  0.27287000  0.09762000  1.0
  C  C183  1  0.80027000  0.98148000  0.56535000  1.0
  N  N184  1  0.95074000  0.71724000  0.62372000  1.0
  N  N185  1  0.04927000  0.28275000  0.37628000  1.0
  N  N186  1  0.21294000  0.71817000  0.63750000  1.0
  N  N187  1  0.78704000  0.28183000  0.36252000  1.0
  N  N188  1  0.37982000  0.28365000  0.81965000  1.0
  N  N189  1  0.62019000  0.71635000  0.18035000  1.0
  N  N190  1  0.38734000  0.14325000  0.37717000  1.0
  N  N191  1  0.61266000  0.85675000  0.62282000  1.0
  O  O192  1  0.62635000  0.78448000  0.36304000  1.0
  O  O193  1  0.14803000  0.57825000  0.79251000  1.0
  O  O194  1  0.55527000  0.38110000  0.05995000  1.0
  O  O195  1  0.67456000  0.11293000  0.00731000  1.0
  O  O196  1  0.55199000  0.99646000  0.20155000  1.0
  O  O197  1  0.38680000  0.99569000  0.24299000  1.0
  O  O198  1  0.64672000  0.50430000  0.41172000  1.0
  O  O199  1  0.44474000  0.61891000  0.94003000  1.0
  O  O200  1  0.81929000  0.57974000  0.23077000  1.0
  O  O201  1  0.75417000  0.46143000  0.07934000  1.0
  O  O202  1  0.44803000  0.00355000  0.79843000  1.0
  O  O203  1  0.61321000  0.00432000  0.75699000  1.0
  O  O204  1  0.64075000  0.42734000  0.23222000  1.0
  O  O205  1  0.79330000  0.24178000  0.98440000  1.0
  O  O206  1  0.54889000  0.09249000  0.58262000  1.0
  O  O207  1  0.29983000  0.90986000  0.74796000  1.0
  O  O208  1  0.32543000  0.88711000  0.99266000  1.0
  O  O209  1  0.45111000  0.90751000  0.41737000  1.0
  O  O210  1  0.35926000  0.57265000  0.76778000  1.0
  O  O211  1  0.50678000  0.19084000  0.10808000  1.0
  O  O212  1  0.51416000  0.56002000  0.77798000  1.0
  O  O213  1  0.85198000  0.42173000  0.20751000  1.0
  O  O214  1  0.37365000  0.21552000  0.63695000  1.0
  O  O215  1  0.48583000  0.43999000  0.22202000  1.0
  O  O216  1  0.63786000  0.96351000  0.35483000  1.0
  O  O217  1  0.45303000  0.35803000  0.65275000  1.0
  O  O218  1  0.33807000  0.75974000  0.81454000  1.0
  O  O219  1  0.54695000  0.64197000  0.34724000  1.0
  O  O220  1  0.49321000  0.80918000  0.89191000  1.0
  O  O221  1  0.89904000  0.30667000  0.03684000  1.0
  O  O222  1  0.70018000  0.09014000  0.25203000  1.0
  O  O223  1  0.18070000  0.42025000  0.76925000  1.0
  O  O224  1  0.10096000  0.69333000  0.96315000  1.0
  O  O225  1  0.35326000  0.49570000  0.58828000  1.0
  O  O226  1  0.20670000  0.75823000  0.01559000  1.0
  O  O227  1  0.36214000  0.03649000  0.64516000  1.0
  O  O228  1  0.66192000  0.24027000  0.18546000  1.0
  O  O229  1  0.24583000  0.53857000  0.92067000  1.0
