# generated using pymatgen
data_Ag2H10C7(IN)2
_symmetry_space_group_name_H-M   'P 1'
_cell_length_a   4.39135000
_cell_length_b   16.64800000
_cell_length_c   17.09033726
_cell_angle_alpha   89.99945821
_cell_angle_beta   83.92514098
_cell_angle_gamma   89.99750000
_symmetry_Int_Tables_number   1
_chemical_formula_structural   Ag2H10C7(IN)2
_chemical_formula_sum   'Ag8 H40 C28 I8 N8'
_cell_volume   1242.41042911
_cell_formula_units_Z   4
loop_
 _symmetry_equiv_pos_site_id
 _symmetry_equiv_pos_as_xyz
  1  'x, y, z'
loop_
 _atom_site_type_symbol
 _atom_site_label
 _atom_site_symmetry_multiplicity
 _atom_site_fract_x
 _atom_site_fract_y
 _atom_site_fract_z
 _atom_site_occupancy
  Ag  Ag0  1  0.95355000  0.28313000  0.93189000  1.0
  Ag  Ag1  1  0.45355000  0.21687000  0.43188000  1.0
  Ag  Ag2  1  0.04644000  0.71686000  0.06811000  1.0
  Ag  Ag3  1  0.54646000  0.78314000  0.56812000  1.0
  Ag  Ag4  1  0.28935000  0.43065000  0.98959000  1.0
  Ag  Ag5  1  0.78937000  0.06935000  0.48958000  1.0
  Ag  Ag6  1  0.71063000  0.56935000  0.01041000  1.0
  Ag  Ag7  1  0.21064000  0.93065000  0.51042000  1.0
  H  H8  1  0.04155000  0.04344000  0.72693000  1.0
  H  H9  1  0.54151000  0.45657000  0.22692000  1.0
  H  H10  1  0.95846000  0.95656000  0.27307000  1.0
  H  H11  1  0.45847000  0.54344000  0.77308000  1.0
  H  H12  1  0.44537000  0.15954000  0.66070000  1.0
  H  H13  1  0.94535000  0.34046000  0.16069000  1.0
  H  H14  1  0.55466000  0.84046000  0.33930000  1.0
  H  H15  1  0.05466000  0.65954000  0.83929000  1.0
  H  H16  1  0.63278000  0.13799000  0.91368000  1.0
  H  H17  1  0.13274000  0.36201000  0.41368000  1.0
  H  H18  1  0.36722000  0.86201000  0.08631000  1.0
  H  H19  1  0.86720000  0.63798000  0.58632000  1.0
  H  H20  1  0.52981000  0.07695000  0.83466000  1.0
  H  H21  1  0.02977000  0.42307000  0.33465000  1.0
  H  H22  1  0.47020000  0.92305000  0.16534000  1.0
  H  H23  1  0.97023000  0.57694000  0.66534000  1.0
  H  H24  1  0.04298000  0.03199000  0.93859000  1.0
  H  H25  1  0.54297000  0.46801000  0.43859000  1.0
  H  H26  1  0.95704000  0.96803000  0.06141000  1.0
  H  H27  1  0.45701000  0.53198000  0.56142000  1.0
  H  H28  1  0.54130000  0.93600000  0.86525000  1.0
  H  H29  1  0.04123000  0.56401000  0.36524000  1.0
  H  H30  1  0.45877000  0.06400000  0.13475000  1.0
  H  H31  1  0.95882000  0.43599000  0.63477000  1.0
  H  H32  1  0.82731000  0.89580000  0.92777000  1.0
  H  H33  1  0.32727000  0.60421000  0.42778000  1.0
  H  H34  1  0.17274000  0.10421000  0.07224000  1.0
  H  H35  1  0.67274000  0.39577000  0.57224000  1.0
  H  H36  1  0.33610000  0.34459000  0.79407000  1.0
  H  H37  1  0.83611000  0.15541000  0.29406000  1.0
  H  H38  1  0.66390000  0.65541000  0.20592000  1.0
  H  H39  1  0.16386000  0.84459000  0.70593000  1.0
  H  H40  1  0.38507000  0.32349000  0.69045000  1.0
  H  H41  1  0.88507000  0.17651000  0.19045000  1.0
  H  H42  1  0.61494000  0.67651000  0.30955000  1.0
  H  H43  1  0.11489000  0.82350000  0.80955000  1.0
  H  H44  1  0.66963000  0.29282000  0.75214000  1.0
  H  H45  1  0.16961000  0.20717000  0.25214000  1.0
  H  H46  1  0.33034000  0.70718000  0.24786000  1.0
  H  H47  1  0.83032000  0.79283000  0.74786000  1.0
  C  C48  1  0.05328000  0.21199000  0.82810000  1.0
  C  C49  1  0.55324000  0.28800000  0.32811000  1.0
  C  C50  1  0.94673000  0.78801000  0.17189000  1.0
  C  C51  1  0.44674000  0.71199000  0.67190000  1.0
  C  C52  1  0.09418000  0.10294000  0.74724000  1.0
  C  C53  1  0.59416000  0.39706000  0.24723000  1.0
  C  C54  1  0.90584000  0.89706000  0.25276000  1.0
  C  C55  1  0.40582000  0.60295000  0.75277000  1.0
  C  C56  1  0.29057000  0.15994000  0.71446000  1.0
  C  C57  1  0.79058000  0.34005000  0.21445000  1.0
  C  C58  1  0.70944000  0.84006000  0.28554000  1.0
  C  C59  1  0.20941000  0.65994000  0.78555000  1.0
  C  C60  1  0.71917000  0.09398000  0.86853000  1.0
  C  C61  1  0.21914000  0.40601000  0.36852000  1.0
  C  C62  1  0.28084000  0.90602000  0.13147000  1.0
  C  C63  1  0.78082000  0.59400000  0.63149000  1.0
  C  C64  1  0.84803000  0.02139000  0.90500000  1.0
  C  C65  1  0.34798000  0.47860000  0.40500000  1.0
  C  C66  1  0.15201000  0.97861000  0.09500000  1.0
  C  C67  1  0.65204000  0.52139000  0.59501000  1.0
  C  C68  1  0.73529000  0.94747000  0.89886000  1.0
  C  C69  1  0.23525000  0.55254000  0.39886000  1.0
  C  C70  1  0.26477000  0.05254000  0.10115000  1.0
  C  C71  1  0.76475000  0.44747000  0.60116000  1.0
  C  C72  1  0.42366000  0.30120000  0.74903000  1.0
  C  C73  1  0.92365000  0.19880000  0.24903000  1.0
  C  C74  1  0.57633000  0.69880000  0.25097000  1.0
  C  C75  1  0.07631000  0.80120000  0.75097000  1.0
  I  I76  1  0.85015000  0.46043000  0.88080000  1.0
  I  I77  1  0.35017000  0.03957000  0.38080000  1.0
  I  I78  1  0.14983000  0.53957000  0.11919000  1.0
  I  I79  1  0.64985000  0.96043000  0.61920000  1.0
  I  I80  1  0.42088000  0.27588000  0.04241000  1.0
  I  I81  1  0.92088000  0.22411000  0.54241000  1.0
  I  I82  1  0.57910000  0.72412000  0.95758000  1.0
  I  I83  1  0.07914000  0.77588000  0.45759000  1.0
  N  N84  1  0.26126000  0.22573000  0.76435000  1.0
  N  N85  1  0.76122000  0.27426000  0.26436000  1.0
  N  N86  1  0.73877000  0.77427000  0.23565000  1.0
  N  N87  1  0.23874000  0.72573000  0.73565000  1.0
  N  N88  1  0.95058000  0.13612000  0.81593000  1.0
  N  N89  1  0.45059000  0.36388000  0.31592000  1.0
  N  N90  1  0.04942000  0.86388000  0.18407000  1.0
  N  N91  1  0.54939000  0.63611000  0.68408000  1.0
