# generated using pymatgen
data_Ni3P4H24C14(NO9)2
_symmetry_space_group_name_H-M   'P 1'
_cell_length_a   6.87203000
_cell_length_b   9.56528000
_cell_length_c   10.29090000
_cell_angle_alpha   79.26300000
_cell_angle_beta   86.86880000
_cell_angle_gamma   79.85930000
_symmetry_Int_Tables_number   1
_chemical_formula_structural   Ni3P4H24C14(NO9)2
_chemical_formula_sum   'Ni3 P4 H24 C14 N2 O18'
_cell_volume   654.05897336
_cell_formula_units_Z   1
loop_
 _symmetry_equiv_pos_site_id
 _symmetry_equiv_pos_as_xyz
  1  'x, y, z'
loop_
 _atom_site_type_symbol
 _atom_site_label
 _atom_site_symmetry_multiplicity
 _atom_site_fract_x
 _atom_site_fract_y
 _atom_site_fract_z
 _atom_site_occupancy
  Ni  Ni0  1  0.50036000  0.50022000  0.49988000  1.0
  Ni  Ni1  1  0.29638000  0.04341000  0.55700000  1.0
  Ni  Ni2  1  0.70355000  0.95673000  0.44325000  1.0
  P  P3  1  0.46129000  0.73985000  0.68233000  1.0
  P  P4  1  0.53871000  0.26020000  0.31766000  1.0
  P  P5  1  0.14293000  0.78673000  0.47842000  1.0
  P  P6  1  0.85686000  0.21320000  0.52162000  1.0
  H  H7  1  0.98908000  0.96658000  0.65685000  1.0
  H  H8  1  0.01091000  0.03340000  0.34315000  1.0
  H  H9  1  0.20517000  0.34544000  0.57543000  1.0
  H  H10  1  0.79503000  0.65502000  0.42432000  1.0
  H  H11  1  0.37617000  0.29923000  0.67326000  1.0
  H  H12  1  0.62415000  0.70114000  0.32644000  1.0
  H  H13  1  0.58813000  0.07956000  0.67679000  1.0
  H  H14  1  0.41169000  0.92053000  0.32336000  1.0
  H  H15  1  0.45485000  0.99496000  0.78021000  1.0
  H  H16  1  0.54503000  0.00507000  0.21994000  1.0
  H  H17  1  0.36268000  0.40776000  0.11886000  1.0
  H  H18  1  0.63732000  0.59215000  0.88120000  1.0
  H  H19  1  0.91088000  0.71157000  0.72207000  1.0
  H  H20  1  0.08913000  0.28816000  0.27794000  1.0
  H  H21  1  0.10762000  0.56715000  0.70557000  1.0
  H  H22  1  0.89268000  0.43275000  0.29440000  1.0
  H  H23  1  0.91177000  0.84134000  0.92171000  1.0
  H  H24  1  0.08837000  0.15862000  0.07822000  1.0
  H  H25  1  0.99620000  0.80031000  0.16291000  1.0
  H  H26  1  0.00396000  0.19975000  0.83700000  1.0
  H  H27  1  0.23456000  0.57671000  0.25635000  1.0
  H  H28  1  0.76549000  0.42330000  0.74366000  1.0
  H  H29  1  0.30629000  0.44443000  0.89148000  1.0
  H  H30  1  0.69368000  0.55541000  0.10860000  1.0
  C  C31  1  0.18780000  0.77758000  0.65802000  1.0
  C  C32  1  0.81210000  0.22240000  0.34198000  1.0
  C  C33  1  0.06865000  0.67025000  0.74094000  1.0
  C  C34  1  0.93141000  0.32963000  0.25907000  1.0
  C  C35  1  0.10615000  0.64860000  0.88579000  1.0
  C  C36  1  0.89389000  0.35130000  0.11421000  1.0
  C  C37  1  0.01772000  0.74781000  0.96530000  1.0
  C  C38  1  0.98238000  0.25214000  0.03467000  1.0
  C  C39  1  0.06275000  0.72529000  0.09881000  1.0
  C  C40  1  0.93737000  0.27471000  0.90116000  1.0
  C  C41  1  0.19215000  0.60233000  0.15307000  1.0
  C  C42  1  0.80794000  0.39767000  0.84692000  1.0
  C  C43  1  0.23378000  0.52726000  0.94592000  1.0
  C  C44  1  0.76621000  0.47263000  0.05412000  1.0
  N  N45  1  0.27201000  0.50673000  0.07566000  1.0
  N  N46  1  0.72801000  0.49320000  0.92437000  1.0
  O  O47  1  0.54371000  0.58939000  0.65574000  1.0
  O  O48  1  0.45679000  0.41075000  0.34417000  1.0
  O  O49  1  0.51770000  0.86478000  0.57449000  1.0
  O  O50  1  0.48210000  0.13535000  0.42553000  1.0
  O  O51  1  0.50969000  0.75684000  0.82139000  1.0
  O  O52  1  0.49021000  0.24315000  0.17862000  1.0
  O  O53  1  0.27507000  0.66363000  0.42737000  1.0
  O  O54  1  0.72368000  0.33545000  0.57328000  1.0
  O  O55  1  0.19195000  0.93938000  0.41090000  1.0
  O  O56  1  0.80824000  0.06035000  0.58899000  1.0
  O  O57  1  0.92148000  0.78451000  0.46294000  1.0
  O  O58  1  0.07827000  0.21592000  0.53659000  1.0
  O  O59  1  0.12872000  0.92066000  0.69101000  1.0
  O  O60  1  0.87124000  0.07929000  0.30910000  1.0
  O  O61  1  0.29773000  0.38649000  0.62317000  1.0
  O  O62  1  0.70236000  0.61386000  0.37673000  1.0
  O  O63  1  0.45168000  0.08747000  0.71846000  1.0
  O  O64  1  0.54813000  0.91253000  0.28161000  1.0
