# generated using pymatgen
data_ZnH15C21N2O5
_symmetry_space_group_name_H-M   'P 1'
_cell_length_a   8.19021000
_cell_length_b   13.87720000
_cell_length_c   23.42680000
_cell_angle_alpha   99.28080000
_cell_angle_beta   89.99930000
_cell_angle_gamma   107.17300000
_symmetry_Int_Tables_number   1
_chemical_formula_structural   ZnH15C21N2O5
_chemical_formula_sum   'Zn4 H60 C84 N8 O20'
_cell_volume   2507.41579211
_cell_formula_units_Z   4
loop_
 _symmetry_equiv_pos_site_id
 _symmetry_equiv_pos_as_xyz
  1  'x, y, z'
loop_
 _atom_site_type_symbol
 _atom_site_label
 _atom_site_symmetry_multiplicity
 _atom_site_fract_x
 _atom_site_fract_y
 _atom_site_fract_z
 _atom_site_occupancy
  Zn  Zn0  1  0.08023000  0.92095000  0.49797000  1.0
  Zn  Zn1  1  0.15924000  0.07896000  0.00203000  1.0
  Zn  Zn2  1  0.91977000  0.07905000  0.50203000  1.0
  Zn  Zn3  1  0.84076000  0.92104000  0.99797000  1.0
  H  H4  1  0.46986000  0.93492000  0.08120000  1.0
  H  H5  1  0.53551000  0.06489000  0.41885000  1.0
  H  H6  1  0.53014000  0.06508000  0.91880000  1.0
  H  H7  1  0.46449000  0.93511000  0.58115000  1.0
  H  H8  1  0.54239000  0.77031000  0.41520000  1.0
  H  H9  1  0.77197000  0.22972000  0.08480000  1.0
  H  H10  1  0.45760000  0.22969000  0.58480000  1.0
  H  H11  1  0.22803000  0.77028000  0.91520000  1.0
  H  H12  1  0.37007000  0.89226000  0.42960000  1.0
  H  H13  1  0.47764000  0.10774000  0.07039000  1.0
  H  H14  1  0.62993000  0.10774000  0.57040000  1.0
  H  H15  1  0.52236000  0.89227000  0.92961000  1.0
  H  H16  1  0.59097000  0.96634000  0.34034000  1.0
  H  H17  1  0.62465000  0.03355000  0.15976000  1.0
  H  H18  1  0.40903000  0.03366000  0.65967000  1.0
  H  H19  1  0.37535000  0.96644000  0.84024000  1.0
  H  H20  1  0.03643000  0.71801000  0.53249000  1.0
  H  H21  1  0.31824000  0.28192000  0.96749000  1.0
  H  H22  1  0.96357000  0.28199000  0.46751000  1.0
  H  H23  1  0.68176000  0.71808000  0.03251000  1.0
  H  H24  1  0.61645000  0.85376000  0.14329000  1.0
  H  H25  1  0.76311000  0.14600000  0.35667000  1.0
  H  H26  1  0.38355000  0.14624000  0.85671000  1.0
  H  H27  1  0.23689000  0.85400000  0.64333000  1.0
  H  H28  1  0.42236000  0.86810000  0.25056000  1.0
  H  H29  1  0.55446000  0.13187000  0.24953000  1.0
  H  H30  1  0.57764000  0.13190000  0.74944000  1.0
  H  H31  1  0.44554000  0.86813000  0.75047000  1.0
  H  H32  1  0.19836000  0.58808000  0.52373000  1.0
  H  H33  1  0.61017000  0.41190000  0.97625000  1.0
  H  H34  1  0.80165000  0.41192000  0.47627000  1.0
  H  H35  1  0.38984000  0.58810000  0.02375000  1.0
  H  H36  1  0.98749000  0.71450000  0.09994000  1.0
  H  H37  1  0.27363000  0.28533000  0.40018000  1.0
  H  H38  1  0.01252000  0.28550000  0.90006000  1.0
  H  H39  1  0.72636000  0.71467000  0.59982000  1.0
  H  H40  1  0.86998000  0.74764000  0.33414000  1.0
  H  H41  1  0.12236000  0.25234000  0.16578000  1.0
  H  H42  1  0.13002000  0.25236000  0.66586000  1.0
  H  H43  1  0.87765000  0.74766000  0.83422000  1.0
  H  H44  1  0.13460000  0.63134000  0.16299000  1.0
  H  H45  1  0.50385000  0.36850000  0.33711000  1.0
  H  H46  1  0.86540000  0.36866000  0.83701000  1.0
  H  H47  1  0.49614000  0.63150000  0.66289000  1.0
  H  H48  1  0.71118000  0.56006000  0.43260000  1.0
  H  H49  1  0.15105000  0.43991000  0.06736000  1.0
  H  H50  1  0.28883000  0.43995000  0.56740000  1.0
  H  H51  1  0.84896000  0.56009000  0.93264000  1.0
  H  H52  1  0.73706000  0.69461000  0.44542000  1.0
  H  H53  1  0.04226000  0.30536000  0.05453000  1.0
  H  H54  1  0.26294000  0.30539000  0.55459000  1.0
  H  H55  1  0.95774000  0.69464000  0.94547000  1.0
  H  H56  1  0.60739000  0.61610000  0.38547000  1.0
  H  H57  1  0.99124000  0.38386000  0.11451000  1.0
  H  H58  1  0.39261000  0.38390000  0.61453000  1.0
  H  H59  1  0.00877000  0.61614000  0.88550000  1.0
  H  H60  1  0.70206000  0.64784000  0.24263000  1.0
  H  H61  1  0.05442000  0.35222000  0.25729000  1.0
  H  H62  1  0.29794000  0.35216000  0.75737000  1.0
  H  H63  1  0.94557000  0.64778000  0.74271000  1.0
  C  C64  1  0.39581000  0.86985000  0.10010000  1.0
  C  C65  1  0.52649000  0.12998000  0.39997000  1.0
  C  C66  1  0.60419000  0.13015000  0.89990000  1.0
  C  C67  1  0.47351000  0.87002000  0.60003000  1.0
  C  C68  1  0.83664000  0.91951000  0.39887000  1.0
  C  C69  1  0.91688000  0.08045000  0.10110000  1.0
  C  C70  1  0.16336000  0.08049000  0.60113000  1.0
  C  C71  1  0.08311000  0.91955000  0.89890000  1.0
  C  C72  1  0.43133000  0.75476000  0.44153000  1.0
  C  C73  1  0.67644000  0.24527000  0.05847000  1.0
  C  C74  1  0.56867000  0.24524000  0.55847000  1.0
  C  C75  1  0.32356000  0.75474000  0.94153000  1.0
  C  C76  1  0.13192000  0.88478000  0.05274000  1.0
  C  C77  1  0.24775000  0.11510000  0.44739000  1.0
  C  C78  1  0.86807000  0.11522000  0.94726000  1.0
  C  C79  1  0.75225000  0.88490000  0.55261000  1.0
  C  C80  1  0.21851000  0.83167000  0.08815000  1.0
  C  C81  1  0.38745000  0.16820000  0.41198000  1.0
  C  C82  1  0.78150000  0.16833000  0.91185000  1.0
  C  C83  1  0.61254000  0.83180000  0.58802000  1.0
  C  C84  1  0.74131000  0.86325000  0.34305000  1.0
  C  C85  1  0.87806000  0.13669000  0.15695000  1.0
  C  C86  1  0.25869000  0.13675000  0.65695000  1.0
  C  C87  1  0.12194000  0.86331000  0.84305000  1.0
  C  C88  1  0.38591000  0.66917000  0.46944000  1.0
  C  C89  1  0.71662000  0.33085000  0.03055000  1.0
  C  C90  1  0.61409000  0.33084000  0.53057000  1.0
  C  C91  1  0.28338000  0.66915000  0.96945000  1.0
  C  C92  1  0.33597000  0.82316000  0.44902000  1.0
  C  C93  1  0.51267000  0.17684000  0.05097000  1.0
  C  C94  1  0.66402000  0.17684000  0.55098000  1.0
  C  C95  1  0.48733000  0.82317000  0.94903000  1.0
  C  C96  1  0.61568000  0.89681000  0.31892000  1.0
  C  C97  1  0.71894000  0.10311000  0.18114000  1.0
  C  C98  1  0.38432000  0.10319000  0.68108000  1.0
  C  C99  1  0.28106000  0.89688000  0.81886000  1.0
  C  C100  1  0.49432000  0.60056000  0.46728000  1.0
  C  C101  1  0.89367000  0.39946000  0.03271000  1.0
  C  C102  1  0.50569000  0.39945000  0.53272000  1.0
  C  C103  1  0.10633000  0.60054000  0.96729000  1.0
  C  C104  1  0.14923000  0.72530000  0.50685000  1.0
  C  C105  1  0.42378000  0.27467000  0.99313000  1.0
  C  C106  1  0.85077000  0.27470000  0.49315000  1.0
  C  C107  1  0.57623000  0.72534000  0.00687000  1.0
  C  C108  1  0.47831000  0.82412000  0.13454000  1.0
  C  C109  1  0.65471000  0.17571000  0.36550000  1.0
  C  C110  1  0.52169000  0.17588000  0.86546000  1.0
  C  C111  1  0.34529000  0.82429000  0.63450000  1.0
  C  C112  1  0.52098000  0.84193000  0.26860000  1.0
  C  C113  1  0.67925000  0.15802000  0.23146000  1.0
  C  C114  1  0.47902000  0.15808000  0.73140000  1.0
  C  C115  1  0.32075000  0.84198000  0.76854000  1.0
  C  C116  1  0.23812000  0.65384000  0.50164000  1.0
  C  C117  1  0.58414000  0.34616000  0.99835000  1.0
  C  C118  1  0.76188000  0.34616000  0.49837000  1.0
  C  C119  1  0.41586000  0.65384000  0.00165000  1.0
  C  C120  1  0.12482000  0.74466000  0.11007000  1.0
  C  C121  1  0.38078000  0.25519000  0.39006000  1.0
  C  C122  1  0.87518000  0.25534000  0.88993000  1.0
  C  C123  1  0.61921000  0.74481000  0.60994000  1.0
  C  C124  1  0.77175000  0.77312000  0.31522000  1.0
  C  C125  1  0.99870000  0.22685000  0.18474000  1.0
  C  C126  1  0.22825000  0.22688000  0.68478000  1.0
  C  C127  1  0.00130000  0.77315000  0.81526000  1.0
  C  C128  1  0.38157000  0.73948000  0.15761000  1.0
  C  C129  1  0.64264000  0.26039000  0.34247000  1.0
  C  C130  1  0.61843000  0.26052000  0.84239000  1.0
  C  C131  1  0.35736000  0.73961000  0.65753000  1.0
  C  C132  1  0.55330000  0.75223000  0.24143000  1.0
  C  C133  1  0.80136000  0.24773000  0.25860000  1.0
  C  C134  1  0.44670000  0.24777000  0.75857000  1.0
  C  C135  1  0.19864000  0.75227000  0.74140000  1.0
  C  C136  1  0.20580000  0.69828000  0.14495000  1.0
  C  C137  1  0.50812000  0.30158000  0.35517000  1.0
  C  C138  1  0.79420000  0.30172000  0.85505000  1.0
  C  C139  1  0.49188000  0.69842000  0.64483000  1.0
  C  C140  1  0.64660000  0.61808000  0.43067000  1.0
  C  C141  1  0.02843000  0.38190000  0.06930000  1.0
  C  C142  1  0.35340000  0.38192000  0.56933000  1.0
  C  C143  1  0.97158000  0.61810000  0.93070000  1.0
  C  C144  1  0.67887000  0.71764000  0.26467000  1.0
  C  C145  1  0.96143000  0.28236000  0.23529000  1.0
  C  C146  1  0.32113000  0.28236000  0.73533000  1.0
  C  C147  1  0.03857000  0.71764000  0.76470000  1.0
  N  N148  1  0.19887000  0.80972000  0.48182000  1.0
  N  N149  1  0.38901000  0.19025000  0.01817000  1.0
  N  N150  1  0.80113000  0.19028000  0.51818000  1.0
  N  N151  1  0.61099000  0.80975000  0.98183000  1.0
  N  N152  1  0.44769000  0.53050000  0.50009000  1.0
  N  N153  1  0.91715000  0.46953000  0.99992000  1.0
  N  N154  1  0.55231000  0.46950000  0.49991000  1.0
  N  N155  1  0.08285000  0.53047000  0.00008000  1.0
  O  O156  1  0.22421000  0.96843000  0.03903000  1.0
  O  O157  1  0.25625000  0.03143000  0.46107000  1.0
  O  O158  1  0.77580000  0.03157000  0.96097000  1.0
  O  O159  1  0.74375000  0.96857000  0.53893000  1.0
  O  O160  1  0.93447000  0.87731000  0.42084000  1.0
  O  O161  1  0.05682000  0.12268000  0.07907000  1.0
  O  O162  1  0.06552000  0.12269000  0.57916000  1.0
  O  O163  1  0.94319000  0.87733000  0.92093000  1.0
  O  O164  1  0.81051000  0.00359000  0.42103000  1.0
  O  O165  1  0.80656000  0.99639000  0.07895000  1.0
  O  O166  1  0.18950000  0.99641000  0.57897000  1.0
  O  O167  1  0.19345000  0.00361000  0.92105000  1.0
  O  O168  1  0.97296000  0.84329000  0.03911000  1.0
  O  O169  1  0.13035000  0.15663000  0.46106000  1.0
  O  O170  1  0.02705000  0.15671000  0.96089000  1.0
  O  O171  1  0.86965000  0.84337000  0.53895000  1.0
  O  O172  1  0.46053000  0.69206000  0.19240000  1.0
  O  O173  1  0.76899000  0.30786000  0.30768000  1.0
  O  O174  1  0.53947000  0.30794000  0.80760000  1.0
  O  O175  1  0.23101000  0.69214000  0.69232000  1.0
