# generated using pymatgen
data_AgH11C8(N2O)3
_symmetry_space_group_name_H-M   'P 1'
_cell_length_a   7.66710000
_cell_length_b   13.13770000
_cell_length_c   13.14440000
_cell_angle_alpha   85.12240000
_cell_angle_beta   73.05880000
_cell_angle_gamma   73.03430000
_symmetry_Int_Tables_number   1
_chemical_formula_structural   AgH11C8(N2O)3
_chemical_formula_sum   'Ag4 H44 C32 N24 O12'
_cell_volume   1211.43266814
_cell_formula_units_Z   4
loop_
 _symmetry_equiv_pos_site_id
 _symmetry_equiv_pos_as_xyz
  1  'x, y, z'
loop_
 _atom_site_type_symbol
 _atom_site_label
 _atom_site_symmetry_multiplicity
 _atom_site_fract_x
 _atom_site_fract_y
 _atom_site_fract_z
 _atom_site_occupancy
  Ag  Ag0  1  0.71223000  0.66254000  0.91211000  1.0
  Ag  Ag1  1  0.28665000  0.33755000  0.08790000  1.0
  Ag  Ag2  1  0.12444000  0.83751000  0.41216000  1.0
  Ag  Ag3  1  0.37404000  0.16244000  0.58793000  1.0
  H  H4  1  0.45960000  0.77845000  0.25458000  1.0
  H  H5  1  0.49245000  0.22168000  0.74550000  1.0
  H  H6  1  0.98811000  0.72156000  0.75459000  1.0
  H  H7  1  0.46425000  0.27828000  0.24563000  1.0
  H  H8  1  0.62417000  0.75134000  0.13051000  1.0
  H  H9  1  0.50598000  0.24867000  0.86964000  1.0
  H  H10  1  0.12548000  0.74874000  0.63049000  1.0
  H  H11  1  0.50478000  0.25134000  0.36978000  1.0
  H  H12  1  0.51795000  0.48515000  0.98904000  1.0
  H  H13  1  0.99189000  0.51498000  0.01085000  1.0
  H  H14  1  0.75276000  0.01486000  0.48910000  1.0
  H  H15  1  0.25673000  0.98503000  0.51105000  1.0
  H  H16  1  0.89951000  0.65145000  0.43757000  1.0
  H  H17  1  0.98852000  0.34829000  0.56233000  1.0
  H  H18  1  0.30089000  0.84838000  0.93760000  1.0
  H  H19  1  0.08731000  0.15164000  0.06236000  1.0
  H  H20  1  0.88865000  0.46809000  0.39990000  1.0
  H  H21  1  0.75627000  0.53197000  0.60000000  1.0
  H  H22  1  0.10649000  0.03186000  0.89994000  1.0
  H  H23  1  0.03860000  0.96805000  0.10003000  1.0
  H  H24  1  0.05700000  0.39586000  0.28936000  1.0
  H  H25  1  0.74243000  0.60400000  0.71058000  1.0
  H  H26  1  0.20269000  0.10404000  0.78939000  1.0
  H  H27  1  0.09670000  0.89603000  0.21063000  1.0
  H  H28  1  0.87554000  0.50910000  0.16846000  1.0
  H  H29  1  0.55352000  0.49088000  0.83147000  1.0
  H  H30  1  0.13456000  0.99083000  0.66848000  1.0
  H  H31  1  0.79458000  0.00924000  0.33145000  1.0
  H  H32  1  0.70839000  0.58085000  0.27976000  1.0
  H  H33  1  0.56900000  0.41913000  0.72022000  1.0
  H  H34  1  0.03898000  0.91910000  0.77976000  1.0
  H  H35  1  0.73843000  0.08091000  0.22014000  1.0
  H  H36  1  0.59525000  0.43717000  0.22273000  1.0
  H  H37  1  0.25543000  0.56287000  0.77724000  1.0
  H  H38  1  0.78239000  0.06293000  0.72264000  1.0
  H  H39  1  0.56845000  0.93723000  0.27735000  1.0
  H  H40  1  0.61675000  0.41545000  0.35442000  1.0
  H  H41  1  0.38672000  0.58465000  0.64556000  1.0
  H  H42  1  0.78210000  0.08466000  0.85435000  1.0
  H  H43  1  0.72145000  0.91534000  0.14566000  1.0
  H  H44  1  0.79236000  0.33885000  0.24761000  1.0
  H  H45  1  0.37918000  0.66118000  0.75239000  1.0
  H  H46  1  0.88142000  0.16115000  0.74753000  1.0
  H  H47  1  0.79046000  0.83890000  0.25251000  1.0
  C  C48  1  0.44174000  0.53257000  0.06093000  1.0
  C  C49  1  0.03507000  0.46757000  0.93894000  1.0
  C  C50  1  0.72403000  0.96743000  0.56098000  1.0
  C  C51  1  0.25260000  0.03242000  0.43912000  1.0
  C  C52  1  0.21243000  0.56089000  0.21545000  1.0
  C  C53  1  0.98889000  0.43918000  0.78433000  1.0
  C  C54  1  0.52321000  0.93911000  0.71555000  1.0
  C  C55  1  0.17823000  0.06083000  0.28446000  1.0
  C  C56  1  0.26372000  0.64885000  0.23785000  1.0
  C  C57  1  0.15046000  0.35120000  0.76213000  1.0
  C  C58  1  0.66252000  0.85118000  0.73791000  1.0
  C  C59  1  0.25217000  0.14868000  0.26215000  1.0
  C  C60  1  0.42099000  0.67415000  0.16412000  1.0
  C  C61  1  0.25919000  0.32592000  0.83595000  1.0
  C  C62  1  0.84507000  0.82589000  0.66417000  1.0
  C  C63  1  0.33542000  0.17398000  0.33605000  1.0
  C  C64  1  0.02158000  0.63496000  0.36713000  1.0
  C  C65  1  0.02375000  0.36488000  0.63275000  1.0
  C  C66  1  0.40646000  0.86494000  0.86718000  1.0
  C  C67  1  0.13913000  0.13505000  0.13277000  1.0
  C  C68  1  0.95424000  0.47365000  0.31421000  1.0
  C  C69  1  0.74217000  0.52627000  0.68564000  1.0
  C  C70  1  0.17772000  0.02625000  0.81426000  1.0
  C  C71  1  0.01874000  0.97375000  0.18568000  1.0
  C  C72  1  0.80489000  0.50195000  0.25339000  1.0
  C  C73  1  0.56040000  0.49801000  0.74657000  1.0
  C  C74  1  0.05673000  0.99797000  0.75341000  1.0
  C  C75  1  0.80868000  0.00205000  0.24654000  1.0
  C  C76  1  0.69642000  0.41867000  0.27043000  1.0
  C  C77  1  0.38577000  0.58138000  0.72955000  1.0
  C  C78  1  0.86509000  0.08137000  0.77037000  1.0
  C  C79  1  0.71729000  0.91869000  0.22962000  1.0
  N  N80  1  0.50304000  0.61474000  0.07365000  1.0
  N  N81  1  0.19120000  0.38536000  0.92639000  1.0
  N  N82  1  0.86758000  0.88529000  0.57368000  1.0
  N  N83  1  0.32671000  0.11457000  0.42652000  1.0
  N  N84  1  0.30049000  0.49900000  0.12813000  1.0
  N  N85  1  0.92769000  0.50114000  0.87160000  1.0
  N  N86  1  0.54929000  0.00101000  0.62826000  1.0
  N  N87  1  0.17870000  0.99893000  0.37178000  1.0
  N  N88  1  0.49146000  0.75244000  0.17851000  1.0
  N  N89  1  0.42237000  0.24769000  0.82157000  1.0
  N  N90  1  0.99389000  0.74765000  0.67855000  1.0
  N  N91  1  0.42020000  0.25228000  0.32171000  1.0
  N  N92  1  0.14188000  0.69396000  0.33320000  1.0
  N  N93  1  0.16906000  0.30597000  0.66682000  1.0
  N  N94  1  0.58581000  0.80602000  0.83323000  1.0
  N  N95  1  0.22567000  0.19390000  0.16681000  1.0
  N  N96  1  0.06035000  0.55247000  0.29951000  1.0
  N  N97  1  0.91247000  0.44745000  0.70026000  1.0
  N  N98  1  0.36269000  0.94745000  0.79960000  1.0
  N  N99  1  0.11014000  0.05257000  0.20035000  1.0
  N  N100  1  0.00363000  0.74859000  0.99342000  1.0
  N  N101  1  0.74535000  0.25149000  0.00666000  1.0
  N  N102  1  0.50218000  0.75149000  0.49325000  1.0
  N  N103  1  0.74689000  0.24850000  0.50666000  1.0
  O  O104  1  0.88143000  0.69969000  0.04440000  1.0
  O  O105  1  0.62530000  0.30037000  0.95561000  1.0
  O  O106  1  0.33104000  0.80027000  0.54428000  1.0
  O  O107  1  0.67590000  0.19956000  0.45556000  1.0
  O  O108  1  0.09795000  0.77909000  0.04248000  1.0
  O  O109  1  0.91920000  0.22094000  0.95764000  1.0
  O  O110  1  0.62707000  0.72115000  0.54227000  1.0
  O  O111  1  0.89035000  0.27895000  0.45773000  1.0
  O  O112  1  0.02774000  0.76516000  0.89462000  1.0
  O  O113  1  0.68717000  0.23501000  0.10546000  1.0
  O  O114  1  0.54281000  0.73486000  0.39448000  1.0
  O  O115  1  0.67191000  0.26514000  0.60541000  1.0
