# generated using pymatgen
data_Na2Cu3P4H16C8(NO8)2
_symmetry_space_group_name_H-M   'P 1'
_cell_length_a   6.27512000
_cell_length_b   6.98550000
_cell_length_c   11.89570000
_cell_angle_alpha   85.44110000
_cell_angle_beta   85.49900000
_cell_angle_gamma   81.15310000
_symmetry_Int_Tables_number   1
_chemical_formula_structural   Na2Cu3P4H16C8(NO8)2
_chemical_formula_sum   'Na2 Cu3 P4 H16 C8 N2 O16'
_cell_volume   512.44916474
_cell_formula_units_Z   1
loop_
 _symmetry_equiv_pos_site_id
 _symmetry_equiv_pos_as_xyz
  1  'x, y, z'
loop_
 _atom_site_type_symbol
 _atom_site_label
 _atom_site_symmetry_multiplicity
 _atom_site_fract_x
 _atom_site_fract_y
 _atom_site_fract_z
 _atom_site_occupancy
  Na  Na0  1  0.79932000  0.60342000  0.58714000  1.0
  Na  Na1  1  0.20069000  0.39647000  0.41294000  1.0
  Cu  Cu2  1  0.99984000  0.00005000  0.50003000  1.0
  Cu  Cu3  1  0.42897000  0.89624000  0.81265000  1.0
  Cu  Cu4  1  0.57102000  0.10387000  0.18758000  1.0
  P  P5  1  0.93283000  0.94667000  0.76303000  1.0
  P  P6  1  0.06708000  0.05325000  0.23690000  1.0
  P  P7  1  0.20507000  0.23604000  0.65613000  1.0
  P  P8  1  0.79485000  0.76409000  0.34383000  1.0
  H  H9  1  0.63719000  0.24217000  0.68747000  1.0
  H  H10  1  0.36271000  0.75764000  0.31262000  1.0
  H  H11  1  0.38921000  0.84635000  0.59684000  1.0
  H  H12  1  0.61096000  0.15366000  0.40301000  1.0
  H  H13  1  0.34121000  0.63457000  0.63590000  1.0
  H  H14  1  0.65879000  0.36554000  0.36405000  1.0
  H  H15  1  0.74960000  0.29693000  0.88042000  1.0
  H  H16  1  0.25049000  0.70296000  0.11964000  1.0
  H  H17  1  0.92345000  0.46659000  0.82413000  1.0
  H  H18  1  0.07666000  0.53330000  0.17594000  1.0
  H  H19  1  0.02782000  0.24583000  0.90220000  1.0
  H  H20  1  0.97227000  0.75401000  0.09783000  1.0
  H  H21  1  0.25849000  0.51882000  0.84792000  1.0
  H  H22  1  0.74165000  0.48127000  0.15215000  1.0
  H  H23  1  0.70186000  0.76957000  0.00527000  1.0
  H  H24  1  0.29823000  0.23047000  0.99477000  1.0
  C  C25  1  0.94260000  0.20665000  0.73288000  1.0
  C  C26  1  0.05736000  0.79329000  0.26716000  1.0
  C  C27  1  0.91065000  0.31174000  0.84156000  1.0
  C  C28  1  0.08941000  0.68815000  0.15847000  1.0
  C  C29  1  0.36595000  0.50928000  0.91600000  1.0
  C  C30  1  0.63415000  0.49077000  0.08406000  1.0
  C  C31  1  0.61174000  0.64859000  0.00441000  1.0
  C  C32  1  0.38835000  0.35144000  0.99566000  1.0
  N  N33  1  0.47791000  0.65667000  0.92107000  1.0
  N  N34  1  0.52212000  0.34343000  0.07903000  1.0
  O  O35  1  0.93689000  0.85972000  0.64748000  1.0
  O  O36  1  0.06275000  0.14042000  0.35242000  1.0
  O  O37  1  0.12475000  0.86384000  0.83383000  1.0
  O  O38  1  0.87549000  0.13567000  0.16581000  1.0
  O  O39  1  0.72313000  0.92729000  0.83596000  1.0
  O  O40  1  0.27687000  0.07276000  0.16410000  1.0
  O  O41  1  0.23816000  0.09844000  0.55729000  1.0
  O  O42  1  0.76153000  0.90218000  0.44244000  1.0
  O  O43  1  0.38495000  0.16855000  0.73942000  1.0
  O  O44  1  0.61509000  0.83108000  0.26040000  1.0
  O  O45  1  0.19137000  0.44830000  0.61276000  1.0
  O  O46  1  0.80853000  0.55196000  0.38744000  1.0
  O  O47  1  0.77671000  0.28452000  0.65649000  1.0
  O  O48  1  0.22313000  0.71545000  0.34363000  1.0
  O  O49  1  0.44714000  0.72588000  0.64019000  1.0
  O  O50  1  0.55300000  0.27414000  0.35964000  1.0
