# generated using pymatgen
data_Ni2H30C40N4O9
_symmetry_space_group_name_H-M   'P 1'
_cell_length_a   13.68030000
_cell_length_b   13.68030000
_cell_length_c   18.24412221
_cell_angle_alpha   103.70082452
_cell_angle_beta   103.69982447
_cell_angle_gamma   111.60300000
_symmetry_Int_Tables_number   1
_chemical_formula_structural   Ni2H30C40N4O9
_chemical_formula_sum   'Ni4 H60 C80 N8 O18'
_cell_volume   2878.95427716
_cell_formula_units_Z   2
loop_
 _symmetry_equiv_pos_site_id
 _symmetry_equiv_pos_as_xyz
  1  'x, y, z'
loop_
 _atom_site_type_symbol
 _atom_site_label
 _atom_site_symmetry_multiplicity
 _atom_site_fract_x
 _atom_site_fract_y
 _atom_site_fract_z
 _atom_site_occupancy
  Ni  Ni0  1  0.88904000  0.36781000  0.53514000  1.0
  Ni  Ni1  1  0.64613000  0.16738000  0.53516000  1.0
  Ni  Ni2  1  0.61780000  0.63904000  0.03514000  1.0
  Ni  Ni3  1  0.41737000  0.39612000  0.03516000  1.0
  H  H4  1  0.96996000  0.61116000  0.56881000  1.0
  H  H5  1  0.59894000  0.95752000  0.56883000  1.0
  H  H6  1  0.86115000  0.71994000  0.06881000  1.0
  H  H7  1  0.20750000  0.34891000  0.06882000  1.0
  H  H8  1  0.14999000  0.78947000  0.64010000  1.0
  H  H9  1  0.49022000  0.85041000  0.64009000  1.0
  H  H10  1  0.03946000  0.89996000  0.14009000  1.0
  H  H11  1  0.10040000  0.24019000  0.14009000  1.0
  H  H12  1  0.30912000  0.58894000  0.71190000  1.0
  H  H13  1  0.40268000  0.12258000  0.71188000  1.0
  H  H14  1  0.83893000  0.05911000  0.21189000  1.0
  H  H15  1  0.37259000  0.15267000  0.21188000  1.0
  H  H16  1  0.12128000  0.42013000  0.63743000  1.0
  H  H17  1  0.51598000  0.21699000  0.63741000  1.0
  H  H18  1  0.67012000  0.87127000  0.13742000  1.0
  H  H19  1  0.46699000  0.26597000  0.13740000  1.0
  H  H20  1  0.42575000  0.78945000  0.72392000  1.0
  H  H21  1  0.29809000  0.93404000  0.72383000  1.0
  H  H22  1  0.03946000  0.17574000  0.22392000  1.0
  H  H23  1  0.18404000  0.04807000  0.22383000  1.0
  H  H24  1  0.30054000  0.84214000  0.83354000  1.0
  H  H25  1  0.53290000  0.99114000  0.83351000  1.0
  H  H26  1  0.09214000  0.05053000  0.33354000  1.0
  H  H27  1  0.24114000  0.28289000  0.33351000  1.0
  H  H28  1  0.59556000  0.87008000  0.85593000  1.0
  H  H29  1  0.26034000  0.98576000  0.85597000  1.0
  H  H30  1  0.12007000  0.34555000  0.35592000  1.0
  H  H31  1  0.23577000  0.01033000  0.35597000  1.0
  H  H32  1  0.68065000  0.78257000  0.94032000  1.0
  H  H33  1  0.25974000  0.15775000  0.94034000  1.0
  H  H34  1  0.03258000  0.43066000  0.44032000  1.0
  H  H35  1  0.40776000  0.00974000  0.44034000  1.0
  H  H36  1  0.39573000  0.64712000  0.99586000  1.0
  H  H37  1  0.60016000  0.34860000  0.99561000  1.0
  H  H38  1  0.89714000  0.14575000  0.49588000  1.0
  H  H39  1  0.59860000  0.35016000  0.49561000  1.0
  H  H40  1  0.29678000  0.72780000  0.91325000  1.0
  H  H41  1  0.61631000  0.18530000  0.91285000  1.0
  H  H42  1  0.97781000  0.04678000  0.41326000  1.0
  H  H43  1  0.43529000  0.36631000  0.41285000  1.0
  H  H44  1  0.78663000  0.07471000  0.70497000  1.0
  H  H45  1  0.91837000  0.63037000  0.70481000  1.0
  H  H46  1  0.32468000  0.53662000  0.20496000  1.0
  H  H47  1  0.88035000  0.66838000  0.20482000  1.0
  H  H48  1  0.87507000  0.05634000  0.83506000  1.0
  H  H49  1  0.96004000  0.77878000  0.83494000  1.0
  H  H50  1  0.30633000  0.62507000  0.33507000  1.0
  H  H51  1  0.02877000  0.71004000  0.33494000  1.0
  H  H52  1  0.07657000  0.18932000  0.91980000  1.0
  H  H53  1  0.84331000  0.73058000  0.91971000  1.0
  H  H54  1  0.43931000  0.82656000  0.41980000  1.0
  H  H55  1  0.98056000  0.59330000  0.41970000  1.0
  H  H56  1  0.09796000  0.35650000  0.74852000  1.0
  H  H57  1  0.65059000  0.39215000  0.74838000  1.0
  H  H58  1  0.60648000  0.84795000  0.24851000  1.0
  H  H59  1  0.64213000  0.40060000  0.24839000  1.0
  H  H60  1  0.70308000  0.26882000  0.42489000  1.0
  H  H61  1  0.72192000  0.15618000  0.42496000  1.0
  H  H62  1  0.51881000  0.45308000  0.92489000  1.0
  H  H63  1  0.40617000  0.47192000  0.92496000  1.0
  C  C64  1  0.04785000  0.61145000  0.60157000  1.0
  C  C65  1  0.55372000  0.98992000  0.60154000  1.0
  C  C66  1  0.86144000  0.79782000  0.10156000  1.0
  C  C67  1  0.23991000  0.30369000  0.10153000  1.0
  C  C68  1  0.14874000  0.70982000  0.64154000  1.0
  C  C69  1  0.49282000  0.93146000  0.64151000  1.0
  C  C70  1  0.95982000  0.89872000  0.14154000  1.0
  C  C71  1  0.18146000  0.24280000  0.14151000  1.0
  C  C72  1  0.24608000  0.70453000  0.68231000  1.0
  C  C73  1  0.43619000  0.97747000  0.68226000  1.0
  C  C74  1  0.95452000  0.99606000  0.18230000  1.0
  C  C75  1  0.22747000  0.18617000  0.18226000  1.0
  C  C76  1  0.23645000  0.59822000  0.68052000  1.0
  C  C77  1  0.44400000  0.08197000  0.68049000  1.0
  C  C78  1  0.84822000  0.98643000  0.18051000  1.0
  C  C79  1  0.33197000  0.19399000  0.18049000  1.0
  C  C80  1  0.13279000  0.50397000  0.63934000  1.0
  C  C81  1  0.50645000  0.13507000  0.63929000  1.0
  C  C82  1  0.75397000  0.88278000  0.13934000  1.0
  C  C83  1  0.38507000  0.25644000  0.13929000  1.0
  C  C84  1  0.35558000  0.80641000  0.73179000  1.0
  C  C85  1  0.37617000  0.92502000  0.73171000  1.0
  C  C86  1  0.05641000  0.10556000  0.23179000  1.0
  C  C87  1  0.17502000  0.12615000  0.23171000  1.0
  C  C88  1  0.38021000  0.85245000  0.82510000  1.0
  C  C89  1  0.44479000  0.97242000  0.82504000  1.0
  C  C90  1  0.10244000  0.13019000  0.32509000  1.0
  C  C91  1  0.22240000  0.19477000  0.32503000  1.0
  C  C92  1  0.43794000  0.80703000  0.87783000  1.0
  C  C93  1  0.43980000  0.07066000  0.87767000  1.0
  C  C94  1  0.05704000  0.18793000  0.37783000  1.0
  C  C95  1  0.32066000  0.18980000  0.37767000  1.0
  C  C96  1  0.54764000  0.82218000  0.88620000  1.0
  C  C97  1  0.33853000  0.06394000  0.88614000  1.0
  C  C98  1  0.07217000  0.29763000  0.38619000  1.0
  C  C99  1  0.31394000  0.08852000  0.38614000  1.0
  C  C100  1  0.59646000  0.77467000  0.93339000  1.0
  C  C101  1  0.33697000  0.15870000  0.93334000  1.0
  C  C102  1  0.02466000  0.34645000  0.43338000  1.0
  C  C103  1  0.40870000  0.08697000  0.43334000  1.0
  C  C104  1  0.43720000  0.69846000  0.96466000  1.0
  C  C105  1  0.52741000  0.26611000  0.96440000  1.0
  C  C106  1  0.94847000  0.18721000  0.46467000  1.0
  C  C107  1  0.51611000  0.27742000  0.46441000  1.0
  C  C108  1  0.38276000  0.74362000  0.91840000  1.0
  C  C109  1  0.53552000  0.17467000  0.91806000  1.0
  C  C110  1  0.99362000  0.13275000  0.41840000  1.0
  C  C111  1  0.42466000  0.28552000  0.41806000  1.0
  C  C112  1  0.93619000  0.21598000  0.71872000  1.0
  C  C113  1  0.78260000  0.50283000  0.71860000  1.0
  C  C114  1  0.46595000  0.68618000  0.21870000  1.0
  C  C115  1  0.75282000  0.53263000  0.21862000  1.0
  C  C116  1  0.87410000  0.13146000  0.74340000  1.0
  C  C117  1  0.86936000  0.61203000  0.74328000  1.0
  C  C118  1  0.38144000  0.62410000  0.24340000  1.0
  C  C119  1  0.86202000  0.61939000  0.24329000  1.0
  C  C120  1  0.92380000  0.12178000  0.81572000  1.0
  C  C121  1  0.89192000  0.69402000  0.81558000  1.0
  C  C122  1  0.37176000  0.67380000  0.31572000  1.0
  C  C123  1  0.94401000  0.64193000  0.31558000  1.0
  C  C124  1  0.03609000  0.19555000  0.86317000  1.0
  C  C125  1  0.82712000  0.66774000  0.86305000  1.0
  C  C126  1  0.44554000  0.78608000  0.36317000  1.0
  C  C127  1  0.91773000  0.57712000  0.36305000  1.0
  C  C128  1  0.09991000  0.27986000  0.83890000  1.0
  C  C129  1  0.73900000  0.55918000  0.83877000  1.0
  C  C130  1  0.52985000  0.84990000  0.33889000  1.0
  C  C131  1  0.80915000  0.48900000  0.33877000  1.0
  C  C132  1  0.04908000  0.29018000  0.76688000  1.0
  C  C133  1  0.71786000  0.47683000  0.76676000  1.0
  C  C134  1  0.54016000  0.79907000  0.26687000  1.0
  C  C135  1  0.72681000  0.46787000  0.26676000  1.0
  C  C136  1  0.87890000  0.22635000  0.64159000  1.0
  C  C137  1  0.76278000  0.41527000  0.64152000  1.0
  C  C138  1  0.47632000  0.62889000  0.14158000  1.0
  C  C139  1  0.66526000  0.51278000  0.14153000  1.0
  C  C140  1  0.22243000  0.35515000  0.89045000  1.0
  C  C141  1  0.66801000  0.53540000  0.89032000  1.0
  C  C142  1  0.60515000  0.97243000  0.39045000  1.0
  C  C143  1  0.78539000  0.41801000  0.39032000  1.0
  N  N144  1  0.03998000  0.51019000  0.60016000  1.0
  N  N145  1  0.56013000  0.08976000  0.60012000  1.0
  N  N146  1  0.76017000  0.78996000  0.10015000  1.0
  N  N147  1  0.33976000  0.31012000  0.10012000  1.0
  N  N148  1  0.54244000  0.71369000  0.97214000  1.0
  N  N149  1  0.42973000  0.25841000  0.97205000  1.0
  N  N150  1  0.96369000  0.29245000  0.47214000  1.0
  N  N151  1  0.50841000  0.17973000  0.47205000  1.0
  O  O152  1  0.93339000  0.31339000  0.62743000  1.0
  O  O153  1  0.69418000  0.31407000  0.62741000  1.0
  O  O154  1  0.56337000  0.68338000  0.12743000  1.0
  O  O155  1  0.56406000  0.44419000  0.12742000  1.0
  O  O156  1  0.78112000  0.14771000  0.59677000  1.0
  O  O157  1  0.81571000  0.44907000  0.59668000  1.0
  O  O158  1  0.39769000  0.53111000  0.09676000  1.0
  O  O159  1  0.69906000  0.56571000  0.09669000  1.0
  O  O160  1  0.28229000  0.43124000  0.86949000  1.0
  O  O161  1  0.58707000  0.43840000  0.86927000  1.0
  O  O162  1  0.68124000  0.03229000  0.36949000  1.0
  O  O163  1  0.68839000  0.33708000  0.36928000  1.0
  O  O164  1  0.25758000  0.33322000  0.95325000  1.0
  O  O165  1  0.69574000  0.62003000  0.95320000  1.0
  O  O166  1  0.58323000  0.00759000  0.45326000  1.0
  O  O167  1  0.87004000  0.44575000  0.45320000  1.0
  O  O168  1  0.73130000  0.23133000  0.46258000  1.0
  O  O169  1  0.48134000  0.48130000  0.96259000  1.0
