# generated using pymatgen
data_CdH10C10(BrN)2
_symmetry_space_group_name_H-M   'P 1'
_cell_length_a   3.91541000
_cell_length_b   8.52521000
_cell_length_c   18.36180000
_cell_angle_alpha   90.00000000
_cell_angle_beta   90.00090000
_cell_angle_gamma   89.99950000
_symmetry_Int_Tables_number   1
_chemical_formula_structural   CdH10C10(BrN)2
_chemical_formula_sum   'Cd2 H20 C20 Br4 N4'
_cell_volume   612.91123739
_cell_formula_units_Z   2
loop_
 _symmetry_equiv_pos_site_id
 _symmetry_equiv_pos_as_xyz
  1  'x, y, z'
loop_
 _atom_site_type_symbol
 _atom_site_label
 _atom_site_symmetry_multiplicity
 _atom_site_fract_x
 _atom_site_fract_y
 _atom_site_fract_z
 _atom_site_occupancy
  Cd  Cd0  1  0.00000000  0.00000000  0.00000000  1.0
  Cd  Cd1  1  0.50001000  0.50001000  0.50000000  1.0
  H  H2  1  0.00000000  0.98442000  0.17253000  1.0
  H  H3  1  0.50000000  0.48442000  0.32748000  1.0
  H  H4  1  0.50000000  0.51559000  0.67253000  1.0
  H  H5  1  1.00000000  0.01557000  0.82747000  1.0
  H  H6  1  1.00000000  0.79214000  0.27774000  1.0
  H  H7  1  0.50000000  0.29213000  0.22226000  1.0
  H  H8  1  0.50000000  0.70786000  0.77774000  1.0
  H  H9  1  0.99999000  0.20785000  0.72225000  1.0
  H  H10  1  0.99998000  0.50611000  0.24976000  1.0
  H  H11  1  0.50001000  0.00610000  0.25025000  1.0
  H  H12  1  0.50001000  0.99390000  0.74976000  1.0
  H  H13  1  0.99998000  0.49388000  0.75023000  1.0
  H  H14  1  0.99998000  0.41914000  0.11842000  1.0
  H  H15  1  0.49999000  0.91913000  0.38159000  1.0
  H  H16  1  0.50002000  0.08087000  0.61842000  1.0
  H  H17  1  0.99999000  0.58086000  0.88157000  1.0
  H  H18  1  1.00000000  0.62699000  0.02115000  1.0
  H  H19  1  0.49999000  0.12699000  0.47886000  1.0
  H  H20  1  0.50002000  0.87302000  0.52115000  1.0
  H  H21  1  1.00000000  0.37302000  0.97885000  1.0
  C  C22  1  0.00000000  0.85787000  0.16386000  1.0
  C  C23  1  0.50000000  0.35786000  0.33615000  1.0
  C  C24  1  0.50001000  0.64214000  0.66385000  1.0
  C  C25  1  0.00000000  0.14212000  0.83614000  1.0
  C  C26  1  0.99999000  0.75164000  0.22142000  1.0
  C  C27  1  0.50001000  0.25163000  0.27859000  1.0
  C  C28  1  0.50001000  0.74838000  0.72142000  1.0
  C  C29  1  0.99999000  0.24836000  0.77858000  1.0
  C  C30  1  0.99999000  0.59156000  0.20563000  1.0
  C  C31  1  0.50000000  0.09156000  0.29438000  1.0
  C  C32  1  0.50002000  0.90845000  0.70563000  1.0
  C  C33  1  0.99998000  0.40843000  0.79436000  1.0
  C  C34  1  0.99999000  0.54303000  0.13313000  1.0
  C  C35  1  0.49999000  0.04302000  0.36688000  1.0
  C  C36  1  0.50002000  0.95698000  0.63313000  1.0
  C  C37  1  0.99999000  0.45697000  0.86686000  1.0
  C  C38  1  1.00000000  0.65728000  0.07884000  1.0
  C  C39  1  0.49999000  0.15727000  0.42117000  1.0
  C  C40  1  0.50002000  0.84273000  0.57884000  1.0
  C  C41  1  1.00000000  0.34272000  0.92115000  1.0
  Br  Br42  1  0.50000000  0.82715000  0.92482000  1.0
  Br  Br43  1  0.00002000  0.32717000  0.57518000  1.0
  Br  Br44  1  1.00000000  0.67284000  0.42482000  1.0
  Br  Br45  1  0.50000000  0.17284000  0.07517000  1.0
  N  N46  1  1.00000000  0.81136000  0.09394000  1.0
  N  N47  1  0.50000000  0.31135000  0.40606000  1.0
  N  N48  1  0.50001000  0.68865000  0.59395000  1.0
  N  N49  1  0.99999000  0.18864000  0.90605000  1.0
