# generated using pymatgen
data_ZnH14C22(N3O2)2
_symmetry_space_group_name_H-M   'P 1'
_cell_length_a   12.84370000
_cell_length_b   13.55480000
_cell_length_c   13.65460000
_cell_angle_alpha   89.99760000
_cell_angle_beta   76.55800000
_cell_angle_gamma   89.99830000
_symmetry_Int_Tables_number   1
_chemical_formula_structural   ZnH14C22(N3O2)2
_chemical_formula_sum   'Zn4 H56 C88 N24 O16'
_cell_volume   2312.05986902
_cell_formula_units_Z   4
loop_
 _symmetry_equiv_pos_site_id
 _symmetry_equiv_pos_as_xyz
  1  'x, y, z'
loop_
 _atom_site_type_symbol
 _atom_site_label
 _atom_site_symmetry_multiplicity
 _atom_site_fract_x
 _atom_site_fract_y
 _atom_site_fract_z
 _atom_site_occupancy
  Zn  Zn0  1  0.28301000  0.87729000  0.27441000  1.0
  Zn  Zn1  1  0.71700000  0.37728000  0.22558000  1.0
  Zn  Zn2  1  0.71699000  0.12271000  0.72559000  1.0
  Zn  Zn3  1  0.28300000  0.62272000  0.77441000  1.0
  H  H4  1  0.76155000  0.89110000  0.49890000  1.0
  H  H5  1  0.23845000  0.39109000  0.00109000  1.0
  H  H6  1  0.23843000  0.10890000  0.50109000  1.0
  H  H7  1  0.76156000  0.60890000  0.99891000  1.0
  H  H8  1  0.56251000  0.90905000  0.52284000  1.0
  H  H9  1  0.43749000  0.40904000  0.97715000  1.0
  H  H10  1  0.43748000  0.09095000  0.47713000  1.0
  H  H11  1  0.56251000  0.59095000  0.02287000  1.0
  H  H12  1  0.48893000  0.93634000  0.36679000  1.0
  H  H13  1  0.51107000  0.43634000  0.13319000  1.0
  H  H14  1  0.51107000  0.06365000  0.63317000  1.0
  H  H15  1  0.48892000  0.56366000  0.86682000  1.0
  H  H16  1  0.61539000  0.93671000  0.20036000  1.0
  H  H17  1  0.38462000  0.43672000  0.29963000  1.0
  H  H18  1  0.38463000  0.06330000  0.79962000  1.0
  H  H19  1  0.61537000  0.56329000  0.70038000  1.0
  H  H20  1  0.95702000  0.86696000  0.59306000  1.0
  H  H21  1  0.04299000  0.36696000  0.90696000  1.0
  H  H22  1  0.04298000  0.13302000  0.40695000  1.0
  H  H23  1  0.95700000  0.63306000  0.09305000  1.0
  H  H24  1  0.05700000  0.85021000  0.72936000  1.0
  H  H25  1  0.94302000  0.35018000  0.77065000  1.0
  H  H26  1  0.94301000  0.14980000  0.27064000  1.0
  H  H27  1  0.05698000  0.64983000  0.22936000  1.0
  H  H28  1  0.25842000  0.83242000  0.68101000  1.0
  H  H29  1  0.74160000  0.33240000  0.81900000  1.0
  H  H30  1  0.74160000  0.16758000  0.31898000  1.0
  H  H31  1  0.25840000  0.66760000  0.18101000  1.0
  H  H32  1  0.35043000  0.83549000  0.49797000  1.0
  H  H33  1  0.64959000  0.33547000  0.00204000  1.0
  H  H34  1  0.64958000  0.16450000  0.50202000  1.0
  H  H35  1  0.35041000  0.66452000  0.99797000  1.0
  H  H36  1  0.03018000  0.92338000  0.03579000  1.0
  H  H37  1  0.96982000  0.42336000  0.46422000  1.0
  H  H38  1  0.96983000  0.07660000  0.96422000  1.0
  H  H39  1  0.03017000  0.57661000  0.53578000  1.0
  H  H40  1  0.17012000  0.93675000  0.87055000  1.0
  H  H41  1  0.82987000  0.43675000  0.62945000  1.0
  H  H42  1  0.82989000  0.06324000  0.12945000  1.0
  H  H43  1  0.17012000  0.56324000  0.37056000  1.0
  H  H44  1  0.36280000  0.91482000  0.87464000  1.0
  H  H45  1  0.63719000  0.41483000  0.62536000  1.0
  H  H46  1  0.63721000  0.08520000  0.12537000  1.0
  H  H47  1  0.36280000  0.58518000  0.37465000  1.0
  H  H48  1  0.41117000  0.89774000  0.04286000  1.0
  H  H49  1  0.58883000  0.39773000  0.45713000  1.0
  H  H50  1  0.58884000  0.10227000  0.95714000  1.0
  H  H51  1  0.41116000  0.60227000  0.54288000  1.0
  H  H52  1  0.31605000  0.23923000  0.33952000  1.0
  H  H53  1  0.68393000  0.73922000  0.16048000  1.0
  H  H54  1  0.68393000  0.76078000  0.66046000  1.0
  H  H55  1  0.31609000  0.26078000  0.83953000  1.0
  H  H56  1  0.51058000  0.10378000  0.26387000  1.0
  H  H57  1  0.48941000  0.60376000  0.23612000  1.0
  H  H58  1  0.48941000  0.89624000  0.73611000  1.0
  H  H59  1  0.51060000  0.39626000  0.76390000  1.0
  C  C60  1  0.05189000  0.87330000  0.38959000  1.0
  C  C61  1  0.94811000  0.37329000  0.11042000  1.0
  C  C62  1  0.94811000  0.12670000  0.61041000  1.0
  C  C63  1  0.05188000  0.62671000  0.88959000  1.0
  C  C64  1  0.10330000  0.86075000  0.47509000  1.0
  C  C65  1  0.89670000  0.36075000  0.02492000  1.0
  C  C66  1  0.89670000  0.13925000  0.52491000  1.0
  C  C67  1  0.10329000  0.63925000  0.97509000  1.0
  C  C68  1  0.14997000  0.90638000  0.12110000  1.0
  C  C69  1  0.85003000  0.40637000  0.37891000  1.0
  C  C70  1  0.85004000  0.09361000  0.87890000  1.0
  C  C71  1  0.14996000  0.59362000  0.62110000  1.0
  C  C72  1  0.07399000  0.89733000  0.22006000  1.0
  C  C73  1  0.92602000  0.39732000  0.27995000  1.0
  C  C74  1  0.92602000  0.10266000  0.77994000  1.0
  C  C75  1  0.07398000  0.60266000  0.72006000  1.0
  C  C76  1  0.90793000  0.89995000  0.32269000  1.0
  C  C77  1  0.09207000  0.39994000  0.17732000  1.0
  C  C78  1  0.09207000  0.10005000  0.67731000  1.0
  C  C79  1  0.90792000  0.60005000  0.82269000  1.0
  C  C80  1  0.79044000  0.90837000  0.33790000  1.0
  C  C81  1  0.20957000  0.40837000  0.16210000  1.0
  C  C82  1  0.20957000  0.09162000  0.66209000  1.0
  C  C83  1  0.79044000  0.59162000  0.83791000  1.0
  C  C84  1  0.72507000  0.90235000  0.43539000  1.0
  C  C85  1  0.27493000  0.40235000  0.06460000  1.0
  C  C86  1  0.27492000  0.09764000  0.56460000  1.0
  C  C87  1  0.72507000  0.59765000  0.93540000  1.0
  C  C88  1  0.61482000  0.91263000  0.44767000  1.0
  C  C89  1  0.38518000  0.41263000  0.05231000  1.0
  C  C90  1  0.38517000  0.08737000  0.55230000  1.0
  C  C91  1  0.61483000  0.58737000  0.94770000  1.0
  C  C92  1  0.57418000  0.92683000  0.36267000  1.0
  C  C93  1  0.42582000  0.42683000  0.13731000  1.0
  C  C94  1  0.42582000  0.07317000  0.63730000  1.0
  C  C95  1  0.57418000  0.57317000  0.86270000  1.0
  C  C96  1  0.64609000  0.92997000  0.26816000  1.0
  C  C97  1  0.35391000  0.42999000  0.23183000  1.0
  C  C98  1  0.35392000  0.07003000  0.73181000  1.0
  C  C99  1  0.64608000  0.57002000  0.76818000  1.0
  C  C100  1  0.04410000  0.85961000  0.57496000  1.0
  C  C101  1  0.95590000  0.35961000  0.92506000  1.0
  C  C102  1  0.95590000  0.14039000  0.42505000  1.0
  C  C103  1  0.04409000  0.64041000  0.07495000  1.0
  C  C104  1  0.10038000  0.85014000  0.65051000  1.0
  C  C105  1  0.89964000  0.35012000  0.84950000  1.0
  C  C106  1  0.89963000  0.14986000  0.34949000  1.0
  C  C107  1  0.10036000  0.64989000  0.15051000  1.0
  C  C108  1  0.21160000  0.84122000  0.62431000  1.0
  C  C109  1  0.78841000  0.34121000  0.87570000  1.0
  C  C110  1  0.78841000  0.15878000  0.37569000  1.0
  C  C111  1  0.21159000  0.65879000  0.12431000  1.0
  C  C112  1  0.26354000  0.84269000  0.52215000  1.0
  C  C113  1  0.73647000  0.34268000  0.97787000  1.0
  C  C114  1  0.73646000  0.15731000  0.47785000  1.0
  C  C115  1  0.26353000  0.65732000  0.02214000  1.0
  C  C116  1  0.11569000  0.91908000  0.03212000  1.0
  C  C117  1  0.88431000  0.41906000  0.46789000  1.0
  C  C118  1  0.88432000  0.08091000  0.96789000  1.0
  C  C119  1  0.11568000  0.58092000  0.53212000  1.0
  C  C120  1  0.19291000  0.92421000  0.94161000  1.0
  C  C121  1  0.80709000  0.42421000  0.55839000  1.0
  C  C122  1  0.80710000  0.07578000  0.05839000  1.0
  C  C123  1  0.19290000  0.57578000  0.44162000  1.0
  C  C124  1  0.30054000  0.91531000  0.94379000  1.0
  C  C125  1  0.69946000  0.41530000  0.55621000  1.0
  C  C126  1  0.69947000  0.08471000  0.05621000  1.0
  C  C127  1  0.30053000  0.58470000  0.44380000  1.0
  C  C128  1  0.32841000  0.90466000  0.03619000  1.0
  C  C129  1  0.67159000  0.40465000  0.46381000  1.0
  C  C130  1  0.67160000  0.09535000  0.96382000  1.0
  C  C131  1  0.32840000  0.59535000  0.53619000  1.0
  C  C132  1  0.29876000  0.08079000  0.30703000  1.0
  C  C133  1  0.70124000  0.58078000  0.19295000  1.0
  C  C134  1  0.70123000  0.91921000  0.69295000  1.0
  C  C135  1  0.29877000  0.41922000  0.80705000  1.0
  C  C136  1  0.36159000  0.17219000  0.31465000  1.0
  C  C137  1  0.63841000  0.67217000  0.18534000  1.0
  C  C138  1  0.63840000  0.82783000  0.68533000  1.0
  C  C139  1  0.36161000  0.32784000  0.81467000  1.0
  C  C140  1  0.46900000  0.17231000  0.29066000  1.0
  C  C141  1  0.53098000  0.67228000  0.20934000  1.0
  C  C142  1  0.53097000  0.82771000  0.70932000  1.0
  C  C143  1  0.46904000  0.32772000  0.79068000  1.0
  C  C144  1  0.53645000  0.26081000  0.29528000  1.0
  C  C145  1  0.46354000  0.76080000  0.20472000  1.0
  C  C146  1  0.46355000  0.73920000  0.70471000  1.0
  C  C147  1  0.53647000  0.23920000  0.79529000  1.0
  N  N148  1  0.11792000  0.87551000  0.29753000  1.0
  N  N149  1  0.88208000  0.37550000  0.20247000  1.0
  N  N150  1  0.88208000  0.12448000  0.70247000  1.0
  N  N151  1  0.11791000  0.62449000  0.79754000  1.0
  N  N152  1  0.25436000  0.90008000  0.12309000  1.0
  N  N153  1  0.74564000  0.40007000  0.37691000  1.0
  N  N154  1  0.74565000  0.09992000  0.87691000  1.0
  N  N155  1  0.25435000  0.59993000  0.62309000  1.0
  N  N156  1  0.94617000  0.88340000  0.40541000  1.0
  N  N157  1  0.05384000  0.38339000  0.09459000  1.0
  N  N158  1  0.05383000  0.11660000  0.59459000  1.0
  N  N159  1  0.94615000  0.61661000  0.90542000  1.0
  N  N160  1  0.96944000  0.91085000  0.22869000  1.0
  N  N161  1  0.03056000  0.41085000  0.27131000  1.0
  N  N162  1  0.03056000  0.08913000  0.77131000  1.0
  N  N163  1  0.96944000  0.58914000  0.72869000  1.0
  N  N164  1  0.21105000  0.85281000  0.44908000  1.0
  N  N165  1  0.78896000  0.35281000  0.05093000  1.0
  N  N166  1  0.78895000  0.14719000  0.55092000  1.0
  N  N167  1  0.21104000  0.64719000  0.94908000  1.0
  N  N168  1  0.75206000  0.92214000  0.25503000  1.0
  N  N169  1  0.24795000  0.42216000  0.24496000  1.0
  N  N170  1  0.24796000  0.07785000  0.74495000  1.0
  N  N171  1  0.75204000  0.57785000  0.75505000  1.0
  O  O172  1  0.35473000  0.99965000  0.29497000  1.0
  O  O173  1  0.64527000  0.49964000  0.20504000  1.0
  O  O174  1  0.64525000  0.00036000  0.70504000  1.0
  O  O175  1  0.35474000  0.50036000  0.79496000  1.0
  O  O176  1  0.20006000  0.08631000  0.31354000  1.0
  O  O177  1  0.79995000  0.58629000  0.18643000  1.0
  O  O178  1  0.79994000  0.91371000  0.68641000  1.0
  O  O179  1  0.20006000  0.41371000  0.81359000  1.0
  O  O180  1  0.63247000  0.25487000  0.23567000  1.0
  O  O181  1  0.36752000  0.75487000  0.26434000  1.0
  O  O182  1  0.36752000  0.74514000  0.76433000  1.0
  O  O183  1  0.63249000  0.24514000  0.73566000  1.0
  O  O184  1  0.50265000  0.33205000  0.35140000  1.0
  O  O185  1  0.49735000  0.83205000  0.14860000  1.0
  O  O186  1  0.49736000  0.66796000  0.64858000  1.0
  O  O187  1  0.50266000  0.16795000  0.85140000  1.0
