# generated using pymatgen
data_ZnH28C30(SN5)2
_symmetry_space_group_name_H-M   'P 1'
_cell_length_a   9.52467000
_cell_length_b   9.60308000
_cell_length_c   16.61620000
_cell_angle_alpha   90.00050000
_cell_angle_beta   90.00000000
_cell_angle_gamma   97.87450000
_symmetry_Int_Tables_number   1
_chemical_formula_structural   ZnH28C30(SN5)2
_chemical_formula_sum   'Zn2 H56 C60 S4 N20'
_cell_volume   1505.48905119
_cell_formula_units_Z   2
loop_
 _symmetry_equiv_pos_site_id
 _symmetry_equiv_pos_as_xyz
  1  'x, y, z'
loop_
 _atom_site_type_symbol
 _atom_site_label
 _atom_site_symmetry_multiplicity
 _atom_site_fract_x
 _atom_site_fract_y
 _atom_site_fract_z
 _atom_site_occupancy
  Zn  Zn0  1  0.50000000  0.99999000  0.00000000  1.0
  Zn  Zn1  1  0.00000000  0.50000000  0.50000000  1.0
  H  H2  1  0.41706000  0.01620000  0.82058000  1.0
  H  H3  1  0.08294000  0.48379000  0.32058000  1.0
  H  H4  1  0.58294000  0.98380000  0.17942000  1.0
  H  H5  1  0.91706000  0.51621000  0.67942000  1.0
  H  H6  1  0.26176000  0.88157000  0.71657000  1.0
  H  H7  1  0.23825000  0.61842000  0.21657000  1.0
  H  H8  1  0.73824000  0.11843000  0.28344000  1.0
  H  H9  1  0.76175000  0.38157000  0.78343000  1.0
  H  H10  1  0.12829000  0.64697000  0.75413000  1.0
  H  H11  1  0.37171000  0.85302000  0.25413000  1.0
  H  H12  1  0.87171000  0.35303000  0.24587000  1.0
  H  H13  1  0.62829000  0.14698000  0.74587000  1.0
  H  H14  1  0.32879000  0.69729000  0.98661000  1.0
  H  H15  1  0.17120000  0.80271000  0.48661000  1.0
  H  H16  1  0.67121000  0.30271000  0.01339000  1.0
  H  H17  1  0.82879000  0.19730000  0.51339000  1.0
  H  H18  1  0.10992000  0.36107000  0.99392000  1.0
  H  H19  1  0.39008000  0.13893000  0.49392000  1.0
  H  H20  1  0.89008000  0.63893000  0.00609000  1.0
  H  H21  1  0.60993000  0.86107000  0.50609000  1.0
  H  H22  1  0.15115000  0.53730000  0.03027000  1.0
  H  H23  1  0.34885000  0.96270000  0.53027000  1.0
  H  H24  1  0.84885000  0.46271000  0.96974000  1.0
  H  H25  1  0.65115000  0.03730000  0.46973000  1.0
  H  H26  1  0.28642000  0.45137000  0.98789000  1.0
  H  H27  1  0.21358000  0.04863000  0.48789000  1.0
  H  H28  1  0.71358000  0.54864000  0.01211000  1.0
  H  H29  1  0.78642000  0.95137000  0.51211000  1.0
  H  H30  1  0.34473000  0.24187000  0.06234000  1.0
  H  H31  1  0.15527000  0.25813000  0.56234000  1.0
  H  H32  1  0.65527000  0.75813000  0.93766000  1.0
  H  H33  1  0.84473000  0.74187000  0.43766000  1.0
  H  H34  1  0.12128000  0.27903000  0.13469000  1.0
  H  H35  1  0.37872000  0.22098000  0.63469000  1.0
  H  H36  1  0.87872000  0.72097000  0.86531000  1.0
  H  H37  1  0.62128000  0.77902000  0.36531000  1.0
  H  H38  1  0.95344000  0.06976000  0.17730000  1.0
  H  H39  1  0.54655000  0.43025000  0.67731000  1.0
  H  H40  1  0.04656000  0.93024000  0.82269000  1.0
  H  H41  1  0.45345000  0.56976000  0.32269000  1.0
  H  H42  1  0.24893000  0.80974000  0.08272000  1.0
  H  H43  1  0.25107000  0.69026000  0.58272000  1.0
  H  H44  1  0.75107000  0.19026000  0.91728000  1.0
  H  H45  1  0.74893000  0.30974000  0.41728000  1.0
  H  H46  1  0.16357000  0.29904000  0.76176000  1.0
  H  H47  1  0.33643000  0.20096000  0.26176000  1.0
  H  H48  1  0.83643000  0.70096000  0.23824000  1.0
  H  H49  1  0.66357000  0.79904000  0.73824000  1.0
  H  H50  1  0.12224000  0.11178000  0.75212000  1.0
  H  H51  1  0.37776000  0.38821000  0.25213000  1.0
  H  H52  1  0.87777000  0.88822000  0.24787000  1.0
  H  H53  1  0.62223000  0.61178000  0.74787000  1.0
  H  H54  1  0.23035000  0.18762000  0.83251000  1.0
  H  H55  1  0.26965000  0.31238000  0.33251000  1.0
  H  H56  1  0.76965000  0.81238000  0.16749000  1.0
  H  H57  1  0.73034000  0.68762000  0.66749000  1.0
  C  C58  1  0.35925000  0.91276000  0.83348000  1.0
  C  C59  1  0.14075000  0.58723000  0.33348000  1.0
  C  C60  1  0.64075000  0.08724000  0.16652000  1.0
  C  C61  1  0.85925000  0.41277000  0.66652000  1.0
  C  C62  1  0.27223000  0.83772000  0.77629000  1.0
  C  C63  1  0.22778000  0.66228000  0.27629000  1.0
  C  C64  1  0.72777000  0.16228000  0.22371000  1.0
  C  C65  1  0.77222000  0.33772000  0.72371000  1.0
  C  C66  1  0.19820000  0.70784000  0.79706000  1.0
  C  C67  1  0.30181000  0.79215000  0.29706000  1.0
  C  C68  1  0.80180000  0.29216000  0.20295000  1.0
  C  C69  1  0.69819000  0.20785000  0.70294000  1.0
  C  C70  1  0.21490000  0.65405000  0.87448000  1.0
  C  C71  1  0.28511000  0.84595000  0.37448000  1.0
  C  C72  1  0.78510000  0.34595000  0.12552000  1.0
  C  C73  1  0.71490000  0.15406000  0.62552000  1.0
  C  C74  1  0.30722000  0.73590000  0.92701000  1.0
  C  C75  1  0.19278000  0.76410000  0.42700000  1.0
  C  C76  1  0.69278000  0.26410000  0.07299000  1.0
  C  C77  1  0.80722000  0.23591000  0.57299000  1.0
  C  C78  1  0.14241000  0.51653000  0.90129000  1.0
  C  C79  1  0.35760000  0.98347000  0.40129000  1.0
  C  C80  1  0.85759000  0.48347000  0.09871000  1.0
  C  C81  1  0.64241000  0.01653000  0.59871000  1.0
  C  C82  1  0.17348000  0.46308000  0.98305000  1.0
  C  C83  1  0.32652000  0.03692000  0.48305000  1.0
  C  C84  1  0.82652000  0.53692000  0.01695000  1.0
  C  C85  1  0.67348000  0.96308000  0.51695000  1.0
  C  C86  1  0.73045000  0.84648000  0.91666000  1.0
  C  C87  1  0.76956000  0.65352000  0.41667000  1.0
  C  C88  1  0.26955000  0.15352000  0.08333000  1.0
  C  C89  1  0.23044000  0.34648000  0.58333000  1.0
  C  C90  1  0.85499000  0.82694000  0.87714000  1.0
  C  C91  1  0.64501000  0.67305000  0.37714000  1.0
  C  C92  1  0.14501000  0.17306000  0.12286000  1.0
  C  C93  1  0.35499000  0.32695000  0.62286000  1.0
  C  C94  1  0.94831000  0.94416000  0.85309000  1.0
  C  C95  1  0.55169000  0.55584000  0.35309000  1.0
  C  C96  1  0.05169000  0.05584000  0.14691000  1.0
  C  C97  1  0.44831000  0.44416000  0.64691000  1.0
  C  C98  1  0.91408000  0.07911000  0.86816000  1.0
  C  C99  1  0.58592000  0.42088000  0.36816000  1.0
  C  C100  1  0.08592000  0.92089000  0.13184000  1.0
  C  C101  1  0.41408000  0.57912000  0.63184000  1.0
  C  C102  1  0.21576000  0.91214000  0.09339000  1.0
  C  C103  1  0.28424000  0.58786000  0.59339000  1.0
  C  C104  1  0.78425000  0.08786000  0.90661000  1.0
  C  C105  1  0.71576000  0.41214000  0.40661000  1.0
  C  C106  1  0.00949000  0.20733000  0.84570000  1.0
  C  C107  1  0.49051000  0.29266000  0.34570000  1.0
  C  C108  1  0.99051000  0.79267000  0.15430000  1.0
  C  C109  1  0.50949000  0.70734000  0.65430000  1.0
  C  C110  1  0.13781000  0.19977000  0.79470000  1.0
  C  C111  1  0.36219000  0.30022000  0.29470000  1.0
  C  C112  1  0.86219000  0.80023000  0.20530000  1.0
  C  C113  1  0.63781000  0.69977000  0.70530000  1.0
  C  C114  1  0.49033000  0.29466000  0.90451000  1.0
  C  C115  1  0.00966000  0.20532000  0.40450000  1.0
  C  C116  1  0.50966000  0.70532000  0.09550000  1.0
  C  C117  1  0.99034000  0.79468000  0.59550000  1.0
  S  S118  1  0.51111000  0.45286000  0.86915000  1.0
  S  S119  1  0.98889000  0.04711000  0.36914000  1.0
  S  S120  1  0.48889000  0.54711000  0.13086000  1.0
  S  S121  1  0.01112000  0.95289000  0.63086000  1.0
  N  N122  1  0.37573000  0.86310000  0.90800000  1.0
  N  N123  1  0.12427000  0.63690000  0.40800000  1.0
  N  N124  1  0.62427000  0.13690000  0.09200000  1.0
  N  N125  1  0.87573000  0.36311000  0.59200000  1.0
  N  N126  1  0.05537000  0.44690000  0.85099000  1.0
  N  N127  1  0.44463000  0.05309000  0.35099000  1.0
  N  N128  1  0.94463000  0.55309000  0.14902000  1.0
  N  N129  1  0.55537000  0.94691000  0.64902000  1.0
  N  N130  1  0.97857000  0.32551000  0.87384000  1.0
  N  N131  1  0.52144000  0.17448000  0.37384000  1.0
  N  N132  1  0.02143000  0.67448000  0.12616000  1.0
  N  N133  1  0.47857000  0.82552000  0.62616000  1.0
  N  N134  1  0.69574000  0.97569000  0.93111000  1.0
  N  N135  1  0.80426000  0.52431000  0.43111000  1.0
  N  N136  1  0.30426000  0.02431000  0.06889000  1.0
  N  N137  1  0.19574000  0.47569000  0.56889000  1.0
  N  N138  1  0.47406000  0.17808000  0.93076000  1.0
  N  N139  1  0.02593000  0.32189000  0.43075000  1.0
  N  N140  1  0.52594000  0.82188000  0.06925000  1.0
  N  N141  1  0.97406000  0.67811000  0.56925000  1.0
