# generated using pymatgen
data_KH9(C3O4)2
_symmetry_space_group_name_H-M   'P 1'
_cell_length_a   4.75943000
_cell_length_b   8.83735000
_cell_length_c   10.98040000
_cell_angle_alpha   90.00020000
_cell_angle_beta   90.00100000
_cell_angle_gamma   88.44030000
_symmetry_Int_Tables_number   1
_chemical_formula_structural   KH9(C3O4)2
_chemical_formula_sum   'K2 H18 C12 O16'
_cell_volume   461.67273513
_cell_formula_units_Z   2
loop_
 _symmetry_equiv_pos_site_id
 _symmetry_equiv_pos_as_xyz
  1  'x, y, z'
loop_
 _atom_site_type_symbol
 _atom_site_label
 _atom_site_symmetry_multiplicity
 _atom_site_fract_x
 _atom_site_fract_y
 _atom_site_fract_z
 _atom_site_occupancy
  K  K0  1  0.34727000  0.35088000  0.16208000  1.0
  K  K1  1  0.65269000  0.64912000  0.66207000  1.0
  H  H2  1  0.07554000  0.86646000  0.48139000  1.0
  H  H3  1  0.92446000  0.13354000  0.98138000  1.0
  H  H4  1  0.82832000  0.95574000  0.34267000  1.0
  H  H5  1  0.17169000  0.04425000  0.84266000  1.0
  H  H6  1  0.42299000  0.91216000  0.24890000  1.0
  H  H7  1  0.57701000  0.08784000  0.74890000  1.0
  H  H8  1  0.22699000  0.98887000  0.04534000  1.0
  H  H9  1  0.77301000  0.01112000  0.54534000  1.0
  H  H10  1  0.46271000  0.73969000  0.87773000  1.0
  H  H11  1  0.53729000  0.26032000  0.37773000  1.0
  H  H12  1  0.81662000  0.65076000  0.25369000  1.0
  H  H13  1  0.18338000  0.34923000  0.75369000  1.0
  H  H14  1  0.24563000  0.72006000  0.13844000  1.0
  H  H15  1  0.75438000  0.27993000  0.63844000  1.0
  H  H16  1  0.71976000  0.92024000  0.09791000  1.0
  H  H17  1  0.28024000  0.07977000  0.59791000  1.0
  H  H18  1  0.68976000  0.65290000  0.03528000  1.0
  H  H19  1  0.31024000  0.34710000  0.53528000  1.0
  C  C20  1  0.15502000  0.69368000  0.37140000  1.0
  C  C21  1  0.84498000  0.30632000  0.87141000  1.0
  C  C22  1  0.93476000  0.75152000  0.27864000  1.0
  C  C23  1  0.06524000  0.24848000  0.77864000  1.0
  C  C24  1  0.09943000  0.81050000  0.16916000  1.0
  C  C25  1  0.90058000  0.18950000  0.66916000  1.0
  C  C26  1  0.90852000  0.85990000  0.06292000  1.0
  C  C27  1  0.09148000  0.14009000  0.56292000  1.0
  C  C28  1  0.80856000  0.73271000  0.97958000  1.0
  C  C29  1  0.19145000  0.26728000  0.47958000  1.0
  C  C30  1  0.06358000  0.64175000  0.92677000  1.0
  C  C31  1  0.93642000  0.35825000  0.42677000  1.0
  O  O32  1  0.31009000  0.58665000  0.34351000  1.0
  O  O33  1  0.68990000  0.41335000  0.84350000  1.0
  O  O34  1  0.17834000  0.76363000  0.47910000  1.0
  O  O35  1  0.82167000  0.23636000  0.97910000  1.0
  O  O36  1  0.73379000  0.86082000  0.32266000  1.0
  O  O37  1  0.26621000  0.13918000  0.82266000  1.0
  O  O38  1  0.24840000  0.94331000  0.20432000  1.0
  O  O39  1  0.75160000  0.05669000  0.70431000  1.0
  O  O40  1  0.06404000  0.96812000  0.99220000  1.0
  O  O41  1  0.93597000  0.03188000  0.49220000  1.0
  O  O42  1  0.62969000  0.80220000  0.89075000  1.0
  O  O43  1  0.37030000  0.19780000  0.39076000  1.0
  O  O44  1  0.14272000  0.66906000  0.81812000  1.0
  O  O45  1  0.85727000  0.33096000  0.31814000  1.0
  O  O46  1  0.18262000  0.55131000  0.00095000  1.0
  O  O47  1  0.81737000  0.44870000  0.50097000  1.0
