# generated using pymatgen
data_CoH20C26N4O7
_symmetry_space_group_name_H-M   'P 1'
_cell_length_a   9.84851000
_cell_length_b   11.24920000
_cell_length_c   11.83140000
_cell_angle_alpha   93.85860000
_cell_angle_beta   102.30600000
_cell_angle_gamma   111.66500000
_symmetry_Int_Tables_number   1
_chemical_formula_structural   CoH20C26N4O7
_chemical_formula_sum   'Co2 H40 C52 N8 O14'
_cell_volume   1174.70839140
_cell_formula_units_Z   2
loop_
 _symmetry_equiv_pos_site_id
 _symmetry_equiv_pos_as_xyz
  1  'x, y, z'
loop_
 _atom_site_type_symbol
 _atom_site_label
 _atom_site_symmetry_multiplicity
 _atom_site_fract_x
 _atom_site_fract_y
 _atom_site_fract_z
 _atom_site_occupancy
  Co  Co0  1  0.14869000  0.23953000  0.31057000  1.0
  Co  Co1  1  0.85131000  0.76047000  0.68943000  1.0
  H  H2  1  0.54314000  0.61050000  0.00017000  1.0
  H  H3  1  0.45687000  0.38950000  0.99982000  1.0
  H  H4  1  0.58455000  0.41831000  0.67440000  1.0
  H  H5  1  0.41545000  0.58169000  0.32560000  1.0
  H  H6  1  0.86499000  0.07211000  0.62513000  1.0
  H  H7  1  0.13501000  0.92789000  0.37487000  1.0
  H  H8  1  0.86368000  0.42461000  0.15147000  1.0
  H  H9  1  0.13632000  0.57539000  0.84853000  1.0
  H  H10  1  0.92041000  0.78620000  0.02732000  1.0
  H  H11  1  0.07959000  0.21380000  0.97267000  1.0
  H  H12  1  0.30665000  0.68677000  0.14144000  1.0
  H  H13  1  0.69335000  0.31323000  0.85856000  1.0
  H  H14  1  0.08153000  0.95160000  0.99107000  1.0
  H  H15  1  0.91846000  0.04840000  0.00893000  1.0
  H  H16  1  0.27826000  0.04886000  0.03331000  1.0
  H  H17  1  0.72173000  0.95114000  0.96668000  1.0
  H  H18  1  0.43293000  0.25890000  0.20799000  1.0
  H  H19  1  0.56707000  0.74110000  0.79201000  1.0
  H  H20  1  0.69685000  0.28387000  0.21483000  1.0
  H  H21  1  0.30315000  0.71613000  0.78518000  1.0
  H  H22  1  0.89430000  0.35384000  0.40123000  1.0
  H  H23  1  0.10570000  0.64616000  0.59877000  1.0
  H  H24  1  0.83477000  0.39711000  0.59142000  1.0
  H  H25  1  0.16523000  0.60289000  0.40858000  1.0
  H  H26  1  0.21578000  0.41490000  0.55547000  1.0
  H  H27  1  0.78422000  0.58510000  0.44453000  1.0
  H  H28  1  0.34068000  0.41776000  0.68725000  1.0
  H  H29  1  0.65932000  0.58224000  0.31275000  1.0
  H  H30  1  0.21273000  0.16472000  0.64623000  1.0
  H  H31  1  0.78727000  0.83528000  0.35377000  1.0
  H  H32  1  0.11818000  0.25334000  0.69779000  1.0
  H  H33  1  0.88183000  0.74666000  0.30221000  1.0
  H  H34  1  0.83307000  0.08606000  0.16577000  1.0
  H  H35  1  0.16693000  0.91395000  0.83424000  1.0
  H  H36  1  0.55436000  0.95092000  0.11530000  1.0
  H  H37  1  0.44565000  0.04908000  0.88470000  1.0
  H  H38  1  0.42302000  0.88301000  0.26970000  1.0
  H  H39  1  0.57698000  0.11699000  0.73030000  1.0
  H  H40  1  0.56522000  0.93653000  0.48128000  1.0
  H  H41  1  0.43478000  0.06347000  0.51872000  1.0
  C  C42  1  0.09275000  0.54808000  0.15529000  1.0
  C  C43  1  0.90725000  0.45192000  0.84471000  1.0
  C  C44  1  0.93764000  0.51678000  0.13457000  1.0
  C  C45  1  0.06236000  0.48322000  0.86543000  1.0
  C  C46  1  0.87733000  0.60289000  0.08813000  1.0
  C  C47  1  0.12267000  0.39711000  0.91186000  1.0
  C  C48  1  0.97136000  0.72253000  0.06576000  1.0
  C  C49  1  0.02864000  0.27747000  0.93423000  1.0
  C  C50  1  0.12676000  0.75305000  0.08691000  1.0
  C  C51  1  0.87324000  0.24695000  0.91308000  1.0
  C  C52  1  0.18669000  0.66492000  0.12951000  1.0
  C  C53  1  0.81331000  0.33509000  0.87048000  1.0
  C  C54  1  0.15937000  0.45622000  0.20323000  1.0
  C  C55  1  0.84062000  0.54378000  0.79677000  1.0
  C  C56  1  0.71051000  0.56040000  0.05553000  1.0
  C  C57  1  0.28950000  0.43961000  0.94447000  1.0
  C  C58  1  0.18705000  0.97353000  0.05900000  1.0
  C  C59  1  0.81295000  0.02648000  0.94099000  1.0
  C  C60  1  0.17465000  0.02702000  0.17714000  1.0
  C  C61  1  0.82535000  0.97299000  0.82285000  1.0
  C  C62  1  0.48443000  0.30807000  0.39692000  1.0
  C  C63  1  0.51557000  0.69192000  0.60309000  1.0
  C  C64  1  0.51860000  0.28519000  0.29091000  1.0
  C  C65  1  0.48140000  0.71480000  0.70909000  1.0
  C  C66  1  0.66707000  0.30186000  0.29583000  1.0
  C  C67  1  0.33293000  0.69813000  0.70418000  1.0
  C  C68  1  0.77953000  0.34117000  0.40266000  1.0
  C  C69  1  0.22047000  0.65883000  0.59734000  1.0
  C  C70  1  0.74746000  0.36573000  0.50898000  1.0
  C  C71  1  0.25254000  0.63427000  0.49103000  1.0
  C  C72  1  0.59837000  0.34957000  0.50397000  1.0
  C  C73  1  0.40163000  0.65042000  0.49603000  1.0
  C  C74  1  0.38134000  0.34250000  0.53637000  1.0
  C  C75  1  0.61866000  0.65750000  0.46363000  1.0
  C  C76  1  0.27392000  0.35854000  0.60155000  1.0
  C  C77  1  0.72608000  0.64146000  0.39845000  1.0
  C  C78  1  0.15751000  0.23163000  0.62170000  1.0
  C  C79  1  0.84249000  0.76837000  0.37830000  1.0
  C  C80  1  0.01984000  0.16382000  0.52261000  1.0
  C  C81  1  0.98016000  0.83618000  0.47740000  1.0
  C  C82  1  0.85349000  0.08581000  0.35179000  1.0
  C  C83  1  0.14651000  0.91419000  0.64821000  1.0
  C  C84  1  0.77525000  0.05216000  0.23337000  1.0
  C  C85  1  0.22476000  0.94785000  0.76664000  1.0
  C  C86  1  0.62039000  0.97752000  0.20643000  1.0
  C  C87  1  0.37960000  0.02248000  0.79357000  1.0
  C  C88  1  0.54495000  0.93704000  0.29449000  1.0
  C  C89  1  0.45505000  0.06297000  0.70551000  1.0
  C  C90  1  0.62219000  0.96822000  0.41267000  1.0
  C  C91  1  0.37781000  0.03178000  0.58733000  1.0
  C  C92  1  0.77704000  0.04334000  0.43918000  1.0
  C  C93  1  0.22296000  0.95666000  0.56082000  1.0
  N  N94  1  0.34969000  0.30275000  0.42077000  1.0
  N  N95  1  0.65031000  0.69724000  0.57923000  1.0
  N  N96  1  0.52846000  0.37036000  0.58885000  1.0
  N  N97  1  0.47154000  0.62963000  0.41115000  1.0
  N  N98  1  0.00555000  0.16102000  0.40662000  1.0
  N  N99  1  0.99445000  0.83898000  0.59338000  1.0
  N  N100  1  0.88536000  0.09375000  0.54433000  1.0
  N  N101  1  0.11464000  0.90625000  0.45567000  1.0
  O  O102  1  0.29497000  0.47611000  0.20728000  1.0
  O  O103  1  0.70503000  0.52390000  0.79272000  1.0
  O  O104  1  0.07029000  0.36004000  0.24162000  1.0
  O  O105  1  0.92971000  0.63996000  0.75838000  1.0
  O  O106  1  0.62667000  0.44440000  0.05094000  1.0
  O  O107  1  0.37333000  0.55559000  0.94905000  1.0
  O  O108  1  0.65996000  0.65210000  0.03270000  1.0
  O  O109  1  0.34004000  0.34791000  0.96730000  1.0
  O  O110  1  0.22831000  0.86481000  0.06414000  1.0
  O  O111  1  0.77169000  0.13519000  0.93585000  1.0
  O  O112  1  0.20543000  0.97816000  0.26554000  1.0
  O  O113  1  0.79456000  0.02182000  0.73446000  1.0
  O  O114  1  0.13447000  0.12411000  0.17281000  1.0
  O  O115  1  0.86554000  0.87589000  0.82719000  1.0
