# generated using pymatgen
data_CdH15C20(NO2)3
_symmetry_space_group_name_H-M   'P 1'
_cell_length_a   9.06672000
_cell_length_b   10.05140000
_cell_length_c   10.61450000
_cell_angle_alpha   100.53400000
_cell_angle_beta   106.05600000
_cell_angle_gamma   92.77810000
_symmetry_Int_Tables_number   1
_chemical_formula_structural   CdH15C20(NO2)3
_chemical_formula_sum   'Cd2 H30 C40 N6 O12'
_cell_volume   908.89837168
_cell_formula_units_Z   2
loop_
 _symmetry_equiv_pos_site_id
 _symmetry_equiv_pos_as_xyz
  1  'x, y, z'
loop_
 _atom_site_type_symbol
 _atom_site_label
 _atom_site_symmetry_multiplicity
 _atom_site_fract_x
 _atom_site_fract_y
 _atom_site_fract_z
 _atom_site_occupancy
  Cd  Cd0  1  0.11942000  0.46091000  0.68238000  1.0
  Cd  Cd1  1  0.88058000  0.53909000  0.31762000  1.0
  H  H2  1  0.92445000  0.71647000  0.71101000  1.0
  H  H3  1  0.07555000  0.28353000  0.28898000  1.0
  H  H4  1  0.83592000  0.87338000  0.88448000  1.0
  H  H5  1  0.16408000  0.12662000  0.11551000  1.0
  H  H6  1  0.94613000  0.86036000  0.12544000  1.0
  H  H7  1  0.05387000  0.13964000  0.87456000  1.0
  H  H8  1  0.13452000  0.69476000  0.18555000  1.0
  H  H9  1  0.86548000  0.30524000  0.81445000  1.0
  H  H10  1  0.29690000  0.56662000  0.22146000  1.0
  H  H11  1  0.70310000  0.43338000  0.77854000  1.0
  H  H12  1  0.47937000  0.39073000  0.25465000  1.0
  H  H13  1  0.52063000  0.60927000  0.74536000  1.0
  H  H14  1  0.51386000  0.23539000  0.05038000  1.0
  H  H15  1  0.48614000  0.76461000  0.94962000  1.0
  H  H16  1  0.36315000  0.26934000  0.82350000  1.0
  H  H17  1  0.63684000  0.73066000  0.17650000  1.0
  H  H18  1  0.57962000  0.40143000  0.57723000  1.0
  H  H19  1  0.42038000  0.59857000  0.42277000  1.0
  H  H20  1  0.68321000  0.98445000  0.19891000  1.0
  H  H21  1  0.31679000  0.01555000  0.80109000  1.0
  H  H22  1  0.83503000  0.05296000  0.34605000  1.0
  H  H23  1  0.16497000  0.94704000  0.65395000  1.0
  H  H24  1  0.77358000  0.15203000  0.22344000  1.0
  H  H25  1  0.22642000  0.84797000  0.77656000  1.0
  H  H26  1  0.11955000  0.08915000  0.36815000  1.0
  H  H27  1  0.88046000  0.91085000  0.63185000  1.0
  H  H28  1  0.22298000  0.95918000  0.42770000  1.0
  H  H29  1  0.77703000  0.04082000  0.57230000  1.0
  H  H30  1  0.17795000  0.96228000  0.25540000  1.0
  H  H31  1  0.82205000  0.03771000  0.74460000  1.0
  C  C32  1  0.96754000  0.71617000  0.81755000  1.0
  C  C33  1  0.03246000  0.28383000  0.18245000  1.0
  C  C34  1  0.92082000  0.80353000  0.91371000  1.0
  C  C35  1  0.07918000  0.19647000  0.08629000  1.0
  C  C36  1  0.98240000  0.79583000  0.04749000  1.0
  C  C37  1  0.01760000  0.20417000  0.95251000  1.0
  C  C38  1  0.08804000  0.70279000  0.08128000  1.0
  C  C39  1  0.91196000  0.29721000  0.91872000  1.0
  C  C40  1  0.12856000  0.61746000  0.97879000  1.0
  C  C41  1  0.87144000  0.38254000  0.02121000  1.0
  C  C42  1  0.23663000  0.51261000  0.00542000  1.0
  C  C43  1  0.76337000  0.48739000  0.99458000  1.0
  C  C44  1  0.31503000  0.49966000  0.13546000  1.0
  C  C45  1  0.68497000  0.50034000  0.86454000  1.0
  C  C46  1  0.41625000  0.40006000  0.15364000  1.0
  C  C47  1  0.58375000  0.59994000  0.84636000  1.0
  C  C48  1  0.43638000  0.31489000  0.04161000  1.0
  C  C49  1  0.56361000  0.68511000  0.95839000  1.0
  C  C50  1  0.35354000  0.33304000  0.91513000  1.0
  C  C51  1  0.64646000  0.66696000  0.08487000  1.0
  C  C52  1  0.40384000  0.23647000  0.47790000  1.0
  C  C53  1  0.59616000  0.76353000  0.52209000  1.0
  C  C54  1  0.55041000  0.30496000  0.50589000  1.0
  C  C55  1  0.44959000  0.69504000  0.49411000  1.0
  C  C56  1  0.66114000  0.25389000  0.44674000  1.0
  C  C57  1  0.33886000  0.74611000  0.55326000  1.0
  C  C58  1  0.62107000  0.13568000  0.34433000  1.0
  C  C59  1  0.37893000  0.86432000  0.65567000  1.0
  C  C60  1  0.47147000  0.07192000  0.31723000  1.0
  C  C61  1  0.52853000  0.92808000  0.68276000  1.0
  C  C62  1  0.36233000  0.11234000  0.38402000  1.0
  C  C63  1  0.63767000  0.88766000  0.61598000  1.0
  C  C64  1  0.29824000  0.29715000  0.55499000  1.0
  C  C65  1  0.70176000  0.70285000  0.44502000  1.0
  C  C66  1  0.82175000  0.32684000  0.49882000  1.0
  C  C67  1  0.17826000  0.67316000  0.50117000  1.0
  C  C68  1  0.73315000  0.07762000  0.27341000  1.0
  C  C69  1  0.26685000  0.92238000  0.72659000  1.0
  C  C70  1  0.21207000  0.02673000  0.35584000  1.0
  C  C71  1  0.78793000  0.97327000  0.64416000  1.0
  N  N72  1  0.25671000  0.42902000  0.89774000  1.0
  N  N73  1  0.74329000  0.57098000  0.10226000  1.0
  N  N74  1  0.06810000  0.62588000  0.84959000  1.0
  N  N75  1  0.93190000  0.37412000  0.15041000  1.0
  N  N76  1  0.42383000  0.94943000  0.20845000  1.0
  N  N77  1  0.57617000  0.05057000  0.79156000  1.0
  O  O78  1  0.20859000  0.22219000  0.59087000  1.0
  O  O79  1  0.79142000  0.77781000  0.40913000  1.0
  O  O80  1  0.30879000  0.42824000  0.58260000  1.0
  O  O81  1  0.69121000  0.57176000  0.41740000  1.0
  O  O82  1  0.89940000  0.34416000  0.41955000  1.0
  O  O83  1  0.10060000  0.65584000  0.58045000  1.0
  O  O84  1  0.87197000  0.36710000  0.62633000  1.0
  O  O85  1  0.12803000  0.63290000  0.37367000  1.0
  O  O86  1  0.43098000  0.83668000  0.23945000  1.0
  O  O87  1  0.56902000  0.16332000  0.76055000  1.0
  O  O88  1  0.37806000  0.96756000  0.09176000  1.0
  O  O89  1  0.62193000  0.03244000  0.90824000  1.0
