# generated using pymatgen
data_TlH10C8NO2
_symmetry_space_group_name_H-M   'P 1'
_cell_length_a   7.71190000
_cell_length_b   8.96272000
_cell_length_c   14.50940000
_cell_angle_alpha   90.00150000
_cell_angle_beta   90.00040000
_cell_angle_gamma   68.09600000
_symmetry_Int_Tables_number   1
_chemical_formula_structural   TlH10C8NO2
_chemical_formula_sum   'Tl4 H40 C32 N4 O8'
_cell_volume   930.48595117
_cell_formula_units_Z   4
loop_
 _symmetry_equiv_pos_site_id
 _symmetry_equiv_pos_as_xyz
  1  'x, y, z'
loop_
 _atom_site_type_symbol
 _atom_site_label
 _atom_site_symmetry_multiplicity
 _atom_site_fract_x
 _atom_site_fract_y
 _atom_site_fract_z
 _atom_site_occupancy
  Tl  Tl0  1  0.60000000  0.78740000  0.90688000  1.0
  Tl  Tl1  1  0.90001000  0.21261000  0.40687000  1.0
  Tl  Tl2  1  0.40002000  0.21260000  0.09312000  1.0
  Tl  Tl3  1  0.09999000  0.78740000  0.59313000  1.0
  H  H4  1  0.46804000  0.94743000  0.24493000  1.0
  H  H5  1  0.03194000  0.05255000  0.74492000  1.0
  H  H6  1  0.53195000  0.05257000  0.75506000  1.0
  H  H7  1  0.96805000  0.94744000  0.25508000  1.0
  H  H8  1  0.24304000  0.82326000  0.86381000  1.0
  H  H9  1  0.25696000  0.17674000  0.36379000  1.0
  H  H10  1  0.75697000  0.17674000  0.13620000  1.0
  H  H11  1  0.74303000  0.82325000  0.63619000  1.0
  H  H12  1  0.27490000  0.82496000  0.98620000  1.0
  H  H13  1  0.22512000  0.17505000  0.48619000  1.0
  H  H14  1  0.72513000  0.17504000  0.01381000  1.0
  H  H15  1  0.77489000  0.82495000  0.51380000  1.0
  H  H16  1  0.35648000  0.63670000  0.92480000  1.0
  H  H17  1  0.14353000  0.36330000  0.42479000  1.0
  H  H18  1  0.64355000  0.36329000  0.07521000  1.0
  H  H19  1  0.85647000  0.63671000  0.57520000  1.0
  H  H20  1  0.81515000  0.45240000  0.19977000  1.0
  H  H21  1  0.68485000  0.54761000  0.69977000  1.0
  H  H22  1  0.18486000  0.54760000  0.80022000  1.0
  H  H23  1  0.31515000  0.45240000  0.30023000  1.0
  H  H24  1  0.86428000  0.81504000  0.79270000  1.0
  H  H25  1  0.63571000  0.18496000  0.29270000  1.0
  H  H26  1  0.13572000  0.18497000  0.20729000  1.0
  H  H27  1  0.36427000  0.81505000  0.70730000  1.0
  H  H28  1  0.96438000  0.74807000  0.90387000  1.0
  H  H29  1  0.53563000  0.25194000  0.40388000  1.0
  H  H30  1  0.03564000  0.25194000  0.09612000  1.0
  H  H31  1  0.46436000  0.74808000  0.59613000  1.0
  H  H32  1  0.82212000  0.95751000  0.88532000  1.0
  H  H33  1  0.67787000  0.04250000  0.38531000  1.0
  H  H34  1  0.17787000  0.04250000  0.11468000  1.0
  H  H35  1  0.32212000  0.95751000  0.61469000  1.0
  H  H36  1  0.45467000  0.88141000  0.41332000  1.0
  H  H37  1  0.04530000  0.11856000  0.91333000  1.0
  H  H38  1  0.54531000  0.11858000  0.58666000  1.0
  H  H39  1  0.95468000  0.88142000  0.08667000  1.0
  H  H40  1  0.62613000  0.59601000  0.46475000  1.0
  H  H41  1  0.87385000  0.40398000  0.96476000  1.0
  H  H42  1  0.37382000  0.40398000  0.53524000  1.0
  H  H43  1  0.12617000  0.59601000  0.03525000  1.0
  C  C44  1  0.64145000  0.70392000  0.20990000  1.0
  C  C45  1  0.85855000  0.29607000  0.70990000  1.0
  C  C46  1  0.35855000  0.29607000  0.79010000  1.0
  C  C47  1  0.14146000  0.70391000  0.29011000  1.0
  C  C48  1  0.54119000  0.82616000  0.27119000  1.0
  C  C49  1  0.95879000  0.17383000  0.77119000  1.0
  C  C50  1  0.45880000  0.17383000  0.72880000  1.0
  C  C51  1  0.04119000  0.82616000  0.22881000  1.0
  C  C52  1  0.33419000  0.76459000  0.92157000  1.0
  C  C53  1  0.16580000  0.23541000  0.42156000  1.0
  C  C54  1  0.66582000  0.23540000  0.07843000  1.0
  C  C55  1  0.83418000  0.76459000  0.57843000  1.0
  C  C56  1  0.73389000  0.54963000  0.24581000  1.0
  C  C57  1  0.76614000  0.45037000  0.74581000  1.0
  C  C58  1  0.26613000  0.45036000  0.75419000  1.0
  C  C59  1  0.23387000  0.54964000  0.25421000  1.0
  C  C60  1  0.64859000  0.73515000  0.10854000  1.0
  C  C61  1  0.85140000  0.26485000  0.60855000  1.0
  C  C62  1  0.35140000  0.26487000  0.89146000  1.0
  C  C63  1  0.14860000  0.73514000  0.39146000  1.0
  C  C64  1  0.84425000  0.83330000  0.86724000  1.0
  C  C65  1  0.65577000  0.16670000  0.36724000  1.0
  C  C66  1  0.15577000  0.16670000  0.13275000  1.0
  C  C67  1  0.34424000  0.83331000  0.63276000  1.0
  C  C68  1  0.53484000  0.78989000  0.36408000  1.0
  C  C69  1  0.96515000  0.21011000  0.86408000  1.0
  C  C70  1  0.46515000  0.21012000  0.63591000  1.0
  C  C71  1  0.03486000  0.78987000  0.13592000  1.0
  C  C72  1  0.62895000  0.63174000  0.39314000  1.0
  C  C73  1  0.87104000  0.36826000  0.89315000  1.0
  C  C74  1  0.37102000  0.36826000  0.60685000  1.0
  C  C75  1  0.12899000  0.63173000  0.10686000  1.0
  N  N76  1  0.72858000  0.51372000  0.33521000  1.0
  N  N77  1  0.77142000  0.48628000  0.83522000  1.0
  N  N78  1  0.27142000  0.48628000  0.66479000  1.0
  N  N79  1  0.22860000  0.51371000  0.16480000  1.0
  O  O80  1  0.58511000  0.88052000  0.08072000  1.0
  O  O81  1  0.91488000  0.11948000  0.58072000  1.0
  O  O82  1  0.41490000  0.11950000  0.91929000  1.0
  O  O83  1  0.08511000  0.88052000  0.41929000  1.0
  O  O84  1  0.71513000  0.61488000  0.05488000  1.0
  O  O85  1  0.78486000  0.38512000  0.55488000  1.0
  O  O86  1  0.28484000  0.38514000  0.94511000  1.0
  O  O87  1  0.21513000  0.61488000  0.44513000  1.0
