# generated using pymatgen
data_CuH5C6IN3
_symmetry_space_group_name_H-M   'P 1'
_cell_length_a   4.23112000
_cell_length_b   9.44801000
_cell_length_c   18.91860000
_cell_angle_alpha   90.00050000
_cell_angle_beta   90.00030000
_cell_angle_gamma   97.04610000
_symmetry_Int_Tables_number   1
_chemical_formula_structural   CuH5C6IN3
_chemical_formula_sum   'Cu4 H20 C24 I4 N12'
_cell_volume   750.57197412
_cell_formula_units_Z   4
loop_
 _symmetry_equiv_pos_site_id
 _symmetry_equiv_pos_as_xyz
  1  'x, y, z'
loop_
 _atom_site_type_symbol
 _atom_site_label
 _atom_site_symmetry_multiplicity
 _atom_site_fract_x
 _atom_site_fract_y
 _atom_site_fract_z
 _atom_site_occupancy
  Cu  Cu0  1  0.70318000  0.90783000  0.49373000  1.0
  Cu  Cu1  1  0.29679000  0.59216000  0.99373000  1.0
  Cu  Cu2  1  0.29682000  0.09217000  0.50627000  1.0
  Cu  Cu3  1  0.70321000  0.40784000  0.00626000  1.0
  H  H4  1  0.86227000  0.41480000  0.55601000  1.0
  H  H5  1  0.13774000  0.08520000  0.05601000  1.0
  H  H6  1  0.13772000  0.58520000  0.44399000  1.0
  H  H7  1  0.86228000  0.91480000  0.94398000  1.0
  H  H8  1  0.24656000  0.85409000  0.63569000  1.0
  H  H9  1  0.75344000  0.64591000  0.13569000  1.0
  H  H10  1  0.75346000  0.14592000  0.36432000  1.0
  H  H11  1  0.24654000  0.35408000  0.86431000  1.0
  H  H12  1  0.00716000  0.72002000  0.74209000  1.0
  H  H13  1  0.99283000  0.77998000  0.24209000  1.0
  H  H14  1  0.99284000  0.27998000  0.25792000  1.0
  H  H15  1  0.00716000  0.22002000  0.75791000  1.0
  H  H16  1  0.11969000  0.47835000  0.76823000  1.0
  H  H17  1  0.88030000  0.02165000  0.26823000  1.0
  H  H18  1  0.88029000  0.52164000  0.23177000  1.0
  H  H19  1  0.11972000  0.97835000  0.73177000  1.0
  H  H20  1  0.46803000  0.35006000  0.68921000  1.0
  H  H21  1  0.53198000  0.14994000  0.18921000  1.0
  H  H22  1  0.53195000  0.64993000  0.31079000  1.0
  H  H23  1  0.46805000  0.85007000  0.81079000  1.0
  C  C24  1  0.29746000  0.74681000  0.64859000  1.0
  C  C25  1  0.70254000  0.75318000  0.14858000  1.0
  C  C26  1  0.70256000  0.25319000  0.35142000  1.0
  C  C27  1  0.29746000  0.24681000  0.85142000  1.0
  C  C28  1  0.16716000  0.67172000  0.70673000  1.0
  C  C29  1  0.83283000  0.82828000  0.20673000  1.0
  C  C30  1  0.83284000  0.32828000  0.29327000  1.0
  C  C31  1  0.16717000  0.17172000  0.79327000  1.0
  C  C32  1  0.22970000  0.53074000  0.72151000  1.0
  C  C33  1  0.77028000  0.96926000  0.22151000  1.0
  C  C34  1  0.77028000  0.46926000  0.27850000  1.0
  C  C35  1  0.22973000  0.03074000  0.77849000  1.0
  C  C36  1  0.42141000  0.45875000  0.67838000  1.0
  C  C37  1  0.57859000  0.04125000  0.17839000  1.0
  C  C38  1  0.57858000  0.54125000  0.32161000  1.0
  C  C39  1  0.42142000  0.95875000  0.82161000  1.0
  C  C40  1  0.55483000  0.53497000  0.61983000  1.0
  C  C41  1  0.44518000  0.96503000  0.11983000  1.0
  C  C42  1  0.44516000  0.46503000  0.38017000  1.0
  C  C43  1  0.55482000  0.03498000  0.88017000  1.0
  C  C44  1  0.49635000  0.67625000  0.60505000  1.0
  C  C45  1  0.50365000  0.82375000  0.10505000  1.0
  C  C46  1  0.50366000  0.32375000  0.39495000  1.0
  C  C47  1  0.49635000  0.17625000  0.89495000  1.0
  I  I48  1  0.79893000  0.10343000  0.59336000  1.0
  I  I49  1  0.20109000  0.39657000  0.09336000  1.0
  I  I50  1  0.20108000  0.89657000  0.40664000  1.0
  I  I51  1  0.79891000  0.60343000  0.90664000  1.0
  N  N52  1  0.66483000  0.71972000  0.54482000  1.0
  N  N53  1  0.33517000  0.78027000  0.04482000  1.0
  N  N54  1  0.33517000  0.28028000  0.45518000  1.0
  N  N55  1  0.66483000  0.21973000  0.95518000  1.0
  N  N56  1  0.81938000  0.61560000  0.52310000  1.0
  N  N57  1  0.18062000  0.88440000  0.02310000  1.0
  N  N58  1  0.18061000  0.38440000  0.47690000  1.0
  N  N59  1  0.81938000  0.11560000  0.97690000  1.0
  N  N60  1  0.75591000  0.50457000  0.56732000  1.0
  N  N61  1  0.24409000  0.99543000  0.06732000  1.0
  N  N62  1  0.24408000  0.49543000  0.43268000  1.0
  N  N63  1  0.75592000  0.00457000  0.93268000  1.0
