# generated using pymatgen
data_CuH14C15S2IF2
_symmetry_space_group_name_H-M   'P 1'
_cell_length_a   7.40201000
_cell_length_b   15.65700000
_cell_length_c   15.95170000
_cell_angle_alpha   118.59200000
_cell_angle_beta   89.99960000
_cell_angle_gamma   89.99990000
_symmetry_Int_Tables_number   1
_chemical_formula_structural   CuH14C15S2IF2
_chemical_formula_sum   'Cu4 H56 C60 S8 I4 F8'
_cell_volume   1623.24600660
_cell_formula_units_Z   4
loop_
 _symmetry_equiv_pos_site_id
 _symmetry_equiv_pos_as_xyz
  1  'x, y, z'
loop_
 _atom_site_type_symbol
 _atom_site_label
 _atom_site_symmetry_multiplicity
 _atom_site_fract_x
 _atom_site_fract_y
 _atom_site_fract_z
 _atom_site_occupancy
  Cu  Cu0  1  0.02724000  0.52445000  0.59058000  1.0
  Cu  Cu1  1  0.52724000  0.97555000  0.40942000  1.0
  Cu  Cu2  1  0.97276000  0.47555000  0.40942000  1.0
  Cu  Cu3  1  0.47276000  0.02445000  0.59058000  1.0
  H  H4  1  0.57271000  0.49511000  0.56496000  1.0
  H  H5  1  0.07271000  0.00489000  0.43503000  1.0
  H  H6  1  0.42729000  0.50489000  0.43504000  1.0
  H  H7  1  0.92729000  0.99511000  0.56496000  1.0
  H  H8  1  0.68565000  0.38775000  0.54682000  1.0
  H  H9  1  0.18566000  0.11224000  0.45318000  1.0
  H  H10  1  0.31434000  0.61225000  0.45318000  1.0
  H  H11  1  0.81435000  0.88775000  0.54682000  1.0
  H  H12  1  0.15334000  0.77868000  0.72076000  1.0
  H  H13  1  0.65333000  0.72133000  0.27924000  1.0
  H  H14  1  0.84667000  0.22133000  0.27925000  1.0
  H  H15  1  0.34666000  0.27867000  0.72075000  1.0
  H  H16  1  0.78219000  0.59379000  0.88469000  1.0
  H  H17  1  0.28219000  0.90621000  0.11531000  1.0
  H  H18  1  0.21781000  0.40621000  0.11531000  1.0
  H  H19  1  0.71782000  0.09379000  0.88469000  1.0
  H  H20  1  0.45535000  0.55707000  0.78671000  1.0
  H  H21  1  0.95535000  0.94294000  0.21329000  1.0
  H  H22  1  0.54465000  0.44293000  0.21329000  1.0
  H  H23  1  0.04465000  0.05706000  0.78671000  1.0
  H  H24  1  0.25155000  0.48664000  0.75313000  1.0
  H  H25  1  0.75156000  0.01337000  0.24687000  1.0
  H  H26  1  0.74845000  0.51337000  0.24688000  1.0
  H  H27  1  0.24845000  0.98663000  0.75312000  1.0
  H  H28  1  0.89774000  0.33088000  0.62306000  1.0
  H  H29  1  0.39774000  0.16912000  0.37694000  1.0
  H  H30  1  0.10226000  0.66912000  0.37694000  1.0
  H  H31  1  0.60226000  0.83088000  0.62306000  1.0
  H  H32  1  0.51310000  0.38153000  0.67605000  1.0
  H  H33  1  0.01310000  0.11847000  0.32395000  1.0
  H  H34  1  0.48690000  0.61847000  0.32395000  1.0
  H  H35  1  0.98690000  0.88153000  0.67605000  1.0
  H  H36  1  0.36570000  0.38294000  0.59020000  1.0
  H  H37  1  0.86571000  0.11706000  0.40980000  1.0
  H  H38  1  0.63429000  0.61706000  0.40980000  1.0
  H  H39  1  0.13430000  0.88294000  0.59019000  1.0
  H  H40  1  0.04471000  0.75743000  0.01805000  1.0
  H  H41  1  0.54473000  0.74256000  0.98195000  1.0
  H  H42  1  0.95528000  0.24256000  0.98196000  1.0
  H  H43  1  0.45528000  0.25743000  0.01804000  1.0
  H  H44  1  0.96183000  0.24428000  0.71703000  1.0
  H  H45  1  0.46184000  0.25572000  0.28297000  1.0
  H  H46  1  0.03817000  0.75572000  0.28297000  1.0
  H  H47  1  0.53816000  0.74428000  0.71703000  1.0
  H  H48  1  0.18970000  0.61994000  0.87975000  1.0
  H  H49  1  0.68971000  0.88005000  0.12025000  1.0
  H  H50  1  0.81029000  0.38005000  0.12025000  1.0
  H  H51  1  0.31031000  0.11994000  0.87974000  1.0
  H  H52  1  0.00634000  0.91686000  0.86167000  1.0
  H  H53  1  0.50633000  0.58315000  0.13833000  1.0
  H  H54  1  0.99366000  0.08315000  0.13834000  1.0
  H  H55  1  0.49364000  0.41686000  0.86166000  1.0
  H  H56  1  0.85081000  0.50717000  0.97805000  1.0
  H  H57  1  0.35082000  0.99283000  0.02195000  1.0
  H  H58  1  0.14919000  0.49283000  0.02195000  1.0
  H  H59  1  0.64920000  0.00717000  0.97805000  1.0
  C  C60  1  0.61749000  0.45363000  0.60066000  1.0
  C  C61  1  0.11750000  0.04637000  0.39934000  1.0
  C  C62  1  0.38250000  0.54638000  0.39934000  1.0
  C  C63  1  0.88251000  0.95362000  0.60065000  1.0
  C  C64  1  0.01808000  0.84259000  0.94552000  1.0
  C  C65  1  0.51808000  0.65741000  0.05448000  1.0
  C  C66  1  0.98192000  0.15741000  0.05449000  1.0
  C  C67  1  0.48190000  0.34259000  0.94552000  1.0
  C  C68  1  0.18026000  0.68984000  0.79024000  1.0
  C  C69  1  0.68025000  0.81017000  0.20976000  1.0
  C  C70  1  0.81974000  0.31016000  0.20977000  1.0
  C  C71  1  0.31975000  0.18983000  0.79023000  1.0
  C  C72  1  0.13016000  0.77423000  0.78601000  1.0
  C  C73  1  0.63016000  0.72578000  0.21399000  1.0
  C  C74  1  0.86986000  0.22578000  0.21400000  1.0
  C  C75  1  0.36984000  0.27422000  0.78600000  1.0
  C  C76  1  0.82440000  0.51785000  0.84806000  1.0
  C  C77  1  0.32440000  0.98215000  0.15194000  1.0
  C  C78  1  0.17560000  0.48216000  0.15194000  1.0
  C  C79  1  0.67561000  0.01785000  0.84806000  1.0
  C  C80  1  0.36380000  0.51341000  0.72708000  1.0
  C  C81  1  0.86381000  0.98659000  0.27293000  1.0
  C  C82  1  0.63620000  0.48660000  0.27293000  1.0
  C  C83  1  0.13620000  0.01340000  0.72707000  1.0
  C  C84  1  0.83706000  0.46815000  0.74825000  1.0
  C  C85  1  0.33705000  0.03185000  0.25175000  1.0
  C  C86  1  0.16296000  0.53185000  0.25176000  1.0
  C  C87  1  0.66295000  0.96815000  0.74825000  1.0
  C  C88  1  0.88786000  0.36983000  0.70073000  1.0
  C  C89  1  0.38787000  0.13017000  0.29927000  1.0
  C  C90  1  0.11214000  0.63018000  0.29927000  1.0
  C  C91  1  0.61213000  0.86983000  0.70073000  1.0
  C  C92  1  0.46197000  0.42790000  0.64685000  1.0
  C  C93  1  0.96197000  0.07210000  0.35316000  1.0
  C  C94  1  0.53803000  0.57211000  0.35316000  1.0
  C  C95  1  0.03803000  0.92789000  0.64684000  1.0
  C  C96  1  0.06955000  0.76126000  0.95272000  1.0
  C  C97  1  0.56957000  0.73873000  0.04727000  1.0
  C  C98  1  0.93043000  0.23873000  0.04728000  1.0
  C  C99  1  0.43043000  0.26127000  0.95272000  1.0
  C  C100  1  0.92562000  0.32117000  0.75250000  1.0
  C  C101  1  0.42564000  0.17882000  0.24750000  1.0
  C  C102  1  0.07436000  0.67883000  0.24750000  1.0
  C  C103  1  0.57436000  0.82118000  0.75250000  1.0
  C  C104  1  0.15136000  0.68401000  0.87411000  1.0
  C  C105  1  0.65137000  0.81598000  0.12589000  1.0
  C  C106  1  0.84862000  0.31598000  0.12589000  1.0
  C  C107  1  0.34864000  0.18401000  0.87410000  1.0
  C  C108  1  0.04766000  0.85130000  0.86384000  1.0
  C  C109  1  0.54765000  0.64871000  0.13616000  1.0
  C  C110  1  0.95236000  0.14871000  0.13617000  1.0
  C  C111  1  0.45234000  0.35130000  0.86384000  1.0
  C  C112  1  0.91393000  0.37299000  0.85145000  1.0
  C  C113  1  0.41394000  0.12701000  0.14856000  1.0
  C  C114  1  0.08606000  0.62701000  0.14855000  1.0
  C  C115  1  0.58606000  0.87299000  0.85145000  1.0
  C  C116  1  0.86415000  0.47032000  0.90071000  1.0
  C  C117  1  0.36416000  0.02967000  0.09929000  1.0
  C  C118  1  0.13585000  0.52968000  0.09929000  1.0
  C  C119  1  0.63586000  0.97032000  0.90072000  1.0
  S  S120  1  0.78514000  0.53370000  0.68609000  1.0
  S  S121  1  0.28514000  0.96629000  0.31391000  1.0
  S  S122  1  0.21486000  0.46630000  0.31391000  1.0
  S  S123  1  0.71485000  0.03370000  0.68608000  1.0
  S  S124  1  0.27425000  0.59426000  0.68484000  1.0
  S  S125  1  0.77425000  0.90574000  0.31516000  1.0
  S  S126  1  0.72574000  0.40574000  0.31516000  1.0
  S  S127  1  0.22575000  0.09425000  0.68484000  1.0
  I  I128  1  0.07864000  0.34525000  0.46057000  1.0
  I  I129  1  0.57864000  0.15475000  0.53942000  1.0
  I  I130  1  0.92136000  0.65475000  0.53943000  1.0
  I  I131  1  0.42137000  0.84525000  0.46057000  1.0
  F  F132  1  0.93459000  0.91740000  0.02256000  1.0
  F  F133  1  0.43461000  0.58259000  0.97744000  1.0
  F  F134  1  0.06539000  0.08259000  0.97745000  1.0
  F  F135  1  0.56537000  0.41741000  0.02256000  1.0
  F  F136  1  0.95096000  0.32576000  0.90287000  1.0
  F  F137  1  0.45099000  0.17424000  0.09714000  1.0
  F  F138  1  0.04903000  0.67425000  0.09713000  1.0
  F  F139  1  0.54903000  0.82576000  0.90287000  1.0
