# generated using pymatgen
data_CoH12(C7N5)2
_symmetry_space_group_name_H-M   'P 1'
_cell_length_a   7.23013000
_cell_length_b   7.52829000
_cell_length_c   13.80760000
_cell_angle_alpha   90.00070000
_cell_angle_beta   90.00090000
_cell_angle_gamma   99.93280000
_symmetry_Int_Tables_number   1
_chemical_formula_structural   CoH12(C7N5)2
_chemical_formula_sum   'Co2 H24 C28 N20'
_cell_volume   740.28953452
_cell_formula_units_Z   2
loop_
 _symmetry_equiv_pos_site_id
 _symmetry_equiv_pos_as_xyz
  1  'x, y, z'
loop_
 _atom_site_type_symbol
 _atom_site_label
 _atom_site_symmetry_multiplicity
 _atom_site_fract_x
 _atom_site_fract_y
 _atom_site_fract_z
 _atom_site_occupancy
  Co  Co0  1  0.00000000  0.50000000  0.50000000  1.0
  Co  Co1  1  0.50000000  0.50000000  0.00000000  1.0
  H  H2  1  0.99326000  0.87061000  0.44196000  1.0
  H  H3  1  0.50672000  0.12937000  0.94196000  1.0
  H  H4  1  0.00674000  0.12939000  0.55804000  1.0
  H  H5  1  0.49329000  0.87062000  0.05803000  1.0
  H  H6  1  0.07175000  0.40447000  0.29938000  1.0
  H  H7  1  0.42824000  0.59552000  0.79938000  1.0
  H  H8  1  0.92824000  0.59553000  0.70062000  1.0
  H  H9  1  0.57175000  0.40448000  0.20062000  1.0
  H  H10  1  0.08140000  0.55885000  0.13877000  1.0
  H  H11  1  0.41861000  0.44113000  0.63876000  1.0
  H  H12  1  0.91860000  0.44115000  0.86124000  1.0
  H  H13  1  0.58139000  0.55887000  0.36124000  1.0
  H  H14  1  0.02977000  0.87820000  0.12982000  1.0
  H  H15  1  0.47025000  0.12178000  0.62982000  1.0
  H  H16  1  0.97024000  0.12180000  0.87018000  1.0
  H  H17  1  0.52975000  0.87823000  0.37018000  1.0
  H  H18  1  0.92418000  0.12693000  0.34518000  1.0
  H  H19  1  0.57582000  0.87305000  0.84519000  1.0
  H  H20  1  0.07582000  0.87307000  0.65482000  1.0
  H  H21  1  0.42419000  0.12694000  0.15481000  1.0
  H  H22  1  0.93653000  0.12322000  0.22212000  1.0
  H  H23  1  0.56347000  0.87677000  0.72212000  1.0
  H  H24  1  0.06348000  0.87679000  0.77788000  1.0
  H  H25  1  0.43653000  0.12323000  0.27787000  1.0
  C  C26  1  0.31979000  0.30180000  0.45138000  1.0
  C  C27  1  0.18021000  0.69821000  0.95138000  1.0
  C  C28  1  0.68019000  0.69820000  0.54862000  1.0
  C  C29  1  0.81980000  0.30180000  0.04862000  1.0
  C  C30  1  0.62184000  0.24426000  0.43622000  1.0
  C  C31  1  0.87817000  0.75574000  0.93622000  1.0
  C  C32  1  0.37815000  0.75574000  0.56377000  1.0
  C  C33  1  0.12184000  0.24426000  0.06378000  1.0
  C  C34  1  0.00638000  0.90143000  0.28570000  1.0
  C  C35  1  0.49361000  0.09856000  0.78570000  1.0
  C  C36  1  0.99362000  0.09857000  0.71430000  1.0
  C  C37  1  0.50639000  0.90144000  0.21430000  1.0
  C  C38  1  0.00918000  0.80543000  0.37297000  1.0
  C  C39  1  0.49081000  0.19456000  0.87297000  1.0
  C  C40  1  0.99082000  0.19457000  0.62703000  1.0
  C  C41  1  0.50920000  0.80544000  0.12703000  1.0
  C  C42  1  0.05278000  0.54385000  0.29323000  1.0
  C  C43  1  0.44722000  0.45613000  0.79324000  1.0
  C  C44  1  0.94722000  0.45615000  0.70676000  1.0
  C  C45  1  0.55279000  0.54387000  0.20677000  1.0
  C  C46  1  0.05643000  0.63135000  0.20428000  1.0
  C  C47  1  0.44358000  0.36863000  0.70428000  1.0
  C  C48  1  0.94356000  0.36865000  0.79572000  1.0
  C  C49  1  0.55642000  0.63136000  0.29572000  1.0
  C  C50  1  0.03097000  0.80939000  0.19923000  1.0
  C  C51  1  0.46903000  0.19060000  0.69922000  1.0
  C  C52  1  0.96902000  0.19062000  0.80078000  1.0
  C  C53  1  0.53098000  0.80940000  0.30078000  1.0
  N  N54  1  0.19679000  0.38145000  0.46684000  1.0
  N  N55  1  0.30322000  0.61855000  0.96685000  1.0
  N  N56  1  0.80321000  0.61855000  0.53315000  1.0
  N  N57  1  0.69678000  0.38144000  0.03316000  1.0
  N  N58  1  0.44079000  0.19831000  0.43197000  1.0
  N  N59  1  0.05922000  0.80169000  0.93197000  1.0
  N  N60  1  0.55921000  0.80169000  0.56802000  1.0
  N  N61  1  0.94079000  0.19832000  0.06803000  1.0
  N  N62  1  0.02686000  0.63066000  0.37628000  1.0
  N  N63  1  0.47313000  0.36933000  0.87629000  1.0
  N  N64  1  0.97313000  0.36933000  0.62372000  1.0
  N  N65  1  0.52687000  0.63067000  0.12372000  1.0
  N  N66  1  0.78791000  0.27180000  0.43594000  1.0
  N  N67  1  0.71209000  0.72818000  0.93595000  1.0
  N  N68  1  0.21208000  0.72819000  0.56406000  1.0
  N  N69  1  0.28792000  0.27182000  0.06405000  1.0
  N  N70  1  0.98430000  0.07920000  0.28567000  1.0
  N  N71  1  0.51569000  0.92079000  0.78568000  1.0
  N  N72  1  0.01570000  0.92081000  0.71433000  1.0
  N  N73  1  0.48431000  0.07921000  0.21432000  1.0
