# generated using pymatgen
data_H9PbC17NCl2O3
_symmetry_space_group_name_H-M   'P 1'
_cell_length_a   7.30029000
_cell_length_b   10.26160000
_cell_length_c   11.28390000
_cell_angle_alpha   104.52000000
_cell_angle_beta   101.76000000
_cell_angle_gamma   100.86800000
_symmetry_Int_Tables_number   1
_chemical_formula_structural   H9PbC17NCl2O3
_chemical_formula_sum   'H18 Pb2 C34 N2 Cl4 O6'
_cell_volume   775.09696772
_cell_formula_units_Z   2
loop_
 _symmetry_equiv_pos_site_id
 _symmetry_equiv_pos_as_xyz
  1  'x, y, z'
loop_
 _atom_site_type_symbol
 _atom_site_label
 _atom_site_symmetry_multiplicity
 _atom_site_fract_x
 _atom_site_fract_y
 _atom_site_fract_z
 _atom_site_occupancy
  H  H0  1  0.28833000  0.16208000  0.51806000  1.0
  H  H1  1  0.71169000  0.83788000  0.48195000  1.0
  H  H2  1  0.31626000  0.91505000  0.45224000  1.0
  H  H3  1  0.68374000  0.08491000  0.54775000  1.0
  H  H4  1  0.14930000  0.33015000  0.95310000  1.0
  H  H5  1  0.85068000  0.66987000  0.04694000  1.0
  H  H6  1  0.15086000  0.24300000  0.72354000  1.0
  H  H7  1  0.84912000  0.75705000  0.27649000  1.0
  H  H8  1  0.20822000  0.00718000  0.64423000  1.0
  H  H9  1  0.79178000  0.99287000  0.35579000  1.0
  H  H10  1  0.26656000  0.86653000  0.78417000  1.0
  H  H11  1  0.73340000  0.13350000  0.21583000  1.0
  H  H12  1  0.33882000  0.71085000  0.28422000  1.0
  H  H13  1  0.66121000  0.28912000  0.71575000  1.0
  H  H14  1  0.17443000  0.50684000  0.84111000  1.0
  H  H15  1  0.82558000  0.49317000  0.15886000  1.0
  H  H16  1  0.43599000  0.55846000  0.87219000  1.0
  H  H17  1  0.56402000  0.44158000  0.12775000  1.0
  Pb  Pb18  1  0.19361000  0.42742000  0.40868000  1.0
  Pb  Pb19  1  0.80654000  0.57258000  0.59137000  1.0
  C  C20  1  0.28255000  0.10871000  0.42019000  1.0
  C  C21  1  0.71744000  0.89126000  0.57981000  1.0
  C  C22  1  0.30262000  0.97366000  0.38403000  1.0
  C  C23  1  0.69737000  0.02630000  0.61596000  1.0
  C  C24  1  0.29927000  0.90975000  0.25772000  1.0
  C  C25  1  0.70070000  0.09022000  0.74226000  1.0
  C  C26  1  0.27371000  0.98859000  0.16946000  1.0
  C  C27  1  0.72624000  0.01139000  0.83053000  1.0
  C  C28  1  0.24649000  0.12329000  0.21542000  1.0
  C  C29  1  0.75347000  0.87669000  0.78458000  1.0
  C  C30  1  0.19997000  0.20437000  0.12733000  1.0
  C  C31  1  0.80002000  0.79564000  0.87270000  1.0
  C  C32  1  0.20853000  0.14872000  0.99642000  1.0
  C  C33  1  0.79143000  0.85128000  0.00360000  1.0
  C  C34  1  0.17694000  0.22968000  0.91400000  1.0
  C  C35  1  0.82302000  0.77034000  0.08603000  1.0
  C  C36  1  0.17783000  0.18115000  0.78796000  1.0
  C  C37  1  0.82214000  0.81890000  0.21207000  1.0
  C  C38  1  0.21053000  0.04949000  0.74340000  1.0
  C  C39  1  0.78945000  0.95056000  0.25661000  1.0
  C  C40  1  0.24278000  0.96805000  0.82325000  1.0
  C  C41  1  0.75718000  0.03197000  0.17675000  1.0
  C  C42  1  0.24250000  0.01536000  0.95186000  1.0
  C  C43  1  0.75743000  0.98465000  0.04814000  1.0
  C  C44  1  0.27023000  0.93260000  0.03862000  1.0
  C  C45  1  0.72970000  0.06739000  0.96137000  1.0
  C  C46  1  0.29128000  0.79761000  0.00555000  1.0
  C  C47  1  0.70867000  0.20239000  0.99443000  1.0
  C  C48  1  0.31177000  0.71915000  0.09284000  1.0
  C  C49  1  0.68823000  0.28084000  0.90713000  1.0
  C  C50  1  0.31753000  0.77075000  0.21771000  1.0
  C  C51  1  0.68247000  0.22923000  0.78226000  1.0
  C  C52  1  0.30910000  0.58350000  0.90094000  1.0
  C  C53  1  0.69092000  0.41652000  0.09902000  1.0
  N  N54  1  0.25336000  0.18142000  0.33764000  1.0
  N  N55  1  0.74663000  0.81856000  0.66237000  1.0
  Cl  Cl56  1  0.89302000  0.29222000  0.49483000  1.0
  Cl  Cl57  1  0.10711000  0.70779000  0.50518000  1.0
  Cl  Cl58  1  0.43883000  0.44753000  0.63645000  1.0
  Cl  Cl59  1  0.56137000  0.55235000  0.36357000  1.0
  O  O60  1  0.15136000  0.31582000  0.16274000  1.0
  O  O61  1  0.84868000  0.68420000  0.83731000  1.0
  O  O62  1  0.32779000  0.59075000  0.03218000  1.0
  O  O63  1  0.67227000  0.40926000  0.96778000  1.0
  O  O64  1  0.29726000  0.71954000  0.89072000  1.0
  O  O65  1  0.70271000  0.28048000  0.10925000  1.0
