# generated using pymatgen
data_ZnH14C16(NO)4
_symmetry_space_group_name_H-M   'P 1'
_cell_length_a   9.10941000
_cell_length_b   9.88803000
_cell_length_c   9.88789000
_cell_angle_alpha   109.39200000
_cell_angle_beta   97.63410000
_cell_angle_gamma   97.63460000
_symmetry_Int_Tables_number   1
_chemical_formula_structural   ZnH14C16(NO)4
_chemical_formula_sum   'Zn2 H28 C32 N8 O8'
_cell_volume   817.61691359
_cell_formula_units_Z   2
loop_
 _symmetry_equiv_pos_site_id
 _symmetry_equiv_pos_as_xyz
  1  'x, y, z'
loop_
 _atom_site_type_symbol
 _atom_site_label
 _atom_site_symmetry_multiplicity
 _atom_site_fract_x
 _atom_site_fract_y
 _atom_site_fract_z
 _atom_site_occupancy
  Zn  Zn0  1  0.25000000  0.40283000  0.59716000  1.0
  Zn  Zn1  1  0.75000000  0.59716000  0.40284000  1.0
  H  H2  1  0.19340000  0.84320000  0.52818000  1.0
  H  H3  1  0.30660000  0.47181000  0.15680000  1.0
  H  H4  1  0.80660000  0.15680000  0.47183000  1.0
  H  H5  1  0.69340000  0.52818000  0.84320000  1.0
  H  H6  1  0.51874000  0.23619000  0.69265000  1.0
  H  H7  1  0.98125000  0.30734000  0.76381000  1.0
  H  H8  1  0.48127000  0.76381000  0.30735000  1.0
  H  H9  1  0.01873000  0.69266000  0.23619000  1.0
  H  H10  1  0.60428000  0.97910000  0.67291000  1.0
  H  H11  1  0.89572000  0.32709000  0.02090000  1.0
  H  H12  1  0.39572000  0.02090000  0.32710000  1.0
  H  H13  1  0.10428000  0.67291000  0.97910000  1.0
  H  H14  1  0.45662000  0.82727000  0.62847000  1.0
  H  H15  1  0.04338000  0.37154000  0.17275000  1.0
  H  H16  1  0.54339000  0.17274000  0.37154000  1.0
  H  H17  1  0.95662000  0.62847000  0.82726000  1.0
  H  H18  1  0.07855000  0.06198000  0.44981000  1.0
  H  H19  1  0.42145000  0.55018000  0.93802000  1.0
  H  H20  1  0.92145000  0.93803000  0.55020000  1.0
  H  H21  1  0.57855000  0.44981000  0.06197000  1.0
  H  H22  1  0.55097000  0.76651000  0.83579000  1.0
  H  H23  1  0.94902000  0.16421000  0.23349000  1.0
  H  H24  1  0.44902000  0.23348000  0.16421000  1.0
  H  H25  1  0.05098000  0.83580000  0.76651000  1.0
  H  H26  1  0.43105000  0.18852000  0.90206000  1.0
  H  H27  1  0.06895000  0.09794000  0.81148000  1.0
  H  H28  1  0.56894000  0.81147000  0.09794000  1.0
  H  H29  1  0.93107000  0.90206000  0.18853000  1.0
  C  C30  1  0.24341000  0.95537000  0.54647000  1.0
  C  C31  1  0.25659000  0.45352000  0.04463000  1.0
  C  C32  1  0.75659000  0.04463000  0.45353000  1.0
  C  C33  1  0.74341000  0.54648000  0.95537000  1.0
  C  C34  1  0.54588000  0.52832000  0.58014000  1.0
  C  C35  1  0.95412000  0.41986000  0.47168000  1.0
  C  C36  1  0.45411000  0.47168000  0.41984000  1.0
  C  C37  1  0.04590000  0.58015000  0.52831000  1.0
  C  C38  1  0.41400000  0.16016000  0.63612000  1.0
  C  C39  1  0.08599000  0.36388000  0.83985000  1.0
  C  C40  1  0.58600000  0.83985000  0.36389000  1.0
  C  C41  1  0.91400000  0.63612000  0.16015000  1.0
  C  C42  1  0.49027000  0.94483000  0.68995000  1.0
  C  C43  1  0.00973000  0.31004000  0.05517000  1.0
  C  C44  1  0.50974000  0.05516000  0.31003000  1.0
  C  C45  1  0.99027000  0.68997000  0.94483000  1.0
  C  C46  1  0.49134000  0.97465000  0.85028000  1.0
  C  C47  1  0.00866000  0.14972000  0.02536000  1.0
  C  C48  1  0.50864000  0.02534000  0.14972000  1.0
  C  C49  1  0.99136000  0.85028000  0.97466000  1.0
  C  C50  1  0.18693000  0.06459000  0.51157000  1.0
  C  C51  1  0.31307000  0.48842000  0.93540000  1.0
  C  C52  1  0.81307000  0.93541000  0.48844000  1.0
  C  C53  1  0.68693000  0.51157000  0.06459000  1.0
  C  C54  1  0.52907000  0.86944000  0.90758000  1.0
  C  C55  1  0.97093000  0.09242000  0.13057000  1.0
  C  C56  1  0.47091000  0.13056000  0.09241000  1.0
  C  C57  1  0.02909000  0.90759000  0.86944000  1.0
  C  C58  1  0.46208000  0.10507000  0.94397000  1.0
  C  C59  1  0.03791000  0.05603000  0.89493000  1.0
  C  C60  1  0.53790000  0.89493000  0.05603000  1.0
  C  C61  1  0.96210000  0.94397000  0.10507000  1.0
  N  N62  1  0.29387000  0.19151000  0.56867000  1.0
  N  N63  1  0.20613000  0.43133000  0.80849000  1.0
  N  N64  1  0.70614000  0.80850000  0.43134000  1.0
  N  N65  1  0.79387000  0.56867000  0.19151000  1.0
  N  N66  1  0.38794000  0.01779000  0.62477000  1.0
  N  N67  1  0.11205000  0.37523000  0.98221000  1.0
  N  N68  1  0.61206000  0.98221000  0.37524000  1.0
  N  N69  1  0.88794000  0.62477000  0.01779000  1.0
  O  O70  1  0.47892000  0.50193000  0.67640000  1.0
  O  O71  1  0.02107000  0.32360000  0.49807000  1.0
  O  O72  1  0.52107000  0.49807000  0.32361000  1.0
  O  O73  1  0.97894000  0.67639000  0.50192000  1.0
  O  O74  1  0.67958000  0.59637000  0.60452000  1.0
  O  O75  1  0.82041000  0.39548000  0.40365000  1.0
  O  O76  1  0.32042000  0.40364000  0.39547000  1.0
  O  O77  1  0.17960000  0.60451000  0.59633000  1.0
