# generated using pymatgen
data_Co3H20C14(NO9)2
_symmetry_space_group_name_H-M   'P 1'
_cell_length_a   7.19355000
_cell_length_b   8.36967000
_cell_length_c   9.40845000
_cell_angle_alpha   110.20100000
_cell_angle_beta   100.81200000
_cell_angle_gamma   94.56270000
_symmetry_Int_Tables_number   1
_chemical_formula_structural   Co3H20C14(NO9)2
_chemical_formula_sum   'Co3 H20 C14 N2 O18'
_cell_volume   515.73887392
_cell_formula_units_Z   1
loop_
 _symmetry_equiv_pos_site_id
 _symmetry_equiv_pos_as_xyz
  1  'x, y, z'
loop_
 _atom_site_type_symbol
 _atom_site_label
 _atom_site_symmetry_multiplicity
 _atom_site_fract_x
 _atom_site_fract_y
 _atom_site_fract_z
 _atom_site_occupancy
  Co  Co0  1  0.99989000  0.99997000  0.00002000  1.0
  Co  Co1  1  0.61183000  0.85982000  0.37103000  1.0
  Co  Co2  1  0.39008000  0.14036000  0.63008000  1.0
  H  H3  1  0.12250000  0.40620000  0.40175000  1.0
  H  H4  1  0.87655000  0.59451000  0.59760000  1.0
  H  H5  1  0.51325000  0.21435000  0.10528000  1.0
  H  H6  1  0.48675000  0.78551000  0.89525000  1.0
  H  H7  1  0.95721000  0.85921000  0.52255000  1.0
  H  H8  1  0.04431000  0.14118000  0.47910000  1.0
  H  H9  1  0.82665000  0.90837000  0.64587000  1.0
  H  H10  1  0.17386000  0.09197000  0.35532000  1.0
  H  H11  1  0.38288000  0.76911000  0.08446000  1.0
  H  H12  1  0.61691000  0.23103000  0.91633000  1.0
  H  H13  1  0.36756000  0.96736000  0.17802000  1.0
  H  H14  1  0.63269000  0.03259000  0.82278000  1.0
  H  H15  1  0.17908000  0.86205000  0.75638000  1.0
  H  H16  1  0.82141000  0.13778000  0.24394000  1.0
  H  H17  1  0.32189000  0.02190000  0.87892000  1.0
  H  H18  1  0.67833000  0.97788000  0.12172000  1.0
  H  H19  1  0.07801000  0.25014000  0.88519000  1.0
  H  H20  1  0.92211000  0.74914000  0.11416000  1.0
  H  H21  1  0.93388000  0.31679000  0.99881000  1.0
  H  H22  1  0.06625000  0.68326000  0.00028000  1.0
  C  C23  1  0.33333333  0.58919000  0.38218000  1.0
  C  C24  1  0.66587000  0.41119000  0.61685000  1.0
  C  C25  1  0.23949000  0.42422000  0.34733000  1.0
  C  C26  1  0.75957000  0.57625000  0.65192000  1.0
  C  C27  1  0.30051000  0.28209000  0.24320000  1.0
  C  C28  1  0.69891000  0.71812000  0.75666000  1.0
  C  C29  1  0.45495000  0.31843000  0.18047000  1.0
  C  C30  1  0.54454000  0.68158000  0.81937000  1.0
  C  C31  1  0.53566000  0.48750000  0.21734000  1.0
  C  C32  1  0.46360000  0.51250000  0.78195000  1.0
  C  C33  1  0.69714000  0.53812000  0.15329000  1.0
  C  C34  1  0.30242000  0.46148000  0.84594000  1.0
  C  C35  1  0.29370000  0.74677000  0.50114000  1.0
  C  C36  1  0.70629000  0.25359000  0.49846000  1.0
  N  N37  1  0.47642000  0.62107000  0.31671000  1.0
  N  N38  1  0.52287000  0.37909000  0.68237000  1.0
  O  O39  1  0.74612000  0.42668000  0.04286000  1.0
  O  O40  1  0.25288000  0.57251000  0.95623000  1.0
  O  O41  1  0.77440000  0.69760000  0.21672000  1.0
  O  O42  1  0.22599000  0.30168000  0.78249000  1.0
  O  O43  1  0.41885000  0.88183000  0.53535000  1.0
  O  O44  1  0.58161000  0.11820000  0.46466000  1.0
  O  O45  1  0.15254000  0.74089000  0.56174000  1.0
  O  O46  1  0.84768000  0.25946000  0.43819000  1.0
  O  O47  1  0.21903000  0.12081000  0.20709000  1.0
  O  O48  1  0.78087000  0.87949000  0.79350000  1.0
  O  O49  1  0.84792000  0.91941000  0.54586000  1.0
  O  O50  1  0.15279000  0.08023000  0.45505000  1.0
  O  O51  1  0.45782000  0.88034000  0.16336000  1.0
  O  O52  1  0.54237000  0.11964000  0.83709000  1.0
  O  O53  1  0.21351000  0.93582000  0.86934000  1.0
  O  O54  1  0.78653000  0.06399000  0.13098000  1.0
  O  O55  1  0.99879000  0.21898000  0.95115000  1.0
  O  O56  1  0.00116000  0.78080000  0.04831000  1.0
