# generated using pymatgen
data_CdH16C11N10
_symmetry_space_group_name_H-M   'P 1'
_cell_length_a   7.95177000
_cell_length_b   10.28450000
_cell_length_c   10.36020000
_cell_angle_alpha   104.27200000
_cell_angle_beta   102.14600000
_cell_angle_gamma   105.85600000
_symmetry_Int_Tables_number   1
_chemical_formula_structural   CdH16C11N10
_chemical_formula_sum   'Cd2 H32 C22 N20'
_cell_volume   753.99312023
_cell_formula_units_Z   2
loop_
 _symmetry_equiv_pos_site_id
 _symmetry_equiv_pos_as_xyz
  1  'x, y, z'
loop_
 _atom_site_type_symbol
 _atom_site_label
 _atom_site_symmetry_multiplicity
 _atom_site_fract_x
 _atom_site_fract_y
 _atom_site_fract_z
 _atom_site_occupancy
  Cd  Cd0  1  0.68293000  0.56381000  0.41784000  1.0
  Cd  Cd1  1  0.31707000  0.43619000  0.58216000  1.0
  H  H2  1  0.50144000  0.90045000  0.28483000  1.0
  H  H3  1  0.49856000  0.09955000  0.71517000  1.0
  H  H4  1  0.53310000  0.81205000  0.41134000  1.0
  H  H5  1  0.46690000  0.18795000  0.58866000  1.0
  H  H6  1  0.68243000  0.07750000  0.24084000  1.0
  H  H7  1  0.31757000  0.92251000  0.75916000  1.0
  H  H8  1  0.70794000  0.97584000  0.08548000  1.0
  H  H9  1  0.29206000  0.02416000  0.91452000  1.0
  H  H10  1  0.89587000  0.12579000  0.20507000  1.0
  H  H11  1  0.10413000  0.87422000  0.79493000  1.0
  H  H12  1  0.16901000  0.69397000  0.34592000  1.0
  H  H13  1  0.83099000  0.30603000  0.65408000  1.0
  H  H14  1  0.11918000  0.72632000  0.50725000  1.0
  H  H15  1  0.88083000  0.27368000  0.49275000  1.0
  H  H16  1  0.28365000  0.86303000  0.47786000  1.0
  H  H17  1  0.71635000  0.13697000  0.52214000  1.0
  H  H18  1  0.13232000  0.44827000  0.92056000  1.0
  H  H19  1  0.86767000  0.55173000  0.07944000  1.0
  H  H20  1  0.13970000  0.99593000  0.28716000  1.0
  H  H21  1  0.86030000  0.00407000  0.71284000  1.0
  H  H22  1  0.44968000  0.28624000  0.11970000  1.0
  H  H23  1  0.55032000  0.71376000  0.88031000  1.0
  H  H24  1  0.24186000  0.23361000  0.98182000  1.0
  H  H25  1  0.75814000  0.76639000  0.01819000  1.0
  H  H26  1  0.23706000  0.25896000  0.15690000  1.0
  H  H27  1  0.76294000  0.74104000  0.84310000  1.0
  H  H28  1  0.35590000  0.82942000  0.00287000  1.0
  H  H29  1  0.64409000  0.17058000  0.99713000  1.0
  H  H30  1  0.22935000  0.84418000  0.12438000  1.0
  H  H31  1  0.77064000  0.15581000  0.87561000  1.0
  H  H32  1  0.12311000  0.71940000  0.95321000  1.0
  H  H33  1  0.87689000  0.28059000  0.04679000  1.0
  C  C34  1  0.54755000  0.81585000  0.30938000  1.0
  C  C35  1  0.45245000  0.18415000  0.69062000  1.0
  C  C36  1  0.77828000  0.03522000  0.19686000  1.0
  C  C37  1  0.22173000  0.96478000  0.80314000  1.0
  C  C38  1  0.15209000  0.77506000  0.42888000  1.0
  C  C39  1  0.84791000  0.22495000  0.57111000  1.0
  C  C40  1  0.00642000  0.82897000  0.37281000  1.0
  C  C41  1  0.99358000  0.17103000  0.62719000  1.0
  C  C42  1  0.33518000  0.45093000  0.10870000  1.0
  C  C43  1  0.66482000  0.54907000  0.89131000  1.0
  C  C44  1  0.84556000  0.94399000  0.27077000  1.0
  C  C45  1  0.15445000  0.05601000  0.72923000  1.0
  C  C46  1  0.23656000  0.50670000  0.02002000  1.0
  C  C47  1  0.76344000  0.49329000  0.97998000  1.0
  C  C48  1  0.01839000  0.93306000  0.30516000  1.0
  C  C49  1  0.98161000  0.06695000  0.69484000  1.0
  C  C50  1  0.30210000  0.65377000  0.08371000  1.0
  C  C51  1  0.69790000  0.34622000  0.91629000  1.0
  C  C52  1  0.31554000  0.29897000  0.09066000  1.0
  C  C53  1  0.68446000  0.70103000  0.90934000  1.0
  C  C54  1  0.25041000  0.76817000  0.03961000  1.0
  C  C55  1  0.74958000  0.23183000  0.96039000  1.0
  N  N56  1  0.45535000  0.55736000  0.22120000  1.0
  N  N57  1  0.54465000  0.44264000  0.77880000  1.0
  N  N58  1  0.50414000  0.64724000  0.55876000  1.0
  N  N59  1  0.49587000  0.35277000  0.44124000  1.0
  N  N60  1  0.83589000  0.77903000  0.38133000  1.0
  N  N61  1  0.16411000  0.22098000  0.61867000  1.0
  N  N62  1  0.43404000  0.68003000  0.20474000  1.0
  N  N63  1  0.56596000  0.31997000  0.79526000  1.0
  N  N64  1  0.96243000  0.40997000  0.33140000  1.0
  N  N65  1  0.03758000  0.59003000  0.66860000  1.0
  N  N66  1  0.82598000  0.43348000  0.29217000  1.0
  N  N67  1  0.17402000  0.56652000  0.70783000  1.0
  N  N68  1  0.53484000  0.76804000  0.62759000  1.0
  N  N69  1  0.46516000  0.23195000  0.37241000  1.0
  N  N70  1  0.73922000  0.84944000  0.31858000  1.0
  N  N71  1  0.26078000  0.15056000  0.68142000  1.0
  N  N72  1  0.09619000  0.38076000  0.36197000  1.0
  N  N73  1  0.90382000  0.61925000  0.63803000  1.0
  N  N74  1  0.56474000  0.88688000  0.69289000  1.0
  N  N75  1  0.43527000  0.11313000  0.30712000  1.0
