# generated using pymatgen
data_ZnH12C16S(N3O2)2
_symmetry_space_group_name_H-M   'P 1'
_cell_length_a   4.85901000
_cell_length_b   6.04415000
_cell_length_c   27.52550000
_cell_angle_alpha   90.00040000
_cell_angle_beta   90.00020000
_cell_angle_gamma   82.84690000
_symmetry_Int_Tables_number   1
_chemical_formula_structural   ZnH12C16S(N3O2)2
_chemical_formula_sum   'Zn2 H24 C32 S2 N12 O8'
_cell_volume   802.09330298
_cell_formula_units_Z   2
loop_
 _symmetry_equiv_pos_site_id
 _symmetry_equiv_pos_as_xyz
  1  'x, y, z'
loop_
 _atom_site_type_symbol
 _atom_site_label
 _atom_site_symmetry_multiplicity
 _atom_site_fract_x
 _atom_site_fract_y
 _atom_site_fract_z
 _atom_site_occupancy
  Zn  Zn0  1  0.10640000  0.92236000  0.75000000  1.0
  Zn  Zn1  1  0.89358000  0.07761000  0.25000000  1.0
  H  H2  1  0.52878000  0.94699000  0.83945000  1.0
  H  H3  1  0.47115000  0.05304000  0.33946000  1.0
  H  H4  1  0.47120000  0.05304000  0.16055000  1.0
  H  H5  1  0.52885000  0.94692000  0.66055000  1.0
  H  H6  1  0.93412000  0.50633000  0.81543000  1.0
  H  H7  1  0.06582000  0.49367000  0.31543000  1.0
  H  H8  1  0.06589000  0.49365000  0.18457000  1.0
  H  H9  1  0.93414000  0.50633000  0.68456000  1.0
  H  H10  1  0.86283000  0.23997000  0.86430000  1.0
  H  H11  1  0.13703000  0.76010000  0.36429000  1.0
  H  H12  1  0.13715000  0.76007000  0.13570000  1.0
  H  H13  1  0.86297000  0.23987000  0.63570000  1.0
  H  H14  1  0.75681000  0.97394000  0.92625000  1.0
  H  H15  1  0.24311000  0.02613000  0.42623000  1.0
  H  H16  1  0.24313000  0.02614000  0.07376000  1.0
  H  H17  1  0.75695000  0.97383000  0.57376000  1.0
  H  H18  1  0.33823000  0.22655000  0.02437000  1.0
  H  H19  1  0.66175000  0.77348000  0.52437000  1.0
  H  H20  1  0.66172000  0.77347000  0.97563000  1.0
  H  H21  1  0.33824000  0.22654000  0.47562000  1.0
  H  H22  1  0.44540000  0.49129000  0.96129000  1.0
  H  H23  1  0.55454000  0.50876000  0.46129000  1.0
  H  H24  1  0.55458000  0.50872000  0.03872000  1.0
  H  H25  1  0.44544000  0.49126000  0.53871000  1.0
  C  C26  1  0.40046000  0.81471000  0.84510000  1.0
  C  C27  1  0.59947000  0.18533000  0.34510000  1.0
  C  C28  1  0.59950000  0.18532000  0.15490000  1.0
  C  C29  1  0.40052000  0.81465000  0.65490000  1.0
  C  C30  1  0.09414000  0.59457000  0.83173000  1.0
  C  C31  1  0.90580000  0.40545000  0.33173000  1.0
  C  C32  1  0.90591000  0.40544000  0.16827000  1.0
  C  C33  1  0.09417000  0.59453000  0.66826000  1.0
  C  C34  1  0.15976000  0.38458000  0.90964000  1.0
  C  C35  1  0.84019000  0.61544000  0.40964000  1.0
  C  C36  1  0.84024000  0.61542000  0.09037000  1.0
  C  C37  1  0.15986000  0.38451000  0.59037000  1.0
  C  C38  1  0.96798000  0.23670000  0.89935000  1.0
  C  C39  1  0.03200000  0.76332000  0.39935000  1.0
  C  C40  1  0.03206000  0.76331000  0.10065000  1.0
  C  C41  1  0.96803000  0.23663000  0.60065000  1.0
  C  C42  1  0.90837000  0.08635000  0.93490000  1.0
  C  C43  1  0.09163000  0.91366000  0.43490000  1.0
  C  C44  1  0.09164000  0.91367000  0.06510000  1.0
  C  C45  1  0.90845000  0.08630000  0.56510000  1.0
  C  C46  1  0.03504000  0.07848000  0.98105000  1.0
  C  C47  1  0.96497000  0.92151000  0.48104000  1.0
  C  C48  1  0.96492000  0.92156000  0.01896000  1.0
  C  C49  1  0.03510000  0.07845000  0.51895000  1.0
  C  C50  1  0.23118000  0.22680000  0.98961000  1.0
  C  C51  1  0.76878000  0.77324000  0.48960000  1.0
  C  C52  1  0.76877000  0.77324000  0.01040000  1.0
  C  C53  1  0.23122000  0.22679000  0.51039000  1.0
  C  C54  1  0.29348000  0.37774000  0.95453000  1.0
  C  C55  1  0.70647000  0.62231000  0.45452000  1.0
  C  C56  1  0.70649000  0.62230000  0.04548000  1.0
  C  C57  1  0.29352000  0.37767000  0.54547000  1.0
  S  S58  1  0.56167000  0.22437000  0.75000000  1.0
  S  S59  1  0.43834000  0.77563000  0.25000000  1.0
  N  N60  1  0.21754000  0.54637000  0.87500000  1.0
  N  N61  1  0.78239000  0.45367000  0.37499000  1.0
  N  N62  1  0.78248000  0.45364000  0.12501000  1.0
  N  N63  1  0.21762000  0.54631000  0.62501000  1.0
  N  N64  1  0.41467000  0.68551000  0.88388000  1.0
  N  N65  1  0.58524000  0.31456000  0.38388000  1.0
  N  N66  1  0.58533000  0.31453000  0.11612000  1.0
  N  N67  1  0.41478000  0.68543000  0.61612000  1.0
  N  N68  1  0.20557000  0.76545000  0.81224000  1.0
  N  N69  1  0.79438000  0.23457000  0.31224000  1.0
  N  N70  1  0.79444000  0.23456000  0.18777000  1.0
  N  N71  1  0.20558000  0.76542000  0.68776000  1.0
  O  O72  1  0.63700000  0.33410000  0.79476000  1.0
  O  O73  1  0.36299000  0.66591000  0.29477000  1.0
  O  O74  1  0.36300000  0.66588000  0.20524000  1.0
  O  O75  1  0.63701000  0.33410000  0.70524000  1.0
  O  O76  1  0.69490000  0.98093000  0.75000000  1.0
  O  O77  1  0.30512000  0.01907000  0.25000000  1.0
  O  O78  1  0.25167000  0.21206000  0.75000000  1.0
  O  O79  1  0.74835000  0.78790000  0.25000000  1.0
