# generated using pymatgen
data_Zn2H11C27Br2N8Cl
_symmetry_space_group_name_H-M   'P 1'
_cell_length_a   18.54520000
_cell_length_b   18.63620000
_cell_length_c   18.64530000
_cell_angle_alpha   102.47100000
_cell_angle_beta   110.29900000
_cell_angle_gamma   109.93200000
_symmetry_Int_Tables_number   1
_chemical_formula_structural   Zn2H11C27Br2N8Cl
_chemical_formula_sum   'Zn4 H22 C54 Br4 N16 Cl2'
_cell_volume   5257.80164754
_cell_formula_units_Z   2
loop_
 _symmetry_equiv_pos_site_id
 _symmetry_equiv_pos_as_xyz
  1  'x, y, z'
loop_
 _atom_site_type_symbol
 _atom_site_label
 _atom_site_symmetry_multiplicity
 _atom_site_fract_x
 _atom_site_fract_y
 _atom_site_fract_z
 _atom_site_occupancy
  Zn  Zn0  1  0.12141000  0.59970000  0.48459000  1.0
  Zn  Zn1  1  0.12136000  0.48466000  0.59968000  1.0
  Zn  Zn2  1  0.90216000  0.39175000  0.50282000  1.0
  Zn  Zn3  1  0.90232000  0.50280000  0.39189000  1.0
  H  H4  1  0.37683000  0.90095000  0.98940000  1.0
  H  H5  1  0.37653000  0.98964000  0.90055000  1.0
  H  H6  1  0.44481000  0.00084000  0.85285000  1.0
  H  H7  1  0.44534000  0.85319000  0.00095000  1.0
  H  H8  1  0.55439000  0.11751000  0.96975000  1.0
  H  H9  1  0.55484000  0.96991000  0.11788000  1.0
  H  H10  1  0.54191000  0.87126000  0.93198000  1.0
  H  H11  1  0.54159000  0.93182000  0.87126000  1.0
  H  H12  1  0.65133000  0.98785000  0.04878000  1.0
  H  H13  1  0.65093000  0.04844000  0.98797000  1.0
  H  H14  1  0.85641000  0.63512000  0.48579000  1.0
  H  H15  1  0.85665000  0.48579000  0.63490000  1.0
  H  H16  1  0.19719000  0.61965000  0.76859000  1.0
  H  H17  1  0.19679000  0.76814000  0.61940000  1.0
  H  H18  1  0.32325000  0.65867000  0.50985000  1.0
  H  H19  1  0.32372000  0.50972000  0.65894000  1.0
  H  H20  1  0.73543000  0.21556000  0.36417000  1.0
  H  H21  1  0.73532000  0.36407000  0.21518000  1.0
  H  H22  1  0.86657000  0.36706000  0.22854000  1.0
  H  H23  1  0.86660000  0.22887000  0.36710000  1.0
  H  H24  1  0.48605000  0.01738000  0.10600000  1.0
  H  H25  1  0.48584000  0.10609000  0.01712000  1.0
  C  C26  1  0.07782000  0.73521000  0.43104000  1.0
  C  C27  1  0.07792000  0.43118000  0.73554000  1.0
  C  C28  1  0.93461000  0.40962000  0.26580000  1.0
  C  C29  1  0.93469000  0.26608000  0.40967000  1.0
  C  C30  1  0.07496000  0.31559000  0.48701000  1.0
  C  C31  1  0.07469000  0.48687000  0.31554000  1.0
  C  C32  1  0.36221000  0.59254000  0.59284000  1.0
  C  C33  1  0.71426000  0.25741000  0.25725000  1.0
  C  C34  1  0.00023000  0.42903000  0.24105000  1.0
  C  C35  1  0.00052000  0.24126000  0.42916000  1.0
  C  C36  1  0.44084000  0.90951000  0.99641000  1.0
  C  C37  1  0.44051000  0.99644000  0.90922000  1.0
  C  C38  1  0.51272000  0.07338000  0.98625000  1.0
  C  C39  1  0.51300000  0.98643000  0.07349000  1.0
  C  C40  1  0.66766000  0.18510000  0.18502000  1.0
  C  C41  1  0.44672000  0.91745000  0.91734000  1.0
  C  C42  1  0.56988000  0.04869000  0.04883000  1.0
  C  C43  1  0.93633000  0.36952000  0.66894000  1.0
  C  C44  1  0.93624000  0.66900000  0.36955000  1.0
  C  C45  1  0.60949000  0.00498000  0.00518000  1.0
  C  C46  1  0.53648000  0.92717000  0.92725000  1.0
  C  C47  1  0.63135000  0.12278000  0.12293000  1.0
  C  C48  1  0.37348000  0.84633000  0.84620000  1.0
  C  C49  1  0.30435000  0.79108000  0.79120000  1.0
  C  C50  1  0.00086000  0.38993000  0.82014000  1.0
  C  C51  1  0.00044000  0.81990000  0.38970000  1.0
  C  C52  1  0.99683000  0.38696000  0.88402000  1.0
  C  C53  1  0.99669000  0.88394000  0.38684000  1.0
  C  C54  1  0.99363000  0.38622000  0.95450000  1.0
  C  C55  1  0.99363000  0.95453000  0.38617000  1.0
  C  C56  1  0.99206000  0.38827000  0.02067000  1.0
  C  C57  1  0.99210000  0.02075000  0.38824000  1.0
  C  C58  1  0.99259000  0.39534000  0.09388000  1.0
  C  C59  1  0.99268000  0.09400000  0.39533000  1.0
  C  C60  1  0.86455000  0.59324000  0.51666000  1.0
  C  C61  1  0.86471000  0.51671000  0.59310000  1.0
  C  C62  1  0.99416000  0.40607000  0.16201000  1.0
  C  C63  1  0.99445000  0.16223000  0.40619000  1.0
  C  C64  1  0.44588000  0.60653000  0.60686000  1.0
  C  C65  1  0.51740000  0.61486000  0.61500000  1.0
  C  C66  1  0.59266000  0.61937000  0.61943000  1.0
  C  C67  1  0.65928000  0.61922000  0.61925000  1.0
  C  C68  1  0.72673000  0.61264000  0.61262000  1.0
  C  C69  1  0.78360000  0.60064000  0.60050000  1.0
  C  C70  1  0.18511000  0.64385000  0.71997000  1.0
  C  C71  1  0.18484000  0.71969000  0.64371000  1.0
  C  C72  1  0.00457000  0.74809000  0.39556000  1.0
  C  C73  1  0.00488000  0.39573000  0.74832000  1.0
  C  C74  1  0.83726000  0.57571000  0.57557000  1.0
  C  C75  1  0.22876000  0.72429000  0.72442000  1.0
  C  C76  1  0.30876000  0.61966000  0.54353000  1.0
  C  C77  1  0.30899000  0.54338000  0.61983000  1.0
  C  C78  1  0.74601000  0.26433000  0.34016000  1.0
  C  C79  1  0.74603000  0.34015000  0.26408000  1.0
  Br  Br80  1  0.19395000  0.81170000  0.47812000  1.0
  Br  Br81  1  0.19423000  0.47833000  0.81232000  1.0
  Br  Br82  1  0.18606000  0.32752000  0.54335000  1.0
  Br  Br83  1  0.18551000  0.54308000  0.32754000  1.0
  N  N84  1  0.05511000  0.65757000  0.42679000  1.0
  N  N85  1  0.05493000  0.42678000  0.65772000  1.0
  N  N86  1  0.96597000  0.38770000  0.61575000  1.0
  N  N87  1  0.96617000  0.61584000  0.38789000  1.0
  N  N88  1  0.90281000  0.54675000  0.49978000  1.0
  N  N89  1  0.90292000  0.49979000  0.54673000  1.0
  N  N90  1  0.12277000  0.59472000  0.64186000  1.0
  N  N91  1  0.12260000  0.64176000  0.59457000  1.0
  N  N92  1  0.23098000  0.58865000  0.54122000  1.0
  N  N93  1  0.23108000  0.54123000  0.58861000  1.0
  N  N94  1  0.79503000  0.34413000  0.39153000  1.0
  N  N95  1  0.79509000  0.39151000  0.34402000  1.0
  N  N96  1  0.96750000  0.45335000  0.34698000  1.0
  N  N97  1  0.96746000  0.34716000  0.45336000  1.0
  N  N98  1  0.05455000  0.37804000  0.50051000  1.0
  N  N99  1  0.05449000  0.50040000  0.37801000  1.0
  Cl  Cl100  1  0.82844000  0.32138000  0.63814000  1.0
  Cl  Cl101  1  0.82826000  0.63843000  0.32135000  1.0
