# generated using pymatgen
data_HoH21C17NO7
_symmetry_space_group_name_H-M   'P 1'
_cell_length_a   8.18430000
_cell_length_b   10.33660000
_cell_length_c   11.69660000
_cell_angle_alpha   108.70700000
_cell_angle_beta   106.14600000
_cell_angle_gamma   97.52990000
_symmetry_Int_Tables_number   1
_chemical_formula_structural   HoH21C17NO7
_chemical_formula_sum   'Ho2 H42 C34 N2 O14'
_cell_volume   873.49056059
_cell_formula_units_Z   2
loop_
 _symmetry_equiv_pos_site_id
 _symmetry_equiv_pos_as_xyz
  1  'x, y, z'
loop_
 _atom_site_type_symbol
 _atom_site_label
 _atom_site_symmetry_multiplicity
 _atom_site_fract_x
 _atom_site_fract_y
 _atom_site_fract_z
 _atom_site_occupancy
  Ho  Ho0  1  0.58509000  0.92479000  0.84708000  1.0
  Ho  Ho1  1  0.41491000  0.07521000  0.15292000  1.0
  H  H2  1  0.97013000  0.61620000  0.92099000  1.0
  H  H3  1  0.02986000  0.38379000  0.07901000  1.0
  H  H4  1  0.61883000  0.43909000  0.71132000  1.0
  H  H5  1  0.38116000  0.56091000  0.28867000  1.0
  H  H6  1  0.94978000  0.35355000  0.84515000  1.0
  H  H7  1  0.05021000  0.64645000  0.15485000  1.0
  H  H8  1  0.81420000  0.26676000  0.67988000  1.0
  H  H9  1  0.18580000  0.73324000  0.32012000  1.0
  H  H10  1  0.72808000  0.25781000  0.79919000  1.0
  H  H11  1  0.27192000  0.74218000  0.20080000  1.0
  H  H12  1  0.06414000  0.67049000  0.47107000  1.0
  H  H13  1  0.93586000  0.32951000  0.52893000  1.0
  H  H14  1  0.96530000  0.68898000  0.70941000  1.0
  H  H15  1  0.03470000  0.31102000  0.29059000  1.0
  H  H16  1  0.74341000  0.56455000  0.41836000  1.0
  H  H17  1  0.25659000  0.43545000  0.58164000  1.0
  H  H18  1  0.66666667  0.65063000  0.54538000  1.0
  H  H19  1  0.33340000  0.34937000  0.45462000  1.0
  H  H20  1  0.71508000  0.48689000  0.52870000  1.0
  H  H21  1  0.28493000  0.51311000  0.47130000  1.0
  H  H22  1  0.36293000  0.35188000  0.00058000  1.0
  H  H23  1  0.63708000  0.64812000  0.99942000  1.0
  H  H24  1  0.36175000  0.30231000  0.72713000  1.0
  H  H25  1  0.63825000  0.69768000  0.27287000  1.0
  H  H26  1  0.26079000  0.53258000  0.92389000  1.0
  H  H27  1  0.73921000  0.46743000  0.07611000  1.0
  H  H28  1  0.14635000  0.46010000  0.75473000  1.0
  H  H29  1  0.85365000  0.53990000  0.24527000  1.0
  H  H30  1  0.36158000  0.56372000  0.81462000  1.0
  H  H31  1  0.63842000  0.43628000  0.18538000  1.0
  H  H32  1  0.00632000  0.02675000  0.85152000  1.0
  H  H33  1  0.99369000  0.97325000  0.14849000  1.0
  H  H34  1  0.17652000  0.05216000  0.71413000  1.0
  H  H35  1  0.82349000  0.94785000  0.28588000  1.0
  H  H36  1  0.68648000  0.93593000  0.40078000  1.0
  H  H37  1  0.31352000  0.06407000  0.59922000  1.0
  H  H38  1  0.53697000  0.90809000  0.54950000  1.0
  H  H39  1  0.46304000  0.09192000  0.45050000  1.0
  H  H40  1  0.78199000  0.15822000  0.08662000  1.0
  H  H41  1  0.21800000  0.84178000  0.91338000  1.0
  H  H42  1  0.93351000  0.13395000  0.02731000  1.0
  H  H43  1  0.06648000  0.86605000  0.97269000  1.0
  C  C44  1  0.75682000  0.70768000  0.84683000  1.0
  C  C45  1  0.24318000  0.29232000  0.15316000  1.0
  C  C46  1  0.83707000  0.58943000  0.85317000  1.0
  C  C47  1  0.16293000  0.41057000  0.14683000  1.0
  C  C48  1  0.75058000  0.45544000  0.77787000  1.0
  C  C49  1  0.24942000  0.54456000  0.22213000  1.0
  C  C50  1  0.81658000  0.32839000  0.77693000  1.0
  C  C51  1  0.18342000  0.67160000  0.22307000  1.0
  C  C52  1  0.25321000  0.77410000  0.66501000  1.0
  C  C53  1  0.74679000  0.22591000  0.33499000  1.0
  C  C54  1  0.07761000  0.69532000  0.57176000  1.0
  C  C55  1  0.92238000  0.30468000  0.42824000  1.0
  C  C56  1  0.94052000  0.66013000  0.60663000  1.0
  C  C57  1  0.05948000  0.33987000  0.39337000  1.0
  C  C58  1  0.75800000  0.58722000  0.51922000  1.0
  C  C59  1  0.24200000  0.41278000  0.48078000  1.0
  C  C60  1  0.44060000  0.17082000  0.89069000  1.0
  C  C61  1  0.55939000  0.82918000  0.10931000  1.0
  C  C62  1  0.38093000  0.30185000  0.90919000  1.0
  C  C63  1  0.61907000  0.69815000  0.09081000  1.0
  C  C64  1  0.34282000  0.35664000  0.81787000  1.0
  C  C65  1  0.65718000  0.64337000  0.18212000  1.0
  C  C66  1  0.27473000  0.48488000  0.82984000  1.0
  C  C67  1  0.72528000  0.51512000  0.17016000  1.0
  C  C68  1  0.93874000  0.00664000  0.75086000  1.0
  C  C69  1  0.06126000  0.99336000  0.24914000  1.0
  C  C70  1  0.03475000  0.02237000  0.67313000  1.0
  C  C71  1  0.96526000  0.97764000  0.32687000  1.0
  C  C72  1  0.94997000  0.99484000  0.54296000  1.0
  C  C73  1  0.05004000  0.00516000  0.45704000  1.0
  C  C74  1  0.76590000  0.95601000  0.49921000  1.0
  C  C75  1  0.23410000  0.04399000  0.50079000  1.0
  C  C76  1  0.67933000  0.94176000  0.58290000  1.0
  C  C77  1  0.32067000  0.05824000  0.41711000  1.0
  N  N78  1  0.76231000  0.96455000  0.70738000  1.0
  N  N79  1  0.23770000  0.03545000  0.29262000  1.0
  O  O80  1  0.84740000  0.83577000  0.91490000  1.0
  O  O81  1  0.15260000  0.16422000  0.08510000  1.0
  O  O82  1  0.59794000  0.68634000  0.77652000  1.0
  O  O83  1  0.40206000  0.31365000  0.22347000  1.0
  O  O84  1  0.28571000  0.81194000  0.78737000  1.0
  O  O85  1  0.71429000  0.18807000  0.21263000  1.0
  O  O86  1  0.37628000  0.80831000  0.62547000  1.0
  O  O87  1  0.62373000  0.19169000  0.37453000  1.0
  O  O88  1  0.48486000  0.11273000  0.79342000  1.0
  O  O89  1  0.51514000  0.88726000  0.20658000  1.0
  O  O90  1  0.44504000  0.11092000  0.97230000  1.0
  O  O91  1  0.55495000  0.88908000  0.02770000  1.0
  O  O92  1  0.80389000  0.12425000  0.00344000  1.0
  O  O93  1  0.19611000  0.87574000  0.99656000  1.0
