# generated using pymatgen
data_Zn2H29C36N8F3
_symmetry_space_group_name_H-M   'P 1'
_cell_length_a   14.46330000
_cell_length_b   15.40190000
_cell_length_c   17.13524495
_cell_angle_alpha   107.21799230
_cell_angle_beta   102.15121326
_cell_angle_gamma   113.06800000
_symmetry_Int_Tables_number   1
_chemical_formula_structural   Zn2H29C36N8F3
_chemical_formula_sum   'Zn4 H58 C72 N16 F6'
_cell_volume   3114.42366893
_cell_formula_units_Z   2
loop_
 _symmetry_equiv_pos_site_id
 _symmetry_equiv_pos_as_xyz
  1  'x, y, z'
loop_
 _atom_site_type_symbol
 _atom_site_label
 _atom_site_symmetry_multiplicity
 _atom_site_fract_x
 _atom_site_fract_y
 _atom_site_fract_z
 _atom_site_occupancy
  Zn  Zn0  1  0.52804000  0.86337000  0.90816000  1.0
  Zn  Zn1  1  0.45413000  0.15974000  0.13022000  1.0
  Zn  Zn2  1  0.62795000  0.11746000  0.00788000  1.0
  Zn  Zn3  1  0.33448000  0.94113000  0.00602000  1.0
  H  H4  1  0.72382000  0.84430000  0.97045000  1.0
  H  H5  1  0.27129000  0.11289000  0.96668000  1.0
  H  H6  1  0.25396000  0.22294000  0.13745000  1.0
  H  H7  1  0.12141000  0.73218000  0.85851000  1.0
  H  H8  1  0.53926000  0.18630000  0.87889000  1.0
  H  H9  1  0.44196000  0.41296000  0.78002000  1.0
  H  H10  1  0.27065000  0.30347000  0.04415000  1.0
  H  H11  1  0.55522000  0.13437000  0.31332000  1.0
  H  H12  1  0.41337000  0.35768000  0.09764000  1.0
  H  H13  1  0.29691000  0.47477000  0.04920000  1.0
  H  H14  1  0.43955000  0.52938000  0.10308000  1.0
  H  H15  1  0.75173000  0.14314000  0.70177000  1.0
  H  H16  1  0.41101000  0.75724000  0.39107000  1.0
  H  H17  1  0.76060000  0.15957000  0.56455000  1.0
  H  H18  1  0.75487000  0.37813000  0.44321000  1.0
  H  H19  1  0.81067000  0.22549000  0.18865000  1.0
  H  H20  1  0.97039000  0.38683000  0.30249000  1.0
  H  H21  1  0.83117000  0.46634000  0.60678000  1.0
  H  H22  1  0.12848000  0.49045000  0.44271000  1.0
  H  H23  1  0.98905000  0.58800000  0.74420000  1.0
  H  H24  1  0.04525000  0.15076000  0.04980000  1.0
  H  H25  1  0.16177000  0.16551000  0.94821000  1.0
  H  H26  1  0.77754000  0.93690000  0.71820000  1.0
  H  H27  1  0.80556000  0.83205000  0.68050000  1.0
  H  H28  1  0.71180000  0.87713000  0.82233000  1.0
  H  H29  1  0.41723000  0.63548000  0.04089000  1.0
  H  H30  1  0.63529000  0.37140000  0.29303000  1.0
  H  H31  1  0.49586000  0.60670000  0.80706000  1.0
  H  H32  1  0.45283000  0.83197000  0.10963000  1.0
  H  H33  1  0.35445000  0.72342000  0.73930000  1.0
  H  H34  1  0.89284000  0.67241000  0.93445000  1.0
  H  H35  1  0.96716000  0.64381000  0.87078000  1.0
  H  H36  1  0.97745000  0.62100000  0.96682000  1.0
  H  H37  1  0.14228000  0.78510000  0.00213000  1.0
  H  H38  1  0.06458000  0.81395000  0.06070000  1.0
  H  H39  1  0.97694000  0.85313000  0.94015000  1.0
  H  H40  1  0.06577000  0.83912000  0.88900000  1.0
  H  H41  1  0.22009000  0.65490000  0.05912000  1.0
  H  H42  1  0.17164000  0.58640000  0.12149000  1.0
  H  H43  1  0.11378000  0.66052000  0.09295000  1.0
  H  H44  1  0.23983000  0.75964000  0.25062000  1.0
  H  H45  1  0.29169000  0.82556000  0.18856000  1.0
  H  H46  1  0.41158000  0.74148000  0.17846000  1.0
  H  H47  1  0.35828000  0.67864000  0.24153000  1.0
  H  H48  1  0.71809000  0.55573000  0.79045000  1.0
  H  H49  1  0.64154000  0.52232000  0.68038000  1.0
  H  H50  1  0.76922000  0.52673000  0.70645000  1.0
  H  H51  1  0.78630000  0.68599000  0.68609000  1.0
  H  H52  1  0.86219000  0.72017000  0.79535000  1.0
  H  H53  1  0.70330000  0.72021000  0.83738000  1.0
  H  H54  1  0.63490000  0.69541000  0.72862000  1.0
  H  H55  1  0.00203000  0.42282000  0.10785000  1.0
  H  H56  1  0.96951000  0.37398000  0.99220000  1.0
  H  H57  1  0.89790000  0.43116000  0.03977000  1.0
  H  H58  1  0.78585000  0.23707000  0.96799000  1.0
  H  H59  1  0.81724000  0.28811000  0.08329000  1.0
  H  H60  1  0.96883000  0.24582000  0.10449000  1.0
  H  H61  1  0.94114000  0.19986000  0.99089000  1.0
  C  C62  1  0.74738000  0.92604000  0.99006000  1.0
  C  C63  1  0.51462000  0.96735000  0.24267000  1.0
  C  C64  1  0.76112000  0.32271000  0.27836000  1.0
  C  C65  1  0.44104000  0.57236000  0.91410000  1.0
  C  C66  1  0.31123000  0.74017000  0.78103000  1.0
  C  C67  1  0.34457000  0.12375000  0.95436000  1.0
  C  C68  1  0.63394000  0.07367000  0.80053000  1.0
  C  C69  1  0.13875000  0.97235000  0.01233000  1.0
  C  C70  1  0.22774000  0.14133000  0.10036000  1.0
  C  C71  1  0.56161000  0.90712000  0.74789000  1.0
  C  C72  1  0.19218000  0.74343000  0.84199000  1.0
  C  C73  1  0.52382000  0.06527000  0.25318000  1.0
  C  C74  1  0.47987000  0.15875000  0.90764000  1.0
  C  C75  1  0.19954000  0.68878000  0.76407000  1.0
  C  C76  1  0.39382000  0.17965000  0.91040000  1.0
  C  C77  1  0.60141000  0.98799000  0.72115000  1.0
  C  C78  1  0.12549000  0.06172000  0.03789000  1.0
  C  C79  1  0.37860000  0.42812000  0.96037000  1.0
  C  C80  1  0.41116000  0.46592000  0.90028000  1.0
  C  C81  1  0.41959000  0.39385000  0.83207000  1.0
  C  C82  1  0.40543000  0.29879000  0.83154000  1.0
  C  C83  1  0.38019000  0.26322000  0.89520000  1.0
  C  C84  1  0.75462000  0.25391000  0.19980000  1.0
  C  C85  1  0.36385000  0.33230000  0.95756000  1.0
  C  C86  1  0.35026000  0.35375000  0.04565000  1.0
  C  C87  1  0.36667000  0.46217000  0.04877000  1.0
  C  C88  1  0.61030000  0.98980000  0.63839000  1.0
  C  C89  1  0.53383000  0.93918000  0.31718000  1.0
  C  C90  1  0.46779000  0.83054000  0.39311000  1.0
  C  C91  1  0.46300000  0.84118000  0.31525000  1.0
  C  C92  1  0.61350000  0.01474000  0.39844000  1.0
  C  C93  1  0.62142000  0.00720000  0.47940000  1.0
  C  C94  1  0.54200000  0.91299000  0.47594000  1.0
  C  C95  1  0.44195000  0.64644000  0.98742000  1.0
  C  C96  1  0.53930000  0.90899000  0.55674000  1.0
  C  C97  1  0.69266000  0.07977000  0.63859000  1.0
  C  C98  1  0.69826000  0.08902000  0.56210000  1.0
  C  C99  1  0.85136000  0.37804000  0.36318000  1.0
  C  C100  1  0.10925000  0.60534000  0.68415000  1.0
  C  C101  1  0.91268000  0.49525000  0.60584000  1.0
  C  C102  1  0.00114000  0.56335000  0.68242000  1.0
  C  C103  1  0.12038000  0.56681000  0.60469000  1.0
  C  C104  1  0.03272000  0.49790000  0.52371000  1.0
  C  C105  1  0.92527000  0.46384000  0.52386000  1.0
  C  C106  1  0.66473000  0.32701000  0.25358000  1.0
  C  C107  1  0.83647000  0.40374000  0.44257000  1.0
  C  C108  1  0.95849000  0.40804000  0.36475000  1.0
  C  C109  1  0.04684000  0.46599000  0.44257000  1.0
  C  C110  1  0.88189000  0.92325000  0.87428000  1.0
  C  C111  1  0.92179000  0.99681000  0.96027000  1.0
  C  C112  1  0.03638000  0.08249000  0.99782000  1.0
  C  C113  1  0.07630000  0.10842000  0.92264000  1.0
  C  C114  1  0.01664000  0.04569000  0.83838000  1.0
  C  C115  1  0.92244000  0.95635000  0.81178000  1.0
  C  C116  1  0.81153000  0.89122000  0.73916000  1.0
  C  C117  1  0.48225000  0.63052000  0.86800000  1.0
  C  C118  1  0.76765000  0.85019000  0.80476000  1.0
  C  C119  1  0.46928000  0.90914000  0.15070000  1.0
  C  C120  1  0.82842000  0.09641000  0.02522000  1.0
  C  C121  1  0.84294000  0.00754000  0.99755000  1.0
  C  C122  1  0.05797000  0.86081000  0.95378000  1.0
  C  C123  1  0.06470000  0.78530000  0.99377000  1.0
  C  C124  1  0.97076000  0.67476000  0.93869000  1.0
  C  C125  1  0.37837000  0.74978000  0.23061000  1.0
  C  C126  1  0.27329000  0.75403000  0.19837000  1.0
  C  C127  1  0.19016000  0.65893000  0.11336000  1.0
  C  C128  1  0.71630000  0.73331000  0.77974000  1.0
  C  C129  1  0.77886000  0.67964000  0.74707000  1.0
  C  C130  1  0.72417000  0.56498000  0.73017000  1.0
  C  C131  1  0.90216000  0.20552000  0.03952000  1.0
  C  C132  1  0.85191000  0.27534000  0.03255000  1.0
  C  C133  1  0.93492000  0.38163000  0.04356000  1.0
  N  N134  1  0.67879000  0.96067000  0.00929000  1.0
  N  N135  1  0.40184000  0.07835000  0.98205000  1.0
  N  N136  1  0.61704000  0.04837000  0.86567000  1.0
  N  N137  1  0.24291000  0.99967000  0.05508000  1.0
  N  N138  1  0.29797000  0.10450000  0.10991000  1.0
  N  N139  1  0.57099000  0.94123000  0.83192000  1.0
  N  N140  1  0.29121000  0.82028000  0.89996000  1.0
  N  N141  1  0.48446000  0.09975000  0.95098000  1.0
  N  N142  1  0.48508000  0.06386000  0.17462000  1.0
  N  N143  1  0.66276000  0.22030000  0.13347000  1.0
  N  N144  1  0.48055000  0.73995000  0.98639000  1.0
  N  N145  1  0.60595000  0.26610000  0.16617000  1.0
  N  N146  1  0.50582000  0.72991000  0.91245000  1.0
  N  N147  1  0.45154000  0.96801000  0.11076000  1.0
  N  N148  1  0.73002000  0.06578000  0.03163000  1.0
  N  N149  1  0.36518000  0.81839000  0.86222000  1.0
  F  F150  1  0.67612000  0.17503000  0.81459000  1.0
  F  F151  1  0.52175000  0.80441000  0.70168000  1.0
  F  F152  1  0.42225000  0.23719000  0.76598000  1.0
  F  F153  1  0.45767000  0.82161000  0.55209000  1.0
  F  F154  1  0.68750000  0.10722000  0.40323000  1.0
  F  F155  1  0.22184000  0.60082000  0.60183000  1.0
