# generated using pymatgen
data_HgH4C5S5Cl2
_symmetry_space_group_name_H-M   'P 1'
_cell_length_a   8.24406000
_cell_length_b   8.52922244
_cell_length_c   9.77587000
_cell_angle_alpha   66.89461900
_cell_angle_beta   79.39200000
_cell_angle_gamma   61.36263292
_symmetry_Int_Tables_number   1
_chemical_formula_structural   HgH4C5S5Cl2
_chemical_formula_sum   'Hg2 H8 C10 S10 Cl4'
_cell_volume   554.90471248
_cell_formula_units_Z   2
loop_
 _symmetry_equiv_pos_site_id
 _symmetry_equiv_pos_as_xyz
  1  'x, y, z'
loop_
 _atom_site_type_symbol
 _atom_site_label
 _atom_site_symmetry_multiplicity
 _atom_site_fract_x
 _atom_site_fract_y
 _atom_site_fract_z
 _atom_site_occupancy
  Hg  Hg0  1  0.81923000  0.22032000  0.06131000  1.0
  Hg  Hg1  1  0.18077000  0.77968000  0.93869000  1.0
  H  H2  1  0.58689000  0.71693000  0.07405000  1.0
  H  H3  1  0.41311000  0.28306000  0.92596000  1.0
  H  H4  1  0.56878000  0.53040000  0.23265000  1.0
  H  H5  1  0.43122000  0.46959000  0.76736000  1.0
  H  H6  1  0.44459000  0.83720000  0.28071000  1.0
  H  H7  1  0.55540000  0.16280000  0.71929000  1.0
  H  H8  1  0.66210000  0.84064000  0.23345000  1.0
  H  H9  1  0.33789000  0.15936000  0.76655000  1.0
  C  C10  1  0.85511000  0.41262000  0.47315000  1.0
  C  C11  1  0.14488000  0.58739000  0.52686000  1.0
  C  C12  1  0.94430000  0.36121000  0.35267000  1.0
  C  C13  1  0.05571000  0.63879000  0.64731000  1.0
  C  C14  1  0.13811000  0.08538000  0.58123000  1.0
  C  C15  1  0.86189000  0.91462000  0.41877000  1.0
  C  C16  1  0.63539000  0.62487000  0.18874000  1.0
  C  C17  1  0.36460000  0.37513000  0.81126000  1.0
  C  C18  1  0.59465000  0.74694000  0.28057000  1.0
  C  C19  1  0.40535000  0.25306000  0.71943000  1.0
  S  S20  1  0.88068000  0.48736000  0.16665000  1.0
  S  S21  1  0.11932000  0.51264000  0.83335000  1.0
  S  S22  1  0.65403000  0.61559000  0.47694000  1.0
  S  S23  1  0.34598000  0.38441000  0.52306000  1.0
  S  S24  1  0.13957000  0.14219000  0.39352000  1.0
  S  S25  1  0.86044000  0.85781000  0.60648000  1.0
  S  S26  1  0.95730000  0.24910000  0.64541000  1.0
  S  S27  1  0.04270000  0.75091000  0.35459000  1.0
  S  S28  1  0.31482000  0.88491000  0.68643000  1.0
  S  S29  1  0.68518000  0.11509000  0.31357000  1.0
  Cl  Cl30  1  0.18037000  0.03953000  0.05023000  1.0
  Cl  Cl31  1  0.81963000  0.96047000  0.94977000  1.0
  Cl  Cl32  1  0.69214000  0.51860000  0.84623000  1.0
  Cl  Cl33  1  0.30787000  0.48140000  0.15377000  1.0
