# generated using pymatgen
data_CuH14C20(NO)4
_symmetry_space_group_name_H-M   'P 1'
_cell_length_a   12.74920000
_cell_length_b   15.70070293
_cell_length_c   15.70340000
_cell_angle_alpha   80.53841675
_cell_angle_beta   66.04900000
_cell_angle_gamma   66.06637558
_symmetry_Int_Tables_number   1
_chemical_formula_structural   CuH14C20(NO)4
_chemical_formula_sum   'Cu4 H56 C80 N16 O16'
_cell_volume   2625.69845146
_cell_formula_units_Z   4
loop_
 _symmetry_equiv_pos_site_id
 _symmetry_equiv_pos_as_xyz
  1  'x, y, z'
loop_
 _atom_site_type_symbol
 _atom_site_label
 _atom_site_symmetry_multiplicity
 _atom_site_fract_x
 _atom_site_fract_y
 _atom_site_fract_z
 _atom_site_occupancy
  Cu  Cu0  1  0.50000000  0.50000000  0.50000000  1.0
  Cu  Cu1  1  0.50000000  1.00000000  0.00000000  1.0
  Cu  Cu2  1  0.50000000  1.00000000  0.50000000  1.0
  Cu  Cu3  1  0.00000000  0.50000000  0.00000000  1.0
  H  H4  1  0.76908000  0.84978000  0.46524000  1.0
  H  H5  1  0.08414000  0.65022000  0.03479000  1.0
  H  H6  1  0.73452000  0.03483000  0.84978000  1.0
  H  H7  1  0.61893000  0.46531000  0.65026000  1.0
  H  H8  1  0.23092000  0.15022000  0.53476000  1.0
  H  H9  1  0.91586000  0.34978000  0.96521000  1.0
  H  H10  1  0.26548000  0.96517000  0.15022000  1.0
  H  H11  1  0.38107000  0.53469000  0.34975000  1.0
  H  H12  1  0.47556000  0.97047000  0.71649000  1.0
  H  H13  1  0.16254000  0.52923000  0.78374000  1.0
  H  H14  1  0.69184000  0.78374000  0.97046000  1.0
  H  H15  1  0.44605000  0.71641000  0.52957000  1.0
  H  H16  1  0.52445000  0.02953000  0.28351000  1.0
  H  H17  1  0.83746000  0.47077000  0.21626000  1.0
  H  H18  1  0.30816000  0.21626000  0.02954000  1.0
  H  H19  1  0.55395000  0.28359000  0.47042000  1.0
  H  H20  1  0.67858000  0.85057000  0.75689000  1.0
  H  H21  1  0.28595000  0.64934000  0.74307000  1.0
  H  H22  1  0.93539000  0.74311000  0.85039000  1.0
  H  H23  1  0.52918000  0.75700000  0.64947000  1.0
  H  H24  1  0.32141000  0.14943000  0.24311000  1.0
  H  H25  1  0.71405000  0.35066000  0.25693000  1.0
  H  H26  1  0.06461000  0.25689000  0.14961000  1.0
  H  H27  1  0.47082000  0.24300000  0.35053000  1.0
  H  H28  1  0.82277000  0.68622000  0.71628000  1.0
  H  H29  1  0.22531000  0.81381000  0.78377000  1.0
  H  H30  1  0.03912000  0.78361000  0.68602000  1.0
  H  H31  1  0.50900000  0.71635000  0.81393000  1.0
  H  H32  1  0.17723000  0.31378000  0.28372000  1.0
  H  H33  1  0.77469000  0.18619000  0.21623000  1.0
  H  H34  1  0.96088000  0.21639000  0.31398000  1.0
  H  H35  1  0.49100000  0.28365000  0.18607000  1.0
  H  H36  1  0.03842000  0.57770000  0.69629000  1.0
  H  H37  1  0.31198000  0.92260000  0.80399000  1.0
  H  H38  1  0.23472000  0.80371000  0.57736000  1.0
  H  H39  1  0.61603000  0.69626000  0.92261000  1.0
  H  H40  1  0.96158000  0.42230000  0.30370000  1.0
  H  H41  1  0.68802000  0.07740000  0.19601000  1.0
  H  H42  1  0.76528000  0.19629000  0.42265000  1.0
  H  H43  1  0.38397000  0.30374000  0.07739000  1.0
  H  H44  1  0.18272000  0.72647000  0.45112000  1.0
  H  H45  1  0.36043000  0.77353000  0.04883000  1.0
  H  H46  1  0.13387000  0.04888000  0.72627000  1.0
  H  H47  1  0.90927000  0.45133000  0.77344000  1.0
  H  H48  1  0.81728000  0.27353000  0.54888000  1.0
  H  H49  1  0.63957000  0.22647000  0.95117000  1.0
  H  H50  1  0.86613000  0.95112000  0.27373000  1.0
  H  H51  1  0.09073000  0.54867000  0.22655000  1.0
  H  H52  1  0.96720000  0.83589000  0.47025000  1.0
  H  H53  1  0.27363000  0.66395000  0.02964000  1.0
  H  H54  1  0.93745000  0.02975000  0.83577000  1.0
  H  H55  1  0.80326000  0.47052000  0.66388000  1.0
  H  H56  1  0.03280000  0.16411000  0.52975000  1.0
  H  H57  1  0.72637000  0.33605000  0.97036000  1.0
  H  H58  1  0.06255000  0.97025000  0.16423000  1.0
  H  H59  1  0.19674000  0.52948000  0.33612000  1.0
  C  C60  1  0.71588000  0.86697000  0.53832000  1.0
  C  C61  1  0.12128000  0.63296000  0.96173000  1.0
  C  C62  1  0.75434000  0.96174000  0.86691000  1.0
  C  C63  1  0.58292000  0.53838000  0.63307000  1.0
  C  C64  1  0.28412000  0.13303000  0.46168000  1.0
  C  C65  1  0.87872000  0.36704000  0.03827000  1.0
  C  C66  1  0.24566000  0.03826000  0.13309000  1.0
  C  C67  1  0.41708000  0.46162000  0.36693000  1.0
  C  C68  1  0.56558000  0.92632000  0.66986000  1.0
  C  C69  1  0.16187000  0.57344000  0.83027000  1.0
  C  C70  1  0.73540000  0.83027000  0.92632000  1.0
  C  C71  1  0.49196000  0.66985000  0.57371000  1.0
  C  C72  1  0.43442000  0.07368000  0.33014000  1.0
  C  C73  1  0.83813000  0.42656000  0.16973000  1.0
  C  C74  1  0.26460000  0.16973000  0.07368000  1.0
  C  C75  1  0.50804000  0.33015000  0.42629000  1.0
  C  C76  1  0.66534000  0.86709000  0.69136000  1.0
  C  C77  1  0.22387000  0.63273000  0.80865000  1.0
  C  C78  1  0.85666000  0.80866000  0.86702000  1.0
  C  C79  1  0.53250000  0.69144000  0.63290000  1.0
  C  C80  1  0.33467000  0.13290000  0.30864000  1.0
  C  C81  1  0.77613000  0.36727000  0.19135000  1.0
  C  C82  1  0.14334000  0.19134000  0.13298000  1.0
  C  C83  1  0.46751000  0.30855000  0.36709000  1.0
  C  C84  1  0.88293000  0.76708000  0.59446000  1.0
  C  C85  1  0.24455000  0.73289000  0.90552000  1.0
  C  C86  1  0.97748000  0.90547000  0.76691000  1.0
  C  C87  1  0.65010000  0.59464000  0.73292000  1.0
  C  C88  1  0.11707000  0.23292000  0.40554000  1.0
  C  C89  1  0.75545000  0.26711000  0.09448000  1.0
  C  C90  1  0.02252000  0.09453000  0.23309000  1.0
  C  C91  1  0.34990000  0.40536000  0.26708000  1.0
  C  C92  1  0.90180000  0.69500000  0.65856000  1.0
  C  C93  1  0.25534000  0.80506000  0.84151000  1.0
  C  C94  1  0.06040000  0.84137000  0.69477000  1.0
  C  C95  1  0.59682000  0.65865000  0.80513000  1.0
  C  C96  1  0.09820000  0.30500000  0.34144000  1.0
  C  C97  1  0.74468000  0.19493000  0.15849000  1.0
  C  C98  1  0.93960000  0.15863000  0.30523000  1.0
  C  C99  1  0.40319000  0.34135000  0.19487000  1.0
  C  C100  1  0.02200000  0.63454000  0.64725000  1.0
  C  C101  1  0.30349000  0.86569000  0.85297000  1.0
  C  C102  1  0.16923000  0.85274000  0.63425000  1.0
  C  C103  1  0.65648000  0.64730000  0.86566000  1.0
  C  C104  1  0.97800000  0.36546000  0.35275000  1.0
  C  C105  1  0.69651000  0.13431000  0.14703000  1.0
  C  C106  1  0.83076000  0.14726000  0.36575000  1.0
  C  C107  1  0.34352000  0.35270000  0.13434000  1.0
  C  C108  1  0.12378000  0.64573000  0.57286000  1.0
  C  C109  1  0.34217000  0.85443000  0.92731000  1.0
  C  C110  1  0.19663000  0.92712000  0.64553000  1.0
  C  C111  1  0.76949000  0.57294000  0.85434000  1.0
  C  C112  1  0.87622000  0.35427000  0.42714000  1.0
  C  C113  1  0.65783000  0.14557000  0.07269000  1.0
  C  C114  1  0.80337000  0.07288000  0.35448000  1.0
  C  C115  1  0.23051000  0.42706000  0.14566000  1.0
  C  C116  1  0.10326000  0.71733000  0.50814000  1.0
  C  C117  1  0.32869000  0.78270000  0.99191000  1.0
  C  C118  1  0.11138000  0.99186000  0.71715000  1.0
  C  C119  1  0.82065000  0.50829000  0.78261000  1.0
  C  C120  1  0.89674000  0.28267000  0.49186000  1.0
  C  C121  1  0.67131000  0.21730000  0.00809000  1.0
  C  C122  1  0.88862000  0.00814000  0.28285000  1.0
  C  C123  1  0.17935000  0.49171000  0.21739000  1.0
  C  C124  1  0.98326000  0.77821000  0.51866000  1.0
  C  C125  1  0.28022000  0.72174000  0.98132000  1.0
  C  C126  1  0.00191000  0.98133000  0.77806000  1.0
  C  C127  1  0.76161000  0.51886000  0.72166000  1.0
  C  C128  1  0.01674000  0.22179000  0.48134000  1.0
  C  C129  1  0.71979000  0.27826000  0.01868000  1.0
  C  C130  1  0.99809000  0.01867000  0.22194000  1.0
  C  C131  1  0.23838000  0.48114000  0.27834000  1.0
  C  C132  1  0.25268000  0.58246000  0.56614000  1.0
  C  C133  1  0.40126000  0.91754000  0.93415000  1.0
  C  C134  1  0.31882000  0.93385000  0.58230000  1.0
  C  C135  1  0.83518000  0.56610000  0.91760000  1.0
  C  C136  1  0.74732000  0.41754000  0.43386000  1.0
  C  C137  1  0.59874000  0.08246000  0.06585000  1.0
  C  C138  1  0.68118000  0.06615000  0.41770000  1.0
  C  C139  1  0.16482000  0.43390000  0.08240000  1.0
  N  N140  1  0.59856000  0.92495000  0.57448000  1.0
  N  N141  1  0.09809000  0.57491000  0.92564000  1.0
  N  N142  1  0.67309000  0.92565000  0.92494000  1.0
  N  N143  1  0.52356000  0.57446000  0.57511000  1.0
  N  N144  1  0.40144000  0.07505000  0.42552000  1.0
  N  N145  1  0.90191000  0.42509000  0.07436000  1.0
  N  N146  1  0.32690000  0.07435000  0.07506000  1.0
  N  N147  1  0.47644000  0.42554000  0.42489000  1.0
  N  N148  1  0.76035000  0.83013000  0.60724000  1.0
  N  N149  1  0.19783000  0.66980000  0.89274000  1.0
  N  N150  1  0.86767000  0.89274000  0.83001000  1.0
  N  N151  1  0.59057000  0.60736000  0.66988000  1.0
  N  N152  1  0.23965000  0.16987000  0.39276000  1.0
  N  N153  1  0.80217000  0.33020000  0.10726000  1.0
  N  N154  1  0.13233000  0.10726000  0.16999000  1.0
  N  N155  1  0.40943000  0.39264000  0.33012000  1.0
  O  O156  1  0.34167000  0.60345000  0.50088000  1.0
  O  O157  1  0.44590000  0.89645000  0.99948000  1.0
  O  O158  1  0.34254000  0.99910000  0.60339000  1.0
  O  O159  1  0.94517000  0.50083000  0.89649000  1.0
  O  O160  1  0.65833000  0.39655000  0.49912000  1.0
  O  O161  1  0.55410000  0.10355000  0.00052000  1.0
  O  O162  1  0.65746000  0.00090000  0.39661000  1.0
  O  O163  1  0.05483000  0.49917000  0.10351000  1.0
  O  O164  1  0.26808000  0.51567000  0.62128000  1.0
  O  O165  1  0.40535000  0.98430000  0.87900000  1.0
  O  O166  1  0.38940000  0.87874000  0.51544000  1.0
  O  O167  1  0.78386000  0.62119000  0.98447000  1.0
  O  O168  1  0.73192000  0.48433000  0.37872000  1.0
  O  O169  1  0.59466000  0.01570000  0.12100000  1.0
  O  O170  1  0.61060000  0.12126000  0.48456000  1.0
  O  O171  1  0.21614000  0.37881000  0.01553000  1.0
