# generated using pymatgen
data_ZnSiH24C24(N2F)6
_symmetry_space_group_name_H-M   'P 1'
_cell_length_a   7.80613000
_cell_length_b   13.85730000
_cell_length_c   13.85720000
_cell_angle_alpha   90.00010000
_cell_angle_beta   89.99960000
_cell_angle_gamma   89.99970000
_symmetry_Int_Tables_number   1
_chemical_formula_structural   ZnSiH24C24(N2F)6
_chemical_formula_sum   'Zn1 Si1 H24 C24 N12 F6'
_cell_volume   1498.95944821
_cell_formula_units_Z   1
loop_
 _symmetry_equiv_pos_site_id
 _symmetry_equiv_pos_as_xyz
  1  'x, y, z'
loop_
 _atom_site_type_symbol
 _atom_site_label
 _atom_site_symmetry_multiplicity
 _atom_site_fract_x
 _atom_site_fract_y
 _atom_site_fract_z
 _atom_site_occupancy
  Zn  Zn0  1  0.49991000  0.50000000  0.49999000  1.0
  Si  Si1  1  0.99994000  0.49998000  0.49999000  1.0
  H  H2  1  0.75260000  0.65825000  0.45169000  1.0
  H  H3  1  0.24732000  0.65830000  0.54832000  1.0
  H  H4  1  0.75258000  0.34174000  0.54834000  1.0
  H  H5  1  0.24735000  0.34169000  0.45162000  1.0
  H  H6  1  0.75256000  0.45169000  0.34172000  1.0
  H  H7  1  0.24735000  0.54833000  0.34167000  1.0
  H  H8  1  0.75255000  0.54833000  0.65828000  1.0
  H  H9  1  0.24739000  0.45163000  0.65831000  1.0
  H  H10  1  0.20932000  0.91858000  0.56980000  1.0
  H  H11  1  0.10574000  0.80969000  0.57847000  1.0
  H  H12  1  0.79076000  0.91851000  0.43019000  1.0
  H  H13  1  0.89427000  0.80960000  0.42152000  1.0
  H  H14  1  0.20937000  0.08142000  0.43012000  1.0
  H  H15  1  0.10578000  0.19031000  0.42145000  1.0
  H  H16  1  0.79073000  0.08148000  0.56985000  1.0
  H  H17  1  0.89424000  0.19040000  0.57852000  1.0
  H  H18  1  0.20931000  0.56980000  0.08142000  1.0
  H  H19  1  0.10575000  0.57848000  0.19030000  1.0
  H  H20  1  0.79074000  0.43018000  0.08147000  1.0
  H  H21  1  0.89424000  0.42152000  0.19038000  1.0
  H  H22  1  0.20934000  0.43010000  0.91856000  1.0
  H  H23  1  0.10578000  0.42145000  0.80967000  1.0
  H  H24  1  0.79070000  0.56983000  0.91852000  1.0
  H  H25  1  0.89419000  0.57851000  0.80961000  1.0
  C  C26  1  0.64172000  0.70100000  0.47324000  1.0
  C  C27  1  0.64930000  0.80200000  0.47376000  1.0
  C  C28  1  0.50002000  0.85434000  0.49999000  1.0
  C  C29  1  0.35072000  0.80203000  0.52624000  1.0
  C  C30  1  0.35822000  0.70103000  0.52678000  1.0
  C  C31  1  0.50005000  0.95575000  0.49999000  1.0
  C  C32  1  0.50005000  0.04424000  0.49998000  1.0
  C  C33  1  0.50004000  0.14565000  0.49997000  1.0
  C  C34  1  0.64930000  0.19800000  0.52624000  1.0
  C  C35  1  0.64171000  0.29900000  0.52677000  1.0
  C  C36  1  0.35825000  0.29897000  0.47318000  1.0
  C  C37  1  0.35075000  0.19797000  0.47370000  1.0
  C  C38  1  0.64172000  0.47323000  0.29900000  1.0
  C  C39  1  0.64931000  0.47375000  0.19802000  1.0
  C  C40  1  0.50000000  0.49999000  0.14570000  1.0
  C  C41  1  0.35067000  0.52625000  0.19799000  1.0
  C  C42  1  0.35821000  0.52679000  0.29897000  1.0
  C  C43  1  0.50002000  0.49998000  0.04426000  1.0
  C  C44  1  0.50003000  0.49997000  0.95573000  1.0
  C  C45  1  0.50002000  0.49996000  0.85429000  1.0
  C  C46  1  0.64931000  0.52624000  0.80197000  1.0
  C  C47  1  0.64172000  0.52677000  0.70100000  1.0
  C  C48  1  0.35823000  0.47317000  0.70102000  1.0
  C  C49  1  0.35069000  0.47370000  0.80199000  1.0
  N  N50  1  0.49996000  0.65352000  0.50001000  1.0
  N  N51  1  0.49997000  0.34647000  0.49998000  1.0
  N  N52  1  0.49996000  0.50001000  0.34643000  1.0
  N  N53  1  0.49996000  0.49998000  0.65356000  1.0
  N  N54  1  0.19990000  0.84919000  0.54705000  1.0
  N  N55  1  0.80015000  0.84912000  0.45295000  1.0
  N  N56  1  0.19994000  0.15081000  0.45287000  1.0
  N  N57  1  0.80013000  0.15087000  0.54709000  1.0
  N  N58  1  0.19989000  0.54705000  0.15081000  1.0
  N  N59  1  0.80011000  0.45293000  0.15087000  1.0
  N  N60  1  0.19993000  0.45285000  0.84917000  1.0
  N  N61  1  0.80010000  0.54707000  0.84913000  1.0
  F  F62  1  0.77693000  0.50000000  0.50000000  1.0
  F  F63  1  0.22292000  0.49999000  0.49999000  1.0
  F  F64  1  0.99992000  0.58740000  0.58743000  1.0
  F  F65  1  0.99990000  0.41258000  0.41256000  1.0
  F  F66  1  0.99990000  0.58742000  0.41259000  1.0
  F  F67  1  0.99992000  0.41255000  0.58740000  1.0
