# generated using pymatgen
data_MnH19C28(NO3)2
_symmetry_space_group_name_H-M   'P 1'
_cell_length_a   9.33547000
_cell_length_b   11.01110000
_cell_length_c   11.39950000
_cell_angle_alpha   90.00100000
_cell_angle_beta   90.04180000
_cell_angle_gamma   107.39100000
_symmetry_Int_Tables_number   1
_chemical_formula_structural   MnH19C28(NO3)2
_chemical_formula_sum   'Mn2 H38 C56 N4 O12'
_cell_volume   1118.23146443
_cell_formula_units_Z   2
loop_
 _symmetry_equiv_pos_site_id
 _symmetry_equiv_pos_as_xyz
  1  'x, y, z'
loop_
 _atom_site_type_symbol
 _atom_site_label
 _atom_site_symmetry_multiplicity
 _atom_site_fract_x
 _atom_site_fract_y
 _atom_site_fract_z
 _atom_site_occupancy
  Mn  Mn0  1  0.49185000  0.00050000  0.00207000  1.0
  Mn  Mn1  1  0.49156000  0.50074000  0.49798000  1.0
  H  H2  1  0.74753000  0.38991000  0.89940000  1.0
  H  H3  1  0.25113000  0.10924000  0.39862000  1.0
  H  H4  1  0.25017000  0.60929000  0.10143000  1.0
  H  H5  1  0.74741000  0.89032000  0.60064000  1.0
  H  H6  1  0.90054000  0.56506000  0.02507000  1.0
  H  H7  1  0.10047000  0.93399000  0.52516000  1.0
  H  H8  1  0.09979000  0.43391000  0.97468000  1.0
  H  H9  1  0.90074000  0.06512000  0.47496000  1.0
  H  H10  1  0.89828000  0.54041000  0.24380000  1.0
  H  H11  1  0.10474000  0.95936000  0.74375000  1.0
  H  H12  1  0.10523000  0.45884000  0.75604000  1.0
  H  H13  1  0.89866000  0.04000000  0.25625000  1.0
  H  H14  1  0.74223000  0.34225000  0.33398000  1.0
  H  H15  1  0.26054000  0.15865000  0.83308000  1.0
  H  H16  1  0.26144000  0.65802000  0.66701000  1.0
  H  H17  1  0.74242000  0.84178000  0.16607000  1.0
  H  H18  1  0.54577000  0.14751000  0.32019000  1.0
  H  H19  1  0.46079000  0.35147000  0.81714000  1.0
  H  H20  1  0.46083000  0.85101000  0.68314000  1.0
  H  H21  1  0.54557000  0.64730000  0.17978000  1.0
  H  H22  1  0.52434000  0.93797000  0.37953000  1.0
  H  H23  1  0.47321000  0.56414000  0.87535000  1.0
  H  H24  1  0.47195000  0.06345000  0.62499000  1.0
  H  H25  1  0.52399000  0.43741000  0.12096000  1.0
  H  H26  1  0.33198000  0.77027000  0.48835000  1.0
  H  H27  1  0.66504000  0.72885000  0.98754000  1.0
  H  H28  1  0.66294000  0.22855000  0.51273000  1.0
  H  H29  1  0.33164000  0.26961000  0.01200000  1.0
  H  H30  1  0.07140000  0.68914000  0.41018000  1.0
  H  H31  1  0.92755000  0.80823000  0.91339000  1.0
  H  H32  1  0.92571000  0.30855000  0.58654000  1.0
  H  H33  1  0.07093000  0.18874000  0.08970000  1.0
  H  H34  1  0.00576000  0.77506000  0.22184000  1.0
  H  H35  1  0.99486000  0.72346000  0.72560000  1.0
  H  H36  1  0.99413000  0.22363000  0.77402000  1.0
  H  H37  1  0.00524000  0.27488000  0.27780000  1.0
  H  H38  1  0.99852000  0.00811000  0.98589000  1.0
  H  H39  1  0.99820000  0.50822000  0.51355000  1.0
  C  C40  1  0.65939000  0.26373000  0.04407000  1.0
  C  C41  1  0.33891000  0.23651000  0.54268000  1.0
  C  C42  1  0.33867000  0.73632000  0.95745000  1.0
  C  C43  1  0.65907000  0.76388000  0.45605000  1.0
  C  C44  1  0.74818000  0.37930000  0.99444000  1.0
  C  C45  1  0.25113000  0.12027000  0.49366000  1.0
  C  C46  1  0.25057000  0.62021000  0.00640000  1.0
  C  C47  1  0.74804000  0.87952000  0.50559000  1.0
  C  C48  1  0.83314000  0.47688000  0.06550000  1.0
  C  C49  1  0.16755000  0.02258000  0.56526000  1.0
  C  C50  1  0.16711000  0.52243000  0.93472000  1.0
  C  C51  1  0.83318000  0.97692000  0.43450000  1.0
  C  C52  1  0.83225000  0.46361000  0.18821000  1.0
  C  C53  1  0.16947000  0.03631000  0.68786000  1.0
  C  C54  1  0.16955000  0.53593000  0.81211000  1.0
  C  C55  1  0.83236000  0.96341000  0.31182000  1.0
  C  C56  1  0.74613000  0.35131000  0.23874000  1.0
  C  C57  1  0.25512000  0.14925000  0.73783000  1.0
  C  C58  1  0.25546000  0.64876000  0.76222000  1.0
  C  C59  1  0.74613000  0.85105000  0.26134000  1.0
  C  C60  1  0.66092000  0.24888000  0.16909000  1.0
  C  C61  1  0.33837000  0.25184000  0.66764000  1.0
  C  C62  1  0.33844000  0.75147000  0.83245000  1.0
  C  C63  1  0.66067000  0.74883000  0.33107000  1.0
  C  C64  1  0.56327000  0.14010000  0.22577000  1.0
  C  C65  1  0.43772000  0.36071000  0.72371000  1.0
  C  C66  1  0.43763000  0.86032000  0.77646000  1.0
  C  C67  1  0.56289000  0.64003000  0.27433000  1.0
  C  C68  1  0.37505000  0.94428000  0.23744000  1.0
  C  C69  1  0.62343000  0.55716000  0.73461000  1.0
  C  C70  1  0.62287000  0.05688000  0.76545000  1.0
  C  C71  1  0.37458000  0.44415000  0.26267000  1.0
  C  C72  1  0.41047000  0.90088000  0.34562000  1.0
  C  C73  1  0.58761000  0.60081000  0.84261000  1.0
  C  C74  1  0.58649000  0.10028000  0.65749000  1.0
  C  C75  1  0.41008000  0.40044000  0.15470000  1.0
  C  C76  1  0.30198000  0.80775000  0.40656000  1.0
  C  C77  1  0.69580000  0.69224000  0.90562000  1.0
  C  C78  1  0.69424000  0.19191000  0.59445000  1.0
  C  C79  1  0.30161000  0.30725000  0.09365000  1.0
  C  C80  1  0.15637000  0.76089000  0.36189000  1.0
  C  C81  1  0.84244000  0.73838000  0.86323000  1.0
  C  C82  1  0.84101000  0.23840000  0.63671000  1.0
  C  C83  1  0.15591000  0.26057000  0.13797000  1.0
  C  C84  1  0.11969000  0.80742000  0.25617000  1.0
  C  C85  1  0.88000000  0.69192000  0.75794000  1.0
  C  C86  1  0.87916000  0.19193000  0.74186000  1.0
  C  C87  1  0.11922000  0.30721000  0.24360000  1.0
  C  C88  1  0.22848000  0.89780000  0.19151000  1.0
  C  C89  1  0.77186000  0.60224000  0.69161000  1.0
  C  C90  1  0.77146000  0.10205000  0.80824000  1.0
  C  C91  1  0.22801000  0.39764000  0.30838000  1.0
  C  C92  1  0.18197000  0.94762000  0.08071000  1.0
  C  C93  1  0.82141000  0.55081000  0.58354000  1.0
  C  C94  1  0.82144000  0.05051000  0.91613000  1.0
  C  C95  1  0.18143000  0.44745000  0.41915000  1.0
  N  N96  1  0.48466000  0.03613000  0.17162000  1.0
  N  N97  1  0.51166000  0.46582000  0.66937000  1.0
  N  N98  1  0.51146000  0.96550000  0.83082000  1.0
  N  N99  1  0.48416000  0.53616000  0.32851000  1.0
  O  O100  1  0.57106000  0.17654000  0.97458000  1.0
  O  O101  1  0.42649000  0.32388000  0.47267000  1.0
  O  O102  1  0.42632000  0.82375000  0.02746000  1.0
  O  O103  1  0.57053000  0.67690000  0.52557000  1.0
  O  O104  1  0.27581000  0.99792000  0.99808000  1.0
  O  O105  1  0.73763000  0.50005000  0.49939000  1.0
  O  O106  1  0.73802000  0.99974000  0.00038000  1.0
  O  O107  1  0.27526000  0.49782000  0.50190000  1.0
  O  O108  1  0.04358000  0.93888000  0.07143000  1.0
  O  O109  1  0.96494000  0.56120000  0.58331000  1.0
  O  O110  1  0.96496000  0.06085000  0.91603000  1.0
  O  O111  1  0.04300000  0.43860000  0.42820000  1.0
