# generated using pymatgen
data_CdH23C28N5O9
_symmetry_space_group_name_H-M   'P 1'
_cell_length_a   9.72652000
_cell_length_b   10.32460000
_cell_length_c   14.55510000
_cell_angle_alpha   79.77270000
_cell_angle_beta   72.00660000
_cell_angle_gamma   82.23610000
_symmetry_Int_Tables_number   1
_chemical_formula_structural   CdH23C28N5O9
_chemical_formula_sum   'Cd2 H46 C56 N10 O18'
_cell_volume   1363.04658739
_cell_formula_units_Z   2
loop_
 _symmetry_equiv_pos_site_id
 _symmetry_equiv_pos_as_xyz
  1  'x, y, z'
loop_
 _atom_site_type_symbol
 _atom_site_label
 _atom_site_symmetry_multiplicity
 _atom_site_fract_x
 _atom_site_fract_y
 _atom_site_fract_z
 _atom_site_occupancy
  Cd  Cd0  1  0.94963000  0.75810000  0.52062000  1.0
  Cd  Cd1  1  0.05037000  0.24191000  0.47938000  1.0
  H  H2  1  0.84963000  0.49243000  0.59423000  1.0
  H  H3  1  0.15038000  0.50757000  0.40577000  1.0
  H  H4  1  0.72629000  0.60585000  0.63537000  1.0
  H  H5  1  0.27371000  0.39416000  0.36463000  1.0
  H  H6  1  0.30266000  0.69087000  0.47604000  1.0
  H  H7  1  0.69734000  0.30913000  0.52396000  1.0
  H  H8  1  0.38391000  0.51438000  0.90540000  1.0
  H  H9  1  0.61609000  0.48562000  0.09460000  1.0
  H  H10  1  0.48425000  0.59472000  0.56646000  1.0
  H  H11  1  0.51574000  0.40528000  0.43354000  1.0
  H  H12  1  0.41153000  0.84005000  0.22478000  1.0
  H  H13  1  0.58846000  0.15994000  0.77522000  1.0
  H  H14  1  0.95792000  0.61286000  0.72472000  1.0
  H  H15  1  0.04208000  0.38715000  0.27528000  1.0
  H  H16  1  0.12240000  0.51439000  0.82458000  1.0
  H  H17  1  0.87760000  0.48561000  0.17542000  1.0
  H  H18  1  0.38284000  0.38168000  0.79804000  1.0
  H  H19  1  0.61716000  0.61832000  0.20195000  1.0
  H  H20  1  0.53016000  0.45823000  0.71007000  1.0
  H  H21  1  0.46984000  0.54177000  0.28993000  1.0
  H  H22  1  0.73543000  0.79205000  0.80282000  1.0
  H  H23  1  0.26458000  0.20795000  0.19718000  1.0
  H  H24  1  0.75651000  0.91289000  0.93220000  1.0
  H  H25  1  0.24349000  0.08711000  0.06780000  1.0
  H  H26  1  0.35721000  0.62185000  0.00948000  1.0
  H  H27  1  0.64279000  0.37814000  0.99052000  1.0
  H  H28  1  0.38092000  0.73703000  0.13395000  1.0
  H  H29  1  0.61908000  0.26297000  0.86605000  1.0
  H  H30  1  0.37739000  0.01305000  0.31670000  1.0
  H  H31  1  0.62261000  0.98694000  0.68330000  1.0
  H  H32  1  0.52310000  0.09000000  0.22881000  1.0
  H  H33  1  0.47690000  0.90999000  0.77119000  1.0
  H  H34  1  0.75528000  0.03523000  0.48134000  1.0
  H  H35  1  0.24472000  0.96477000  0.51866000  1.0
  H  H36  1  0.58498000  0.12853000  0.38130000  1.0
  H  H37  1  0.41502000  0.87146000  0.61870000  1.0
  H  H38  1  0.61288000  0.74102000  0.30237000  1.0
  H  H39  1  0.38712000  0.25898000  0.69763000  1.0
  H  H40  1  0.78014000  0.66331000  0.40599000  1.0
  H  H41  1  0.21986000  0.33669000  0.59401000  1.0
  H  H42  1  0.97033000  0.16139000  0.24325000  1.0
  H  H43  1  0.02967000  0.83862000  0.75675000  1.0
  H  H44  1  0.88135000  0.11186000  0.10955000  1.0
  H  H45  1  0.11865000  0.88814000  0.89045000  1.0
  H  H46  1  0.93645000  0.88644000  0.06266000  1.0
  H  H47  1  0.06354000  0.11356000  0.93734000  1.0
  C  C48  1  0.26822000  0.65111000  0.55359000  1.0
  C  C49  1  0.73178000  0.34889000  0.44641000  1.0
  C  C50  1  0.36819000  0.59700000  0.60419000  1.0
  C  C51  1  0.63181000  0.40300000  0.39581000  1.0
  C  C52  1  0.31819000  0.54569000  0.70324000  1.0
  C  C53  1  0.68181000  0.45431000  0.29675000  1.0
  C  C54  1  0.07530000  0.60805000  0.69234000  1.0
  C  C55  1  0.92470000  0.39195000  0.30766000  1.0
  C  C56  1  0.16810000  0.55307000  0.74770000  1.0
  C  C57  1  0.83189000  0.44693000  0.25230000  1.0
  C  C58  1  0.42145000  0.47767000  0.75990000  1.0
  C  C59  1  0.57855000  0.52232000  0.24010000  1.0
  C  C60  1  0.53074000  0.63966000  0.81378000  1.0
  C  C61  1  0.46926000  0.36034000  0.18622000  1.0
  C  C62  1  0.54547000  0.69900000  0.89626000  1.0
  C  C63  1  0.45453000  0.30100000  0.10374000  1.0
  C  C64  1  0.65958000  0.77956000  0.87616000  1.0
  C  C65  1  0.34042000  0.22044000  0.12384000  1.0
  C  C66  1  0.67121000  0.84692000  0.94770000  1.0
  C  C67  1  0.32878000  0.15308000  0.05230000  1.0
  C  C68  1  0.57018000  0.83546000  0.04073000  1.0
  C  C69  1  0.42982000  0.16454000  0.95927000  1.0
  C  C70  1  0.44756000  0.68336000  0.99043000  1.0
  C  C71  1  0.55244000  0.31664000  0.00957000  1.0
  C  C72  1  0.45980000  0.75069000  0.06197000  1.0
  C  C73  1  0.54020000  0.24930000  0.93802000  1.0
  C  C74  1  0.58336000  0.92123000  0.11051000  1.0
  C  C75  1  0.41664000  0.07876000  0.88949000  1.0
  C  C76  1  0.48856000  0.99431000  0.26964000  1.0
  C  C77  1  0.51144000  0.00569000  0.73036000  1.0
  C  C78  1  0.71878000  0.97394000  0.44088000  1.0
  C  C79  1  0.28122000  0.02606000  0.55912000  1.0
  C  C80  1  0.62537000  0.02446000  0.38520000  1.0
  C  C81  1  0.37463000  0.97554000  0.61480000  1.0
  C  C82  1  0.58633000  0.94134000  0.33287000  1.0
  C  C83  1  0.41368000  0.05866000  0.66713000  1.0
  C  C84  1  0.64094000  0.80900000  0.34148000  1.0
  C  C85  1  0.35906000  0.19100000  0.65852000  1.0
  C  C86  1  0.73354000  0.76533000  0.39854000  1.0
  C  C87  1  0.26646000  0.23467000  0.60146000  1.0
  C  C88  1  0.10177000  0.00208000  0.35815000  1.0
  C  C89  1  0.89823000  0.99792000  0.64185000  1.0
  C  C90  1  0.06149000  0.96421000  0.27477000  1.0
  C  C91  1  0.93851000  0.03579000  0.72523000  1.0
  C  C92  1  0.08984000  0.83498000  0.25088000  1.0
  C  C93  1  0.91016000  0.16502000  0.74912000  1.0
  C  C94  1  0.15937000  0.72611000  0.31155000  1.0
  C  C95  1  0.84063000  0.27389000  0.68846000  1.0
  C  C96  1  0.98980000  0.06291000  0.22231000  1.0
  C  C97  1  0.01020000  0.93709000  0.77769000  1.0
  C  C98  1  0.94226000  0.03635000  0.14727000  1.0
  C  C99  1  0.05774000  0.96365000  0.85273000  1.0
  C  C100  1  0.97179000  0.91034000  0.12105000  1.0
  C  C101  1  0.02821000  0.08966000  0.87895000  1.0
  C  C102  1  0.04654000  0.81277000  0.17143000  1.0
  C  C103  1  0.95346000  0.18723000  0.82857000  1.0
  N  N104  1  0.12411000  0.65615000  0.59688000  1.0
  N  N105  1  0.87589000  0.34386000  0.40312000  1.0
  N  N106  1  0.43317000  0.54878000  0.83467000  1.0
  N  N107  1  0.56683000  0.45122000  0.16533000  1.0
  N  N108  1  0.48689000  0.90934000  0.20116000  1.0
  N  N109  1  0.51310000  0.09065000  0.79884000  1.0
  N  N110  1  0.77281000  0.84662000  0.44692000  1.0
  N  N111  1  0.22719000  0.15337000  0.55308000  1.0
  N  N112  1  0.07891000  0.68352000  0.13792000  1.0
  N  N113  1  0.92109000  0.31648000  0.86208000  1.0
  O  O114  1  0.80433000  0.58334000  0.57661000  1.0
  O  O115  1  0.19567000  0.41666000  0.42339000  1.0
  O  O116  1  0.07054000  0.65216000  0.37692000  1.0
  O  O117  1  0.92947000  0.34784000  0.62309000  1.0
  O  O118  1  0.11466000  0.91475000  0.42898000  1.0
  O  O119  1  0.88534000  0.08525000  0.57102000  1.0
  O  O120  1  0.29416000  0.71731000  0.29606000  1.0
  O  O121  1  0.70584000  0.28269000  0.70394000  1.0
  O  O122  1  0.16013000  0.59915000  0.17318000  1.0
  O  O123  1  0.83987000  0.40086000  0.82682000  1.0
  O  O124  1  0.02517000  0.66341000  0.07481000  1.0
  O  O125  1  0.97483000  0.33659000  0.92520000  1.0
  O  O126  1  0.12138000  0.12360000  0.35014000  1.0
  O  O127  1  0.87862000  0.87640000  0.64986000  1.0
  O  O128  1  0.60355000  0.67536000  0.72779000  1.0
  O  O129  1  0.39645000  0.32464000  0.27221000  1.0
  O  O130  1  0.67787000  0.00129000  0.08428000  1.0
  O  O131  1  0.32213000  0.99870000  0.91572000  1.0
