# generated using pymatgen
data_CeP2H10(C2O)6
_symmetry_space_group_name_H-M   'P 1'
_cell_length_a   5.54021000
_cell_length_b   5.54020000
_cell_length_c   14.79270000
_cell_angle_alpha   83.41870000
_cell_angle_beta   83.41900000
_cell_angle_gamma   62.32340000
_symmetry_Int_Tables_number   1
_chemical_formula_structural   CeP2H10(C2O)6
_chemical_formula_sum   'Ce1 P2 H10 C12 O6'
_cell_volume   398.47204292
_cell_formula_units_Z   1
loop_
 _symmetry_equiv_pos_site_id
 _symmetry_equiv_pos_as_xyz
  1  'x, y, z'
loop_
 _atom_site_type_symbol
 _atom_site_label
 _atom_site_symmetry_multiplicity
 _atom_site_fract_x
 _atom_site_fract_y
 _atom_site_fract_z
 _atom_site_occupancy
  Ce  Ce0  1  0.37951000  0.62049000  0.00000000  1.0
  P  P1  1  0.75471000  0.99417000  0.88328000  1.0
  P  P2  1  0.00583000  0.24528000  0.11672000  1.0
  H  H3  1  0.50536000  0.39092000  0.73150000  1.0
  H  H4  1  0.60908000  0.49464000  0.26850000  1.0
  H  H5  1  0.49656000  0.33608000  0.56759000  1.0
  H  H6  1  0.66393000  0.50344000  0.43241000  1.0
  H  H7  1  0.72139000  0.86950000  0.50956000  1.0
  H  H8  1  0.13050000  0.27861000  0.49044000  1.0
  H  H9  1  0.93465000  0.46069000  0.61773000  1.0
  H  H10  1  0.53931000  0.06535000  0.38227000  1.0
  H  H11  1  0.94439000  0.51551000  0.78057000  1.0
  H  H12  1  0.48449000  0.05561000  0.21943000  1.0
  C  C13  1  0.72943000  0.95801000  0.76592000  1.0
  C  C14  1  0.04198000  0.27057000  0.23408000  1.0
  C  C15  1  0.59975000  0.18789000  0.70595000  1.0
  C  C16  1  0.81212000  0.40024000  0.29405000  1.0
  C  C17  1  0.59562000  0.15579000  0.61395000  1.0
  C  C18  1  0.84421000  0.40439000  0.38605000  1.0
  C  C19  1  0.71955000  0.89497000  0.58164000  1.0
  C  C20  1  0.10503000  0.28045000  0.41836000  1.0
  C  C21  1  0.84283000  0.66521000  0.64194000  1.0
  C  C22  1  0.33479000  0.15718000  0.35806000  1.0
  C  C23  1  0.84842000  0.69549000  0.73379000  1.0
  C  C24  1  0.30451000  0.15159000  0.26622000  1.0
  O  O25  1  0.61294000  0.84565000  0.94444000  1.0
  O  O26  1  0.15435000  0.38706000  0.05555000  1.0
  O  O27  1  0.06189000  0.85855000  0.89938000  1.0
  O  O28  1  0.14145000  0.93811000  0.10062000  1.0
  O  O29  1  0.61683000  0.30131000  0.89827000  1.0
  O  O30  1  0.69869000  0.38317000  0.10172000  1.0
