# generated using pymatgen
data_MnH10C12(SN2)2
_symmetry_space_group_name_H-M   'P 1'
_cell_length_a   8.43511000
_cell_length_b   8.66087000
_cell_length_c   15.70350000
_cell_angle_alpha   96.41820000
_cell_angle_beta   93.45470000
_cell_angle_gamma   114.06200000
_symmetry_Int_Tables_number   1
_chemical_formula_structural   MnH10C12(SN2)2
_chemical_formula_sum   'Mn3 H30 C36 S6 N12'
_cell_volume   1033.86610975
_cell_formula_units_Z   3
loop_
 _symmetry_equiv_pos_site_id
 _symmetry_equiv_pos_as_xyz
  1  'x, y, z'
loop_
 _atom_site_type_symbol
 _atom_site_label
 _atom_site_symmetry_multiplicity
 _atom_site_fract_x
 _atom_site_fract_y
 _atom_site_fract_z
 _atom_site_occupancy
  Mn  Mn0  1  0.50000000  0.50000000  0.50000000  1.0
  Mn  Mn1  1  0.17584000  0.16879000  0.16450000  1.0
  Mn  Mn2  1  0.82416000  0.83120000  0.83550000  1.0
  H  H3  1  0.11681000  0.29444000  0.98967000  1.0
  H  H4  1  0.88319000  0.70555000  0.01033000  1.0
  H  H5  1  0.22178000  0.55776000  0.91814000  1.0
  H  H6  1  0.77822000  0.44224000  0.08185000  1.0
  H  H7  1  0.46036000  0.82658000  0.99792000  1.0
  H  H8  1  0.53964000  0.17342000  0.00208000  1.0
  H  H9  1  0.58618000  0.82229000  0.14639000  1.0
  H  H10  1  0.41381000  0.17771000  0.85361000  1.0
  H  H11  1  0.46506000  0.54825000  0.20893000  1.0
  H  H12  1  0.53493000  0.45175000  0.79107000  1.0
  H  H13  1  0.91873000  0.99043000  0.29974000  1.0
  H  H14  1  0.08127000  0.00957000  0.70026000  1.0
  H  H15  1  0.79696000  0.71407000  0.36038000  1.0
  H  H16  1  0.20304000  0.28594000  0.63963000  1.0
  H  H17  1  0.89010000  0.48335000  0.30814000  1.0
  H  H18  1  0.10990000  0.51666000  0.69187000  1.0
  H  H19  1  0.10207000  0.53789000  0.19799000  1.0
  H  H20  1  0.89792000  0.46211000  0.80201000  1.0
  H  H21  1  0.21361000  0.82243000  0.14503000  1.0
  H  H22  1  0.78639000  0.17757000  0.85497000  1.0
  H  H23  1  0.75421000  0.88138000  0.57806000  1.0
  H  H24  1  0.24579000  0.11862000  0.42194000  1.0
  H  H25  1  0.86511000  0.17802000  0.53943000  1.0
  H  H26  1  0.13489000  0.82198000  0.46057000  1.0
  H  H27  1  0.74846000  0.22049000  0.39788000  1.0
  H  H28  1  0.25154000  0.77951000  0.60212000  1.0
  H  H29  1  0.52423000  0.96512000  0.30001000  1.0
  H  H30  1  0.47576000  0.03488000  0.69999000  1.0
  H  H31  1  0.42830000  0.67664000  0.34818000  1.0
  H  H32  1  0.57170000  0.32336000  0.65182000  1.0
  C  C33  1  0.15401000  0.35857000  0.35145000  1.0
  C  C34  1  0.84600000  0.64143000  0.64855000  1.0
  C  C35  1  0.52413000  0.32945000  0.30931000  1.0
  C  C36  1  0.47588000  0.67055000  0.69070000  1.0
  C  C37  1  0.82310000  0.03609000  0.02170000  1.0
  C  C38  1  0.17691000  0.96392000  0.97831000  1.0
  C  C39  1  0.21976000  0.41446000  0.02242000  1.0
  C  C40  1  0.78024000  0.58554000  0.97758000  1.0
  C  C41  1  0.27878000  0.56064000  0.98274000  1.0
  C  C42  1  0.72123000  0.43936000  0.01726000  1.0
  C  C43  1  0.41153000  0.71033000  0.02740000  1.0
  C  C44  1  0.58848000  0.28966000  0.97260000  1.0
  C  C45  1  0.48102000  0.70809000  0.10998000  1.0
  C  C46  1  0.51898000  0.29191000  0.89002000  1.0
  C  C47  1  0.41419000  0.55637000  0.14484000  1.0
  C  C48  1  0.58581000  0.44362000  0.85516000  1.0
  C  C49  1  0.95641000  0.88688000  0.27930000  1.0
  C  C50  1  0.04359000  0.11312000  0.72070000  1.0
  C  C51  1  0.88897000  0.73345000  0.31273000  1.0
  C  C52  1  0.11103000  0.26655000  0.68728000  1.0
  C  C53  1  0.94087000  0.60506000  0.28361000  1.0
  C  C54  1  0.05913000  0.39494000  0.71640000  1.0
  C  C55  1  0.05896000  0.63524000  0.22237000  1.0
  C  C56  1  0.94104000  0.36476000  0.77764000  1.0
  C  C57  1  0.12105000  0.79279000  0.19283000  1.0
  C  C58  1  0.87895000  0.20721000  0.80717000  1.0
  C  C59  1  0.70729000  0.90557000  0.51690000  1.0
  C  C60  1  0.29271000  0.09443000  0.48310000  1.0
  C  C61  1  0.76845000  0.06999000  0.49530000  1.0
  C  C62  1  0.23155000  0.93001000  0.50470000  1.0
  C  C63  1  0.70338000  0.09317000  0.41629000  1.0
  C  C64  1  0.29662000  0.90683000  0.58371000  1.0
  C  C65  1  0.57908000  0.95116000  0.36183000  1.0
  C  C66  1  0.42092000  0.04884000  0.63817000  1.0
  C  C67  1  0.52530000  0.79135000  0.38843000  1.0
  C  C68  1  0.47470000  0.20866000  0.61157000  1.0
  S  S69  1  0.16620000  0.44209000  0.45072000  1.0
  S  S70  1  0.83380000  0.55790000  0.54927000  1.0
  S  S71  1  0.50494000  0.22191000  0.21487000  1.0
  S  S72  1  0.49507000  0.77809000  0.78513000  1.0
  S  S73  1  0.84971000  0.13074000  0.12006000  1.0
  S  S74  1  0.15029000  0.86926000  0.87994000  1.0
  N  N75  1  0.14600000  0.29861000  0.27868000  1.0
  N  N76  1  0.85401000  0.70139000  0.72131000  1.0
  N  N77  1  0.54118000  0.41044000  0.37808000  1.0
  N  N78  1  0.45882000  0.58955000  0.62192000  1.0
  N  N79  1  0.80329000  0.96816000  0.94948000  1.0
  N  N80  1  0.19672000  0.03183000  0.05051000  1.0
  N  N81  1  0.28516000  0.41177000  0.10236000  1.0
  N  N82  1  0.71484000  0.58823000  0.89764000  1.0
  N  N83  1  0.07090000  0.91702000  0.22042000  1.0
  N  N84  1  0.92910000  0.08298000  0.77958000  1.0
  N  N85  1  0.58825000  0.76798000  0.46445000  1.0
  N  N86  1  0.41175000  0.23202000  0.53556000  1.0
