# generated using pymatgen
data_CoH7C7NO6
_symmetry_space_group_name_H-M   'P 1'
_cell_length_a   7.39069000
_cell_length_b   7.74429000
_cell_length_c   7.74427000
_cell_angle_alpha   100.90900000
_cell_angle_beta   100.12600000
_cell_angle_gamma   100.12600000
_symmetry_Int_Tables_number   1
_chemical_formula_structural   CoH7C7NO6
_chemical_formula_sum   'Co2 H14 C14 N2 O12'
_cell_volume   418.31562913
_cell_formula_units_Z   2
loop_
 _symmetry_equiv_pos_site_id
 _symmetry_equiv_pos_as_xyz
  1  'x, y, z'
loop_
 _atom_site_type_symbol
 _atom_site_label
 _atom_site_symmetry_multiplicity
 _atom_site_fract_x
 _atom_site_fract_y
 _atom_site_fract_z
 _atom_site_occupancy
  Co  Co0  1  0.75000000  0.33465000  0.66535000  1.0
  Co  Co1  1  0.25000000  0.66535000  0.33466000  1.0
  H  H2  1  0.78206000  0.94549000  0.65129000  1.0
  H  H3  1  0.71794000  0.34871000  0.05450000  1.0
  H  H4  1  0.21795000  0.05451000  0.34872000  1.0
  H  H5  1  0.28205000  0.65129000  0.94549000  1.0
  H  H6  1  0.74999000  0.82972000  0.17028000  1.0
  H  H7  1  0.25000000  0.17028000  0.82972000  1.0
  H  H8  1  0.39257000  0.32741000  0.53393000  1.0
  H  H9  1  0.10743000  0.46607000  0.67259000  1.0
  H  H10  1  0.60743000  0.67260000  0.46608000  1.0
  H  H11  1  0.89256000  0.53392000  0.32741000  1.0
  H  H12  1  0.40674000  0.15473000  0.61468000  1.0
  H  H13  1  0.09326000  0.38532000  0.84527000  1.0
  H  H14  1  0.59326000  0.84528000  0.38533000  1.0
  H  H15  1  0.90674000  0.61467000  0.15473000  1.0
  C  C16  1  0.76497000  0.98439000  0.78878000  1.0
  C  C17  1  0.73503000  0.21122000  0.01561000  1.0
  C  C18  1  0.23503000  0.01561000  0.21122000  1.0
  C  C19  1  0.26497000  0.78878000  0.98439000  1.0
  C  C20  1  0.76003000  0.86136000  0.89959000  1.0
  C  C21  1  0.73997000  0.10041000  0.13863000  1.0
  C  C22  1  0.23998000  0.13863000  0.10041000  1.0
  C  C23  1  0.26002000  0.89959000  0.86137000  1.0
  C  C24  1  0.75000000  0.92102000  0.07897000  1.0
  C  C25  1  0.25000000  0.07898000  0.92102000  1.0
  C  C26  1  0.76359000  0.67032000  0.82351000  1.0
  C  C27  1  0.73640000  0.17649000  0.32967000  1.0
  C  C28  1  0.23642000  0.32967000  0.17649000  1.0
  C  C29  1  0.26359000  0.82351000  0.67032000  1.0
  N  N30  1  0.75000000  0.15570000  0.84430000  1.0
  N  N31  1  0.25000000  0.84430000  0.15570000  1.0
  O  O32  1  0.72001000  0.60902000  0.65333000  1.0
  O  O33  1  0.77999000  0.34667000  0.39098000  1.0
  O  O34  1  0.28002000  0.39099000  0.34668000  1.0
  O  O35  1  0.22000000  0.65332000  0.60902000  1.0
  O  O36  1  0.80883000  0.56790000  0.92683000  1.0
  O  O37  1  0.69117000  0.07318000  0.43210000  1.0
  O  O38  1  0.19118000  0.43210000  0.07318000  1.0
  O  O39  1  0.30881000  0.92681000  0.56789000  1.0
  O  O40  1  0.45809000  0.28658000  0.63723000  1.0
  O  O41  1  0.04191000  0.36277000  0.71342000  1.0
  O  O42  1  0.54191000  0.71343000  0.36277000  1.0
  O  O43  1  0.95809000  0.63723000  0.28658000  1.0
