# generated using pymatgen
data_Cu3H17C30N3O13
_symmetry_space_group_name_H-M   'P 1'
_cell_length_a   10.14450000
_cell_length_b   10.86270000
_cell_length_c   13.72640000
_cell_angle_alpha   91.30000000
_cell_angle_beta   90.46600000
_cell_angle_gamma   112.30700000
_symmetry_Int_Tables_number   1
_chemical_formula_structural   Cu3H17C30N3O13
_chemical_formula_sum   'Cu6 H34 C60 N6 O26'
_cell_volume   1398.81578861
_cell_formula_units_Z   2
loop_
 _symmetry_equiv_pos_site_id
 _symmetry_equiv_pos_as_xyz
  1  'x, y, z'
loop_
 _atom_site_type_symbol
 _atom_site_label
 _atom_site_symmetry_multiplicity
 _atom_site_fract_x
 _atom_site_fract_y
 _atom_site_fract_z
 _atom_site_occupancy
  Cu  Cu0  1  0.85004000  0.44326000  0.50665000  1.0
  Cu  Cu1  1  0.14999000  0.55679000  0.49338000  1.0
  Cu  Cu2  1  0.87148000  0.11950000  0.18844000  1.0
  Cu  Cu3  1  0.12745000  0.88027000  0.81131000  1.0
  Cu  Cu4  1  0.18419000  0.23883000  0.15338000  1.0
  Cu  Cu5  1  0.81582000  0.76118000  0.84681000  1.0
  H  H6  1  0.39500000  0.25443000  0.26577000  1.0
  H  H7  1  0.60605000  0.74584000  0.73378000  1.0
  H  H8  1  0.44119000  0.20009000  0.16915000  1.0
  H  H9  1  0.55993000  0.79934000  0.83099000  1.0
  H  H10  1  0.62568000  0.53062000  0.56704000  1.0
  H  H11  1  0.37424000  0.46948000  0.43309000  1.0
  H  H12  1  0.45252000  0.48557000  0.70208000  1.0
  H  H13  1  0.54748000  0.51458000  0.29805000  1.0
  H  H14  1  0.63393000  0.21311000  0.81388000  1.0
  H  H15  1  0.36594000  0.78676000  0.18608000  1.0
  H  H16  1  0.79019000  0.26155000  0.66913000  1.0
  H  H17  1  0.20957000  0.73840000  0.33080000  1.0
  H  H18  1  0.41492000  0.51254000  0.86061000  1.0
  H  H19  1  0.58480000  0.48740000  0.13959000  1.0
  H  H20  1  0.26420000  0.45899000  0.00934000  1.0
  H  H21  1  0.73555000  0.54078000  0.99081000  1.0
  H  H22  1  0.27881000  0.08406000  0.02248000  1.0
  H  H23  1  0.72110000  0.91586000  0.97757000  1.0
  H  H24  1  0.42863000  0.11909000  0.87815000  1.0
  H  H25  1  0.57114000  0.88076000  0.12190000  1.0
  H  H26  1  0.87346000  0.74628000  0.28409000  1.0
  H  H27  1  0.12659000  0.25404000  0.71610000  1.0
  H  H28  1  0.14316000  0.59399000  0.04328000  1.0
  H  H29  1  0.85673000  0.40608000  0.95689000  1.0
  H  H30  1  0.69047000  0.24154000  0.28148000  1.0
  H  H31  1  0.30918000  0.75819000  0.71852000  1.0
  H  H32  1  0.52178000  0.19609000  0.41557000  1.0
  H  H33  1  0.47827000  0.80344000  0.58456000  1.0
  H  H34  1  0.61092000  0.84375000  0.47206000  1.0
  H  H35  1  0.38960000  0.15589000  0.52769000  1.0
  H  H36  1  0.77381000  0.90343000  0.33256000  1.0
  H  H37  1  0.22647000  0.09658000  0.66704000  1.0
  H  H38  1  0.15225000  0.93100000  0.38908000  1.0
  H  H39  1  0.84774000  0.06902000  0.61068000  1.0
  C  C40  1  0.62100000  0.45885000  0.62239000  1.0
  C  C41  1  0.37893000  0.54125000  0.37773000  1.0
  C  C42  1  0.52739000  0.43545000  0.69932000  1.0
  C  C43  1  0.47257000  0.56467000  0.30081000  1.0
  C  C44  1  0.52936000  0.34577000  0.77076000  1.0
  C  C45  1  0.47052000  0.65422000  0.22931000  1.0
  C  C46  1  0.62465000  0.28094000  0.75946000  1.0
  C  C47  1  0.37522000  0.71904000  0.24057000  1.0
  C  C48  1  0.71374000  0.30848000  0.68013000  1.0
  C  C49  1  0.28607000  0.69150000  0.31988000  1.0
  C  C50  1  0.43602000  0.32019000  0.85590000  1.0
  C  C51  1  0.56378000  0.67973000  0.14414000  1.0
  C  C52  1  0.38578000  0.41543000  0.89345000  1.0
  C  C53  1  0.61402000  0.58447000  0.10667000  1.0
  C  C54  1  0.30238000  0.38703000  0.97617000  1.0
  C  C55  1  0.69741000  0.61280000  0.02396000  1.0
  C  C56  1  0.31167000  0.17749000  0.98475000  1.0
  C  C57  1  0.68813000  0.82239000  0.01530000  1.0
  C  C58  1  0.39625000  0.19894000  0.90338000  1.0
  C  C59  1  0.60352000  0.80094000  0.09664000  1.0
  C  C60  1  0.92952000  0.58331000  0.23547000  1.0
  C  C61  1  0.07002000  0.41668000  0.76453000  1.0
  C  C62  1  0.93229000  0.71252000  0.23086000  1.0
  C  C63  1  0.06743000  0.28759000  0.76919000  1.0
  C  C64  1  0.01169000  0.80043000  0.16087000  1.0
  C  C65  1  0.98815000  0.19968000  0.83923000  1.0
  C  C66  1  0.08596000  0.75607000  0.09132000  1.0
  C  C67  1  0.91384000  0.24396000  0.90881000  1.0
  C  C68  1  0.08390000  0.62719000  0.09654000  1.0
  C  C69  1  0.91592000  0.37284000  0.90363000  1.0
  C  C70  1  0.00819000  0.54080000  0.16837000  1.0
  C  C71  1  0.99137000  0.45916000  0.83168000  1.0
  C  C72  1  0.85477000  0.50278000  0.32008000  1.0
  C  C73  1  0.14507000  0.49731000  0.68003000  1.0
  C  C74  1  0.01780000  0.94074000  0.16467000  1.0
  C  C75  1  0.98210000  0.05944000  0.83533000  1.0
  C  C76  1  0.15941000  0.83411000  0.00464000  1.0
  C  C77  1  0.84067000  0.16609000  0.99563000  1.0
  C  C78  1  0.01402000  0.40514000  0.17200000  1.0
  C  C79  1  0.98562000  0.59480000  0.82788000  1.0
  C  C80  1  0.66844000  0.15344000  0.32477000  1.0
  C  C81  1  0.33154000  0.84635000  0.67523000  1.0
  C  C82  1  0.57428000  0.12711000  0.40154000  1.0
  C  C83  1  0.42578000  0.87244000  0.59851000  1.0
  C  C84  1  0.54882000  0.01441000  0.45808000  1.0
  C  C85  1  0.45139000  0.98509000  0.54193000  1.0
  C  C86  1  0.62158000  0.93175000  0.43137000  1.0
  C  C87  1  0.37873000  0.06790000  0.56846000  1.0
  C  C88  1  0.71470000  0.96466000  0.35393000  1.0
  C  C89  1  0.28556000  0.03522000  0.64587000  1.0
  C  C90  1  0.99795000  0.73267000  0.50279000  1.0
  C  C91  1  0.00222000  0.26745000  0.49713000  1.0
  C  C92  1  0.99765000  0.87036000  0.50257000  1.0
  C  C93  1  0.00255000  0.12980000  0.49733000  1.0
  C  C94  1  0.08507000  0.96166000  0.43746000  1.0
  C  C95  1  0.91510000  0.03850000  0.56241000  1.0
  C  C96  1  0.91187000  0.90914000  0.56596000  1.0
  C  C97  1  0.08841000  0.09110000  0.43392000  1.0
  C  C98  1  0.81822000  0.82023000  0.64105000  1.0
  C  C99  1  0.18208000  0.18009000  0.35874000  1.0
  N  N100  1  0.71298000  0.39673000  0.61301000  1.0
  N  N101  1  0.28684000  0.60326000  0.38700000  1.0
  N  N102  1  0.26634000  0.27022000  0.02128000  1.0
  N  N103  1  0.73339000  0.72959000  0.97884000  1.0
  N  N104  1  0.73915000  0.07418000  0.30120000  1.0
  N  N105  1  0.26101000  0.92579000  0.69873000  1.0
  O  O106  1  0.93985000  0.47532000  0.37946000  1.0
  O  O107  1  0.06027000  0.52497000  0.62054000  1.0
  O  O108  1  0.72585000  0.47529000  0.33458000  1.0
  O  O109  1  0.27404000  0.52471000  0.66578000  1.0
  O  O110  1  0.42073000  0.27481000  0.19545000  1.0
  O  O111  1  0.58090000  0.72513000  0.80423000  1.0
  O  O112  1  0.90352000  0.95270000  0.19375000  1.0
  O  O113  1  0.09618000  0.04729000  0.80604000  1.0
  O  O114  1  0.13432000  0.03261000  0.14276000  1.0
  O  O115  1  0.86559000  0.96740000  0.85712000  1.0
  O  O116  1  0.07118000  0.86116000  0.94763000  1.0
  O  O117  1  0.92923000  0.13926000  0.05253000  1.0
  O  O118  1  0.28731000  0.85801000  0.98952000  1.0
  O  O119  1  0.71289000  0.14228000  0.01112000  1.0
  O  O120  1  0.13379000  0.39979000  0.15091000  1.0
  O  O121  1  0.86597000  0.60058000  0.84883000  1.0
  O  O122  1  0.89871000  0.31020000  0.19383000  1.0
  O  O123  1  0.10076000  0.68972000  0.80585000  1.0
  O  O124  1  0.87930000  0.63794000  0.51689000  1.0
  O  O125  1  0.12089000  0.36218000  0.48308000  1.0
  O  O126  1  0.11869000  0.72559000  0.48644000  1.0
  O  O127  1  0.88151000  0.27455000  0.51352000  1.0
  O  O128  1  0.88461000  0.79226000  0.71208000  1.0
  O  O129  1  0.11550000  0.20801000  0.28778000  1.0
  O  O130  1  0.68584000  0.78822000  0.63207000  1.0
  O  O131  1  0.31450000  0.21229000  0.36779000  1.0
