# generated using pymatgen
data_Cu3H6C10(N4O)4
_symmetry_space_group_name_H-M   'P 1'
_cell_length_a   7.48985000
_cell_length_b   8.31646000
_cell_length_c   14.80790000
_cell_angle_alpha   90.00170000
_cell_angle_beta   90.00360000
_cell_angle_gamma   106.25100000
_symmetry_Int_Tables_number   1
_chemical_formula_structural   Cu3H6C10(N4O)4
_chemical_formula_sum   'Cu6 H12 C20 N32 O8'
_cell_volume   885.51652742
_cell_formula_units_Z   2
loop_
 _symmetry_equiv_pos_site_id
 _symmetry_equiv_pos_as_xyz
  1  'x, y, z'
loop_
 _atom_site_type_symbol
 _atom_site_label
 _atom_site_symmetry_multiplicity
 _atom_site_fract_x
 _atom_site_fract_y
 _atom_site_fract_z
 _atom_site_occupancy
  Cu  Cu0  1  0.06740000  0.70545000  0.01450000  1.0
  Cu  Cu1  1  0.43272000  0.79470000  0.51446000  1.0
  Cu  Cu2  1  0.93266000  0.29466000  0.98554000  1.0
  Cu  Cu3  1  0.56739000  0.20548000  0.48543000  1.0
  Cu  Cu4  1  0.50005000  0.00005000  0.00001000  1.0
  Cu  Cu5  1  0.00013000  0.50007000  0.50002000  1.0
  H  H6  1  0.44929000  0.86320000  0.19446000  1.0
  H  H7  1  0.05046000  0.63652000  0.69456000  1.0
  H  H8  1  0.55078000  0.13685000  0.80556000  1.0
  H  H9  1  0.94954000  0.36376000  0.30553000  1.0
  H  H10  1  0.62198000  0.69703000  0.28574000  1.0
  H  H11  1  0.87768000  0.80260000  0.78586000  1.0
  H  H12  1  0.37804000  0.30300000  0.71426000  1.0
  H  H13  1  0.12205000  0.19753000  0.21417000  1.0
  H  H14  1  0.89108000  0.61981000  0.20838000  1.0
  H  H15  1  0.60897000  0.88028000  0.70836000  1.0
  H  H16  1  0.10902000  0.38027000  0.79164000  1.0
  H  H17  1  0.39091000  0.11990000  0.29152000  1.0
  C  C18  1  0.82212000  0.88296000  0.95095000  1.0
  C  C19  1  0.67783000  0.61701000  0.45095000  1.0
  C  C20  1  0.17795000  0.11711000  0.04907000  1.0
  C  C21  1  0.32221000  0.38290000  0.54908000  1.0
  C  C22  1  0.75859000  0.82611000  0.04525000  1.0
  C  C23  1  0.74149000  0.67394000  0.54525000  1.0
  C  C24  1  0.24153000  0.17400000  0.95478000  1.0
  C  C25  1  0.25862000  0.32613000  0.45473000  1.0
  C  C26  1  0.56811000  0.82758000  0.16722000  1.0
  C  C27  1  0.93173000  0.67222000  0.66728000  1.0
  C  C28  1  0.43197000  0.17249000  0.83280000  1.0
  C  C29  1  0.06827000  0.32799000  0.33275000  1.0
  C  C30  1  0.66331000  0.73578000  0.21686000  1.0
  C  C31  1  0.83650000  0.76401000  0.71692000  1.0
  C  C32  1  0.33678000  0.26430000  0.78316000  1.0
  C  C33  1  0.16337000  0.23615000  0.28308000  1.0
  C  C34  1  0.80922000  0.69175000  0.17490000  1.0
  C  C35  1  0.69077000  0.80826000  0.67490000  1.0
  C  C36  1  0.19087000  0.30834000  0.82513000  1.0
  C  C37  1  0.30914000  0.19187000  0.32503000  1.0
  N  N38  1  0.31209000  0.76848000  0.95405000  1.0
  N  N39  1  0.18784000  0.73185000  0.45410000  1.0
  N  N40  1  0.68797000  0.23162000  0.04602000  1.0
  N  N41  1  0.81219000  0.26830000  0.54583000  1.0
  N  N42  1  0.31026000  0.74819000  0.87259000  1.0
  N  N43  1  0.18978000  0.75166000  0.37261000  1.0
  N  N44  1  0.68980000  0.25170000  0.12749000  1.0
  N  N45  1  0.81049000  0.24807000  0.62729000  1.0
  N  N46  1  0.31238000  0.72927000  0.79502000  1.0
  N  N47  1  0.18774000  0.77016000  0.29500000  1.0
  N  N48  1  0.68765000  0.27038000  0.20507000  1.0
  N  N49  1  0.81273000  0.22920000  0.70486000  1.0
  N  N50  1  0.11144000  0.53242000  0.09355000  1.0
  N  N51  1  0.38854000  0.96730000  0.59388000  1.0
  N  N52  1  0.88832000  0.46733000  0.90630000  1.0
  N  N53  1  0.61078000  0.03202000  0.40648000  1.0
  N  N54  1  0.25881000  0.49909000  0.09564000  1.0
  N  N55  1  0.24132000  0.00085000  0.59592000  1.0
  N  N56  1  0.74107000  0.50087000  0.90438000  1.0
  N  N57  1  0.75824000  0.99892000  0.40399000  1.0
  N  N58  1  0.39484000  0.45757000  0.09975000  1.0
  N  N59  1  0.10531000  0.04248000  0.59994000  1.0
  N  N60  1  0.60511000  0.54256000  0.90041000  1.0
  N  N61  1  0.89435000  0.95754000  0.39953000  1.0
  N  N62  1  0.85567000  0.73787000  0.08914000  1.0
  N  N63  1  0.64442000  0.76221000  0.58912000  1.0
  N  N64  1  0.14441000  0.26221000  0.91089000  1.0
  N  N65  1  0.35563000  0.23787000  0.41082000  1.0
  N  N66  1  0.61702000  0.87184000  0.08134000  1.0
  N  N67  1  0.88298000  0.62809000  0.58137000  1.0
  N  N68  1  0.38308000  0.12825000  0.91868000  1.0
  N  N69  1  0.11712000  0.37204000  0.41865000  1.0
  O  O70  1  0.73492000  0.96410000  0.90609000  1.0
  O  O71  1  0.76492000  0.53576000  0.40612000  1.0
  O  O72  1  0.26519000  0.03601000  0.09395000  1.0
  O  O73  1  0.23501000  0.46398000  0.59397000  1.0
  O  O74  1  0.97081000  0.84776000  0.92554000  1.0
  O  O75  1  0.52908000  0.65218000  0.42556000  1.0
  O  O76  1  0.02925000  0.15228000  0.07448000  1.0
  O  O77  1  0.47095000  0.34769000  0.57444000  1.0
