# generated using pymatgen
data_CdH12C10S2(NO4)2
_symmetry_space_group_name_H-M   'P 1'
_cell_length_a   7.15524000
_cell_length_b   7.84298000
_cell_length_c   13.13920000
_cell_angle_alpha   90.00030000
_cell_angle_beta   90.00010000
_cell_angle_gamma   82.88680000
_symmetry_Int_Tables_number   1
_chemical_formula_structural   CdH12C10S2(NO4)2
_chemical_formula_sum   'Cd2 H24 C20 S4 N4 O16'
_cell_volume   731.67586784
_cell_formula_units_Z   2
loop_
 _symmetry_equiv_pos_site_id
 _symmetry_equiv_pos_as_xyz
  1  'x, y, z'
loop_
 _atom_site_type_symbol
 _atom_site_label
 _atom_site_symmetry_multiplicity
 _atom_site_fract_x
 _atom_site_fract_y
 _atom_site_fract_z
 _atom_site_occupancy
  Cd  Cd0  1  0.50000000  0.00000000  0.50000000  1.0
  Cd  Cd1  1  0.00000000  0.00000000  0.00000000  1.0
  H  H2  1  0.32475000  0.39558000  0.48614000  1.0
  H  H3  1  0.17525000  0.60442000  0.98614000  1.0
  H  H4  1  0.67525000  0.60442000  0.51386000  1.0
  H  H5  1  0.82475000  0.39558000  0.01386000  1.0
  H  H6  1  0.25620000  0.55766000  0.17304000  1.0
  H  H7  1  0.24380000  0.44234000  0.67304000  1.0
  H  H8  1  0.74380000  0.44234000  0.82695000  1.0
  H  H9  1  0.75620000  0.55766000  0.32696000  1.0
  H  H10  1  0.36178000  0.25026000  0.12158000  1.0
  H  H11  1  0.13823000  0.74973000  0.62158000  1.0
  H  H12  1  0.63822000  0.74974000  0.87842000  1.0
  H  H13  1  0.86178000  0.25026000  0.37842000  1.0
  H  H14  1  0.44471000  0.03287000  0.25769000  1.0
  H  H15  1  0.05529000  0.96713000  0.75768000  1.0
  H  H16  1  0.55529000  0.96713000  0.74231000  1.0
  H  H17  1  0.94471000  0.03287000  0.24232000  1.0
  H  H18  1  0.12715000  0.15147000  0.57483000  1.0
  H  H19  1  0.37286000  0.84853000  0.07483000  1.0
  H  H20  1  0.87286000  0.84853000  0.42518000  1.0
  H  H21  1  0.62715000  0.15147000  0.92517000  1.0
  H  H22  1  0.26835000  0.12156000  0.66739000  1.0
  H  H23  1  0.23165000  0.87844000  0.16739000  1.0
  H  H24  1  0.73165000  0.87844000  0.33261000  1.0
  H  H25  1  0.76835000  0.12156000  0.83261000  1.0
  C  C26  1  0.33033000  0.36832000  0.40486000  1.0
  C  C27  1  0.16966000  0.63168000  0.90485000  1.0
  C  C28  1  0.66967000  0.63168000  0.59514000  1.0
  C  C29  1  0.83033000  0.36832000  0.09515000  1.0
  C  C30  1  0.28271000  0.49727000  0.33297000  1.0
  C  C31  1  0.21728000  0.50273000  0.83297000  1.0
  C  C32  1  0.71729000  0.50274000  0.66703000  1.0
  C  C33  1  0.78272000  0.49727000  0.16703000  1.0
  C  C34  1  0.29312000  0.45748000  0.22951000  1.0
  C  C35  1  0.20688000  0.54251000  0.72951000  1.0
  C  C36  1  0.70688000  0.54251000  0.77049000  1.0
  C  C37  1  0.79312000  0.45749000  0.27049000  1.0
  C  C38  1  0.35110000  0.28804000  0.20130000  1.0
  C  C39  1  0.14890000  0.71196000  0.70130000  1.0
  C  C40  1  0.64890000  0.71196000  0.79870000  1.0
  C  C41  1  0.85110000  0.28804000  0.29870000  1.0
  C  C42  1  0.39719000  0.16603000  0.27720000  1.0
  C  C43  1  0.10281000  0.83397000  0.77720000  1.0
  C  C44  1  0.60280000  0.83397000  0.72280000  1.0
  C  C45  1  0.89719000  0.16603000  0.22280000  1.0
  S  S46  1  0.21749000  0.71234000  0.37473000  1.0
  S  S47  1  0.28251000  0.28766000  0.87472000  1.0
  S  S48  1  0.78252000  0.28766000  0.62527000  1.0
  S  S49  1  0.71749000  0.71234000  0.12528000  1.0
  N  N50  1  0.38734000  0.20537000  0.37715000  1.0
  N  N51  1  0.11265000  0.79463000  0.87715000  1.0
  N  N52  1  0.61265000  0.79463000  0.62285000  1.0
  N  N53  1  0.88735000  0.20537000  0.12285000  1.0
  O  O54  1  0.39293000  0.76058000  0.41891000  1.0
  O  O55  1  0.10707000  0.23942000  0.91891000  1.0
  O  O56  1  0.60707000  0.23942000  0.58109000  1.0
  O  O57  1  0.89293000  0.76058000  0.08109000  1.0
  O  O58  1  0.06821000  0.70591000  0.45110000  1.0
  O  O59  1  0.43179000  0.29410000  0.95110000  1.0
  O  O60  1  0.93179000  0.29410000  0.54890000  1.0
  O  O61  1  0.56821000  0.70590000  0.04890000  1.0
  O  O62  1  0.15333000  0.81190000  0.28429000  1.0
  O  O63  1  0.34667000  0.18810000  0.78429000  1.0
  O  O64  1  0.84667000  0.18811000  0.71571000  1.0
  O  O65  1  0.65334000  0.81190000  0.21571000  1.0
  O  O66  1  0.23808000  0.07441000  0.60029000  1.0
  O  O67  1  0.26192000  0.92559000  0.10029000  1.0
  O  O68  1  0.76192000  0.92559000  0.39971000  1.0
  O  O69  1  0.73808000  0.07441000  0.89971000  1.0
