# generated using pymatgen
data_Yb2U3H26(C3O4)10
_symmetry_space_group_name_H-M   'P 1'
_cell_length_a   10.45590000
_cell_length_b   11.36890000
_cell_length_c   13.50060000
_cell_angle_alpha   67.64220000
_cell_angle_beta   78.09440000
_cell_angle_gamma   64.00900000
_symmetry_Int_Tables_number   1
_chemical_formula_structural   Yb2U3H26(C3O4)10
_chemical_formula_sum   'Yb2 U3 H26 C30 O40'
_cell_volume   1332.57992319
_cell_formula_units_Z   1
loop_
 _symmetry_equiv_pos_site_id
 _symmetry_equiv_pos_as_xyz
  1  'x, y, z'
loop_
 _atom_site_type_symbol
 _atom_site_label
 _atom_site_symmetry_multiplicity
 _atom_site_fract_x
 _atom_site_fract_y
 _atom_site_fract_z
 _atom_site_occupancy
  Yb  Yb0  1  0.58267000  0.24825000  0.74515000  1.0
  Yb  Yb1  1  0.41733000  0.75176000  0.25485000  1.0
  U  U2  1  0.61830000  0.71755000  0.83950000  1.0
  U  U3  1  0.38170000  0.28246000  0.16050000  1.0
  U  U4  1  0.00000000  0.50000000  0.50000000  1.0
  H  H5  1  0.09187000  0.36924000  0.96917000  1.0
  H  H6  1  0.90813000  0.63076000  0.03083000  1.0
  H  H7  1  0.14839000  0.11102000  0.72681000  1.0
  H  H8  1  0.85161000  0.88898000  0.27319000  1.0
  H  H9  1  0.73253000  0.00249000  0.41397000  1.0
  H  H10  1  0.26747000  0.99750000  0.58603000  1.0
  H  H11  1  0.65906000  0.21603000  0.53493000  1.0
  H  H12  1  0.34094000  0.78397000  0.46507000  1.0
  H  H13  1  0.71201000  0.06622000  0.62537000  1.0
  H  H14  1  0.28799000  0.93378000  0.37463000  1.0
  H  H15  1  0.54783000  0.52224000  0.58158000  1.0
  H  H16  1  0.45216000  0.47777000  0.41842000  1.0
  H  H17  1  0.71149000  0.41844000  0.59641000  1.0
  H  H18  1  0.28851000  0.58156000  0.40358000  1.0
  H  H19  1  0.34289000  0.50481000  0.66099000  1.0
  H  H20  1  0.65711000  0.49519000  0.33901000  1.0
  H  H21  1  0.26779000  0.41488000  0.65665000  1.0
  H  H22  1  0.73221000  0.58512000  0.34335000  1.0
  H  H23  1  0.50782000  0.51511000  0.78572000  1.0
  H  H24  1  0.49218000  0.48489000  0.21428000  1.0
  H  H25  1  0.49907000  0.40271000  0.89880000  1.0
  H  H26  1  0.50094000  0.59729000  0.10120000  1.0
  H  H27  1  0.82485000  0.02614000  0.85492000  1.0
  H  H28  1  0.17515000  0.97387000  0.14508000  1.0
  H  H29  1  0.72977000  0.94073000  0.87027000  1.0
  H  H30  1  0.27023000  0.05927000  0.12973000  1.0
  C  C31  1  0.98922000  0.34403000  0.86056000  1.0
  C  C32  1  0.01078000  0.65597000  0.13944000  1.0
  C  C33  1  0.10535000  0.31225000  0.91588000  1.0
  C  C34  1  0.89465000  0.68775000  0.08412000  1.0
  C  C35  1  0.23973000  0.21533000  0.89791000  1.0
  C  C36  1  0.76028000  0.78466000  0.10209000  1.0
  C  C37  1  0.25554000  0.14596000  0.82625000  1.0
  C  C38  1  0.74446000  0.85404000  0.17375000  1.0
  C  C39  1  0.13591000  0.16765000  0.77996000  1.0
  C  C40  1  0.86409000  0.83235000  0.22004000  1.0
  C  C41  1  0.00306000  0.26842000  0.79440000  1.0
  C  C42  1  0.99694000  0.73158000  0.20560000  1.0
  C  C43  1  0.62946000  0.00295000  0.45140000  1.0
  C  C44  1  0.37054000  0.99705000  0.54860000  1.0
  C  C45  1  0.61960000  0.87516000  0.50740000  1.0
  C  C46  1  0.38040000  0.12483000  0.49260000  1.0
  C  C47  1  0.48816000  0.87211000  0.55706000  1.0
  C  C48  1  0.51184000  0.12789000  0.44294000  1.0
  C  C49  1  0.85671000  0.46618000  0.86389000  1.0
  C  C50  1  0.14329000  0.53382000  0.13611000  1.0
  C  C51  1  0.36042000  0.19102000  0.95635000  1.0
  C  C52  1  0.63958000  0.80898000  0.04365000  1.0
  C  C53  1  0.39716000  0.05161000  0.79282000  1.0
  C  C54  1  0.60284000  0.94839000  0.20718000  1.0
  C  C55  1  0.88304000  0.29436000  0.73300000  1.0
  C  C56  1  0.11696000  0.70564000  0.26700000  1.0
  C  C57  1  0.46747000  0.74050000  0.62348000  1.0
  C  C58  1  0.53252000  0.25950000  0.37652000  1.0
  C  C59  1  0.74943000  0.74609000  0.51119000  1.0
  C  C60  1  0.25058000  0.25390000  0.48881000  1.0
  O  O61  1  0.52757000  0.63476000  0.95627000  1.0
  O  O62  1  0.47243000  0.36524000  0.04373000  1.0
  O  O63  1  0.71137000  0.80220000  0.72756000  1.0
  O  O64  1  0.28863000  0.19780000  0.27244000  1.0
  O  O65  1  0.08541000  0.48817000  0.61023000  1.0
  O  O66  1  0.91460000  0.51182000  0.38977000  1.0
  O  O67  1  0.84503000  0.54194000  0.91800000  1.0
  O  O68  1  0.15497000  0.45807000  0.08200000  1.0
  O  O69  1  0.75448000  0.50097000  0.80636000  1.0
  O  O70  1  0.24553000  0.49903000  0.19364000  1.0
  O  O71  1  0.79545000  0.23967000  0.78092000  1.0
  O  O72  1  0.20455000  0.76033000  0.21908000  1.0
  O  O73  1  0.88250000  0.36181000  0.63252000  1.0
  O  O74  1  0.11750000  0.63819000  0.36749000  1.0
  O  O75  1  0.41332000  0.92628000  0.81481000  1.0
  O  O76  1  0.58668000  0.07372000  0.18519000  1.0
  O  O77  1  0.48796000  0.10078000  0.74235000  1.0
  O  O78  1  0.51204000  0.89923000  0.25765000  1.0
  O  O79  1  0.48113000  0.17943000  0.91226000  1.0
  O  O80  1  0.51887000  0.82057000  0.08774000  1.0
  O  O81  1  0.33071000  0.18377000  0.05615000  1.0
  O  O82  1  0.66929000  0.81623000  0.94385000  1.0
  O  O83  1  0.49592000  0.69022000  0.72290000  1.0
  O  O84  1  0.50408000  0.30978000  0.27710000  1.0
  O  O85  1  0.41451000  0.68952000  0.58261000  1.0
  O  O86  1  0.58548000  0.31047000  0.41739000  1.0
  O  O87  1  0.74159000  0.62814000  0.55274000  1.0
  O  O88  1  0.25842000  0.37185000  0.44726000  1.0
  O  O89  1  0.86878000  0.75286000  0.47009000  1.0
  O  O90  1  0.13123000  0.24714000  0.52991000  1.0
  O  O91  1  0.70052000  0.16179000  0.60750000  1.0
  O  O92  1  0.29948000  0.83821000  0.39250000  1.0
  O  O93  1  0.61336000  0.42378000  0.59899000  1.0
  O  O94  1  0.38664000  0.57622000  0.40100000  1.0
  O  O95  1  0.35666000  0.40876000  0.67660000  1.0
  O  O96  1  0.64334000  0.59124000  0.32339000  1.0
  O  O97  1  0.50487000  0.42232000  0.82054000  1.0
  O  O98  1  0.49513000  0.57768000  0.17946000  1.0
  O  O99  1  0.74919000  0.02393000  0.82508000  1.0
  O  O100  1  0.25080000  0.97607000  0.17492000  1.0
