# generated using pymatgen
data_MgH8C12O5
_symmetry_space_group_name_H-M   'P 1'
_cell_length_a   6.95707000
_cell_length_b   12.88020000
_cell_length_c   17.31620000
_cell_angle_alpha   90.00000000
_cell_angle_beta   90.96190000
_cell_angle_gamma   90.00000000
_symmetry_Int_Tables_number   1
_chemical_formula_structural   MgH8C12O5
_chemical_formula_sum   'Mg4 H32 C48 O20'
_cell_volume   1551.45923075
_cell_formula_units_Z   4
loop_
 _symmetry_equiv_pos_site_id
 _symmetry_equiv_pos_as_xyz
  1  'x, y, z'
loop_
 _atom_site_type_symbol
 _atom_site_label
 _atom_site_symmetry_multiplicity
 _atom_site_fract_x
 _atom_site_fract_y
 _atom_site_fract_z
 _atom_site_occupancy
  Mg  Mg0  1  0.50000000  0.50000000  0.00000000  1.0
  Mg  Mg1  1  0.50000000  0.00000000  0.50000000  1.0
  Mg  Mg2  1  0.00000000  0.50000000  0.00000000  1.0
  Mg  Mg3  1  0.00000000  0.00000000  0.50000000  1.0
  H  H4  1  0.73089000  0.35998000  0.94808000  1.0
  H  H5  1  0.26910000  0.85998000  0.55192000  1.0
  H  H6  1  0.26911000  0.64002000  0.05193000  1.0
  H  H7  1  0.73090000  0.14002000  0.44808000  1.0
  H  H8  1  0.80430000  0.35297000  0.03551000  1.0
  H  H9  1  0.19571000  0.85297000  0.46449000  1.0
  H  H10  1  0.19570000  0.64703000  0.96449000  1.0
  H  H11  1  0.80429000  0.14703000  0.53551000  1.0
  H  H12  1  0.97690000  0.35083000  0.21144000  1.0
  H  H13  1  0.02311000  0.85083000  0.28856000  1.0
  H  H14  1  0.02311000  0.64917000  0.78856000  1.0
  H  H15  1  0.97690000  0.14917000  0.71144000  1.0
  H  H16  1  0.98012000  0.24164000  0.33053000  1.0
  H  H17  1  0.01989000  0.74164000  0.16947000  1.0
  H  H18  1  0.01989000  0.75836000  0.66946000  1.0
  H  H19  1  0.98012000  0.25836000  0.83054000  1.0
  H  H20  1  0.53727000  0.24890000  0.07451000  1.0
  H  H21  1  0.46273000  0.74890000  0.42549000  1.0
  H  H22  1  0.46273000  0.75109000  0.92549000  1.0
  H  H23  1  0.53727000  0.25110000  0.57451000  1.0
  H  H24  1  0.79597000  0.11909000  0.09558000  1.0
  H  H25  1  0.20403000  0.61910000  0.40442000  1.0
  H  H26  1  0.20403000  0.88090000  0.90442000  1.0
  H  H27  1  0.79598000  0.38090000  0.59558000  1.0
  H  H28  1  0.79839000  0.00922000  0.21452000  1.0
  H  H29  1  0.20162000  0.50921000  0.28549000  1.0
  H  H30  1  0.20161000  0.99078000  0.78549000  1.0
  H  H31  1  0.79839000  0.49079000  0.71452000  1.0
  H  H32  1  0.54638000  0.02931000  0.31096000  1.0
  H  H33  1  0.45362000  0.52931000  0.18904000  1.0
  H  H34  1  0.45362000  0.97069000  0.68904000  1.0
  H  H35  1  0.54638000  0.47069000  0.81096000  1.0
  C  C36  1  0.23789000  0.36469000  0.10395000  1.0
  C  C37  1  0.76210000  0.86469000  0.39605000  1.0
  C  C38  1  0.76211000  0.63531000  0.89605000  1.0
  C  C39  1  0.23789000  0.13532000  0.60395000  1.0
  C  C40  1  0.24423000  0.10959000  0.38041000  1.0
  C  C41  1  0.75578000  0.60959000  0.11959000  1.0
  C  C42  1  0.75578000  0.89041000  0.61959000  1.0
  C  C43  1  0.24423000  0.39041000  0.88041000  1.0
  C  C44  1  0.24299000  0.29056000  0.17043000  1.0
  C  C45  1  0.75701000  0.79056000  0.32957000  1.0
  C  C46  1  0.75701000  0.70944000  0.82957000  1.0
  C  C47  1  0.24298000  0.20944000  0.67043000  1.0
  C  C48  1  0.09428000  0.29648000  0.22246000  1.0
  C  C49  1  0.90571000  0.79648000  0.27754000  1.0
  C  C50  1  0.90572000  0.70352000  0.77754000  1.0
  C  C51  1  0.09428000  0.20353000  0.72246000  1.0
  C  C52  1  0.09664000  0.23534000  0.28955000  1.0
  C  C53  1  0.90337000  0.73534000  0.21045000  1.0
  C  C54  1  0.90337000  0.76465000  0.71044000  1.0
  C  C55  1  0.09663000  0.26466000  0.78956000  1.0
  C  C56  1  0.24693000  0.16767000  0.30542000  1.0
  C  C57  1  0.75307000  0.66767000  0.19458000  1.0
  C  C58  1  0.75307000  0.83233000  0.69458000  1.0
  C  C59  1  0.24693000  0.33233000  0.80543000  1.0
  C  C60  1  0.39851000  0.15509000  0.25113000  1.0
  C  C61  1  0.60148000  0.65509000  0.24887000  1.0
  C  C62  1  0.60148000  0.84491000  0.74887000  1.0
  C  C63  1  0.39851000  0.34492000  0.75113000  1.0
  C  C64  1  0.39647000  0.21817000  0.18246000  1.0
  C  C65  1  0.60352000  0.71817000  0.31754000  1.0
  C  C66  1  0.60352000  0.78183000  0.81754000  1.0
  C  C67  1  0.39647000  0.28184000  0.68246000  1.0
  C  C68  1  0.54239000  0.20261000  0.12706000  1.0
  C  C69  1  0.45760000  0.70262000  0.37294000  1.0
  C  C70  1  0.45760000  0.79738000  0.87294000  1.0
  C  C71  1  0.54239000  0.29739000  0.62706000  1.0
  C  C72  1  0.68515000  0.12981000  0.13870000  1.0
  C  C73  1  0.31486000  0.62982000  0.36131000  1.0
  C  C74  1  0.31485000  0.87018000  0.86130000  1.0
  C  C75  1  0.68515000  0.37019000  0.63870000  1.0
  C  C76  1  0.68684000  0.06773000  0.20592000  1.0
  C  C77  1  0.31317000  0.56773000  0.29408000  1.0
  C  C78  1  0.31316000  0.93227000  0.79408000  1.0
  C  C79  1  0.68684000  0.43227000  0.70592000  1.0
  C  C80  1  0.54623000  0.07937000  0.26041000  1.0
  C  C81  1  0.45378000  0.57936000  0.23959000  1.0
  C  C82  1  0.45377000  0.92063000  0.73959000  1.0
  C  C83  1  0.54622000  0.42064000  0.76041000  1.0
  O  O84  1  0.07543000  0.38044000  0.07065000  1.0
  O  O85  1  0.92457000  0.88044000  0.42934000  1.0
  O  O86  1  0.92457000  0.61956000  0.92935000  1.0
  O  O87  1  0.07542000  0.11956000  0.57066000  1.0
  O  O88  1  0.39173000  0.41128000  0.08624000  1.0
  O  O89  1  0.60826000  0.91129000  0.41375000  1.0
  O  O90  1  0.60827000  0.58872000  0.91376000  1.0
  O  O91  1  0.39173000  0.08872000  0.58624000  1.0
  O  O92  1  0.08243000  0.07721000  0.40357000  1.0
  O  O93  1  0.91756000  0.57720000  0.09643000  1.0
  O  O94  1  0.91758000  0.92280000  0.59643000  1.0
  O  O95  1  0.08244000  0.42280000  0.90357000  1.0
  O  O96  1  0.40273000  0.09728000  0.41713000  1.0
  O  O97  1  0.59726000  0.59728000  0.08287000  1.0
  O  O98  1  0.59727000  0.90272000  0.58287000  1.0
  O  O99  1  0.40274000  0.40272000  0.91713000  1.0
  O  O100  1  0.74814000  0.39935000  0.99594000  1.0
  O  O101  1  0.25186000  0.89935000  0.50406000  1.0
  O  O102  1  0.25186000  0.60065000  0.00406000  1.0
  O  O103  1  0.74814000  0.10065000  0.49594000  1.0
