# generated using pymatgen
data_KMgH10C6NO8
_symmetry_space_group_name_H-M   'P 1'
_cell_length_a   7.09181000
_cell_length_b   10.09640000
_cell_length_c   15.31380000
_cell_angle_alpha   89.99890000
_cell_angle_beta   88.26970000
_cell_angle_gamma   89.99920000
_symmetry_Int_Tables_number   1
_chemical_formula_structural   KMgH10C6NO8
_chemical_formula_sum   'K4 Mg4 H40 C24 N4 O32'
_cell_volume   1095.99491947
_cell_formula_units_Z   4
loop_
 _symmetry_equiv_pos_site_id
 _symmetry_equiv_pos_as_xyz
  1  'x, y, z'
loop_
 _atom_site_type_symbol
 _atom_site_label
 _atom_site_symmetry_multiplicity
 _atom_site_fract_x
 _atom_site_fract_y
 _atom_site_fract_z
 _atom_site_occupancy
  K  K0  1  0.83546000  0.01476000  0.40601000  1.0
  K  K1  1  0.66453000  0.51474000  0.09400000  1.0
  K  K2  1  0.16451000  0.98525000  0.59399000  1.0
  K  K3  1  0.33549000  0.48527000  0.90600000  1.0
  Mg  Mg4  1  0.63490000  0.13405000  0.20911000  1.0
  Mg  Mg5  1  0.86506000  0.63405000  0.29090000  1.0
  Mg  Mg6  1  0.36510000  0.86595000  0.79089000  1.0
  Mg  Mg7  1  0.13494000  0.36596000  0.70911000  1.0
  H  H8  1  0.48329000  0.85879000  0.09795000  1.0
  H  H9  1  0.01665000  0.35879000  0.40206000  1.0
  H  H10  1  0.51675000  0.14123000  0.90204000  1.0
  H  H11  1  0.98331000  0.64123000  0.59795000  1.0
  H  H12  1  0.32578000  0.80652000  0.18214000  1.0
  H  H13  1  0.17417000  0.30651000  0.31788000  1.0
  H  H14  1  0.67424000  0.19348000  0.81785000  1.0
  H  H15  1  0.82580000  0.69348000  0.68214000  1.0
  H  H16  1  0.15215000  0.06906000  0.09177000  1.0
  H  H17  1  0.34783000  0.56908000  0.40822000  1.0
  H  H18  1  0.84787000  0.93093000  0.90822000  1.0
  H  H19  1  0.65216000  0.43094000  0.59178000  1.0
  H  H20  1  0.36483000  0.02275000  0.03887000  1.0
  H  H21  1  0.13516000  0.52275000  0.46114000  1.0
  H  H22  1  0.63518000  0.97724000  0.96113000  1.0
  H  H23  1  0.86483000  0.47725000  0.53887000  1.0
  H  H24  1  0.17111000  0.93792000  0.26867000  1.0
  H  H25  1  0.32884000  0.43791000  0.23134000  1.0
  H  H26  1  0.82890000  0.06207000  0.73132000  1.0
  H  H27  1  0.67116000  0.56208000  0.76868000  1.0
  H  H28  1  0.12944000  0.10149000  0.23451000  1.0
  H  H29  1  0.37052000  0.60147000  0.26549000  1.0
  H  H30  1  0.87055000  0.89851000  0.76547000  1.0
  H  H31  1  0.62949000  0.39852000  0.73452000  1.0
  H  H32  1  0.44843000  0.79914000  0.47744000  1.0
  H  H33  1  0.05155000  0.29915000  0.02256000  1.0
  H  H34  1  0.55154000  0.20085000  0.52256000  1.0
  H  H35  1  0.94847000  0.70085000  0.97743000  1.0
  H  H36  1  0.64477000  0.83891000  0.52287000  1.0
  H  H37  1  0.85521000  0.33891000  0.97712000  1.0
  H  H38  1  0.35521000  0.16109000  0.47712000  1.0
  H  H39  1  0.14481000  0.66109000  0.02288000  1.0
  H  H40  1  0.83364000  0.17467000  0.06222000  1.0
  H  H41  1  0.66634000  0.67467000  0.43778000  1.0
  H  H42  1  0.16639000  0.82533000  0.93778000  1.0
  H  H43  1  0.33364000  0.32534000  0.56222000  1.0
  H  H44  1  0.86171000  0.02034000  0.09130000  1.0
  H  H45  1  0.63825000  0.52034000  0.40871000  1.0
  H  H46  1  0.13831000  0.97966000  0.90870000  1.0
  H  H47  1  0.36174000  0.47967000  0.59129000  1.0
  C  C48  1  0.61195000  0.84564000  0.22034000  1.0
  C  C49  1  0.88801000  0.34565000  0.27967000  1.0
  C  C50  1  0.38806000  0.15436000  0.77965000  1.0
  C  C51  1  0.11197000  0.65436000  0.72034000  1.0
  C  C52  1  0.43915000  0.87741000  0.16634000  1.0
  C  C53  1  0.06081000  0.37740000  0.33367000  1.0
  C  C54  1  0.56086000  0.12259000  0.83365000  1.0
  C  C55  1  0.93918000  0.62261000  0.66634000  1.0
  C  C56  1  0.36394000  0.22169000  0.08518000  1.0
  C  C57  1  0.13602000  0.72169000  0.41482000  1.0
  C  C58  1  0.63607000  0.77830000  0.91481000  1.0
  C  C59  1  0.86396000  0.27831000  0.58519000  1.0
  C  C60  1  0.30679000  0.07567000  0.09626000  1.0
  C  C61  1  0.19318000  0.57567000  0.40375000  1.0
  C  C62  1  0.69322000  0.92432000  0.90374000  1.0
  C  C63  1  0.80680000  0.42433000  0.59626000  1.0
  C  C64  1  0.32848000  0.08906000  0.33376000  1.0
  C  C65  1  0.17150000  0.58906000  0.16625000  1.0
  C  C66  1  0.67153000  0.91093000  0.66623000  1.0
  C  C67  1  0.82850000  0.41093000  0.83376000  1.0
  C  C68  1  0.24224000  0.03182000  0.25153000  1.0
  C  C69  1  0.25771000  0.53180000  0.24848000  1.0
  C  C70  1  0.75775000  0.96818000  0.74846000  1.0
  C  C71  1  0.74230000  0.46819000  0.75153000  1.0
  N  N72  1  0.37522000  0.01503000  0.17627000  1.0
  N  N73  1  0.12474000  0.51503000  0.32374000  1.0
  N  N74  1  0.62479000  0.98497000  0.82372000  1.0
  N  N75  1  0.87526000  0.48498000  0.67627000  1.0
  O  O76  1  0.71867000  0.94013000  0.24196000  1.0
  O  O77  1  0.78131000  0.44014000  0.25804000  1.0
  O  O78  1  0.28135000  0.05987000  0.75804000  1.0
  O  O79  1  0.21868000  0.55987000  0.74196000  1.0
  O  O80  1  0.64052000  0.72406000  0.23738000  1.0
  O  O81  1  0.85946000  0.22407000  0.26262000  1.0
  O  O82  1  0.35949000  0.27595000  0.76262000  1.0
  O  O83  1  0.14054000  0.77594000  0.73739000  1.0
  O  O84  1  0.48309000  0.26941000  0.13766000  1.0
  O  O85  1  0.01687000  0.76941000  0.36235000  1.0
  O  O86  1  0.51691000  0.73058000  0.86233000  1.0
  O  O87  1  0.98312000  0.23059000  0.63767000  1.0
  O  O88  1  0.29313000  0.28358000  0.02249000  1.0
  O  O89  1  0.20684000  0.78358000  0.47751000  1.0
  O  O90  1  0.70690000  0.71641000  0.97750000  1.0
  O  O91  1  0.79313000  0.21642000  0.52251000  1.0
  O  O92  1  0.49257000  0.14066000  0.32779000  1.0
  O  O93  1  0.00740000  0.64066000  0.17221000  1.0
  O  O94  1  0.50742000  0.85933000  0.67221000  1.0
  O  O95  1  0.99261000  0.35934000  0.82779000  1.0
  O  O96  1  0.22589000  0.08740000  0.40289000  1.0
  O  O97  1  0.27409000  0.58740000  0.09711000  1.0
  O  O98  1  0.77410000  0.91259000  0.59709000  1.0
  O  O99  1  0.72591000  0.41258000  0.90290000  1.0
  O  O100  1  0.76923000  0.09105000  0.08896000  1.0
  O  O101  1  0.73074000  0.59105000  0.41105000  1.0
  O  O102  1  0.23078000  0.90895000  0.91104000  1.0
  O  O103  1  0.26926000  0.40896000  0.58896000  1.0
  O  O104  1  0.58738000  0.80641000  0.46729000  1.0
  O  O105  1  0.91260000  0.30641000  0.03271000  1.0
  O  O106  1  0.41259000  0.19359000  0.53271000  1.0
  O  O107  1  0.08744000  0.69360000  0.96729000  1.0
