# generated using pymatgen
data_H14PbC12(IN)2
_symmetry_space_group_name_H-M   'P 1'
_cell_length_a   4.42972000
_cell_length_b   9.54251000
_cell_length_c   10.47350000
_cell_angle_alpha   64.53100000
_cell_angle_beta   89.90630000
_cell_angle_gamma   85.67330000
_symmetry_Int_Tables_number   1
_chemical_formula_structural   H14PbC12(IN)2
_chemical_formula_sum   'H14 Pb1 C12 I2 N2'
_cell_volume   398.32455060
_cell_formula_units_Z   1
loop_
 _symmetry_equiv_pos_site_id
 _symmetry_equiv_pos_as_xyz
  1  'x, y, z'
loop_
 _atom_site_type_symbol
 _atom_site_label
 _atom_site_symmetry_multiplicity
 _atom_site_fract_x
 _atom_site_fract_y
 _atom_site_fract_z
 _atom_site_occupancy
  H  H0  1  0.76079000  0.65234000  0.01487000  1.0
  H  H1  1  0.23941000  0.34770000  0.98509000  1.0
  H  H2  1  0.74279000  0.36616000  0.16635000  1.0
  H  H3  1  0.25716000  0.63389000  0.83362000  1.0
  H  H4  1  0.31321000  0.41709000  0.47421000  1.0
  H  H5  1  0.68669000  0.58288000  0.52582000  1.0
  H  H6  1  0.31251000  0.70041000  0.30944000  1.0
  H  H7  1  0.68770000  0.29954000  0.69055000  1.0
  H  H8  1  0.89291000  0.18204000  0.52691000  1.0
  H  H9  1  0.10729000  0.81793000  0.47314000  1.0
  H  H10  1  0.90169000  0.13751000  0.37833000  1.0
  H  H11  1  0.09806000  0.86253000  0.62168000  1.0
  H  H12  1  0.24341000  0.14112000  0.46615000  1.0
  H  H13  1  0.75657000  0.85888000  0.53371000  1.0
  Pb  Pb14  1  0.99984000  0.99998000  0.00007000  1.0
  C  C15  1  0.88186000  0.59514000  0.11752000  1.0
  C  C16  1  0.11828000  0.40488000  0.88246000  1.0
  C  C17  1  0.87180000  0.43642000  0.20218000  1.0
  C  C18  1  0.12821000  0.56362000  0.79780000  1.0
  C  C19  1  0.02560000  0.36716000  0.33424000  1.0
  C  C20  1  0.97435000  0.63285000  0.66575000  1.0
  C  C21  1  0.18804000  0.46448000  0.37288000  1.0
  C  C22  1  0.81194000  0.53550000  0.62713000  1.0
  C  C23  1  0.18745000  0.62190000  0.28220000  1.0
  C  C24  1  0.81268000  0.37808000  0.71780000  1.0
  C  C25  1  0.01467000  0.19819000  0.43042000  1.0
  C  C26  1  0.98526000  0.80181000  0.56956000  1.0
  I  I27  1  0.49238000  0.03302000  0.20783000  1.0
  I  I28  1  0.50724000  0.96696000  0.79232000  1.0
  N  N29  1  0.03586000  0.68761000  0.15627000  1.0
  N  N30  1  0.96435000  0.31238000  0.84371000  1.0
