# generated using pymatgen
data_Cu3As2H16C16Br3(NO)2
_symmetry_space_group_name_H-M   'P 1'
_cell_length_a   9.92224000
_cell_length_b   11.38070000
_cell_length_c   11.61330000
_cell_angle_alpha   67.95330000
_cell_angle_beta   78.74780000
_cell_angle_gamma   67.91460000
_symmetry_Int_Tables_number   1
_chemical_formula_structural   Cu3As2H16C16Br3(NO)2
_chemical_formula_sum   'Cu6 As4 H32 C32 Br6 N4 O4'
_cell_volume   1124.08928521
_cell_formula_units_Z   2
loop_
 _symmetry_equiv_pos_site_id
 _symmetry_equiv_pos_as_xyz
  1  'x, y, z'
loop_
 _atom_site_type_symbol
 _atom_site_label
 _atom_site_symmetry_multiplicity
 _atom_site_fract_x
 _atom_site_fract_y
 _atom_site_fract_z
 _atom_site_occupancy
  Cu  Cu0  1  0.18766000  0.18110000  0.35901000  1.0
  Cu  Cu1  1  0.81235000  0.81890000  0.64100000  1.0
  Cu  Cu2  1  0.91375000  0.33840000  0.24625000  1.0
  Cu  Cu3  1  0.08624000  0.66160000  0.75374000  1.0
  Cu  Cu4  1  0.14652000  0.85395000  0.55337000  1.0
  Cu  Cu5  1  0.85348000  0.14605000  0.44663000  1.0
  As  As6  1  0.42842000  0.04846000  0.32620000  1.0
  As  As7  1  0.57158000  0.95154000  0.67380000  1.0
  As  As8  1  0.38445000  0.82700000  0.58255000  1.0
  As  As9  1  0.61555000  0.17300000  0.41745000  1.0
  H  H10  1  0.39178000  0.96392000  0.16867000  1.0
  H  H11  1  0.60822000  0.03608000  0.83133000  1.0
  H  H12  1  0.58346000  0.91199000  0.18847000  1.0
  H  H13  1  0.41654000  0.08801000  0.81153000  1.0
  H  H14  1  0.48774000  0.08215000  0.09705000  1.0
  H  H15  1  0.51226000  0.91785000  0.90295000  1.0
  H  H16  1  0.53522000  0.59387000  0.57993000  1.0
  H  H17  1  0.46479000  0.40612000  0.42007000  1.0
  H  H18  1  0.63487000  0.65946000  0.64080000  1.0
  H  H19  1  0.36513000  0.34054000  0.35920000  1.0
  H  H20  1  0.49333000  0.59659000  0.73595000  1.0
  H  H21  1  0.50667000  0.40341000  0.26405000  1.0
  H  H22  1  0.15854000  0.97124000  0.82184000  1.0
  H  H23  1  0.84146000  0.02876000  0.17816000  1.0
  H  H24  1  0.15372000  0.95837000  0.04236000  1.0
  H  H25  1  0.84629000  0.04163000  0.95764000  1.0
  H  H26  1  0.12970000  0.16201000  0.08888000  1.0
  H  H27  1  0.87030000  0.83799000  0.91113000  1.0
  H  H28  1  0.10456000  0.37834000  0.91852000  1.0
  H  H29  1  0.89544000  0.62166000  0.08148000  1.0
  H  H30  1  0.11429000  0.39221000  0.69796000  1.0
  H  H31  1  0.88571000  0.60779000  0.30204000  1.0
  H  H32  1  0.46826000  0.35190000  0.08168000  1.0
  H  H33  1  0.53174000  0.64811000  0.91832000  1.0
  H  H34  1  0.33232000  0.35119000  0.92511000  1.0
  H  H35  1  0.66768000  0.64881000  0.07489000  1.0
  H  H36  1  0.45814000  0.32218000  0.72471000  1.0
  H  H37  1  0.54186000  0.67782000  0.27529000  1.0
  H  H38  1  0.72280000  0.29346000  0.68177000  1.0
  H  H39  1  0.27720000  0.70654000  0.31822000  1.0
  H  H40  1  0.85893000  0.30028000  0.83650000  1.0
  H  H41  1  0.14107000  0.69972000  0.16350000  1.0
  C  C42  1  0.48001000  0.99505000  0.17790000  1.0
  C  C43  1  0.52000000  0.00495000  0.82210000  1.0
  C  C44  1  0.52934000  0.64882000  0.64159000  1.0
  C  C45  1  0.47066000  0.35119000  0.35841000  1.0
  C  C46  1  0.14431000  0.18897000  0.62243000  1.0
  C  C47  1  0.85569000  0.81103000  0.37757000  1.0
  C  C48  1  0.13796000  0.18173000  0.74756000  1.0
  C  C49  1  0.86205000  0.81828000  0.25244000  1.0
  C  C50  1  0.14758000  0.05908000  0.84443000  1.0
  C  C51  1  0.85242000  0.94092000  0.15558000  1.0
  C  C52  1  0.14545000  0.05273000  0.96674000  1.0
  C  C53  1  0.85456000  0.94727000  0.03326000  1.0
  C  C54  1  0.13234000  0.16690000  0.99297000  1.0
  C  C55  1  0.86766000  0.83310000  0.00703000  1.0
  C  C56  1  0.12007000  0.28880000  0.89671000  1.0
  C  C57  1  0.87993000  0.71120000  0.10329000  1.0
  C  C58  1  0.12346000  0.29742000  0.77353000  1.0
  C  C59  1  0.87653000  0.70258000  0.22647000  1.0
  C  C60  1  0.75032000  0.32808000  0.05728000  1.0
  C  C61  1  0.24967000  0.67193000  0.94272000  1.0
  C  C62  1  0.67258000  0.32555000  0.96860000  1.0
  C  C63  1  0.32741000  0.67446000  0.03139000  1.0
  C  C64  1  0.52352000  0.33982000  0.99400000  1.0
  C  C65  1  0.47647000  0.66018000  0.00600000  1.0
  C  C66  1  0.44776000  0.33855000  0.90580000  1.0
  C  C67  1  0.55223000  0.66145000  0.09419000  1.0
  C  C68  1  0.51903000  0.32137000  0.79389000  1.0
  C  C69  1  0.48097000  0.67864000  0.20610000  1.0
  C  C70  1  0.66734000  0.30567000  0.76945000  1.0
  C  C71  1  0.33266000  0.69433000  0.23055000  1.0
  C  C72  1  0.74439000  0.30905000  0.85556000  1.0
  C  C73  1  0.25560000  0.69096000  0.14444000  1.0
  Br  Br74  1  0.07289000  0.02031000  0.33970000  1.0
  Br  Br75  1  0.92711000  0.97969000  0.66030000  1.0
  Br  Br76  1  0.14354000  0.38042000  0.17485000  1.0
  Br  Br77  1  0.85646000  0.61958000  0.82515000  1.0
  Br  Br78  1  0.19984000  0.61754000  0.56595000  1.0
  Br  Br79  1  0.80017000  0.38246000  0.43405000  1.0
  N  N80  1  0.14918000  0.19533000  0.51928000  1.0
  N  N81  1  0.85083000  0.80467000  0.48072000  1.0
  N  N82  1  0.81369000  0.33002000  0.13116000  1.0
  N  N83  1  0.18631000  0.66998000  0.86883000  1.0
  O  O84  1  0.58805000  0.09584000  0.31464000  1.0
  O  O85  1  0.41195000  0.90416000  0.68536000  1.0
  O  O86  1  0.49566000  0.88000000  0.44059000  1.0
  O  O87  1  0.50434000  0.12000000  0.55941000  1.0
