# generated using pymatgen
data_HgH18C20I2(N2O)2
_symmetry_space_group_name_H-M   'P 1'
_cell_length_a   9.44667000
_cell_length_b   11.63130000
_cell_length_c   11.63140000
_cell_angle_alpha   110.03400000
_cell_angle_beta   93.12900000
_cell_angle_gamma   93.12900000
_symmetry_Int_Tables_number   1
_chemical_formula_structural   HgH18C20I2(N2O)2
_chemical_formula_sum   'Hg2 H36 C40 I4 N8 O4'
_cell_volume   1195.23616789
_cell_formula_units_Z   2
loop_
 _symmetry_equiv_pos_site_id
 _symmetry_equiv_pos_as_xyz
  1  'x, y, z'
loop_
 _atom_site_type_symbol
 _atom_site_label
 _atom_site_symmetry_multiplicity
 _atom_site_fract_x
 _atom_site_fract_y
 _atom_site_fract_z
 _atom_site_occupancy
  Hg  Hg0  1  0.56603000  0.25717000  0.96582000  1.0
  Hg  Hg1  1  0.06603000  0.96582000  0.25716000  1.0
  H  H2  1  0.74455000  0.77998000  0.76443000  1.0
  H  H3  1  0.24455000  0.76442000  0.77996000  1.0
  H  H4  1  0.95245000  0.36050000  0.36682000  1.0
  H  H5  1  0.45245000  0.36681000  0.36050000  1.0
  H  H6  1  0.85056000  0.28664000  0.83163000  1.0
  H  H7  1  0.35055000  0.83163000  0.28663000  1.0
  H  H8  1  0.03660000  0.16856000  0.70709000  1.0
  H  H9  1  0.53658000  0.70709000  0.16856000  1.0
  H  H10  1  0.04090000  0.94453000  0.67092000  1.0
  H  H11  1  0.54088000  0.67092000  0.94452000  1.0
  H  H12  1  0.67338000  0.97420000  0.88214000  1.0
  H  H13  1  0.17337000  0.88215000  0.97420000  1.0
  H  H14  1  0.88834000  0.55446000  0.61682000  1.0
  H  H15  1  0.38835000  0.61682000  0.55447000  1.0
  H  H16  1  0.80011000  0.60038000  0.75285000  1.0
  H  H17  1  0.30012000  0.75285000  0.60038000  1.0
  H  H18  1  0.96556000  0.66761000  0.95779000  1.0
  H  H19  1  0.46557000  0.95780000  0.66760000  1.0
  H  H20  1  0.14349000  0.58943000  0.06946000  1.0
  H  H21  1  0.64350000  0.06947000  0.58942000  1.0
  H  H22  1  0.29333000  0.42291000  0.95224000  1.0
  H  H23  1  0.79333000  0.95223000  0.42291000  1.0
  H  H24  1  0.26028000  0.33898000  0.72550000  1.0
  H  H25  1  0.76029000  0.72550000  0.33898000  1.0
  H  H26  1  0.15913000  0.33566000  0.54107000  1.0
  H  H27  1  0.65914000  0.54107000  0.33567000  1.0
  H  H28  1  0.09564000  0.47269000  0.53076000  1.0
  H  H29  1  0.59565000  0.53076000  0.47270000  1.0
  H  H30  1  0.69979000  0.16257000  0.46762000  1.0
  H  H31  1  0.19979000  0.46762000  0.16256000  1.0
  H  H32  1  0.49497000  0.04103000  0.32371000  1.0
  H  H33  1  0.99496000  0.32372000  0.04105000  1.0
  H  H34  1  0.45043000  0.07079000  0.11967000  1.0
  H  H35  1  0.95043000  0.11967000  0.07080000  1.0
  H  H36  1  0.79138000  0.33186000  0.20001000  1.0
  H  H37  1  0.29138000  0.20000000  0.33186000  1.0
  C  C38  1  0.85603000  0.18886000  0.81490000  1.0
  C  C39  1  0.35602000  0.81491000  0.18885000  1.0
  C  C40  1  0.95966000  0.12273000  0.74642000  1.0
  C  C41  1  0.45965000  0.74642000  0.12273000  1.0
  C  C42  1  0.96202000  0.99782000  0.72591000  1.0
  C  C43  1  0.46201000  0.72591000  0.99782000  1.0
  C  C44  1  0.85808000  0.94166000  0.77501000  1.0
  C  C45  1  0.35807000  0.77501000  0.94166000  1.0
  C  C46  1  0.75698000  0.01463000  0.84330000  1.0
  C  C47  1  0.25697000  0.84330000  0.01463000  1.0
  C  C48  1  0.94952000  0.73779000  0.72996000  1.0
  C  C49  1  0.44950000  0.72996000  0.73779000  1.0
  C  C50  1  0.90415000  0.60557000  0.71613000  1.0
  C  C51  1  0.40416000  0.71613000  0.60558000  1.0
  C  C52  1  0.01360000  0.55116000  0.77793000  1.0
  C  C53  1  0.51360000  0.77793000  0.55116000  1.0
  C  C54  1  0.03114000  0.59590000  0.90629000  1.0
  C  C55  1  0.53114000  0.90629000  0.59590000  1.0
  C  C56  1  0.13089000  0.55098000  0.96945000  1.0
  C  C57  1  0.63090000  0.96945000  0.55098000  1.0
  C  C58  1  0.21476000  0.45924000  0.90445000  1.0
  C  C59  1  0.71477000  0.90444000  0.45924000  1.0
  C  C60  1  0.19711000  0.41292000  0.77652000  1.0
  C  C61  1  0.69712000  0.77651000  0.41292000  1.0
  C  C62  1  0.09805000  0.45829000  0.71218000  1.0
  C  C63  1  0.59805000  0.71218000  0.45829000  1.0
  C  C64  1  0.07938000  0.40283000  0.57426000  1.0
  C  C65  1  0.57938000  0.57425000  0.40284000  1.0
  C  C66  1  0.93422000  0.33212000  0.53021000  1.0
  C  C67  1  0.43423000  0.53021000  0.33212000  1.0
  C  C68  1  0.76565000  0.25306000  0.34321000  1.0
  C  C69  1  0.26565000  0.34321000  0.25306000  1.0
  C  C70  1  0.67715000  0.17259000  0.37926000  1.0
  C  C71  1  0.17715000  0.37926000  0.17259000  1.0
  C  C72  1  0.56325000  0.10581000  0.29860000  1.0
  C  C73  1  0.06325000  0.29860000  0.10582000  1.0
  C  C74  1  0.53789000  0.12164000  0.18597000  1.0
  C  C75  1  0.03789000  0.18597000  0.12164000  1.0
  C  C76  1  0.72972000  0.26639000  0.23005000  1.0
  C  C77  1  0.22972000  0.23005000  0.26638000  1.0
  I  I78  1  0.70917000  0.48151000  0.04162000  1.0
  I  I79  1  0.20917000  0.04162000  0.48151000  1.0
  I  I80  1  0.32450000  0.11383000  0.87740000  1.0
  I  I81  1  0.82450000  0.87740000  0.11381000  1.0
  N  N82  1  0.75681000  0.13481000  0.86234000  1.0
  N  N83  1  0.25681000  0.86235000  0.13480000  1.0
  N  N84  1  0.84474000  0.81590000  0.75639000  1.0
  N  N85  1  0.34474000  0.75639000  0.81589000  1.0
  N  N86  1  0.88806000  0.32000000  0.41162000  1.0
  N  N87  1  0.38807000  0.41161000  0.32000000  1.0
  N  N88  1  0.61941000  0.20264000  0.15446000  1.0
  N  N89  1  0.11940000  0.15446000  0.20264000  1.0
  O  O90  1  0.07381000  0.77009000  0.71657000  1.0
  O  O91  1  0.57382000  0.71657000  0.77010000  1.0
  O  O92  1  0.86476000  0.28895000  0.59430000  1.0
  O  O93  1  0.36477000  0.59430000  0.28896000  1.0
