# generated using pymatgen
data_CuH14C14(N5O2)2
_symmetry_space_group_name_H-M   'P 1'
_cell_length_a   7.48006000
_cell_length_b   10.76770000
_cell_length_c   11.10100000
_cell_angle_alpha   89.99930000
_cell_angle_beta   96.27440000
_cell_angle_gamma   89.99910000
_symmetry_Int_Tables_number   1
_chemical_formula_structural   CuH14C14(N5O2)2
_chemical_formula_sum   'Cu2 H28 C28 N20 O8'
_cell_volume   888.75249903
_cell_formula_units_Z   2
loop_
 _symmetry_equiv_pos_site_id
 _symmetry_equiv_pos_as_xyz
  1  'x, y, z'
loop_
 _atom_site_type_symbol
 _atom_site_label
 _atom_site_symmetry_multiplicity
 _atom_site_fract_x
 _atom_site_fract_y
 _atom_site_fract_z
 _atom_site_occupancy
  Cu  Cu0  1  0.25001000  0.68687000  0.75001000  1.0
  Cu  Cu1  1  0.75000000  0.31313000  0.25000000  1.0
  H  H2  1  0.12110000  0.69844000  0.48396000  1.0
  H  H3  1  0.37892000  0.69844000  0.01605000  1.0
  H  H4  1  0.87891000  0.30155000  0.51604000  1.0
  H  H5  1  0.62110000  0.30157000  0.98396000  1.0
  H  H6  1  0.52950000  0.17057000  0.73518000  1.0
  H  H7  1  0.97049000  0.17056000  0.76481000  1.0
  H  H8  1  0.47048000  0.82943000  0.26483000  1.0
  H  H9  1  0.02953000  0.82943000  0.23517000  1.0
  H  H10  1  0.82029000  0.45408000  0.88638000  1.0
  H  H11  1  0.67973000  0.45409000  0.61362000  1.0
  H  H12  1  0.17971000  0.54591000  0.11362000  1.0
  H  H13  1  0.32027000  0.54590000  0.38638000  1.0
  H  H14  1  0.90983000  0.35690000  0.78023000  1.0
  H  H15  1  0.59020000  0.35690000  0.71978000  1.0
  H  H16  1  0.09018000  0.64310000  0.21977000  1.0
  H  H17  1  0.40980000  0.64310000  0.28023000  1.0
  H  H18  1  0.37430000  0.27239000  0.54907000  1.0
  H  H19  1  0.12568000  0.27239000  0.95091000  1.0
  H  H20  1  0.62567000  0.72761000  0.45094000  1.0
  H  H21  1  0.87433000  0.72762000  0.04906000  1.0
  H  H22  1  0.15608000  0.23371000  0.35676000  1.0
  H  H23  1  0.34391000  0.23371000  0.14322000  1.0
  H  H24  1  0.84391000  0.76629000  0.64324000  1.0
  H  H25  1  0.65609000  0.76630000  0.85677000  1.0
  H  H26  1  0.08976000  0.08005000  0.31712000  1.0
  H  H27  1  0.41023000  0.08005000  0.18287000  1.0
  H  H28  1  0.91024000  0.91995000  0.68288000  1.0
  H  H29  1  0.58975000  0.91995000  0.81712000  1.0
  C  C30  1  0.18080000  0.78803000  0.50886000  1.0
  C  C31  1  0.31921000  0.78803000  0.99114000  1.0
  C  C32  1  0.81920000  0.21197000  0.49114000  1.0
  C  C33  1  0.68080000  0.21198000  0.00886000  1.0
  C  C34  1  0.32883000  0.92887000  0.61498000  1.0
  C  C35  1  0.17116000  0.92886000  0.88503000  1.0
  C  C36  1  0.67115000  0.07113000  0.38504000  1.0
  C  C37  1  0.82884000  0.07114000  0.11496000  1.0
  C  C38  1  0.96786000  0.54714000  0.75965000  1.0
  C  C39  1  0.53217000  0.54714000  0.74035000  1.0
  C  C40  1  0.03215000  0.45286000  0.24035000  1.0
  C  C41  1  0.46785000  0.45286000  0.25965000  1.0
  C  C42  1  0.25638000  0.10108000  0.47690000  1.0
  C  C43  1  0.24361000  0.10108000  0.02308000  1.0
  C  C44  1  0.74361000  0.89892000  0.52311000  1.0
  C  C45  1  0.75638000  0.89893000  0.97689000  1.0
  C  C46  1  0.44461000  0.11688000  0.66822000  1.0
  C  C47  1  0.05538000  0.11688000  0.83177000  1.0
  C  C48  1  0.55537000  0.88312000  0.33179000  1.0
  C  C49  1  0.94463000  0.88312000  0.16821000  1.0
  C  C50  1  0.83942000  0.44544000  0.78990000  1.0
  C  C51  1  0.66060000  0.44544000  0.71011000  1.0
  C  C52  1  0.16058000  0.55456000  0.21011000  1.0
  C  C53  1  0.33940000  0.55456000  0.28990000  1.0
  C  C54  1  0.36042000  0.17323000  0.56468000  1.0
  C  C55  1  0.13957000  0.17323000  0.93531000  1.0
  C  C56  1  0.63955000  0.82677000  0.43533000  1.0
  C  C57  1  0.86045000  0.82677000  0.06468000  1.0
  N  N58  1  0.24959000  0.97691000  0.50619000  1.0
  N  N59  1  0.25041000  0.97691000  0.99381000  1.0
  N  N60  1  0.75039000  0.02309000  0.49381000  1.0
  N  N61  1  0.74960000  0.02310000  0.00619000  1.0
  N  N62  1  0.16921000  0.13972000  0.37392000  1.0
  N  N63  1  0.33078000  0.13972000  0.12607000  1.0
  N  N64  1  0.83077000  0.86028000  0.62608000  1.0
  N  N65  1  0.66923000  0.86029000  0.87393000  1.0
  N  N66  1  0.28143000  0.80757000  0.61716000  1.0
  N  N67  1  0.21858000  0.80757000  0.88285000  1.0
  N  N68  1  0.71856000  0.19242000  0.38284000  1.0
  N  N69  1  0.78143000  0.19243000  0.11716000  1.0
  N  N70  1  0.43182000  0.99546000  0.69623000  1.0
  N  N71  1  0.06817000  0.99545000  0.80377000  1.0
  N  N72  1  0.56815000  0.00454000  0.30378000  1.0
  N  N73  1  0.93184000  0.00454000  0.19622000  1.0
  N  N74  1  0.15671000  0.88712000  0.43790000  1.0
  N  N75  1  0.34329000  0.88712000  0.06211000  1.0
  N  N76  1  0.84328000  0.11288000  0.56211000  1.0
  N  N77  1  0.65672000  0.11289000  0.93789000  1.0
  O  O78  1  0.11571000  0.55573000  0.83076000  1.0
  O  O79  1  0.38432000  0.55573000  0.66924000  1.0
  O  O80  1  0.88429000  0.44428000  0.16924000  1.0
  O  O81  1  0.61570000  0.44427000  0.33076000  1.0
  O  O82  1  0.93146000  0.61560000  0.66779000  1.0
  O  O83  1  0.56856000  0.61561000  0.83221000  1.0
  O  O84  1  0.06854000  0.38440000  0.33221000  1.0
  O  O85  1  0.43145000  0.38440000  0.16779000  1.0
