# generated using pymatgen
data_CdH6(C5N6)2
_symmetry_space_group_name_H-M   'P 1'
_cell_length_a   6.51268000
_cell_length_b   6.51267000
_cell_length_c   17.05093701
_cell_angle_alpha   78.98717943
_cell_angle_beta   78.99685070
_cell_angle_gamma   90.01190000
_symmetry_Int_Tables_number   1
_chemical_formula_structural   CdH6(C5N6)2
_chemical_formula_sum   'Cd2 H12 C20 N24'
_cell_volume   696.34100291
_cell_formula_units_Z   2
loop_
 _symmetry_equiv_pos_site_id
 _symmetry_equiv_pos_as_xyz
  1  'x, y, z'
loop_
 _atom_site_type_symbol
 _atom_site_label
 _atom_site_symmetry_multiplicity
 _atom_site_fract_x
 _atom_site_fract_y
 _atom_site_fract_z
 _atom_site_occupancy
  Cd  Cd0  1  0.12501000  0.87501000  0.25000000  1.0
  Cd  Cd1  1  0.87498000  0.12498000  0.75000000  1.0
  H  H2  1  0.17841000  0.75964000  0.48069000  1.0
  H  H3  1  0.75972000  0.17823000  0.98070000  1.0
  H  H4  1  0.75967000  0.84090000  0.98069000  1.0
  H  H5  1  0.24028000  0.82177000  0.01930000  1.0
  H  H6  1  0.84107000  0.75958000  0.48070000  1.0
  H  H7  1  0.15893000  0.24042000  0.51930000  1.0
  H  H8  1  0.82159000  0.24036000  0.51931000  1.0
  H  H9  1  0.24033000  0.15910000  0.01931000  1.0
  H  H10  1  0.46979000  0.71962000  0.56058000  1.0
  H  H11  1  0.71980000  0.46963000  0.06058000  1.0
  H  H12  1  0.28020000  0.53037000  0.93942000  1.0
  H  H13  1  0.53021000  0.28038000  0.43942000  1.0
  C  C14  1  0.62865000  0.87846000  0.24280000  1.0
  C  C15  1  0.87874000  0.62855000  0.74280000  1.0
  C  C16  1  0.12126000  0.37145000  0.25720000  1.0
  C  C17  1  0.37135000  0.12154000  0.75720000  1.0
  C  C18  1  0.58420000  0.83401000  0.33174000  1.0
  C  C19  1  0.83425000  0.58406000  0.83174000  1.0
  C  C20  1  0.16575000  0.41594000  0.16826000  1.0
  C  C21  1  0.41580000  0.16599000  0.66826000  1.0
  C  C22  1  0.34204000  0.77487000  0.45014000  1.0
  C  C23  1  0.77498000  0.34189000  0.95015000  1.0
  C  C24  1  0.77499000  0.70782000  0.95014000  1.0
  C  C25  1  0.22503000  0.65811000  0.04985000  1.0
  C  C26  1  0.70796000  0.77487000  0.45015000  1.0
  C  C27  1  0.29204000  0.22513000  0.54985000  1.0
  C  C28  1  0.65796000  0.22513000  0.54986000  1.0
  C  C29  1  0.22501000  0.29218000  0.04986000  1.0
  C  C30  1  0.50293000  0.75284000  0.49426000  1.0
  C  C31  1  0.75290000  0.50281000  0.99426000  1.0
  C  C32  1  0.24710000  0.49719000  0.00574000  1.0
  C  C33  1  0.49707000  0.24716000  0.50574000  1.0
  N  N34  1  0.48321000  0.90194000  0.19598000  1.0
  N  N35  1  0.90209000  0.48317000  0.69597000  1.0
  N  N36  1  0.90208000  0.82081000  0.69598000  1.0
  N  N37  1  0.09791000  0.51683000  0.30403000  1.0
  N  N38  1  0.82086000  0.90194000  0.19597000  1.0
  N  N39  1  0.17914000  0.09806000  0.80403000  1.0
  N  N40  1  0.51679000  0.09806000  0.80402000  1.0
  N  N41  1  0.09792000  0.17919000  0.30402000  1.0
  N  N42  1  0.58924000  0.94079000  0.11847000  1.0
  N  N43  1  0.94075000  0.58926000  0.61847000  1.0
  N  N44  1  0.94074000  0.79229000  0.61847000  1.0
  N  N45  1  0.05925000  0.41074000  0.38153000  1.0
  N  N46  1  0.79227000  0.94078000  0.11847000  1.0
  N  N47  1  0.20773000  0.05922000  0.88153000  1.0
  N  N48  1  0.41076000  0.05921000  0.88153000  1.0
  N  N49  1  0.05926000  0.20770000  0.38153000  1.0
  N  N50  1  0.38157000  0.81566000  0.36854000  1.0
  N  N51  1  0.81581000  0.38142000  0.86855000  1.0
  N  N52  1  0.81580000  0.74989000  0.86854000  1.0
  N  N53  1  0.18420000  0.61858000  0.13145000  1.0
  N  N54  1  0.75003000  0.81564000  0.36855000  1.0
  N  N55  1  0.24997000  0.18436000  0.63145000  1.0
  N  N56  1  0.61843000  0.18434000  0.63146000  1.0
  N  N57  1  0.18420000  0.25011000  0.13146000  1.0
