# generated using pymatgen
data_SrH14C6(NO6)2
_symmetry_space_group_name_H-M   'P 1'
_cell_length_a   7.73291000
_cell_length_b   8.64053000
_cell_length_c   10.32390000
_cell_angle_alpha   69.91600000
_cell_angle_beta   89.99970000
_cell_angle_gamma   89.99980000
_symmetry_Int_Tables_number   1
_chemical_formula_structural   SrH14C6(NO6)2
_chemical_formula_sum   'Sr2 H28 C12 N4 O24'
_cell_volume   647.85926181
_cell_formula_units_Z   2
loop_
 _symmetry_equiv_pos_site_id
 _symmetry_equiv_pos_as_xyz
  1  'x, y, z'
loop_
 _atom_site_type_symbol
 _atom_site_label
 _atom_site_symmetry_multiplicity
 _atom_site_fract_x
 _atom_site_fract_y
 _atom_site_fract_z
 _atom_site_occupancy
  Sr  Sr0  1  0.00000000  0.00000000  0.00000000  1.0
  Sr  Sr1  1  0.50000000  0.50000000  0.50000000  1.0
  H  H2  1  0.56081000  0.14474000  0.87530000  1.0
  H  H3  1  0.06081000  0.35526000  0.62470000  1.0
  H  H4  1  0.43919000  0.85526000  0.12470000  1.0
  H  H5  1  0.93919000  0.64474000  0.37530000  1.0
  H  H6  1  0.50289000  0.87472000  0.83388000  1.0
  H  H7  1  0.00288000  0.62528000  0.66612000  1.0
  H  H8  1  0.49711000  0.12528000  0.16612000  1.0
  H  H9  1  0.99711000  0.37472000  0.33388000  1.0
  H  H10  1  0.29995000  0.99806000  0.63677000  1.0
  H  H11  1  0.79994000  0.50194000  0.86323000  1.0
  H  H12  1  0.70005000  0.00194000  0.36323000  1.0
  H  H13  1  0.20005000  0.49806000  0.13677000  1.0
  H  H14  1  0.24829000  0.15841000  0.70154000  1.0
  H  H15  1  0.74828000  0.34159000  0.79846000  1.0
  H  H16  1  0.75172000  0.84159000  0.29846000  1.0
  H  H17  1  0.25172000  0.65841000  0.20154000  1.0
  H  H18  1  0.32127000  0.25546000  0.89410000  1.0
  H  H19  1  0.82127000  0.24454000  0.60591000  1.0
  H  H20  1  0.67873000  0.74454000  0.10590000  1.0
  H  H21  1  0.17873000  0.75546000  0.39409000  1.0
  H  H22  1  0.24282000  0.76415000  0.88685000  1.0
  H  H23  1  0.74282000  0.73585000  0.61315000  1.0
  H  H24  1  0.75718000  0.23585000  0.11315000  1.0
  H  H25  1  0.25718000  0.26415000  0.38685000  1.0
  H  H26  1  0.57966000  0.10098000  0.60388000  1.0
  H  H27  1  0.07965000  0.39902000  0.89612000  1.0
  H  H28  1  0.42034000  0.89902000  0.39612000  1.0
  H  H29  1  0.92035000  0.60098000  0.10388000  1.0
  C  C30  1  0.46154000  0.05573000  0.93165000  1.0
  C  C31  1  0.96154000  0.44427000  0.56835000  1.0
  C  C32  1  0.53846000  0.94427000  0.06835000  1.0
  C  C33  1  0.03846000  0.55573000  0.43165000  1.0
  C  C34  1  0.40052000  0.96020000  0.84029000  1.0
  C  C35  1  0.90052000  0.53980000  0.65971000  1.0
  C  C36  1  0.59948000  0.03980000  0.15971000  1.0
  C  C37  1  0.09948000  0.46020000  0.34029000  1.0
  C  C38  1  0.35085000  0.07349000  0.69494000  1.0
  C  C39  1  0.85085000  0.42652000  0.80507000  1.0
  C  C40  1  0.64915000  0.92651000  0.30506000  1.0
  C  C41  1  0.14915000  0.57348000  0.19494000  1.0
  N  N42  1  0.84053000  0.93549000  0.72639000  1.0
  N  N43  1  0.34053000  0.56451000  0.77361000  1.0
  N  N44  1  0.15948000  0.06451000  0.27360000  1.0
  N  N45  1  0.65947000  0.43549000  0.22639000  1.0
  O  O46  1  0.31670000  0.14192000  0.96222000  1.0
  O  O47  1  0.81670000  0.35808000  0.53778000  1.0
  O  O48  1  0.68330000  0.85808000  0.03778000  1.0
  O  O49  1  0.18330000  0.64192000  0.46222000  1.0
  O  O50  1  0.24972000  0.86934000  0.90499000  1.0
  O  O51  1  0.74972000  0.63067000  0.59501000  1.0
  O  O52  1  0.75027000  0.13066000  0.09501000  1.0
  O  O53  1  0.25028000  0.36933000  0.40499000  1.0
  O  O54  1  0.49255000  0.17378000  0.62301000  1.0
  O  O55  1  0.99255000  0.32622000  0.87699000  1.0
  O  O56  1  0.50745000  0.82622000  0.37699000  1.0
  O  O57  1  0.00745000  0.67378000  0.12301000  1.0
  O  O58  1  0.87135000  0.07146000  0.74719000  1.0
  O  O59  1  0.37135000  0.42854000  0.75281000  1.0
  O  O60  1  0.12865000  0.92854000  0.25281000  1.0
  O  O61  1  0.62865000  0.57146000  0.24719000  1.0
  O  O62  1  0.89735000  0.80353000  0.80814000  1.0
  O  O63  1  0.39734000  0.69647000  0.69186000  1.0
  O  O64  1  0.10265000  0.19647000  0.19186000  1.0
  O  O65  1  0.60265000  0.30353000  0.30814000  1.0
  O  O66  1  0.74982000  0.94078000  0.62162000  1.0
  O  O67  1  0.24981000  0.55922000  0.87838000  1.0
  O  O68  1  0.25019000  0.05922000  0.37838000  1.0
  O  O69  1  0.75018000  0.44078000  0.12162000  1.0
