# generated using pymatgen
data_Zn4H15C44S5N16(O3F)5
_symmetry_space_group_name_H-M   'P 1'
_cell_length_a   16.24960000
_cell_length_b   16.25840000
_cell_length_c   18.29851147
_cell_angle_alpha   106.67160328
_cell_angle_beta   104.63416582
_cell_angle_gamma   111.92000000
_symmetry_Int_Tables_number   1
_chemical_formula_structural   Zn4H15C44S5N16(O3F)5
_chemical_formula_sum   'Zn4 H15 C44 S5 N16 O15 F5'
_cell_volume   3928.58518409
_cell_formula_units_Z   1
loop_
 _symmetry_equiv_pos_site_id
 _symmetry_equiv_pos_as_xyz
  1  'x, y, z'
loop_
 _atom_site_type_symbol
 _atom_site_label
 _atom_site_symmetry_multiplicity
 _atom_site_fract_x
 _atom_site_fract_y
 _atom_site_fract_z
 _atom_site_occupancy
  Zn  Zn0  1  0.37133000  0.37882000  0.51358000  1.0
  Zn  Zn1  1  0.66411000  0.67129000  0.53000000  1.0
  Zn  Zn2  1  0.35109000  0.43155000  0.33622000  1.0
  Zn  Zn3  1  0.63204000  0.52255000  0.63460000  1.0
  H  H4  1  0.78156000  0.70552000  0.82560000  1.0
  H  H5  1  0.23461000  0.46601000  0.56849000  1.0
  H  H6  1  0.60854000  0.65151000  0.78815000  1.0
  H  H7  1  0.34796000  0.66990000  0.42085000  1.0
  H  H8  1  0.83665000  0.91479000  0.07238000  1.0
  H  H9  1  0.80116000  0.61369000  0.44719000  1.0
  H  H10  1  0.65773000  0.52676000  0.29716000  1.0
  H  H11  1  0.38230000  0.17856000  0.43065000  1.0
  H  H12  1  0.70713000  0.38676000  0.53315000  1.0
  H  H13  1  0.31320000  0.41662000  0.68059000  1.0
  H  H14  1  0.68569000  0.86791000  0.37561000  1.0
  H  H15  1  0.99484000  0.31450000  0.22134000  1.0
  H  H16  1  0.28836000  0.62696000  0.94818000  1.0
  H  H17  1  0.76338000  0.72295000  0.17334000  1.0
  H  H18  1  0.68409000  0.27380000  0.74706000  1.0
  C  C19  1  0.18616000  0.20467000  0.36719000  1.0
  C  C20  1  0.77832000  0.48332000  0.47683000  1.0
  C  C21  1  0.54025000  0.56043000  0.24067000  1.0
  C  C22  1  0.51992000  0.21679000  0.53323000  1.0
  C  C23  1  0.38657000  0.46815000  0.69331000  1.0
  C  C24  1  0.58088000  0.77340000  0.46727000  1.0
  C  C25  1  0.19152000  0.44546000  0.37768000  1.0
  C  C26  1  0.75569000  0.72822000  0.77822000  1.0
  C  C27  1  0.71082000  0.80361000  0.70732000  1.0
  C  C28  1  0.23128000  0.46021000  0.50711000  1.0
  C  C29  1  0.53819000  0.58806000  0.74765000  1.0
  C  C30  1  0.76817000  0.56463000  0.47318000  1.0
  C  C31  1  0.42462000  0.69355000  0.43662000  1.0
  C  C32  1  0.45742000  0.55133000  0.76740000  1.0
  C  C33  1  0.49790000  0.78600000  0.45115000  1.0
  C  C34  1  0.15459000  0.44804000  0.44005000  1.0
  C  C35  1  0.75219000  0.81656000  0.78991000  1.0
  C  C36  1  0.51999000  0.12737000  0.51670000  1.0
  C  C37  1  0.51111000  0.04467000  0.49579000  1.0
  C  C38  1  0.50225000  0.95444000  0.47474000  1.0
  C  C39  1  0.49523000  0.87281000  0.45859000  1.0
  C  C40  1  0.84296000  0.45439000  0.45487000  1.0
  C  C41  1  0.45080000  0.52838000  0.24804000  1.0
  C  C42  1  0.90875000  0.44117000  0.44242000  1.0
  C  C43  1  0.98811000  0.43649000  0.43682000  1.0
  C  C44  1  0.06477000  0.44003000  0.43630000  1.0
  C  C45  1  0.56360000  0.60688000  0.19015000  1.0
  C  C46  1  0.56466000  0.65433000  0.06619000  1.0
  C  C47  1  0.47947000  0.62401000  0.00086000  1.0
  C  C48  1  0.46825000  0.61138000  0.91998000  1.0
  C  C49  1  0.57033000  0.64018000  0.13827000  1.0
  C  C50  1  0.45746000  0.58482000  0.84688000  1.0
  C  C51  1  0.78285000  0.89375000  0.86640000  1.0
  C  C52  1  0.58574000  0.31186000  0.59826000  1.0
  C  C53  1  0.87057000  0.01863000  0.02287000  1.0
  C  C54  1  0.88471000  0.99054000  0.08640000  1.0
  C  C55  1  0.96526000  0.05128000  0.16245000  1.0
  C  C56  1  0.81657000  0.95406000  0.93850000  1.0
  C  C57  1  0.04305000  0.10280000  0.22296000  1.0
  C  C58  1  0.58701000  0.52187000  0.28763000  1.0
  C  C59  1  0.44774000  0.23183000  0.48629000  1.0
  C  C60  1  0.71918000  0.44846000  0.51743000  1.0
  C  C61  1  0.21538000  0.22458000  0.26284000  1.0
  C  C62  1  0.13890000  0.16851000  0.28011000  1.0
  S  S63  1  0.70075000  0.84800000  0.48826000  1.0
  S  S64  1  0.14306000  0.42673000  0.27383000  1.0
  S  S65  1  0.36967000  0.57862000  0.01909000  1.0
  S  S66  1  0.67636000  0.69816000  0.05150000  1.0
  S  S67  1  0.69802000  0.36408000  0.68166000  1.0
  N  N68  1  0.27818000  0.27377000  0.39758000  1.0
  N  N69  1  0.55724000  0.68279000  0.46418000  1.0
  N  N70  1  0.28124000  0.45585000  0.40672000  1.0
  N  N71  1  0.71907000  0.66970000  0.69673000  1.0
  N  N72  1  0.69118000  0.71735000  0.65199000  1.0
  N  N73  1  0.30589000  0.46397000  0.48541000  1.0
  N  N74  1  0.51805000  0.53129000  0.66909000  1.0
  N  N75  1  0.46157000  0.63380000  0.44568000  1.0
  N  N76  1  0.70936000  0.57665000  0.50991000  1.0
  N  N77  1  0.44567000  0.47655000  0.29327000  1.0
  N  N78  1  0.55376000  0.37496000  0.58928000  1.0
  N  N79  1  0.53119000  0.47233000  0.31875000  1.0
  N  N80  1  0.46993000  0.32673000  0.52090000  1.0
  N  N81  1  0.67885000  0.50556000  0.53757000  1.0
  N  N82  1  0.29766000  0.28810000  0.33082000  1.0
  N  N83  1  0.42418000  0.45663000  0.63596000  1.0
  O  O84  1  0.73099000  0.94947000  0.53211000  1.0
  O  O85  1  0.75435000  0.80245000  0.52137000  1.0
  O  O86  1  0.70580000  0.82760000  0.39863000  1.0
  O  O87  1  0.10398000  0.49089000  0.26550000  1.0
  O  O88  1  0.21698000  0.42370000  0.24390000  1.0
  O  O89  1  0.05727000  0.31611000  0.22786000  1.0
  O  O90  1  0.34317000  0.48165000  0.01287000  1.0
  O  O91  1  0.37947000  0.65494000  0.09002000  1.0
  O  O92  1  0.29029000  0.56521000  0.93663000  1.0
  O  O93  1  0.69102000  0.61600000  0.01685000  1.0
  O  O94  1  0.68233000  0.76605000  0.01473000  1.0
  O  O95  1  0.75508000  0.76551000  0.14685000  1.0
  O  O96  1  0.75770000  0.32565000  0.65636000  1.0
  O  O97  1  0.73058000  0.46832000  0.71667000  1.0
  O  O98  1  0.67186000  0.32915000  0.75020000  1.0
  F  F99  1  0.14952000  0.17737000  0.41936000  1.0
  F  F100  1  0.69241000  0.86614000  0.68125000  1.0
  F  F101  1  0.92241000  0.11501000  0.03891000  1.0
  F  F102  1  0.37862000  0.54567000  0.21731000  1.0
  F  F103  1  0.21136000  0.22089000  0.18825000  1.0
