# generated using pymatgen
data_CdH18C23(N5O2)2
_symmetry_space_group_name_H-M   'P 1'
_cell_length_a   8.58289000
_cell_length_b   10.48130000
_cell_length_c   13.79540000
_cell_angle_alpha   80.95300000
_cell_angle_beta   78.14380000
_cell_angle_gamma   80.15130000
_symmetry_Int_Tables_number   1
_chemical_formula_structural   CdH18C23(N5O2)2
_chemical_formula_sum   'Cd2 H36 C46 N20 O8'
_cell_volume   1187.02417089
_cell_formula_units_Z   2
loop_
 _symmetry_equiv_pos_site_id
 _symmetry_equiv_pos_as_xyz
  1  'x, y, z'
loop_
 _atom_site_type_symbol
 _atom_site_label
 _atom_site_symmetry_multiplicity
 _atom_site_fract_x
 _atom_site_fract_y
 _atom_site_fract_z
 _atom_site_occupancy
  Cd  Cd0  1  0.64706000  0.61442000  0.53345000  1.0
  Cd  Cd1  1  0.35294000  0.38559000  0.46655000  1.0
  H  H2  1  0.97548000  0.25014000  0.64506000  1.0
  H  H3  1  0.02452000  0.74986000  0.35494000  1.0
  H  H4  1  0.12839000  0.02674000  0.67539000  1.0
  H  H5  1  0.87161000  0.97326000  0.32461000  1.0
  H  H6  1  0.01756000  0.83410000  0.64082000  1.0
  H  H7  1  0.98244000  0.16590000  0.35918000  1.0
  H  H8  1  0.61385000  0.09051000  0.54705000  1.0
  H  H9  1  0.38615000  0.90949000  0.45295000  1.0
  H  H10  1  0.67094000  0.77837000  0.32046000  1.0
  H  H11  1  0.32906000  0.22163000  0.67954000  1.0
  H  H12  1  0.07126000  0.60711000  0.11208000  1.0
  H  H13  1  0.92874000  0.39289000  0.88792000  1.0
  H  H14  1  0.11722000  0.42350000  0.25001000  1.0
  H  H15  1  0.88278000  0.57649000  0.74999000  1.0
  H  H16  1  0.93897000  0.42959000  0.41504000  1.0
  H  H17  1  0.06103000  0.57041000  0.58496000  1.0
  H  H18  1  0.93669000  0.94333000  0.85061000  1.0
  H  H19  1  0.06331000  0.05667000  0.14939000  1.0
  H  H20  1  0.81664000  0.09203000  0.88329000  1.0
  H  H21  1  0.18336000  0.90797000  0.11671000  1.0
  H  H22  1  0.68496000  0.99904000  0.77942000  1.0
  H  H23  1  0.31504000  0.00096000  0.22058000  1.0
  H  H24  1  0.56664000  0.99574000  0.89991000  1.0
  H  H25  1  0.43336000  0.00426000  0.10009000  1.0
  H  H26  1  0.58936000  0.79678000  0.80792000  1.0
  H  H27  1  0.41064000  0.20322000  0.19208000  1.0
  H  H28  1  0.79268000  0.75534000  0.82346000  1.0
  H  H29  1  0.20732000  0.24466000  0.17654000  1.0
  H  H30  1  0.43815000  0.56125000  0.26322000  1.0
  H  H31  1  0.56185000  0.43875000  0.73678000  1.0
  H  H32  1  0.80459000  0.35828000  0.05367000  1.0
  H  H33  1  0.19541000  0.64172000  0.94633000  1.0
  H  H34  1  0.82031000  0.16906000  0.18836000  1.0
  H  H35  1  0.17969000  0.83094000  0.81164000  1.0
  H  H36  1  0.64603000  0.18795000  0.35704000  1.0
  H  H37  1  0.35397000  0.81204000  0.64296000  1.0
  C  C38  1  0.70245000  0.32106000  0.57588000  1.0
  C  C39  1  0.29755000  0.67894000  0.42412000  1.0
  C  C40  1  0.78630000  0.18408000  0.59579000  1.0
  C  C41  1  0.21370000  0.81592000  0.40421000  1.0
  C  C42  1  0.93071000  0.16468000  0.63205000  1.0
  C  C43  1  0.06929000  0.83532000  0.36795000  1.0
  C  C44  1  0.01483000  0.03974000  0.64881000  1.0
  C  C45  1  0.98517000  0.96026000  0.35119000  1.0
  C  C46  1  0.95414000  0.93307000  0.62949000  1.0
  C  C47  1  0.04586000  0.06693000  0.37051000  1.0
  C  C48  1  0.81003000  0.95114000  0.59286000  1.0
  C  C49  1  0.18997000  0.04886000  0.40714000  1.0
  C  C50  1  0.74973000  0.83444000  0.57124000  1.0
  C  C51  1  0.25027000  0.16556000  0.42876000  1.0
  C  C52  1  0.72559000  0.07694000  0.57598000  1.0
  C  C53  1  0.27441000  0.92306000  0.42402000  1.0
  C  C54  1  0.77111000  0.70198000  0.30095000  1.0
  C  C55  1  0.22889000  0.29802000  0.69905000  1.0
  C  C56  1  0.86808000  0.70821000  0.20586000  1.0
  C  C57  1  0.13192000  0.29179000  0.79414000  1.0
  C  C58  1  0.99331000  0.60543000  0.18522000  1.0
  C  C59  1  0.00669000  0.39457000  0.81477000  1.0
  C  C60  1  0.01875000  0.50340000  0.26018000  1.0
  C  C61  1  0.98125000  0.49660000  0.73982000  1.0
  C  C62  1  0.91914000  0.50586000  0.35360000  1.0
  C  C63  1  0.08086000  0.49414000  0.64640000  1.0
  C  C64  1  0.83865000  0.82098000  0.13195000  1.0
  C  C65  1  0.16135000  0.17902000  0.86805000  1.0
  C  C66  1  0.82200000  0.98569000  0.89270000  1.0
  C  C67  1  0.17800000  0.01431000  0.10730000  1.0
  C  C68  1  0.67901000  0.95146000  0.85666000  1.0
  C  C69  1  0.32099000  0.04854000  0.14334000  1.0
  C  C70  1  0.67512000  0.80680000  0.85452000  1.0
  C  C71  1  0.32488000  0.19320000  0.14547000  1.0
  C  C72  1  0.60064000  0.59422000  0.07692000  1.0
  C  C73  1  0.39936000  0.40578000  0.92308000  1.0
  C  C74  1  0.52574000  0.47656000  0.24399000  1.0
  C  C75  1  0.47426000  0.52344000  0.75601000  1.0
  C  C76  1  0.61956000  0.47604000  0.14783000  1.0
  C  C77  1  0.38044000  0.52397000  0.85217000  1.0
  C  C78  1  0.72877000  0.36371000  0.12707000  1.0
  C  C79  1  0.27123000  0.63629000  0.87293000  1.0
  C  C80  1  0.73958000  0.25877000  0.20231000  1.0
  C  C81  1  0.26042000  0.74123000  0.79769000  1.0
  C  C82  1  0.64291000  0.26793000  0.29604000  1.0
  C  C83  1  0.35709000  0.73207000  0.70396000  1.0
  N  N84  1  0.53790000  0.37573000  0.31589000  1.0
  N  N85  1  0.46211000  0.62426000  0.68411000  1.0
  N  N86  1  0.79724000  0.60289000  0.37287000  1.0
  N  N87  1  0.20276000  0.39711000  0.62713000  1.0
  N  N88  1  0.50340000  0.70522000  0.10394000  1.0
  N  N89  1  0.49660000  0.29478000  0.89606000  1.0
  N  N90  1  0.52038000  0.79415000  0.02544000  1.0
  N  N91  1  0.47962000  0.20585000  0.97456000  1.0
  N  N92  1  0.62487000  0.73670000  0.95395000  1.0
  N  N93  1  0.37513000  0.26330000  0.04605000  1.0
  N  N94  1  0.67840000  0.61201000  0.98173000  1.0
  N  N95  1  0.32160000  0.38799000  0.01827000  1.0
  N  N96  1  0.82436000  0.94163000  0.99830000  1.0
  N  N97  1  0.17564000  0.05837000  0.00170000  1.0
  N  N98  1  0.75868000  0.01689000  0.06997000  1.0
  N  N99  1  0.24132000  0.98311000  0.93003000  1.0
  N  N100  1  0.87742000  0.81926000  0.03268000  1.0
  N  N101  1  0.12258000  0.18074000  0.96732000  1.0
  N  N102  1  0.76717000  0.94172000  0.15538000  1.0
  N  N103  1  0.23283000  0.05828000  0.84462000  1.0
  O  O104  1  0.77764000  0.41358000  0.58349000  1.0
  O  O105  1  0.22236000  0.58642000  0.41651000  1.0
  O  O106  1  0.56375000  0.33899000  0.55369000  1.0
  O  O107  1  0.43625000  0.66101000  0.44631000  1.0
  O  O108  1  0.64161000  0.85051000  0.51785000  1.0
  O  O109  1  0.35839000  0.14949000  0.48215000  1.0
  O  O110  1  0.81110000  0.72167000  0.60810000  1.0
  O  O111  1  0.18890000  0.27833000  0.39190000  1.0
