# generated using pymatgen
data_HgH18C18S2(IN)2
_symmetry_space_group_name_H-M   'P 1'
_cell_length_a   15.51220000
_cell_length_b   16.53500000
_cell_length_c   16.53510000
_cell_angle_alpha   68.64750000
_cell_angle_beta   72.11720000
_cell_angle_gamma   72.11670000
_symmetry_Int_Tables_number   1
_chemical_formula_structural   HgH18C18S2(IN)2
_chemical_formula_sum   'Hg6 H108 C108 S12 I12 N12'
_cell_volume   3666.83362991
_cell_formula_units_Z   6
loop_
 _symmetry_equiv_pos_site_id
 _symmetry_equiv_pos_as_xyz
  1  'x, y, z'
loop_
 _atom_site_type_symbol
 _atom_site_label
 _atom_site_symmetry_multiplicity
 _atom_site_fract_x
 _atom_site_fract_y
 _atom_site_fract_z
 _atom_site_occupancy
  Hg  Hg0  1  0.75000000  0.55702000  0.44298000  1.0
  Hg  Hg1  1  0.25000000  0.44298000  0.55702000  1.0
  Hg  Hg2  1  0.46475000  0.94928000  0.73400000  1.0
  Hg  Hg3  1  0.03526000  0.26600000  0.05072000  1.0
  Hg  Hg4  1  0.53526000  0.05072000  0.26600000  1.0
  Hg  Hg5  1  0.96474000  0.73401000  0.94928000  1.0
  H  H6  1  0.58805000  0.52692000  0.91471000  1.0
  H  H7  1  0.91194000  0.08530000  0.47308000  1.0
  H  H8  1  0.41194000  0.47308000  0.08530000  1.0
  H  H9  1  0.08806000  0.91470000  0.52692000  1.0
  H  H10  1  0.57643000  0.41502000  0.95112000  1.0
  H  H11  1  0.92357000  0.04888000  0.58498000  1.0
  H  H12  1  0.42357000  0.58498000  0.04888000  1.0
  H  H13  1  0.07643000  0.95112000  0.41501000  1.0
  H  H14  1  0.88578000  0.48592000  0.58368000  1.0
  H  H15  1  0.61421000  0.41633000  0.51407000  1.0
  H  H16  1  0.11421000  0.51407000  0.41633000  1.0
  H  H17  1  0.38579000  0.58367000  0.48593000  1.0
  H  H18  1  0.34412000  0.21518000  0.45295000  1.0
  H  H19  1  0.15587000  0.54705000  0.78482000  1.0
  H  H20  1  0.65588000  0.78482000  0.54705000  1.0
  H  H21  1  0.84412000  0.45295000  0.21518000  1.0
  H  H22  1  0.64474000  0.13725000  0.41019000  1.0
  H  H23  1  0.85526000  0.58981000  0.86274000  1.0
  H  H24  1  0.35527000  0.86274000  0.58981000  1.0
  H  H25  1  0.14473000  0.41019000  0.13725000  1.0
  H  H26  1  0.33808000  0.09138000  0.59580000  1.0
  H  H27  1  0.16192000  0.40420000  0.90862000  1.0
  H  H28  1  0.66191000  0.90862000  0.40420000  1.0
  H  H29  1  0.83808000  0.59580000  0.09138000  1.0
  H  H30  1  0.88485000  0.43453000  0.74531000  1.0
  H  H31  1  0.61514000  0.25469000  0.56547000  1.0
  H  H32  1  0.11514000  0.56547000  0.25468000  1.0
  H  H33  1  0.38486000  0.74531000  0.43453000  1.0
  H  H34  1  0.58330000  0.49701000  0.79624000  1.0
  H  H35  1  0.91669000  0.20376000  0.50299000  1.0
  H  H36  1  0.41669000  0.50299000  0.20376000  1.0
  H  H37  1  0.08331000  0.79624000  0.49701000  1.0
  H  H38  1  0.62456000  0.01801000  0.55428000  1.0
  H  H39  1  0.87545000  0.44572000  0.98199000  1.0
  H  H40  1  0.37544000  0.98199000  0.44573000  1.0
  H  H41  1  0.12455000  0.55428000  0.01801000  1.0
  H  H42  1  0.67007000  0.88052000  0.19694000  1.0
  H  H43  1  0.82993000  0.80306000  0.11948000  1.0
  H  H44  1  0.32993000  0.11949000  0.80305000  1.0
  H  H45  1  0.17007000  0.19695000  0.88051000  1.0
  H  H46  1  0.59829000  0.54606000  0.63302000  1.0
  H  H47  1  0.90171000  0.36698000  0.45394000  1.0
  H  H48  1  0.40171000  0.45393000  0.36698000  1.0
  H  H49  1  0.09829000  0.63302000  0.54606000  1.0
  H  H50  1  0.36756000  0.81693000  0.23812000  1.0
  H  H51  1  0.13244000  0.76188000  0.18307000  1.0
  H  H52  1  0.63244000  0.18308000  0.76188000  1.0
  H  H53  1  0.86756000  0.23812000  0.81693000  1.0
  H  H54  1  0.66338000  0.64962000  0.11028000  1.0
  H  H55  1  0.83662000  0.88971000  0.35038000  1.0
  H  H56  1  0.33662000  0.35038000  0.88971000  1.0
  H  H57  1  0.16338000  0.11029000  0.64962000  1.0
  H  H58  1  0.65252000  0.58934000  0.22553000  1.0
  H  H59  1  0.84748000  0.77447000  0.41067000  1.0
  H  H60  1  0.34748000  0.41066000  0.77448000  1.0
  H  H61  1  0.15252000  0.22553000  0.58934000  1.0
  H  H62  1  0.58142000  0.38891000  0.36211000  1.0
  H  H63  1  0.91858000  0.63789000  0.61109000  1.0
  H  H64  1  0.41858000  0.61109000  0.63789000  1.0
  H  H65  1  0.08142000  0.36211000  0.38891000  1.0
  H  H66  1  0.57032000  0.50475000  0.32639000  1.0
  H  H67  1  0.92968000  0.67361000  0.49525000  1.0
  H  H68  1  0.42969000  0.49524000  0.67361000  1.0
  H  H69  1  0.07032000  0.32639000  0.50475000  1.0
  H  H70  1  0.68202000  0.43372000  0.32129000  1.0
  H  H71  1  0.81799000  0.67871000  0.56629000  1.0
  H  H72  1  0.31799000  0.56628000  0.67871000  1.0
  H  H73  1  0.18201000  0.32129000  0.43372000  1.0
  H  H74  1  0.62397000  0.67131000  0.00492000  1.0
  H  H75  1  0.87603000  0.99508000  0.32869000  1.0
  H  H76  1  0.37603000  0.32869000  0.99509000  1.0
  H  H77  1  0.12397000  0.00491000  0.67131000  1.0
  H  H78  1  0.55867000  0.63790000  0.95782000  1.0
  H  H79  1  0.94133000  0.04217000  0.36211000  1.0
  H  H80  1  0.44133000  0.36210000  0.04218000  1.0
  H  H81  1  0.05867000  0.95782000  0.63790000  1.0
  H  H82  1  0.68092000  0.60721000  0.93081000  1.0
  H  H83  1  0.81908000  0.06919000  0.39279000  1.0
  H  H84  1  0.31908000  0.39279000  0.06919000  1.0
  H  H85  1  0.18092000  0.93081000  0.60721000  1.0
  H  H86  1  0.61173000  0.29866000  0.02916000  1.0
  H  H87  1  0.88827000  0.97085000  0.70133000  1.0
  H  H88  1  0.38826000  0.70134000  0.97085000  1.0
  H  H89  1  0.11173000  0.02916000  0.29866000  1.0
  H  H90  1  0.55766000  0.25804000  0.14273000  1.0
  H  H91  1  0.94234000  0.85727000  0.74196000  1.0
  H  H92  1  0.44233000  0.74197000  0.85728000  1.0
  H  H93  1  0.05766000  0.14273000  0.25803000  1.0
  H  H94  1  0.67992000  0.23811000  0.10864000  1.0
  H  H95  1  0.82008000  0.89136000  0.76188000  1.0
  H  H96  1  0.32007000  0.76189000  0.89136000  1.0
  H  H97  1  0.17992000  0.10864000  0.23811000  1.0
  H  H98  1  0.38331000  0.95452000  0.25628000  1.0
  H  H99  1  0.11669000  0.74372000  0.04547000  1.0
  H  H100  1  0.61669000  0.04548000  0.74372000  1.0
  H  H101  1  0.88331000  0.25628000  0.95452000  1.0
  H  H102  1  0.66895000  0.74027000  0.17496000  1.0
  H  H103  1  0.83105000  0.82504000  0.25973000  1.0
  H  H104  1  0.33105000  0.25974000  0.82504000  1.0
  H  H105  1  0.16895000  0.17496000  0.74026000  1.0
  H  H106  1  0.65032000  0.27844000  0.32443000  1.0
  H  H107  1  0.84968000  0.67557000  0.72156000  1.0
  H  H108  1  0.34968000  0.72156000  0.67557000  1.0
  H  H109  1  0.15032000  0.32443000  0.27844000  1.0
  H  H110  1  0.65105000  0.22419000  0.24872000  1.0
  H  H111  1  0.84894000  0.75128000  0.77581000  1.0
  H  H112  1  0.34895000  0.77580000  0.75128000  1.0
  H  H113  1  0.15105000  0.24872000  0.22419000  1.0
  C  C114  1  0.49544000  0.18862000  0.41980000  1.0
  C  C115  1  0.00456000  0.58020000  0.81139000  1.0
  C  C116  1  0.50456000  0.81139000  0.58019000  1.0
  C  C117  1  0.99544000  0.41981000  0.18861000  1.0
  C  C118  1  0.61628000  0.36880000  0.20009000  1.0
  C  C119  1  0.88373000  0.79991000  0.63120000  1.0
  C  C120  1  0.38374000  0.63120000  0.79991000  1.0
  C  C121  1  0.11627000  0.20009000  0.36879000  1.0
  C  C122  1  0.61509000  0.37206000  0.11392000  1.0
  C  C123  1  0.88492000  0.88608000  0.62794000  1.0
  C  C124  1  0.38491000  0.62794000  0.88608000  1.0
  C  C125  1  0.11508000  0.11392000  0.37206000  1.0
  C  C126  1  0.61603000  0.45893000  0.95251000  1.0
  C  C127  1  0.88397000  0.04749000  0.54107000  1.0
  C  C128  1  0.38397000  0.54108000  0.04749000  1.0
  C  C129  1  0.11603000  0.95251000  0.45892000  1.0
  C  C130  1  0.61873000  0.53062000  0.06157000  1.0
  C  C131  1  0.88126000  0.93843000  0.46939000  1.0
  C  C132  1  0.38127000  0.46938000  0.93843000  1.0
  C  C133  1  0.11873000  0.06157000  0.53062000  1.0
  C  C134  1  0.82033000  0.48685000  0.63345000  1.0
  C  C135  1  0.67967000  0.36656000  0.51315000  1.0
  C  C136  1  0.17967000  0.51315000  0.36656000  1.0
  C  C137  1  0.32033000  0.63344000  0.48685000  1.0
  C  C138  1  0.61573000  0.44574000  0.21825000  1.0
  C  C139  1  0.88427000  0.78174000  0.55426000  1.0
  C  C140  1  0.38428000  0.55426000  0.78175000  1.0
  C  C141  1  0.11572000  0.21825000  0.44574000  1.0
  C  C142  1  0.61951000  0.52600000  0.14810000  1.0
  C  C143  1  0.88049000  0.85190000  0.47400000  1.0
  C  C144  1  0.38050000  0.47400000  0.85190000  1.0
  C  C145  1  0.11951000  0.14810000  0.52600000  1.0
  C  C146  1  0.40810000  0.17349000  0.47323000  1.0
  C  C147  1  0.09190000  0.52677000  0.82651000  1.0
  C  C148  1  0.59190000  0.82651000  0.52677000  1.0
  C  C149  1  0.90810000  0.47323000  0.17349000  1.0
  C  C150  1  0.61529000  0.45342000  0.04557000  1.0
  C  C151  1  0.88471000  0.95443000  0.54658000  1.0
  C  C152  1  0.38471000  0.54658000  0.95443000  1.0
  C  C153  1  0.11529000  0.04557000  0.45342000  1.0
  C  C154  1  0.57507000  0.13106000  0.44901000  1.0
  C  C155  1  0.92493000  0.55099000  0.86894000  1.0
  C  C156  1  0.42493000  0.86894000  0.55099000  1.0
  C  C157  1  0.07506000  0.44901000  0.13106000  1.0
  C  C158  1  0.40440000  0.10483000  0.55223000  1.0
  C  C159  1  0.09560000  0.44777000  0.89517000  1.0
  C  C160  1  0.59560000  0.89517000  0.44777000  1.0
  C  C161  1  0.90440000  0.55223000  0.10483000  1.0
  C  C162  1  0.81953000  0.45825000  0.72341000  1.0
  C  C163  1  0.68046000  0.27659000  0.54174000  1.0
  C  C164  1  0.18046000  0.54174000  0.27659000  1.0
  C  C165  1  0.31954000  0.72341000  0.45825000  1.0
  C  C166  1  0.65219000  0.49312000  0.75263000  1.0
  C  C167  1  0.84781000  0.24737000  0.50689000  1.0
  C  C168  1  0.34781000  0.50688000  0.24737000  1.0
  C  C169  1  0.15220000  0.75262000  0.49311000  1.0
  C  C170  1  0.56414000  0.06377000  0.52946000  1.0
  C  C171  1  0.93586000  0.47053000  0.93623000  1.0
  C  C172  1  0.43585000  0.93623000  0.47054000  1.0
  C  C173  1  0.06414000  0.52947000  0.06377000  1.0
  C  C174  1  0.60454000  0.86335000  0.20519000  1.0
  C  C175  1  0.89546000  0.79481000  0.13665000  1.0
  C  C176  1  0.39546000  0.13666000  0.79480000  1.0
  C  C177  1  0.10454000  0.20520000  0.86334000  1.0
  C  C178  1  0.66002000  0.52042000  0.66110000  1.0
  C  C179  1  0.83997000  0.33890000  0.47958000  1.0
  C  C180  1  0.33997000  0.47958000  0.33890000  1.0
  C  C181  1  0.16003000  0.66110000  0.52041000  1.0
  C  C182  1  0.43636000  0.82821000  0.22779000  1.0
  C  C183  1  0.06364000  0.77221000  0.17179000  1.0
  C  C184  1  0.56364000  0.17180000  0.77221000  1.0
  C  C185  1  0.93636000  0.22779000  0.82820000  1.0
  C  C186  1  0.51738000  0.76598000  0.20435000  1.0
  C  C187  1  0.98263000  0.79565000  0.23402000  1.0
  C  C188  1  0.48262000  0.23402000  0.79565000  1.0
  C  C189  1  0.01737000  0.20435000  0.76598000  1.0
  C  C190  1  0.62283000  0.60716000  0.16742000  1.0
  C  C191  1  0.87717000  0.83258000  0.39284000  1.0
  C  C192  1  0.37717000  0.39284000  0.83258000  1.0
  C  C193  1  0.12283000  0.16742000  0.60716000  1.0
  C  C194  1  0.61213000  0.44299000  0.31133000  1.0
  C  C195  1  0.88787000  0.68867000  0.55702000  1.0
  C  C196  1  0.38788000  0.55701000  0.68868000  1.0
  C  C197  1  0.11213000  0.31133000  0.44299000  1.0
  C  C198  1  0.73367000  0.46176000  0.78542000  1.0
  C  C199  1  0.76633000  0.21458000  0.53824000  1.0
  C  C200  1  0.26633000  0.53823000  0.21458000  1.0
  C  C201  1  0.23367000  0.78542000  0.46176000  1.0
  C  C202  1  0.62074000  0.61584000  0.98584000  1.0
  C  C203  1  0.87925000  0.01416000  0.38416000  1.0
  C  C204  1  0.37926000  0.38416000  0.01417000  1.0
  C  C205  1  0.12074000  0.98583000  0.61584000  1.0
  C  C206  1  0.61566000  0.28826000  0.09725000  1.0
  C  C207  1  0.88434000  0.90275000  0.71173000  1.0
  C  C208  1  0.38434000  0.71173000  0.90275000  1.0
  C  C209  1  0.11566000  0.09725000  0.28827000  1.0
  C  C210  1  0.44466000  0.90478000  0.23829000  1.0
  C  C211  1  0.05535000  0.76171000  0.09522000  1.0
  C  C212  1  0.55535000  0.09523000  0.76171000  1.0
  C  C213  1  0.94465000  0.23829000  0.90477000  1.0
  C  C214  1  0.60338000  0.78487000  0.19315000  1.0
  C  C215  1  0.89662000  0.80685000  0.21513000  1.0
  C  C216  1  0.39662000  0.21513000  0.80685000  1.0
  C  C217  1  0.10338000  0.19316000  0.78487000  1.0
  C  C218  1  0.61637000  0.28188000  0.27371000  1.0
  C  C219  1  0.88363000  0.72629000  0.71813000  1.0
  C  C220  1  0.38363000  0.71812000  0.72629000  1.0
  C  C221  1  0.11637000  0.27371000  0.28188000  1.0
  S  S222  1  0.73697000  0.42723000  0.89740000  1.0
  S  S223  1  0.76303000  0.10260000  0.57277000  1.0
  S  S224  1  0.26303000  0.57277000  0.10260000  1.0
  S  S225  1  0.23697000  0.89740000  0.42723000  1.0
  S  S226  1  0.49474000  0.27818000  0.32364000  1.0
  S  S227  1  0.00526000  0.67636000  0.72182000  1.0
  S  S228  1  0.50527000  0.72181000  0.67636000  1.0
  S  S229  1  0.99474000  0.32364000  0.27818000  1.0
  S  S230  1  0.50388000  0.67077000  0.19165000  1.0
  S  S231  1  0.99612000  0.80835000  0.32923000  1.0
  S  S232  1  0.49612000  0.32923000  0.80835000  1.0
  S  S233  1  0.00388000  0.19166000  0.67077000  1.0
  I  I234  1  0.27883000  0.96070000  0.77930000  1.0
  I  I235  1  0.22117000  0.22070000  0.03930000  1.0
  I  I236  1  0.72117000  0.03930000  0.22070000  1.0
  I  I237  1  0.77883000  0.77930000  0.96070000  1.0
  I  I238  1  0.92715000  0.56611000  0.36354000  1.0
  I  I239  1  0.57285000  0.63646000  0.43388000  1.0
  I  I240  1  0.07285000  0.43389000  0.63646000  1.0
  I  I241  1  0.42715000  0.36355000  0.56611000  1.0
  I  I242  1  0.63582000  0.84726000  0.74531000  1.0
  I  I243  1  0.86418000  0.25468000  0.15273000  1.0
  I  I244  1  0.36419000  0.15274000  0.25469000  1.0
  I  I245  1  0.13582000  0.74532000  0.84727000  1.0
  N  N246  1  0.74198000  0.51833000  0.60234000  1.0
  N  N247  1  0.75802000  0.39766000  0.48167000  1.0
  N  N248  1  0.25802000  0.48167000  0.39766000  1.0
  N  N249  1  0.24199000  0.60234000  0.51832000  1.0
  N  N250  1  0.48085000  0.05074000  0.58072000  1.0
  N  N251  1  0.01915000  0.41928000  0.94926000  1.0
  N  N252  1  0.51915000  0.94926000  0.41928000  1.0
  N  N253  1  0.98085000  0.58072000  0.05074000  1.0
  N  N254  1  0.52728000  0.92246000  0.22728000  1.0
  N  N255  1  0.97272000  0.77272000  0.07754000  1.0
  N  N256  1  0.47272000  0.07755000  0.77272000  1.0
  N  N257  1  0.02728000  0.22728000  0.92246000  1.0
