# generated using pymatgen
data_ZnH23C24N5O6
_symmetry_space_group_name_H-M   'P 1'
_cell_length_a   10.05460000
_cell_length_b   11.90440000
_cell_length_c   12.00210000
_cell_angle_alpha   119.51700000
_cell_angle_beta   95.57570000
_cell_angle_gamma   103.50900000
_symmetry_Int_Tables_number   1
_chemical_formula_structural   ZnH23C24N5O6
_chemical_formula_sum   'Zn2 H46 C48 N10 O12'
_cell_volume   1176.67317694
_cell_formula_units_Z   2
loop_
 _symmetry_equiv_pos_site_id
 _symmetry_equiv_pos_as_xyz
  1  'x, y, z'
loop_
 _atom_site_type_symbol
 _atom_site_label
 _atom_site_symmetry_multiplicity
 _atom_site_fract_x
 _atom_site_fract_y
 _atom_site_fract_z
 _atom_site_occupancy
  Zn  Zn0  1  0.40234000  0.29812000  0.51999000  1.0
  Zn  Zn1  1  0.59766000  0.70188000  0.48001000  1.0
  H  H2  1  0.99085000  0.50380000  0.29197000  1.0
  H  H3  1  0.00915000  0.49620000  0.70804000  1.0
  H  H4  1  0.09645000  0.31968000  0.24278000  1.0
  H  H5  1  0.90356000  0.68032000  0.75722000  1.0
  H  H6  1  0.99279000  0.14571000  0.29960000  1.0
  H  H7  1  0.00722000  0.85430000  0.70040000  1.0
  H  H8  1  0.31260000  0.13264000  0.22340000  1.0
  H  H9  1  0.68740000  0.86735000  0.77660000  1.0
  H  H10  1  0.12534000  0.91504000  0.04467000  1.0
  H  H11  1  0.87466000  0.08496000  0.95533000  1.0
  H  H12  1  0.98476000  0.86589000  0.35093000  1.0
  H  H13  1  0.01525000  0.13411000  0.64908000  1.0
  H  H14  1  0.17473000  0.08662000  0.51719000  1.0
  H  H15  1  0.82527000  0.91338000  0.48281000  1.0
  H  H16  1  0.84289000  0.71716000  0.12644000  1.0
  H  H17  1  0.15710000  0.28283000  0.87355000  1.0
  H  H18  1  0.88195000  0.74502000  0.99843000  1.0
  H  H19  1  0.11805000  0.25498000  0.00157000  1.0
  H  H20  1  0.96649000  0.58779000  0.17973000  1.0
  H  H21  1  0.03352000  0.41221000  0.82026000  1.0
  H  H22  1  0.13288000  0.70506000  0.21120000  1.0
  H  H23  1  0.86712000  0.29494000  0.78879000  1.0
  H  H24  1  0.84441000  0.51672000  0.84406000  1.0
  H  H25  1  0.15559000  0.48328000  0.15594000  1.0
  H  H26  1  0.79580000  0.47382000  0.96067000  1.0
  H  H27  1  0.20421000  0.52618000  0.03933000  1.0
  H  H28  1  0.34388000  0.39863000  0.78569000  1.0
  H  H29  1  0.65611000  0.60136000  0.21431000  1.0
  H  H30  1  0.42365000  0.39005000  0.98562000  1.0
  H  H31  1  0.57635000  0.60995000  0.01438000  1.0
  H  H32  1  0.62644000  0.10316000  0.75441000  1.0
  H  H33  1  0.37357000  0.89685000  0.24559000  1.0
  H  H34  1  0.54349000  0.12668000  0.56586000  1.0
  H  H35  1  0.45651000  0.87332000  0.43415000  1.0
  H  H36  1  0.70827000  0.29116000  0.03589000  1.0
  H  H37  1  0.29172000  0.70884000  0.96412000  1.0
  H  H38  1  0.55214000  0.31096000  0.09060000  1.0
  H  H39  1  0.44785000  0.68904000  0.90940000  1.0
  H  H40  1  0.59086000  0.16362000  0.17829000  1.0
  H  H41  1  0.40914000  0.83638000  0.82171000  1.0
  H  H42  1  0.74095000  0.15352000  0.11081000  1.0
  H  H43  1  0.25905000  0.84647000  0.88919000  1.0
  H  H44  1  0.35281000  0.03956000  0.85856000  1.0
  H  H45  1  0.64718000  0.96044000  0.14143000  1.0
  H  H46  1  0.35998000  0.09879000  0.02831000  1.0
  H  H47  1  0.64001000  0.90121000  0.97169000  1.0
  C  C48  1  0.67246000  0.36368000  0.49593000  1.0
  C  C49  1  0.32753000  0.63630000  0.50404000  1.0
  C  C50  1  0.78821000  0.35128000  0.42234000  1.0
  C  C51  1  0.21179000  0.64873000  0.57766000  1.0
  C  C52  1  0.83953000  0.44113000  0.37999000  1.0
  C  C53  1  0.16047000  0.55887000  0.62001000  1.0
  C  C54  1  0.94973000  0.42819000  0.31671000  1.0
  C  C55  1  0.05028000  0.57181000  0.68329000  1.0
  C  C56  1  0.00714000  0.32377000  0.28739000  1.0
  C  C57  1  0.99287000  0.67623000  0.71261000  1.0
  C  C58  1  0.95285000  0.22971000  0.32120000  1.0
  C  C59  1  0.04716000  0.77029000  0.67881000  1.0
  C  C60  1  0.84692000  0.24610000  0.38944000  1.0
  C  C61  1  0.15308000  0.75391000  0.61056000  1.0
  C  C62  1  0.78000000  0.55311000  0.39926000  1.0
  C  C63  1  0.22000000  0.44689000  0.60074000  1.0
  C  C64  1  0.23514000  0.07167000  0.24663000  1.0
  C  C65  1  0.76486000  0.92832000  0.75337000  1.0
  C  C66  1  0.13150000  0.95093000  0.14853000  1.0
  C  C67  1  0.86849000  0.04907000  0.85147000  1.0
  C  C68  1  0.03777000  0.87471000  0.18435000  1.0
  C  C69  1  0.96222000  0.12529000  0.81565000  1.0
  C  C70  1  0.05318000  0.92395000  0.31895000  1.0
  C  C71  1  0.94682000  0.07605000  0.68105000  1.0
  C  C72  1  0.15851000  0.04582000  0.41162000  1.0
  C  C73  1  0.84149000  0.95418000  0.58838000  1.0
  C  C74  1  0.92913000  0.73982000  0.08183000  1.0
  C  C75  1  0.07087000  0.26018000  0.91817000  1.0
  C  C76  1  0.05018000  0.61103000  0.13300000  1.0
  C  C77  1  0.94982000  0.38897000  0.86699000  1.0
  C  C78  1  0.88644000  0.50334000  0.92326000  1.0
  C  C79  1  0.11356000  0.49666000  0.07673000  1.0
  C  C80  1  0.40950000  0.33723000  0.78491000  1.0
  C  C81  1  0.59050000  0.66276000  0.21509000  1.0
  C  C82  1  0.45366000  0.33100000  0.89450000  1.0
  C  C83  1  0.54634000  0.66900000  0.10549000  1.0
  C  C84  1  0.53637000  0.24949000  0.88745000  1.0
  C  C85  1  0.46363000  0.75051000  0.11255000  1.0
  C  C86  1  0.56631000  0.17168000  0.76589000  1.0
  C  C87  1  0.43369000  0.82833000  0.23411000  1.0
  C  C88  1  0.51853000  0.18267000  0.66049000  1.0
  C  C89  1  0.48148000  0.81733000  0.33951000  1.0
  C  C90  1  0.59193000  0.24577000  0.00611000  1.0
  C  C91  1  0.40806000  0.75423000  0.99389000  1.0
  C  C92  1  0.62653000  0.10467000  0.08838000  1.0
  C  C93  1  0.37346000  0.89533000  0.91162000  1.0
  C  C94  1  0.40466000  0.04080000  0.94423000  1.0
  C  C95  1  0.59534000  0.95920000  0.05577000  1.0
  N  N96  1  0.44321000  0.26574000  0.67008000  1.0
  N  N97  1  0.55679000  0.73426000  0.32993000  1.0
  N  N98  1  0.55712000  0.10671000  0.97687000  1.0
  N  N99  1  0.44288000  0.89329000  0.02313000  1.0
  N  N100  1  0.24772000  0.11868000  0.37618000  1.0
  N  N101  1  0.75228000  0.88132000  0.62383000  1.0
  N  N102  1  0.99257000  0.63105000  0.02938000  1.0
  N  N103  1  0.00744000  0.36895000  0.97061000  1.0
  N  N104  1  0.79843000  0.14568000  0.42550000  1.0
  N  N105  1  0.20156000  0.85433000  0.57451000  1.0
  O  O106  1  0.54964000  0.27502000  0.42133000  1.0
  O  O107  1  0.45036000  0.72497000  0.57866000  1.0
  O  O108  1  0.70025000  0.44921000  0.61618000  1.0
  O  O109  1  0.29975000  0.55080000  0.38383000  1.0
  O  O110  1  0.66012000  0.54410000  0.43123000  1.0
  O  O111  1  0.33989000  0.45590000  0.56877000  1.0
  O  O112  1  0.84499000  0.64399000  0.38134000  1.0
  O  O113  1  0.15502000  0.35602000  0.61866000  1.0
  O  O114  1  0.76113000  0.18265000  0.53027000  1.0
  O  O115  1  0.23887000  0.81736000  0.46973000  1.0
  O  O116  1  0.79849000  0.02713000  0.34907000  1.0
  O  O117  1  0.20151000  0.97287000  0.65093000  1.0
