# generated using pymatgen
data_CoH9C13NO5
_symmetry_space_group_name_H-M   'P 1'
_cell_length_a   7.13354000
_cell_length_b   9.97994000
_cell_length_c   10.11010000
_cell_angle_alpha   112.87700000
_cell_angle_beta   107.48800000
_cell_angle_gamma   96.86280000
_symmetry_Int_Tables_number   1
_chemical_formula_structural   CoH9C13NO5
_chemical_formula_sum   'Co2 H18 C26 N2 O10'
_cell_volume   609.19579028
_cell_formula_units_Z   2
loop_
 _symmetry_equiv_pos_site_id
 _symmetry_equiv_pos_as_xyz
  1  'x, y, z'
loop_
 _atom_site_type_symbol
 _atom_site_label
 _atom_site_symmetry_multiplicity
 _atom_site_fract_x
 _atom_site_fract_y
 _atom_site_fract_z
 _atom_site_occupancy
  Co  Co0  1  0.92282000  0.62358000  0.12302000  1.0
  Co  Co1  1  0.07717000  0.37642000  0.87697000  1.0
  H  H2  1  0.05204000  0.90898000  0.40389000  1.0
  H  H3  1  0.94795000  0.09101000  0.59611000  1.0
  H  H4  1  0.26121000  0.75170000  0.04655000  1.0
  H  H5  1  0.73879000  0.24830000  0.95346000  1.0
  H  H6  1  0.88218000  0.67096000  0.57832000  1.0
  H  H7  1  0.11780000  0.32907000  0.42169000  1.0
  H  H8  1  0.61520000  0.31109000  0.65280000  1.0
  H  H9  1  0.38481000  0.68890000  0.34718000  1.0
  H  H10  1  0.54961000  0.23797000  0.19028000  1.0
  H  H11  1  0.45040000  0.76204000  0.80972000  1.0
  H  H12  1  0.51733000  0.99643000  0.15636000  1.0
  H  H13  1  0.48268000  0.00355000  0.84366000  1.0
  H  H14  1  0.29162000  0.16427000  0.52607000  1.0
  H  H15  1  0.70837000  0.83571000  0.47394000  1.0
  H  H16  1  0.55998000  0.67233000  0.00342000  1.0
  H  H17  1  0.44006000  0.32769000  0.99658000  1.0
  H  H18  1  0.75311000  0.76667000  0.00091000  1.0
  H  H19  1  0.24688000  0.23331000  0.99909000  1.0
  C  C20  1  0.15701000  0.93504000  0.35271000  1.0
  C  C21  1  0.84298000  0.06496000  0.64728000  1.0
  C  C22  1  0.27321000  0.84639000  0.15242000  1.0
  C  C23  1  0.72679000  0.15360000  0.84758000  1.0
  C  C24  1  0.84098000  0.59931000  0.80343000  1.0
  C  C25  1  0.15903000  0.40068000  0.19656000  1.0
  C  C26  1  0.76132000  0.51783000  0.26683000  1.0
  C  C27  1  0.23868000  0.48219000  0.73319000  1.0
  C  C28  1  0.79447000  0.55483000  0.53248000  1.0
  C  C29  1  0.20550000  0.44517000  0.46751000  1.0
  C  C30  1  0.64366000  0.35137000  0.57304000  1.0
  C  C31  1  0.35633000  0.64863000  0.42696000  1.0
  C  C32  1  0.56313000  0.25586000  0.41350000  1.0
  C  C33  1  0.43685000  0.74414000  0.58649000  1.0
  C  C34  1  0.71949000  0.45946000  0.37276000  1.0
  C  C35  1  0.28050000  0.54054000  0.62722000  1.0
  C  C36  1  0.42497000  0.10476000  0.34982000  1.0
  C  C37  1  0.57502000  0.89523000  0.65019000  1.0
  C  C38  1  0.76084000  0.49952000  0.63283000  1.0
  C  C39  1  0.23916000  0.50050000  0.36718000  1.0
  C  C40  1  0.60806000  0.31019000  0.31466000  1.0
  C  C41  1  0.39192000  0.68981000  0.68535000  1.0
  C  C42  1  0.41403000  0.98448000  0.21385000  1.0
  C  C43  1  0.58599000  0.01553000  0.78617000  1.0
  C  C44  1  0.29336000  0.07631000  0.42074000  1.0
  C  C45  1  0.70664000  0.92369000  0.57926000  1.0
  N  N46  1  0.14440000  0.82137000  0.21954000  1.0
  N  N47  1  0.85560000  0.17861000  0.78045000  1.0
  O  O48  1  0.89315000  0.53219000  0.89246000  1.0
  O  O49  1  0.10687000  0.46781000  0.10753000  1.0
  O  O50  1  0.87995000  0.65033000  0.32494000  1.0
  O  O51  1  0.12005000  0.34968000  0.67507000  1.0
  O  O52  1  0.84665000  0.73616000  0.85399000  1.0
  O  O53  1  0.15337000  0.26383000  0.14601000  1.0
  O  O54  1  0.70100000  0.73889000  0.07054000  1.0
  O  O55  1  0.29899000  0.26109000  0.92943000  1.0
  O  O56  1  0.68848000  0.43593000  0.11949000  1.0
  O  O57  1  0.31155000  0.56408000  0.88052000  1.0
