# generated using pymatgen
data_CuH8C12(N2Cl)2
_symmetry_space_group_name_H-M   'P 1'
_cell_length_a   3.77144000
_cell_length_b   6.88045000
_cell_length_c   25.82390000
_cell_angle_alpha   90.00020000
_cell_angle_beta   90.00120000
_cell_angle_gamma   97.74970000
_symmetry_Int_Tables_number   1
_chemical_formula_structural   CuH8C12(N2Cl)2
_chemical_formula_sum   'Cu2 H16 C24 N8 Cl4'
_cell_volume   663.98928076
_cell_formula_units_Z   2
loop_
 _symmetry_equiv_pos_site_id
 _symmetry_equiv_pos_as_xyz
  1  'x, y, z'
loop_
 _atom_site_type_symbol
 _atom_site_label
 _atom_site_symmetry_multiplicity
 _atom_site_fract_x
 _atom_site_fract_y
 _atom_site_fract_z
 _atom_site_occupancy
  Cu  Cu0  1  0.00002000  0.50000000  0.00000000  1.0
  Cu  Cu1  1  0.50002000  0.00000000  0.50000000  1.0
  H  H2  1  0.28729000  0.60842000  0.19093000  1.0
  H  H3  1  0.21267000  0.89155000  0.69093000  1.0
  H  H4  1  0.71268000  0.39158000  0.80907000  1.0
  H  H5  1  0.78730000  0.10844000  0.30907000  1.0
  H  H6  1  0.22166000  0.42534000  0.10619000  1.0
  H  H7  1  0.27836000  0.07464000  0.60619000  1.0
  H  H8  1  0.77836000  0.57467000  0.89381000  1.0
  H  H9  1  0.72164000  0.92536000  0.39381000  1.0
  H  H10  1  0.86087000  0.89416000  0.03132000  1.0
  H  H11  1  0.63920000  0.60583000  0.53132000  1.0
  H  H12  1  0.13914000  0.10583000  0.96867000  1.0
  H  H13  1  0.36086000  0.39418000  0.46868000  1.0
  H  H14  1  0.90726000  0.09600000  0.11097000  1.0
  H  H15  1  0.59280000  0.40399000  0.61097000  1.0
  H  H16  1  0.09268000  0.90399000  0.88903000  1.0
  H  H17  1  0.40725000  0.59602000  0.38903000  1.0
  C  C18  1  0.13894000  0.98081000  0.20398000  1.0
  C  C19  1  0.36105000  0.51917000  0.70397000  1.0
  C  C20  1  0.86099000  0.01920000  0.79603000  1.0
  C  C21  1  0.63893000  0.48082000  0.29603000  1.0
  C  C22  1  0.10228000  0.86703000  0.15762000  1.0
  C  C23  1  0.39774000  0.63297000  0.65762000  1.0
  C  C24  1  0.89769000  0.13298000  0.84238000  1.0
  C  C25  1  0.60228000  0.36703000  0.34238000  1.0
  C  C26  1  0.18918000  0.67496000  0.15645000  1.0
  C  C27  1  0.31081000  0.82501000  0.65645000  1.0
  C  C28  1  0.81082000  0.32504000  0.84355000  1.0
  C  C29  1  0.68918000  0.17499000  0.34355000  1.0
  C  C30  1  0.15233000  0.57340000  0.10993000  1.0
  C  C31  1  0.34768000  0.92659000  0.60993000  1.0
  C  C32  1  0.84771000  0.42661000  0.89007000  1.0
  C  C33  1  0.65233000  0.07341000  0.39007000  1.0
  C  C34  1  0.95644000  0.83692000  0.06727000  1.0
  C  C35  1  0.54360000  0.66308000  0.56727000  1.0
  C  C36  1  0.04358000  0.16308000  0.93272000  1.0
  C  C37  1  0.45645000  0.33693000  0.43273000  1.0
  C  C38  1  0.98210000  0.94869000  0.11227000  1.0
  C  C39  1  0.51794000  0.55130000  0.61227000  1.0
  C  C40  1  0.01788000  0.05130000  0.88773000  1.0
  C  C41  1  0.48210000  0.44872000  0.38773000  1.0
  N  N42  1  0.17093000  0.07911000  0.24094000  1.0
  N  N43  1  0.32903000  0.42086000  0.74093000  1.0
  N  N44  1  0.82893000  0.92088000  0.75906000  1.0
  N  N45  1  0.67093000  0.57912000  0.25907000  1.0
  N  N46  1  0.04025000  0.65325000  0.06623000  1.0
  N  N47  1  0.45978000  0.84674000  0.56623000  1.0
  N  N48  1  0.95978000  0.34675000  0.93377000  1.0
  N  N49  1  0.54025000  0.15327000  0.43378000  1.0
  Cl  Cl50  1  0.42593000  0.72839000  0.96243000  1.0
  Cl  Cl51  1  0.07407000  0.77162000  0.46244000  1.0
  Cl  Cl52  1  0.57407000  0.27161000  0.03756000  1.0
  Cl  Cl53  1  0.92596000  0.22838000  0.53757000  1.0
