# generated using pymatgen
data_Al4H35C60O20F
_symmetry_space_group_name_H-M   'P 1'
_cell_length_a   6.68320000
_cell_length_b   22.79840000
_cell_length_c   24.88120000
_cell_angle_alpha   107.68300000
_cell_angle_beta   89.83200000
_cell_angle_gamma   89.85100000
_symmetry_Int_Tables_number   1
_chemical_formula_structural   Al4H35C60O20F
_chemical_formula_sum   'Al4 H35 C60 O20 F1'
_cell_volume   3611.89465493
_cell_formula_units_Z   1
loop_
 _symmetry_equiv_pos_site_id
 _symmetry_equiv_pos_as_xyz
  1  'x, y, z'
loop_
 _atom_site_type_symbol
 _atom_site_label
 _atom_site_symmetry_multiplicity
 _atom_site_fract_x
 _atom_site_fract_y
 _atom_site_fract_z
 _atom_site_occupancy
  Al  Al0  1  0.13522000  0.50040000  0.49992000  1.0
  Al  Al1  1  0.63559000  0.49925000  0.49987000  1.0
  Al  Al2  1  0.67475000  0.00001000  0.00014000  1.0
  Al  Al3  1  0.17490000  0.00002000  0.99929000  1.0
  H  H4  1  0.60466000  0.11900000  0.90840000  1.0
  H  H5  1  0.59591000  0.18429000  0.84421000  1.0
  H  H6  1  0.22751000  0.15431000  0.81323000  1.0
  H  H7  1  0.23694000  0.09180000  0.88019000  1.0
  H  H8  1  0.13432000  0.27088000  0.82943000  1.0
  H  H9  1  0.13400000  0.33738000  0.76742000  1.0
  H  H10  1  0.68030000  0.22261000  0.66524000  1.0
  H  H11  1  0.58076000  0.31456000  0.65889000  1.0
  H  H12  1  0.57396000  0.37985000  0.59493000  1.0
  H  H13  1  0.20648000  0.40984000  0.61699000  1.0
  H  H14  1  0.21567000  0.34483000  0.68116000  1.0
  H  H15  1  0.10898000  0.87650000  0.08719000  1.0
  H  H16  1  0.10021000  0.81084000  0.15084000  1.0
  H  H17  1  0.72202000  0.84991000  0.19003000  1.0
  H  H18  1  0.73323000  0.91205000  0.12290000  1.0
  H  H19  1  0.65617000  0.73492000  0.17460000  1.0
  H  H20  1  0.66496000  0.66994000  0.23777000  1.0
  H  H21  1  0.16237000  0.77119000  0.32978000  1.0
  H  H22  1  0.08480000  0.67171000  0.32753000  1.0
  H  H23  1  0.07007000  0.60708000  0.39185000  1.0
  H  H24  1  0.71377000  0.60534000  0.39766000  1.0
  H  H25  1  0.30715000  0.91360000  0.34203000  1.0
  H  H26  1  0.34566000  0.92396000  0.27488000  1.0
  H  H27  1  0.12673000  0.95440000  0.31442000  1.0
  H  H28  1  0.04206000  0.85863000  0.23817000  1.0
  H  H29  1  0.00680000  0.84702000  0.30435000  1.0
  H  H30  1  0.86389000  0.08497000  0.65579000  1.0
  H  H31  1  0.89257000  0.07497000  0.72339000  1.0
  H  H32  1  0.69027000  0.03894000  0.67958000  1.0
  H  H33  1  0.56712000  0.13161000  0.75446000  1.0
  H  H34  1  0.54019000  0.14258000  0.68775000  1.0
  H  H35  1  0.38369000  0.41903000  0.48143000  1.0
  H  H36  1  0.88225000  0.58019000  0.52640000  1.0
  H  H37  1  0.42373000  0.08073000  0.02295000  1.0
  H  H38  1  0.92574000  0.91917000  0.98039000  1.0
  C  C39  1  0.38565000  0.58507000  0.58680000  1.0
  C  C40  1  0.38540000  0.56316000  0.43750000  1.0
  C  C41  1  0.88700000  0.41511000  0.41301000  1.0
  C  C42  1  0.88724000  0.43641000  0.56249000  1.0
  C  C43  1  0.74013000  0.12692000  0.88717000  1.0
  C  C44  1  0.73556000  0.16260000  0.85076000  1.0
  C  C45  1  0.91031000  0.17244000  0.82311000  1.0
  C  C46  1  0.09123000  0.14702000  0.83458000  1.0
  C  C47  1  0.09704000  0.11193000  0.87161000  1.0
  C  C48  1  0.92085000  0.10105000  0.89774000  1.0
  C  C49  1  0.03521000  0.26016000  0.79296000  1.0
  C  C50  1  0.03529000  0.29756000  0.75799000  1.0
  C  C51  1  0.90380000  0.28557000  0.71203000  1.0
  C  C52  1  0.77729000  0.23435000  0.70222000  1.0
  C  C53  1  0.77561000  0.19595000  0.73657000  1.0
  C  C54  1  0.90554000  0.20972000  0.78363000  1.0
  C  C55  1  0.71877000  0.33504000  0.64953000  1.0
  C  C56  1  0.71383000  0.37165000  0.61393000  1.0
  C  C57  1  0.88998000  0.39860000  0.60186000  1.0
  C  C58  1  0.07028000  0.38880000  0.62662000  1.0
  C  C59  1  0.07418000  0.35271000  0.66267000  1.0
  C  C60  1  0.89887000  0.32483000  0.67460000  1.0
  C  C61  1  0.92165000  0.13598000  0.13782000  1.0
  C  C62  1  0.91533000  0.17990000  0.18099000  1.0
  C  C63  1  0.90841000  0.22803000  0.22807000  1.0
  C  C64  1  0.90168000  0.27248000  0.27128000  1.0
  C  C65  1  0.89523000  0.32057000  0.31840000  1.0
  C  C66  1  0.89017000  0.36444000  0.36162000  1.0
  C  C67  1  0.38728000  0.63567000  0.63823000  1.0
  C  C68  1  0.39376000  0.67950000  0.68143000  1.0
  C  C69  1  0.40202000  0.72757000  0.72851000  1.0
  C  C70  1  0.41087000  0.77200000  0.77164000  1.0
  C  C71  1  0.41946000  0.82020000  0.81862000  1.0
  C  C72  1  0.42666000  0.86418000  0.86169000  1.0
  C  C73  1  0.24256000  0.87037000  0.10995000  1.0
  C  C74  1  0.23770000  0.83452000  0.14622000  1.0
  C  C75  1  0.40931000  0.82721000  0.17617000  1.0
  C  C76  1  0.58810000  0.85518000  0.16690000  1.0
  C  C77  1  0.59475000  0.89018000  0.12981000  1.0
  C  C78  1  0.42103000  0.89869000  0.10155000  1.0
  C  C79  1  0.54847000  0.74317000  0.20919000  1.0
  C  C80  1  0.55337000  0.70637000  0.24466000  1.0
  C  C81  1  0.41151000  0.71519000  0.28818000  1.0
  C  C82  1  0.26966000  0.76246000  0.29502000  1.0
  C  C83  1  0.26382000  0.80039000  0.26024000  1.0
  C  C84  1  0.40503000  0.78998000  0.21570000  1.0
  C  C85  1  0.22245000  0.65761000  0.34331000  1.0
  C  C86  1  0.21348000  0.62116000  0.37903000  1.0
  C  C87  1  0.39026000  0.60169000  0.39868000  1.0
  C  C88  1  0.57530000  0.61960000  0.38228000  1.0
  C  C89  1  0.57849000  0.65599000  0.34685000  1.0
  C  C90  1  0.40576000  0.67616000  0.32581000  1.0
  C  C91  1  0.42465000  0.93664000  0.06228000  1.0
  C  C92  1  0.42664000  0.91496000  0.91299000  1.0
  C  C93  1  0.92415000  0.06314000  0.93707000  1.0
  C  C94  1  0.92359000  0.08525000  0.08649000  1.0
  C  C95  1  0.12157000  0.85468000  0.27546000  1.0
  C  C96  1  0.23145000  0.91533000  0.30339000  1.0
  C  C97  1  0.65142000  0.13798000  0.71872000  1.0
  C  C98  1  0.78196000  0.08074000  0.69279000  1.0
  O  O99  1  0.55389000  0.54865000  0.45387000  1.0
  O  O100  1  0.21501000  0.56661000  0.56598000  1.0
  O  O101  1  0.05644000  0.45244000  0.54772000  1.0
  O  O102  1  0.21436000  0.54855000  0.45222000  1.0
  O  O103  1  0.05654000  0.43471000  0.43386000  1.0
  O  O104  1  0.55627000  0.56433000  0.56698000  1.0
  O  O105  1  0.38511000  0.46357000  0.49434000  1.0
  O  O106  1  0.71546000  0.43479000  0.43278000  1.0
  O  O107  1  0.71685000  0.44912000  0.54564000  1.0
  O  O108  1  0.88437000  0.53660000  0.50605000  1.0
  O  O109  1  0.25526000  0.93507000  0.93260000  1.0
  O  O110  1  0.59546000  0.95198000  0.04795000  1.0
  O  O111  1  0.75303000  0.06557000  0.06647000  1.0
  O  O112  1  0.59648000  0.93418000  0.93389000  1.0
  O  O113  1  0.75521000  0.04895000  0.95353000  1.0
  O  O114  1  0.25591000  0.95023000  0.04523000  1.0
  O  O115  1  0.42441000  0.03654000  0.00557000  1.0
  O  O116  1  0.09478000  0.04845000  0.95202000  1.0
  O  O117  1  0.09442000  0.06566000  0.06596000  1.0
  O  O118  1  0.92525000  0.96369000  0.99412000  1.0
  F  F119  1  0.76153000  0.67456000  0.33315000  1.0
