# generated using pymatgen
data_Al2H8(CO)11
_symmetry_space_group_name_H-M   'P 1'
_cell_length_a   6.66879000
_cell_length_b   11.11820000
_cell_length_c   16.17240000
_cell_angle_alpha   79.59400000
_cell_angle_beta   89.99500000
_cell_angle_gamma   89.98630000
_symmetry_Int_Tables_number   1
_chemical_formula_structural   Al2H8(CO)11
_chemical_formula_sum   'Al4 H16 C22 O22'
_cell_volume   1179.37945804
_cell_formula_units_Z   2
loop_
 _symmetry_equiv_pos_site_id
 _symmetry_equiv_pos_as_xyz
  1  'x, y, z'
loop_
 _atom_site_type_symbol
 _atom_site_label
 _atom_site_symmetry_multiplicity
 _atom_site_fract_x
 _atom_site_fract_y
 _atom_site_fract_z
 _atom_site_occupancy
  Al  Al0  1  0.00063000  0.49884000  0.49667000  1.0
  Al  Al1  1  0.99951000  0.99884000  0.99668000  1.0
  Al  Al2  1  0.50177000  0.50291000  0.49845000  1.0
  Al  Al3  1  0.49839000  0.00283000  0.99845000  1.0
  H  H4  1  0.62399000  0.75353000  0.67842000  1.0
  H  H5  1  0.37613000  0.25341000  0.17840000  1.0
  H  H6  1  0.05159000  0.81056000  0.81070000  1.0
  H  H7  1  0.94880000  0.31029000  0.31094000  1.0
  H  H8  1  0.59750000  0.76014000  0.81300000  1.0
  H  H9  1  0.40303000  0.26035000  0.31291000  1.0
  H  H10  1  0.16036000  0.52951000  0.79463000  1.0
  H  H11  1  0.26316000  0.67353000  0.80914000  1.0
  H  H12  1  0.37110000  0.59337000  0.73280000  1.0
  H  H13  1  0.73823000  0.17276000  0.30964000  1.0
  H  H14  1  0.83987000  0.02890000  0.29421000  1.0
  H  H15  1  0.62887000  0.09375000  0.23299000  1.0
  H  H16  1  0.24392000  0.64538000  0.51956000  1.0
  H  H17  1  0.75606000  0.14531000  0.01954000  1.0
  H  H18  1  0.74774000  0.35110000  0.55264000  1.0
  H  H19  1  0.25238000  0.85107000  0.05261000  1.0
  C  C20  1  0.25716000  0.36311000  0.39937000  1.0
  C  C21  1  0.74319000  0.86309000  0.89937000  1.0
  C  C22  1  0.24710000  0.35586000  0.63033000  1.0
  C  C23  1  0.75308000  0.85580000  0.13029000  1.0
  C  C24  1  0.75262000  0.64334000  0.59400000  1.0
  C  C25  1  0.24740000  0.14328000  0.09400000  1.0
  C  C26  1  0.75531000  0.63840000  0.36474000  1.0
  C  C27  1  0.24495000  0.13839000  0.86472000  1.0
  C  C28  1  0.75111000  0.71570000  0.28232000  1.0
  C  C29  1  0.24910000  0.21569000  0.78232000  1.0
  C  C30  1  0.75030000  0.77921000  0.21287000  1.0
  C  C31  1  0.24996000  0.27926000  0.71289000  1.0
  C  C32  1  0.92457000  0.71709000  0.71442000  1.0
  C  C33  1  0.07566000  0.21707000  0.21449000  1.0
  C  C34  1  0.76285000  0.71074000  0.66348000  1.0
  C  C35  1  0.23724000  0.21071000  0.16348000  1.0
  C  C36  1  0.91236000  0.77576000  0.78823000  1.0
  C  C37  1  0.08799000  0.27560000  0.28837000  1.0
  C  C38  1  0.74325000  0.79284000  0.82997000  1.0
  C  C39  1  0.25718000  0.29285000  0.32998000  1.0
  C  C40  1  0.23153000  0.61462000  0.76282000  1.0
  C  C41  1  0.76889000  0.11438000  0.26293000  1.0
  O  O42  1  0.41620000  0.37997000  0.59467000  1.0
  O  O43  1  0.58389000  0.87997000  0.09471000  1.0
  O  O44  1  0.08971000  0.38169000  0.43283000  1.0
  O  O45  1  0.91069000  0.88182000  0.93271000  1.0
  O  O46  1  0.92588000  0.59717000  0.39066000  1.0
  O  O47  1  0.07439000  0.09727000  0.89071000  1.0
  O  O48  1  0.07509000  0.39125000  0.60179000  1.0
  O  O49  1  0.92509000  0.89110000  0.10173000  1.0
  O  O50  1  0.91421000  0.62147000  0.55705000  1.0
  O  O51  1  0.08575000  0.12135000  0.05713000  1.0
  O  O52  1  0.42777000  0.39956000  0.42030000  1.0
  O  O53  1  0.57250000  0.89935000  0.92042000  1.0
  O  O54  1  0.25017000  0.57500000  0.49170000  1.0
  O  O55  1  0.74992000  0.07492000  0.99169000  1.0
  O  O56  1  0.57642000  0.60998000  0.57481000  1.0
  O  O57  1  0.42360000  0.10996000  0.07474000  1.0
  O  O58  1  0.58879000  0.61983000  0.40297000  1.0
  O  O59  1  0.41148000  0.11970000  0.90292000  1.0
  O  O60  1  0.74972000  0.42440000  0.50972000  1.0
  O  O61  1  0.25043000  0.92438000  0.00969000  1.0
  O  O62  1  0.10607000  0.67389000  0.69510000  1.0
  O  O63  1  0.89403000  0.17398000  0.19518000  1.0
