# generated using pymatgen
data_ZnH24C26(N2O)6
_symmetry_space_group_name_H-M   'P 1'
_cell_length_a   7.23977000
_cell_length_b   9.05654000
_cell_length_c   11.59260000
_cell_angle_alpha   77.84980000
_cell_angle_beta   77.62380000
_cell_angle_gamma   84.48110000
_symmetry_Int_Tables_number   1
_chemical_formula_structural   ZnH24C26(N2O)6
_chemical_formula_sum   'Zn1 H24 C26 N12 O6'
_cell_volume   724.76197030
_cell_formula_units_Z   1
loop_
 _symmetry_equiv_pos_site_id
 _symmetry_equiv_pos_as_xyz
  1  'x, y, z'
loop_
 _atom_site_type_symbol
 _atom_site_label
 _atom_site_symmetry_multiplicity
 _atom_site_fract_x
 _atom_site_fract_y
 _atom_site_fract_z
 _atom_site_occupancy
  Zn  Zn0  1  0.00000000  0.50000000  0.00000000  1.0
  H  H1  1  0.46918000  0.12878000  0.14632000  1.0
  H  H2  1  0.53083000  0.87121000  0.85368000  1.0
  H  H3  1  0.68533000  0.02989000  0.09282000  1.0
  H  H4  1  0.31467000  0.97011000  0.90718000  1.0
  H  H5  1  0.48095000  0.36035000  0.49120000  1.0
  H  H6  1  0.51904000  0.63965000  0.50880000  1.0
  H  H7  1  0.44127000  0.43335000  0.69495000  1.0
  H  H8  1  0.55872000  0.56664000  0.30506000  1.0
  H  H9  1  0.59273000  0.26683000  0.85086000  1.0
  H  H10  1  0.40727000  0.73317000  0.14913000  1.0
  H  H11  1  0.82166000  0.97082000  0.62327000  1.0
  H  H12  1  0.17834000  0.02919000  0.37672000  1.0
  H  H13  1  0.90955000  0.72837000  0.77223000  1.0
  H  H14  1  0.09045000  0.27164000  0.22778000  1.0
  H  H15  1  0.90631000  0.73889000  0.55820000  1.0
  H  H16  1  0.09369000  0.26112000  0.44180000  1.0
  H  H17  1  0.08064000  0.26200000  0.61554000  1.0
  H  H18  1  0.91935000  0.73801000  0.38446000  1.0
  H  H19  1  0.06900000  0.27156000  0.82618000  1.0
  H  H20  1  0.93099000  0.72844000  0.17382000  1.0
  H  H21  1  0.20661000  0.24697000  0.02397000  1.0
  H  H22  1  0.79341000  0.75303000  0.97603000  1.0
  H  H23  1  0.37718000  0.35812000  0.99617000  1.0
  H  H24  1  0.62283000  0.64188000  0.00382000  1.0
  C  C25  1  0.70618000  0.27359000  0.06122000  1.0
  C  C26  1  0.29381000  0.72641000  0.93877000  1.0
  C  C27  1  0.62329000  0.12470000  0.13637000  1.0
  C  C28  1  0.37672000  0.87530000  0.86363000  1.0
  C  C29  1  0.68460000  0.11049000  0.42796000  1.0
  C  C30  1  0.31540000  0.88951000  0.57204000  1.0
  C  C31  1  0.65586000  0.16002000  0.54246000  1.0
  C  C32  1  0.34414000  0.83997000  0.45754000  1.0
  C  C33  1  0.54690000  0.29230000  0.56250000  1.0
  C  C34  1  0.45309000  0.70769000  0.43751000  1.0
  C  C35  1  0.52430000  0.33191000  0.67432000  1.0
  C  C36  1  0.47570000  0.66808000  0.32569000  1.0
  C  C37  1  0.60809000  0.23735000  0.76287000  1.0
  C  C38  1  0.39191000  0.76264000  0.23714000  1.0
  C  C39  1  0.73524000  0.07343000  0.63712000  1.0
  C  C40  1  0.26477000  0.92657000  0.36288000  1.0
  C  C41  1  0.94424000  0.62664000  0.73400000  1.0
  C  C42  1  0.05576000  0.37337000  0.26600000  1.0
  C  C43  1  0.94473000  0.63183000  0.61319000  1.0
  C  C44  1  0.05526000  0.36817000  0.38682000  1.0
  C  C45  1  0.99639000  0.50042000  0.56444000  1.0
  C  C46  1  0.00360000  0.49959000  0.43557000  1.0
  C  C47  1  0.04101000  0.36931000  0.64432000  1.0
  C  C48  1  0.95898000  0.63070000  0.35568000  1.0
  C  C49  1  0.03454000  0.37369000  0.76437000  1.0
  C  C50  1  0.96545000  0.62632000  0.23563000  1.0
  N  N51  1  0.60210000  0.17890000  0.33590000  1.0
  N  N52  1  0.39790000  0.82110000  0.66410000  1.0
  N  N53  1  0.66871000  0.09247000  0.25487000  1.0
  N  N54  1  0.33130000  0.90753000  0.74513000  1.0
  N  N55  1  0.78610000  0.97804000  0.29093000  1.0
  N  N56  1  0.21391000  0.02196000  0.70907000  1.0
  N  N57  1  0.79720000  0.98734000  0.40120000  1.0
  N  N58  1  0.20281000  0.01266000  0.59880000  1.0
  N  N59  1  0.71124000  0.10923000  0.74579000  1.0
  N  N60  1  0.28876000  0.89077000  0.25421000  1.0
  N  N61  1  0.98875000  0.50016000  0.80979000  1.0
  N  N62  1  0.01124000  0.49985000  0.19021000  1.0
  O  O63  1  0.87581000  0.29213000  0.06759000  1.0
  O  O64  1  0.12421000  0.70787000  0.93240000  1.0
  O  O65  1  0.60411000  0.36146000  0.99944000  1.0
  O  O66  1  0.39591000  0.63852000  0.00056000  1.0
  O  O67  1  0.24927000  0.34525000  0.97947000  1.0
  O  O68  1  0.75073000  0.65475000  0.02053000  1.0
