# generated using pymatgen
data_ZnH3C7O3
_symmetry_space_group_name_H-M   'P 1'
_cell_length_a   6.72998000
_cell_length_b   21.81840000
_cell_length_c   21.81774043
_cell_angle_alpha   119.99900000
_cell_angle_beta   90.00000000
_cell_angle_gamma   89.99700000
_symmetry_Int_Tables_number   1
_chemical_formula_structural   ZnH3C7O3
_chemical_formula_sum   'Zn6 H18 C42 O18'
_cell_volume   2774.47905514
_cell_formula_units_Z   6
loop_
 _symmetry_equiv_pos_site_id
 _symmetry_equiv_pos_as_xyz
  1  'x, y, z'
loop_
 _atom_site_type_symbol
 _atom_site_label
 _atom_site_symmetry_multiplicity
 _atom_site_fract_x
 _atom_site_fract_y
 _atom_site_fract_z
 _atom_site_occupancy
  Zn  Zn0  1  0.01824000  0.71892000  0.33732000  1.0
  Zn  Zn1  1  0.68482000  0.61842000  0.28111000  1.0
  Zn  Zn2  1  0.35141000  0.66271000  0.38162000  1.0
  Zn  Zn3  1  0.98176000  0.28108000  0.61840000  1.0
  Zn  Zn4  1  0.31518000  0.38158000  0.66269000  1.0
  Zn  Zn5  1  0.64859000  0.33730000  0.71891000  1.0
  H  H6  1  0.72892000  0.91306000  0.46286000  1.0
  H  H7  1  0.39574000  0.54980000  0.08702000  1.0
  H  H8  1  0.06204000  0.53715000  0.45017000  1.0
  H  H9  1  0.27108000  0.08694000  0.54980000  1.0
  H  H10  1  0.60426000  0.45020000  0.53722000  1.0
  H  H11  1  0.93796000  0.46285000  0.91302000  1.0
  H  H12  1  0.02997000  0.87259000  0.50380000  1.0
  H  H13  1  0.69665000  0.63121000  0.12740000  1.0
  H  H14  1  0.36296000  0.49617000  0.36876000  1.0
  H  H15  1  0.97004000  0.12740000  0.63120000  1.0
  H  H16  1  0.30335000  0.36879000  0.49619000  1.0
  H  H17  1  0.63705000  0.50383000  0.87259000  1.0
  H  H18  1  0.16578000  0.99438000  0.56473000  1.0
  H  H19  1  0.83268000  0.57039000  0.00566000  1.0
  H  H20  1  0.49894000  0.43524000  0.42963000  1.0
  H  H21  1  0.83422000  0.00562000  0.57035000  1.0
  H  H22  1  0.16732000  0.42961000  0.43527000  1.0
  H  H23  1  0.50106000  0.56476000  0.99439000  1.0
  C  C24  1  0.30109000  0.82296000  0.45045000  1.0
  C  C25  1  0.96776000  0.62757000  0.17711000  1.0
  C  C26  1  0.63404000  0.54953000  0.37245000  1.0
  C  C27  1  0.69891000  0.17704000  0.62749000  1.0
  C  C28  1  0.03224000  0.37243000  0.54954000  1.0
  C  C29  1  0.36596000  0.45047000  0.82292000  1.0
  C  C30  1  0.64547000  0.77950000  0.39577000  1.0
  C  C31  1  0.31206000  0.61630000  0.22056000  1.0
  C  C32  1  0.97847000  0.60424000  0.38373000  1.0
  C  C33  1  0.35452000  0.22050000  0.61627000  1.0
  C  C34  1  0.68794000  0.38370000  0.60426000  1.0
  C  C35  1  0.02153000  0.39576000  0.77949000  1.0
  C  C36  1  0.50341000  0.83570000  0.44021000  1.0
  C  C37  1  0.17006000  0.60454000  0.16437000  1.0
  C  C38  1  0.83637000  0.55980000  0.39547000  1.0
  C  C39  1  0.49659000  0.16430000  0.60451000  1.0
  C  C40  1  0.82994000  0.39546000  0.55983000  1.0
  C  C41  1  0.16363000  0.44020000  0.83567000  1.0
  C  C42  1  0.57569000  0.90565000  0.47400000  1.0
  C  C43  1  0.24253000  0.56838000  0.09441000  1.0
  C  C44  1  0.90880000  0.52599000  0.43161000  1.0
  C  C45  1  0.42431000  0.09435000  0.56835000  1.0
  C  C46  1  0.75747000  0.43162000  0.52603000  1.0
  C  C47  1  0.09120000  0.47401000  0.90562000  1.0
  C  C48  1  0.45913000  0.96378000  0.51868000  1.0
  C  C49  1  0.12611000  0.55499000  0.03626000  1.0
  C  C50  1  0.79228000  0.48125000  0.44501000  1.0
  C  C51  1  0.54087000  0.03622000  0.55490000  1.0
  C  C52  1  0.87389000  0.44501000  0.48127000  1.0
  C  C53  1  0.20772000  0.51875000  0.96376000  1.0
  C  C54  1  0.18362000  0.88231000  0.49536000  1.0
  C  C55  1  0.85037000  0.61313000  0.11774000  1.0
  C  C56  1  0.51660000  0.50461000  0.38689000  1.0
  C  C57  1  0.81638000  0.11770000  0.61306000  1.0
  C  C58  1  0.14963000  0.38687000  0.50461000  1.0
  C  C59  1  0.48341000  0.49538000  0.88228000  1.0
  C  C60  1  0.26012000  0.95030000  0.52864000  1.0
  C  C61  1  0.92706000  0.57844000  0.04975000  1.0
  C  C62  1  0.59321000  0.47131000  0.42159000  1.0
  C  C63  1  0.73988000  0.04970000  0.57834000  1.0
  C  C64  1  0.07294000  0.42156000  0.47131000  1.0
  C  C65  1  0.40679000  0.52868000  0.95028000  1.0
  O  O66  1  0.21476000  0.75868000  0.42069000  1.0
  O  O67  1  0.88141000  0.66204000  0.24138000  1.0
  O  O68  1  0.54776000  0.57928000  0.33791000  1.0
  O  O69  1  0.78524000  0.24131000  0.66200000  1.0
  O  O70  1  0.11859000  0.33796000  0.57934000  1.0
  O  O71  1  0.45224000  0.42072000  0.75863000  1.0
  O  O72  1  0.81392000  0.79582000  0.38088000  1.0
  O  O73  1  0.48060000  0.58515000  0.20424000  1.0
  O  O74  1  0.14698000  0.61910000  0.41490000  1.0
  O  O75  1  0.18608000  0.20418000  0.58506000  1.0
  O  O76  1  0.51940000  0.41485000  0.61909000  1.0
  O  O77  1  0.85302000  0.38090000  0.79580000  1.0
  O  O78  1  0.60118000  0.71401000  0.37357000  1.0
  O  O79  1  0.26782000  0.65958000  0.28604000  1.0
  O  O80  1  0.93420000  0.62647000  0.34047000  1.0
  O  O81  1  0.39882000  0.28599000  0.65956000  1.0
  O  O82  1  0.73218000  0.34042000  0.62646000  1.0
  O  O83  1  0.06580000  0.37353000  0.71400000  1.0
