# generated using pymatgen
data_ZnH26C25N3O7
_symmetry_space_group_name_H-M   'P 1'
_cell_length_a   14.43950000
_cell_length_b   16.18230000
_cell_length_c   17.02960000
_cell_angle_alpha   88.06200000
_cell_angle_beta   89.26700000
_cell_angle_gamma   87.54980000
_symmetry_Int_Tables_number   1
_chemical_formula_structural   ZnH26C25N3O7
_chemical_formula_sum   'Zn2 H52 C50 N6 O14'
_cell_volume   3973.04138646
_cell_formula_units_Z   2
loop_
 _symmetry_equiv_pos_site_id
 _symmetry_equiv_pos_as_xyz
  1  'x, y, z'
loop_
 _atom_site_type_symbol
 _atom_site_label
 _atom_site_symmetry_multiplicity
 _atom_site_fract_x
 _atom_site_fract_y
 _atom_site_fract_z
 _atom_site_occupancy
  Zn  Zn0  1  0.50091000  0.58834000  0.50140000  1.0
  Zn  Zn1  1  0.50275000  0.40269000  0.49511000  1.0
  H  H2  1  0.48163000  0.62092000  0.74466000  1.0
  H  H3  1  0.35585000  0.87486000  0.57763000  1.0
  H  H4  1  0.55756000  0.78374000  0.09117000  1.0
  H  H5  1  0.58012000  0.72602000  0.18009000  1.0
  H  H6  1  0.39738000  0.81763000  0.13230000  1.0
  H  H7  1  0.40765000  0.75200000  0.21688000  1.0
  H  H8  1  0.52766000  0.84075000  0.27207000  1.0
  H  H9  1  0.42602000  0.90196000  0.25008000  1.0
  H  H10  1  0.52387000  0.90622000  0.18617000  1.0
  H  H11  1  0.50347000  0.21280000  0.90472000  1.0
  H  H12  1  0.53756000  0.26387000  0.81545000  1.0
  H  H13  1  0.45278000  0.39128000  0.25362000  1.0
  H  H14  1  0.33922000  0.22013000  0.86451000  1.0
  H  H15  1  0.36724000  0.27432000  0.77621000  1.0
  H  H16  1  0.46641000  0.15255000  0.73155000  1.0
  H  H17  1  0.35263000  0.12094000  0.75446000  1.0
  H  H18  1  0.44365000  0.09789000  0.82152000  1.0
  H  H19  1  0.75939000  0.69130000  0.43651000  1.0
  H  H20  1  0.72634000  0.79478000  0.46144000  1.0
  H  H21  1  0.71251000  0.72462000  0.29678000  1.0
  H  H22  1  0.68889000  0.82908000  0.32021000  1.0
  H  H23  1  0.85714000  0.84021000  0.36114000  1.0
  H  H24  1  0.46463000  0.61258000  0.89298000  1.0
  H  H25  1  0.84948000  0.81165000  0.26183000  1.0
  H  H26  1  0.87958000  0.73571000  0.33576000  1.0
  H  H27  1  0.27826000  0.29074000  0.64383000  1.0
  H  H28  1  0.30565000  0.18409000  0.62901000  1.0
  H  H29  1  0.24542000  0.31091000  0.49925000  1.0
  H  H30  1  0.26122000  0.20301000  0.48757000  1.0
  H  H31  1  0.12871000  0.17819000  0.58508000  1.0
  H  H32  1  0.09198000  0.24091000  0.50286000  1.0
  H  H33  1  0.11215000  0.28713000  0.59342000  1.0
  H  H34  1  0.62174000  0.33504000  0.28123000  1.0
  H  H35  1  0.43707000  0.40230000  0.10568000  1.0
  H  H36  1  0.58857000  0.23025000  0.28868000  1.0
  H  H37  1  0.78270000  0.29043000  0.32261000  1.0
  H  H38  1  0.75167000  0.18598000  0.32788000  1.0
  H  H39  1  0.71291000  0.19387000  0.18247000  1.0
  H  H40  1  0.82954000  0.21923000  0.19749000  1.0
  H  H41  1  0.74403000  0.29883000  0.17738000  1.0
  H  H42  1  0.23526000  0.67217000  0.58600000  1.0
  H  H43  1  0.24908000  0.77974000  0.56539000  1.0
  H  H44  1  0.28764000  0.68942000  0.72427000  1.0
  H  H45  1  0.29616000  0.79696000  0.70582000  1.0
  H  H46  1  0.50689000  0.64873000  0.25739000  1.0
  H  H47  1  0.12364000  0.80910000  0.67541000  1.0
  H  H48  1  0.14301000  0.76659000  0.77152000  1.0
  H  H49  1  0.11616000  0.70100000  0.69437000  1.0
  H  H50  1  0.48075000  0.35720000  0.73832000  1.0
  H  H51  1  0.60240000  0.88644000  0.43302000  1.0
  H  H52  1  0.39742000  0.10491000  0.55956000  1.0
  H  H53  1  0.61120000  0.12074000  0.38150000  1.0
  C  C54  1  0.49437000  0.51480000  0.34915000  1.0
  C  C55  1  0.55192000  0.85006000  0.46503000  1.0
  C  C56  1  0.50453000  0.10407000  0.46976000  1.0
  C  C57  1  0.47709000  0.88910000  0.50406000  1.0
  C  C58  1  0.56354000  0.15102000  0.42244000  1.0
  C  C59  1  0.41126000  0.84327000  0.54511000  1.0
  C  C60  1  0.56215000  0.23668000  0.43300000  1.0
  C  C61  1  0.42226000  0.75674000  0.54508000  1.0
  C  C62  1  0.68076000  0.48195000  0.50360000  1.0
  C  C63  1  0.32094000  0.48871000  0.49858000  1.0
  C  C64  1  0.78074000  0.48093000  0.50931000  1.0
  C  C65  1  0.49365000  0.49258000  0.64752000  1.0
  C  C66  1  0.22090000  0.48941000  0.50565000  1.0
  C  C67  1  0.86543000  0.48349000  0.51259000  1.0
  C  C68  1  0.13600000  0.48906000  0.51061000  1.0
  C  C69  1  0.95797000  0.48599000  0.51445000  1.0
  C  C70  1  0.04333000  0.48780000  0.51383000  1.0
  C  C71  1  0.48321000  0.51980000  0.26194000  1.0
  C  C72  1  0.48271000  0.48864000  0.73500000  1.0
  C  C73  1  0.46247000  0.44929000  0.22079000  1.0
  C  C74  1  0.47731000  0.56196000  0.77703000  1.0
  C  C75  1  0.45320000  0.45540000  0.13997000  1.0
  C  C76  1  0.48454000  0.60277000  0.14046000  1.0
  C  C77  1  0.46768000  0.55738000  0.85794000  1.0
  C  C78  1  0.46543000  0.53092000  0.09832000  1.0
  C  C79  1  0.46412000  0.48045000  0.89895000  1.0
  C  C80  1  0.52556000  0.74514000  0.13758000  1.0
  C  C81  1  0.44631000  0.79375000  0.17750000  1.0
  C  C82  1  0.48288000  0.86457000  0.22388000  1.0
  C  C83  1  0.48010000  0.25755000  0.85829000  1.0
  C  C84  1  0.39378000  0.22729000  0.81935000  1.0
  C  C85  1  0.41528000  0.14527000  0.77950000  1.0
  C  C86  1  0.71434000  0.74553000  0.42007000  1.0
  C  C87  1  0.46818000  0.40630000  0.85600000  1.0
  C  C88  1  0.73288000  0.77370000  0.33548000  1.0
  C  C89  1  0.83534000  0.79139000  0.32281000  1.0
  C  C90  1  0.30198000  0.24611000  0.59998000  1.0
  C  C91  1  0.23816000  0.25034000  0.52937000  1.0
  C  C92  1  0.13740000  0.23827000  0.55419000  1.0
  C  C93  1  0.63705000  0.27458000  0.31080000  1.0
  C  C94  1  0.73723000  0.24593000  0.29687000  1.0
  C  C95  1  0.75709000  0.23904000  0.20876000  1.0
  C  C96  1  0.27273000  0.72647000  0.60303000  1.0
  C  C97  1  0.25788000  0.74264000  0.68978000  1.0
  C  C98  1  0.49287000  0.59594000  0.22221000  1.0
  C  C99  1  0.15455000  0.75564000  0.70882000  1.0
  C  C100  1  0.47734000  0.41169000  0.77409000  1.0
  C  C101  1  0.44685000  0.22735000  0.52976000  1.0
  C  C102  1  0.55662000  0.76372000  0.46783000  1.0
  C  C103  1  0.44345000  0.14189000  0.52333000  1.0
  N  N104  1  0.46203000  0.53995000  0.01639000  1.0
  N  N105  1  0.46240000  0.47171000  0.98103000  1.0
  N  N106  1  0.50583000  0.27354000  0.48625000  1.0
  N  N107  1  0.49283000  0.71833000  0.50638000  1.0
  N  N108  1  0.51481000  0.01694000  0.46165000  1.0
  N  N109  1  0.46356000  0.97622000  0.50789000  1.0
  O  O110  1  0.48284000  0.58249000  0.38497000  1.0
  O  O111  1  0.46406000  0.33366000  0.89839000  1.0
  O  O112  1  0.62168000  0.71661000  0.43195000  1.0
  O  O113  1  0.39441000  0.27208000  0.57971000  1.0
  O  O114  1  0.61627000  0.28869000  0.39292000  1.0
  O  O115  1  0.36858000  0.70450000  0.58487000  1.0
  O  O116  1  0.48026000  0.42673000  0.61133000  1.0
  O  O117  1  0.51488000  0.44386000  0.38009000  1.0
  O  O118  1  0.51492000  0.56218000  0.61660000  1.0
  O  O119  1  0.64242000  0.55229000  0.48691000  1.0
  O  O120  1  0.35988000  0.42065000  0.47816000  1.0
  O  O121  1  0.64290000  0.41312000  0.51529000  1.0
  O  O122  1  0.35841000  0.55557000  0.51389000  1.0
  O  O123  1  0.49624000  0.67416000  0.09750000  1.0
