# generated using pymatgen
data_AgH15C16SN4O3
_symmetry_space_group_name_H-M   'P 1'
_cell_length_a   6.76555000
_cell_length_b   10.07820000
_cell_length_c   12.87630000
_cell_angle_alpha   89.20880000
_cell_angle_beta   80.24940000
_cell_angle_gamma   82.32090000
_symmetry_Int_Tables_number   1
_chemical_formula_structural   AgH15C16SN4O3
_chemical_formula_sum   'Ag2 H30 C32 S2 N8 O6'
_cell_volume   857.48727361
_cell_formula_units_Z   2
loop_
 _symmetry_equiv_pos_site_id
 _symmetry_equiv_pos_as_xyz
  1  'x, y, z'
loop_
 _atom_site_type_symbol
 _atom_site_label
 _atom_site_symmetry_multiplicity
 _atom_site_fract_x
 _atom_site_fract_y
 _atom_site_fract_z
 _atom_site_occupancy
  Ag  Ag0  1  0.58093000  0.91526000  0.29399000  1.0
  Ag  Ag1  1  0.41907000  0.08474000  0.70601000  1.0
  H  H2  1  0.23902000  0.14437000  0.25359000  1.0
  H  H3  1  0.76096000  0.85564000  0.74641000  1.0
  H  H4  1  0.18548000  0.30438000  0.04272000  1.0
  H  H5  1  0.81450000  0.69563000  0.95728000  1.0
  H  H6  1  0.96321000  0.32022000  0.90627000  1.0
  H  H7  1  0.03679000  0.67978000  0.09373000  1.0
  H  H8  1  0.68235000  0.18520000  0.91713000  1.0
  H  H9  1  0.31766000  0.81479000  0.08287000  1.0
  H  H10  1  0.60790000  0.02857000  0.06612000  1.0
  H  H11  1  0.39211000  0.97142000  0.93388000  1.0
  H  H12  1  0.91287000  0.69454000  0.36956000  1.0
  H  H13  1  0.08714000  0.30546000  0.63044000  1.0
  H  H14  1  0.09445000  0.40769000  0.27268000  1.0
  H  H15  1  0.90557000  0.59231000  0.72732000  1.0
  H  H16  1  0.41277000  0.29509000  0.16487000  1.0
  H  H17  1  0.58724000  0.70491000  0.83514000  1.0
  H  H18  1  0.70425000  0.41443000  0.10766000  1.0
  H  H19  1  0.29576000  0.58557000  0.89234000  1.0
  H  H20  1  0.69892000  0.65369000  0.15954000  1.0
  H  H21  1  0.30108000  0.34631000  0.84046000  1.0
  H  H22  1  0.15505000  0.99247000  0.39957000  1.0
  H  H23  1  0.84495000  0.00753000  0.60043000  1.0
  H  H24  1  0.91248000  0.93181000  0.41439000  1.0
  H  H25  1  0.08752000  0.06819000  0.58561000  1.0
  H  H26  1  0.27299000  0.67371000  0.65851000  1.0
  H  H27  1  0.72701000  0.32630000  0.34149000  1.0
  H  H28  1  0.50702000  0.57494000  0.60329000  1.0
  H  H29  1  0.49297000  0.42507000  0.39671000  1.0
  H  H30  1  0.31532000  0.62033000  0.52280000  1.0
  H  H31  1  0.68466000  0.37967000  0.47721000  1.0
  C  C32  1  0.11286000  0.11511000  0.22103000  1.0
  C  C33  1  0.88713000  0.88489000  0.77897000  1.0
  C  C34  1  0.02312000  0.15499000  0.13278000  1.0
  C  C35  1  0.97687000  0.84501000  0.86722000  1.0
  C  C36  1  0.06178000  0.24417000  0.04798000  1.0
  C  C37  1  0.93819000  0.75583000  0.95202000  1.0
  C  C38  1  0.93778000  0.25271000  0.97261000  1.0
  C  C39  1  0.06223000  0.74729000  0.02739000  1.0
  C  C40  1  0.77437000  0.17569000  0.97914000  1.0
  C  C41  1  0.22564000  0.82430000  0.02085000  1.0
  C  C42  1  0.73201000  0.08856000  0.06093000  1.0
  C  C43  1  0.26800000  0.91143000  0.93907000  1.0
  C  C44  1  0.85828000  0.07738000  0.13808000  1.0
  C  C45  1  0.14171000  0.92261000  0.86191000  1.0
  C  C46  1  0.06776000  0.69577000  0.32941000  1.0
  C  C47  1  0.93225000  0.30423000  0.67059000  1.0
  C  C48  1  0.21534000  0.59796000  0.27522000  1.0
  C  C49  1  0.78467000  0.40204000  0.72478000  1.0
  C  C50  1  0.22325000  0.46178000  0.24717000  1.0
  C  C51  1  0.77675000  0.53822000  0.75283000  1.0
  C  C52  1  0.39913000  0.40007000  0.18701000  1.0
  C  C53  1  0.60088000  0.59993000  0.81299000  1.0
  C  C54  1  0.56961000  0.46861000  0.15489000  1.0
  C  C55  1  0.43040000  0.53138000  0.84512000  1.0
  C  C56  1  0.56845000  0.60044000  0.18286000  1.0
  C  C57  1  0.43155000  0.39956000  0.81714000  1.0
  C  C58  1  0.38881000  0.66600000  0.24259000  1.0
  C  C59  1  0.61118000  0.33400000  0.75742000  1.0
  C  C60  1  0.05322000  0.94230000  0.36071000  1.0
  C  C61  1  0.94678000  0.05770000  0.63928000  1.0
  C  C62  1  0.38616000  0.65186000  0.58719000  1.0
  C  C63  1  0.61383000  0.34814000  0.41281000  1.0
  S  S64  1  0.48956000  0.80246000  0.54803000  1.0
  S  S65  1  0.51044000  0.19754000  0.45196000  1.0
  N  N66  1  0.84992000  0.99682000  0.22341000  1.0
  N  N67  1  0.15008000  0.00317000  0.77658000  1.0
  N  N68  1  0.00517000  0.02211000  0.27106000  1.0
  N  N69  1  0.99483000  0.97789000  0.72894000  1.0
  N  N70  1  0.34777000  0.79587000  0.27472000  1.0
  N  N71  1  0.65223000  0.20413000  0.72527000  1.0
  N  N72  1  0.15366000  0.80986000  0.32619000  1.0
  N  N73  1  0.84634000  0.19014000  0.67380000  1.0
  O  O74  1  0.64506000  0.76620000  0.45387000  1.0
  O  O75  1  0.35494000  0.23379000  0.54613000  1.0
  O  O76  1  0.57712000  0.84535000  0.63767000  1.0
  O  O77  1  0.42288000  0.15466000  0.36233000  1.0
  O  O78  1  0.31848000  0.89726000  0.52513000  1.0
  O  O79  1  0.68153000  0.10274000  0.47485000  1.0
