# generated using pymatgen
data_NiH16C15(N3O2)2
_symmetry_space_group_name_H-M   'P 1'
_cell_length_a   7.14105000
_cell_length_b   11.15500000
_cell_length_c   11.15500000
_cell_angle_alpha   65.21060000
_cell_angle_beta   80.34580000
_cell_angle_gamma   80.34570000
_symmetry_Int_Tables_number   1
_chemical_formula_structural   NiH16C15(N3O2)2
_chemical_formula_sum   'Ni2 H32 C30 N12 O8'
_cell_volume   790.56346388
_cell_formula_units_Z   2
loop_
 _symmetry_equiv_pos_site_id
 _symmetry_equiv_pos_as_xyz
  1  'x, y, z'
loop_
 _atom_site_type_symbol
 _atom_site_label
 _atom_site_symmetry_multiplicity
 _atom_site_fract_x
 _atom_site_fract_y
 _atom_site_fract_z
 _atom_site_occupancy
  Ni  Ni0  1  0.18310000  0.59755000  0.91218000  1.0
  Ni  Ni1  1  0.68310000  0.91218000  0.59755000  1.0
  H  H2  1  0.43532000  0.65007000  0.05486000  1.0
  H  H3  1  0.93532000  0.05486000  0.65007000  1.0
  H  H4  1  0.51368000  0.68327000  0.90276000  1.0
  H  H5  1  0.01369000  0.90276000  0.68327000  1.0
  H  H6  1  0.08023000  0.27129000  0.51970000  1.0
  H  H7  1  0.58023000  0.51970000  0.27129000  1.0
  H  H8  1  0.17466000  0.52697000  0.19739000  1.0
  H  H9  1  0.67466000  0.19739000  0.52697000  1.0
  H  H10  1  0.08943000  0.11410000  0.41270000  1.0
  H  H11  1  0.58943000  0.41269000  0.11410000  1.0
  H  H12  1  0.10441000  0.10019000  0.19197000  1.0
  H  H13  1  0.60442000  0.19196000  0.10019000  1.0
  H  H14  1  0.13762000  0.30841000  0.98247000  1.0
  H  H15  1  0.63763000  0.98246000  0.30842000  1.0
  H  H16  1  0.88055000  0.24270000  0.76631000  1.0
  H  H17  1  0.38055000  0.76631000  0.24270000  1.0
  H  H18  1  0.55762000  0.41677000  0.94297000  1.0
  H  H19  1  0.05763000  0.94297000  0.41678000  1.0
  H  H20  1  0.69130000  0.33163000  0.59366000  1.0
  H  H21  1  0.19130000  0.59366000  0.33162000  1.0
  H  H22  1  0.38774000  0.46784000  0.51486000  1.0
  H  H23  1  0.88774000  0.51487000  0.46783000  1.0
  H  H24  1  0.17887000  0.57351000  0.65707000  1.0
  H  H25  1  0.67887000  0.65707000  0.57351000  1.0
  H  H26  1  0.80879000  0.56125000  0.07249000  1.0
  H  H27  1  0.30879000  0.07249000  0.56124000  1.0
  H  H28  1  0.61806000  0.90085000  0.16917000  1.0
  H  H29  1  0.11806000  0.16917000  0.90085000  1.0
  H  H30  1  0.93297000  0.98621000  0.05756000  1.0
  H  H31  1  0.43297000  0.05756000  0.98621000  1.0
  H  H32  1  0.17009000  0.85422000  0.95397000  1.0
  H  H33  1  0.67009000  0.95398000  0.85422000  1.0
  C  C34  1  0.15810000  0.43082000  0.19995000  1.0
  C  C35  1  0.65811000  0.19995000  0.43082000  1.0
  C  C36  1  0.13092000  0.32238000  0.32230000  1.0
  C  C37  1  0.63093000  0.32229000  0.32238000  1.0
  C  C38  1  0.11150000  0.20052000  0.31966000  1.0
  C  C39  1  0.61149000  0.31965000  0.20053000  1.0
  C  C40  1  0.11757000  0.19387000  0.19702000  1.0
  C  C41  1  0.61757000  0.19701000  0.19387000  1.0
  C  C42  1  0.13923000  0.30746000  0.08023000  1.0
  C  C43  1  0.63923000  0.08023000  0.30746000  1.0
  C  C44  1  0.52253000  0.42369000  0.84910000  1.0
  C  C45  1  0.02254000  0.84910000  0.42369000  1.0
  C  C46  1  0.64485000  0.35738000  0.77829000  1.0
  C  C47  1  0.14485000  0.77829000  0.35738000  1.0
  C  C48  1  0.59645000  0.37625000  0.65439000  1.0
  C  C49  1  0.09645000  0.65439000  0.37625000  1.0
  C  C50  1  0.42833000  0.45377000  0.60995000  1.0
  C  C51  1  0.92833000  0.60995000  0.45376000  1.0
  C  C52  1  0.31257000  0.51332000  0.68758000  1.0
  C  C53  1  0.81257000  0.68759000  0.51332000  1.0
  C  C54  1  0.83055000  0.65631000  0.07091000  1.0
  C  C55  1  0.33056000  0.07090000  0.65631000  1.0
  C  C56  1  0.68466000  0.72410000  0.12857000  1.0
  C  C57  1  0.18465000  0.12857000  0.72410000  1.0
  C  C58  1  0.72516000  0.84527000  0.12462000  1.0
  C  C59  1  0.22515000  0.12462000  0.84527000  1.0
  C  C60  1  0.89998000  0.89207000  0.06284000  1.0
  C  C61  1  0.39998000  0.06284000  0.89207000  1.0
  C  C62  1  0.03349000  0.81963000  0.00528000  1.0
  C  C63  1  0.53349000  0.00528000  0.81962000  1.0
  N  N64  1  0.94990000  0.56876000  0.83922000  1.0
  N  N65  1  0.44990000  0.83922000  0.56876000  1.0
  N  N66  1  0.82748000  0.65747000  0.80570000  1.0
  N  N67  1  0.32749000  0.80570000  0.65747000  1.0
  N  N68  1  0.70029000  0.74515000  0.77712000  1.0
  N  N69  1  0.20030000  0.77712000  0.74515000  1.0
  N  N70  1  0.15968000  0.42419000  0.08273000  1.0
  N  N71  1  0.65969000  0.08272000  0.42419000  1.0
  N  N72  1  0.36081000  0.49929000  0.80488000  1.0
  N  N73  1  0.86080000  0.80488000  0.49929000  1.0
  N  N74  1  0.99779000  0.70282000  0.01009000  1.0
  N  N75  1  0.49779000  0.01009000  0.70282000  1.0
  O  O76  1  0.42654000  0.62761000  0.97830000  1.0
  O  O77  1  0.92654000  0.97830000  0.62761000  1.0
  O  O78  1  0.12696000  0.34439000  0.43234000  1.0
  O  O79  1  0.62696000  0.43234000  0.34438000  1.0
  O  O80  1  0.80065000  0.27950000  0.83153000  1.0
  O  O81  1  0.30066000  0.83153000  0.27950000  1.0
  O  O82  1  0.51842000  0.67350000  0.18194000  1.0
  O  O83  1  0.01843000  0.18194000  0.67350000  1.0
