# generated using pymatgen
data_CuH12C14(NO)4
_symmetry_space_group_name_H-M   'P 1'
_cell_length_a   10.28030000
_cell_length_b   12.08010000
_cell_length_c   13.89770000
_cell_angle_alpha   93.15790000
_cell_angle_beta   89.99900000
_cell_angle_gamma   89.99850000
_symmetry_Int_Tables_number   1
_chemical_formula_structural   CuH12C14(NO)4
_chemical_formula_sum   'Cu4 H48 C56 N16 O16'
_cell_volume   1723.29361072
_cell_formula_units_Z   4
loop_
 _symmetry_equiv_pos_site_id
 _symmetry_equiv_pos_as_xyz
  1  'x, y, z'
loop_
 _atom_site_type_symbol
 _atom_site_label
 _atom_site_symmetry_multiplicity
 _atom_site_fract_x
 _atom_site_fract_y
 _atom_site_fract_z
 _atom_site_occupancy
  Cu  Cu0  1  0.86230000  0.05778000  0.10027000  1.0
  Cu  Cu1  1  0.36232000  0.94223000  0.39974000  1.0
  Cu  Cu2  1  0.13770000  0.94223000  0.89973000  1.0
  Cu  Cu3  1  0.63769000  0.05776000  0.60026000  1.0
  H  H4  1  0.88057000  0.66622000  0.07202000  1.0
  H  H5  1  0.38055000  0.33377000  0.42797000  1.0
  H  H6  1  0.11942000  0.33378000  0.92798000  1.0
  H  H7  1  0.61944000  0.66623000  0.57203000  1.0
  H  H8  1  0.86686000  0.49172000  0.15863000  1.0
  H  H9  1  0.36685000  0.50828000  0.34137000  1.0
  H  H10  1  0.13314000  0.50828000  0.84137000  1.0
  H  H11  1  0.63315000  0.49173000  0.65863000  1.0
  H  H12  1  0.99877000  0.47025000  0.30696000  1.0
  H  H13  1  0.49877000  0.52975000  0.19305000  1.0
  H  H14  1  0.00123000  0.52975000  0.69304000  1.0
  H  H15  1  0.50123000  0.47025000  0.80696000  1.0
  H  H16  1  0.14462000  0.62505000  0.36734000  1.0
  H  H17  1  0.64462000  0.37495000  0.13266000  1.0
  H  H18  1  0.85537000  0.37496000  0.63266000  1.0
  H  H19  1  0.35537000  0.62505000  0.86734000  1.0
  H  H20  1  0.28666000  0.18057000  0.25555000  1.0
  H  H21  1  0.78667000  0.81943000  0.24445000  1.0
  H  H22  1  0.71334000  0.81942000  0.74446000  1.0
  H  H23  1  0.21334000  0.18057000  0.75555000  1.0
  H  H24  1  0.18084000  0.37431000  0.19037000  1.0
  H  H25  1  0.68085000  0.62569000  0.30963000  1.0
  H  H26  1  0.81916000  0.62568000  0.80964000  1.0
  H  H27  1  0.31917000  0.37432000  0.69038000  1.0
  H  H28  1  0.94327000  0.30388000  0.11321000  1.0
  H  H29  1  0.44327000  0.69611000  0.38678000  1.0
  H  H30  1  0.05674000  0.69612000  0.88680000  1.0
  H  H31  1  0.55674000  0.30388000  0.61321000  1.0
  H  H32  1  0.55346000  0.96842000  0.82899000  1.0
  H  H33  1  0.05347000  0.03158000  0.67100000  1.0
  H  H34  1  0.44654000  0.03158000  0.17100000  1.0
  H  H35  1  0.94653000  0.96842000  0.32899000  1.0
  H  H36  1  0.50040000  0.80085000  0.95110000  1.0
  H  H37  1  0.00040000  0.19914000  0.54890000  1.0
  H  H38  1  0.49960000  0.19915000  0.04890000  1.0
  H  H39  1  0.99962000  0.80086000  0.45109000  1.0
  H  H40  1  0.67686000  0.83876000  0.09943000  1.0
  H  H41  1  0.17686000  0.16123000  0.40057000  1.0
  H  H42  1  0.32314000  0.16124000  0.90057000  1.0
  H  H43  1  0.82316000  0.83876000  0.59943000  1.0
  H  H44  1  0.12307000  0.03021000  0.21568000  1.0
  H  H45  1  0.62307000  0.96979000  0.28432000  1.0
  H  H46  1  0.87693000  0.96979000  0.78432000  1.0
  H  H47  1  0.37693000  0.03021000  0.71568000  1.0
  H  H48  1  0.73999000  0.07866000  0.90942000  1.0
  H  H49  1  0.24000000  0.92134000  0.59058000  1.0
  H  H50  1  0.26001000  0.92135000  0.09058000  1.0
  H  H51  1  0.76000000  0.07865000  0.40941000  1.0
  C  C52  1  0.01507000  0.84867000  0.11814000  1.0
  C  C53  1  0.51505000  0.15131000  0.38186000  1.0
  C  C54  1  0.98493000  0.15133000  0.88187000  1.0
  C  C55  1  0.48494000  0.84869000  0.61813000  1.0
  C  C56  1  0.01880000  0.74321000  0.17136000  1.0
  C  C57  1  0.51879000  0.25678000  0.32864000  1.0
  C  C58  1  0.98119000  0.25679000  0.82865000  1.0
  C  C59  1  0.48119000  0.74322000  0.67136000  1.0
  C  C60  1  0.93834000  0.65616000  0.13689000  1.0
  C  C61  1  0.43832000  0.34384000  0.36311000  1.0
  C  C62  1  0.06166000  0.34384000  0.86311000  1.0
  C  C63  1  0.56167000  0.65617000  0.63689000  1.0
  C  C64  1  0.93097000  0.55843000  0.18546000  1.0
  C  C65  1  0.43096000  0.44157000  0.31454000  1.0
  C  C66  1  0.06902000  0.44157000  0.81454000  1.0
  C  C67  1  0.56903000  0.55843000  0.68546000  1.0
  C  C68  1  0.00460000  0.54661000  0.26892000  1.0
  C  C69  1  0.50460000  0.45339000  0.23108000  1.0
  C  C70  1  0.99539000  0.45339000  0.73108000  1.0
  C  C71  1  0.49540000  0.54662000  0.76892000  1.0
  C  C72  1  0.08606000  0.63241000  0.30259000  1.0
  C  C73  1  0.58605000  0.36759000  0.19741000  1.0
  C  C74  1  0.91394000  0.36760000  0.69741000  1.0
  C  C75  1  0.41394000  0.63241000  0.80260000  1.0
  C  C76  1  0.09421000  0.73144000  0.25464000  1.0
  C  C77  1  0.59421000  0.26856000  0.24536000  1.0
  C  C78  1  0.90578000  0.26857000  0.74537000  1.0
  C  C79  1  0.40579000  0.73144000  0.75464000  1.0
  C  C80  1  0.18278000  0.82296000  0.29228000  1.0
  C  C81  1  0.68277000  0.17704000  0.20773000  1.0
  C  C82  1  0.81722000  0.17704000  0.70772000  1.0
  C  C83  1  0.31722000  0.82296000  0.79227000  1.0
  C  C84  1  0.19432000  0.19638000  0.22105000  1.0
  C  C85  1  0.69433000  0.80362000  0.27895000  1.0
  C  C86  1  0.80568000  0.80361000  0.77896000  1.0
  C  C87  1  0.30568000  0.19638000  0.72105000  1.0
  C  C88  1  0.13896000  0.29195000  0.18734000  1.0
  C  C89  1  0.63896000  0.70805000  0.31265000  1.0
  C  C90  1  0.86105000  0.70805000  0.81267000  1.0
  C  C91  1  0.36105000  0.29195000  0.68735000  1.0
  C  C92  1  0.01840000  0.25806000  0.14849000  1.0
  C  C93  1  0.51841000  0.74194000  0.35151000  1.0
  C  C94  1  0.98160000  0.74194000  0.85152000  1.0
  C  C95  1  0.48161000  0.25806000  0.64849000  1.0
  C  C96  1  0.59449000  0.95105000  0.89837000  1.0
  C  C97  1  0.09449000  0.04895000  0.60163000  1.0
  C  C98  1  0.40551000  0.04895000  0.10163000  1.0
  C  C99  1  0.90551000  0.95105000  0.39837000  1.0
  C  C100  1  0.57229000  0.86607000  0.95991000  1.0
  C  C101  1  0.07228000  0.13393000  0.54008000  1.0
  C  C102  1  0.42772000  0.13394000  0.04009000  1.0
  C  C103  1  0.92772000  0.86607000  0.45990000  1.0
  C  C104  1  0.66125000  0.88468000  0.03566000  1.0
  C  C105  1  0.16126000  0.11532000  0.46433000  1.0
  C  C106  1  0.33875000  0.11533000  0.96434000  1.0
  C  C107  1  0.83876000  0.88468000  0.53566000  1.0
  N  N108  1  0.00172000  0.14883000  0.15818000  1.0
  N  N109  1  0.50172000  0.85117000  0.34182000  1.0
  N  N110  1  0.99828000  0.85117000  0.84183000  1.0
  N  N111  1  0.49829000  0.14882000  0.65818000  1.0
  N  N112  1  0.10915000  0.11290000  0.20259000  1.0
  N  N113  1  0.60915000  0.88710000  0.29741000  1.0
  N  N114  1  0.89085000  0.88710000  0.79741000  1.0
  N  N115  1  0.39086000  0.11290000  0.70259000  1.0
  N  N116  1  0.73301000  0.97526000  0.02115000  1.0
  N  N117  1  0.23303000  0.02474000  0.47885000  1.0
  N  N118  1  0.26699000  0.02475000  0.97885000  1.0
  N  N119  1  0.76698000  0.97526000  0.52115000  1.0
  N  N120  1  0.69021000  0.01478000  0.93800000  1.0
  N  N121  1  0.19021000  0.98521000  0.56199000  1.0
  N  N122  1  0.30979000  0.98522000  0.06199000  1.0
  N  N123  1  0.80979000  0.01477000  0.43800000  1.0
  O  O124  1  0.92960000  0.91822000  0.15256000  1.0
  O  O125  1  0.42959000  0.08178000  0.34742000  1.0
  O  O126  1  0.07039000  0.08178000  0.84744000  1.0
  O  O127  1  0.57041000  0.91821000  0.65257000  1.0
  O  O128  1  0.08528000  0.85698000  0.04553000  1.0
  O  O129  1  0.58526000  0.14302000  0.45448000  1.0
  O  O130  1  0.91472000  0.14303000  0.95448000  1.0
  O  O131  1  0.41473000  0.85697000  0.54552000  1.0
  O  O132  1  0.23654000  0.81057000  0.37434000  1.0
  O  O133  1  0.73655000  0.18942000  0.12566000  1.0
  O  O134  1  0.76346000  0.18943000  0.62566000  1.0
  O  O135  1  0.26345000  0.81058000  0.87434000  1.0
  O  O136  1  0.20160000  0.90637000  0.24254000  1.0
  O  O137  1  0.70159000  0.09363000  0.25747000  1.0
  O  O138  1  0.79840000  0.09363000  0.75747000  1.0
  O  O139  1  0.29840000  0.90637000  0.74253000  1.0
