# generated using pymatgen
data_CuH8C10(NCl)2
_symmetry_space_group_name_H-M   'P 1'
_cell_length_a   7.14993000
_cell_length_b   8.35492000
_cell_length_c   9.93751458
_cell_angle_alpha   107.42972828
_cell_angle_beta   102.62126762
_cell_angle_gamma   109.58800000
_symmetry_Int_Tables_number   1
_chemical_formula_structural   CuH8C10(NCl)2
_chemical_formula_sum   'Cu2 H16 C20 N4 Cl4'
_cell_volume   498.88689986
_cell_formula_units_Z   2
loop_
 _symmetry_equiv_pos_site_id
 _symmetry_equiv_pos_as_xyz
  1  'x, y, z'
loop_
 _atom_site_type_symbol
 _atom_site_label
 _atom_site_symmetry_multiplicity
 _atom_site_fract_x
 _atom_site_fract_y
 _atom_site_fract_z
 _atom_site_occupancy
  Cu  Cu0  1  0.79463000  0.62470000  0.90562000  1.0
  Cu  Cu1  1  0.38886000  0.71879000  0.09461000  1.0
  H  H2  1  0.68320000  0.53576000  0.56856000  1.0
  H  H3  1  0.61448000  0.96695000  0.43173000  1.0
  H  H4  1  0.79759000  0.71121000  0.41141000  1.0
  H  H5  1  0.88534000  0.29961000  0.58852000  1.0
  H  H6  1  0.08006000  0.04406000  0.54926000  1.0
  H  H7  1  0.02975000  0.49442000  0.45035000  1.0
  H  H8  1  0.22452000  0.18461000  0.82720000  1.0
  H  H9  1  0.89643000  0.35685000  0.17245000  1.0
  H  H10  1  0.31221000  0.28827000  0.06225000  1.0
  H  H11  1  0.74966000  0.22569000  0.93774000  1.0
  H  H12  1  0.42555000  0.37681000  0.33737000  1.0
  H  H13  1  0.58802000  0.03937000  0.66262000  1.0
  H  H14  1  0.28430000  0.13621000  0.43661000  1.0
  H  H15  1  0.34772000  0.69958000  0.56339000  1.0
  H  H16  1  0.00597000  0.81488000  0.24884000  1.0
  H  H17  1  0.25731000  0.56575000  0.75122000  1.0
  C  C18  1  0.80275000  0.67948000  0.61917000  1.0
  C  C19  1  0.68318000  0.06000000  0.38096000  1.0
  C  C20  1  0.86843000  0.77798000  0.53419000  1.0
  C  C21  1  0.83345000  0.24353000  0.46572000  1.0
  C  C22  1  0.02232000  0.96146000  0.61030000  1.0
  C  C23  1  0.91105000  0.35082000  0.38941000  1.0
  C  C24  1  0.10384000  0.04154000  0.76729000  1.0
  C  C25  1  0.83565000  0.27375000  0.23245000  1.0
  C  C26  1  0.02863000  0.93467000  0.84493000  1.0
  C  C27  1  0.68306000  0.08924000  0.15501000  1.0
  C  C28  1  0.10102000  0.00402000  0.00993000  1.0
  C  C29  1  0.59073000  0.99364000  0.99003000  1.0
  C  C30  1  0.24815000  0.18577000  0.10638000  1.0
  C  C31  1  0.64146000  0.07908000  0.89357000  1.0
  C  C32  1  0.31269000  0.23480000  0.26134000  1.0
  C  C33  1  0.55106000  0.97327000  0.73862000  1.0
  C  C34  1  0.23033000  0.10187000  0.31594000  1.0
  C  C35  1  0.41421000  0.78579000  0.68406000  1.0
  C  C36  1  0.07898000  0.92454000  0.21376000  1.0
  C  C37  1  0.36519000  0.71048000  0.78625000  1.0
  N  N38  1  0.88140000  0.75526000  0.77021000  1.0
  N  N39  1  0.61081000  0.98466000  0.22992000  1.0
  N  N40  1  0.01472000  0.87742000  0.06448000  1.0
  N  N41  1  0.45004000  0.81256000  0.93555000  1.0
  Cl  Cl42  1  0.64643000  0.55141000  0.07453000  1.0
  Cl  Cl43  1  0.07191000  0.47684000  0.92587000  1.0
  Cl  Cl44  1  0.52983000  0.36607000  0.71005000  1.0
  Cl  Cl45  1  0.31947000  0.65593000  0.29035000  1.0
