# generated using pymatgen
data_MnH8C12(NO2)2
_symmetry_space_group_name_H-M   'P 1'
_cell_length_a   8.50561000
_cell_length_b   8.52817000
_cell_length_c   8.84925000
_cell_angle_alpha   69.33350000
_cell_angle_beta   69.29370000
_cell_angle_gamma   64.56910000
_symmetry_Int_Tables_number   1
_chemical_formula_structural   MnH8C12(NO2)2
_chemical_formula_sum   'Mn2 H16 C24 N4 O8'
_cell_volume   526.66927535
_cell_formula_units_Z   2
loop_
 _symmetry_equiv_pos_site_id
 _symmetry_equiv_pos_as_xyz
  1  'x, y, z'
loop_
 _atom_site_type_symbol
 _atom_site_label
 _atom_site_symmetry_multiplicity
 _atom_site_fract_x
 _atom_site_fract_y
 _atom_site_fract_z
 _atom_site_occupancy
  Mn  Mn0  1  0.85862000  0.14213000  0.75032000  1.0
  Mn  Mn1  1  0.11286000  0.88675000  0.24971000  1.0
  H  H2  1  0.42202000  0.00257000  0.11503000  1.0
  H  H3  1  0.93502000  0.48761000  0.59767000  1.0
  H  H4  1  0.50958000  0.07052000  0.90402000  1.0
  H  H5  1  0.00104000  0.57610000  0.38699000  1.0
  H  H6  1  0.71317000  0.29221000  0.08648000  1.0
  H  H7  1  0.29614000  0.61337000  0.52372000  1.0
  H  H8  1  0.38565000  0.70478000  0.97342000  1.0
  H  H9  1  0.70720000  0.28899000  0.41478000  1.0
  H  H10  1  0.75468000  0.74865000  0.46231000  1.0
  H  H11  1  0.82990000  0.77619000  0.95626000  1.0
  H  H12  1  0.22933000  0.16021000  0.54341000  1.0
  H  H13  1  0.24741000  0.24875000  0.03606000  1.0
  H  H14  1  0.55440000  0.56472000  0.62670000  1.0
  H  H15  1  0.71118000  0.54233000  0.17472000  1.0
  H  H16  1  0.46141000  0.28265000  0.32546000  1.0
  H  H17  1  0.43142000  0.44878000  0.86992000  1.0
  C  C18  1  0.73922000  0.97388000  0.15171000  1.0
  C  C19  1  0.96086000  0.78945000  0.62574000  1.0
  C  C20  1  0.21150000  0.03713000  0.87470000  1.0
  C  C21  1  0.02604000  0.26174000  0.34878000  1.0
  C  C22  1  0.60991000  0.88054000  0.26986000  1.0
  C  C23  1  0.88844000  0.65371000  0.75850000  1.0
  C  C24  1  0.34720000  0.10991000  0.74221000  1.0
  C  C25  1  0.11929000  0.39098000  0.23017000  1.0
  C  C26  1  0.64230000  0.76217000  0.42111000  1.0
  C  C27  1  0.82594000  0.66601000  0.92462000  1.0
  C  C28  1  0.33716000  0.16851000  0.57559000  1.0
  C  C29  1  0.23549000  0.35998000  0.07757000  1.0
  C  C30  1  0.45685000  0.90617000  0.22658000  1.0
  C  C31  1  0.88416000  0.50890000  0.72256000  1.0
  C  C32  1  0.48981000  0.11860000  0.77873000  1.0
  C  C33  1  0.09552000  0.54258000  0.27406000  1.0
  C  C34  1  0.52896000  0.66457000  0.51234000  1.0
  C  C35  1  0.76098000  0.53641000  0.04449000  1.0
  C  C36  1  0.46594000  0.23529000  0.45600000  1.0
  C  C37  1  0.33306000  0.47316000  0.98547000  1.0
  C  C38  1  0.76034000  0.39757000  0.99674000  1.0
  C  C39  1  0.38385000  0.69093000  0.45638000  1.0
  C  C40  1  0.30824000  0.61710000  0.04177000  1.0
  C  C41  1  0.60237000  0.24051000  0.50432000  1.0
  N  N42  1  0.82045000  0.38387000  0.83720000  1.0
  N  N43  1  0.34231000  0.81574000  0.31635000  1.0
  N  N44  1  0.18513000  0.65754000  0.18316000  1.0
  N  N45  1  0.61455000  0.18313000  0.66422000  1.0
  O  O46  1  0.70816000  0.06078000  0.00807000  1.0
  O  O47  1  0.00616000  0.77128000  0.47595000  1.0
  O  O48  1  0.22846000  0.99340000  0.02473000  1.0
  O  O49  1  0.94135000  0.29161000  0.49330000  1.0
  O  O50  1  0.86674000  0.95961000  0.20328000  1.0
  O  O51  1  0.97860000  0.90627000  0.66731000  1.0
  O  O52  1  0.09554000  0.01763000  0.83285000  1.0
  O  O53  1  0.03805000  0.13603000  0.29660000  1.0
