# generated using pymatgen
data_Zn4H8C40Br12O13
_symmetry_space_group_name_H-M   'P 1'
_cell_length_a   23.91402406
_cell_length_b   23.91420000
_cell_length_c   23.91240000
_cell_angle_alpha   66.86640000
_cell_angle_beta   72.32600857
_cell_angle_gamma   107.67129628
_symmetry_Int_Tables_number   1
_chemical_formula_structural   Zn4H8C40Br12O13
_chemical_formula_sum   'Zn8 H16 C80 Br24 O26'
_cell_volume   10494.39949341
_cell_formula_units_Z   2
loop_
 _symmetry_equiv_pos_site_id
 _symmetry_equiv_pos_as_xyz
  1  'x, y, z'
loop_
 _atom_site_type_symbol
 _atom_site_label
 _atom_site_symmetry_multiplicity
 _atom_site_fract_x
 _atom_site_fract_y
 _atom_site_fract_z
 _atom_site_occupancy
  Zn  Zn0  1  0.05732000  0.09956000  0.45776000  1.0
  Zn  Zn1  1  0.05732000  0.95776000  0.48491000  1.0
  Zn  Zn2  1  0.94267000  0.95775000  0.59957000  1.0
  Zn  Zn3  1  0.94269000  0.98493000  0.45775000  1.0
  Zn  Zn4  1  0.94268000  0.40044000  0.04224000  1.0
  Zn  Zn5  1  0.05733000  0.54225000  0.90043000  1.0
  Zn  Zn6  1  0.94268000  0.54224000  0.01508000  1.0
  Zn  Zn7  1  0.05731000  0.51507000  0.04225000  1.0
  H  H8  1  0.92394000  0.27211000  0.96390000  1.0
  H  H9  1  0.07605000  0.46389000  0.77207000  1.0
  H  H10  1  0.92394000  0.03610000  0.72793000  1.0
  H  H11  1  0.07600000  0.22790000  0.53610000  1.0
  H  H12  1  0.07608000  0.61221000  0.15181000  1.0
  H  H13  1  0.92395000  0.65187000  0.11214000  1.0
  H  H14  1  0.07601000  0.84810000  0.38788000  1.0
  H  H15  1  0.92393000  0.88783000  0.34815000  1.0
  H  H16  1  0.73599000  0.27210000  0.15187000  1.0
  H  H17  1  0.73599000  0.46391000  0.11214000  1.0
  H  H18  1  0.26402000  0.03610000  0.38786000  1.0
  H  H19  1  0.26401000  0.22789000  0.34820000  1.0
  H  H20  1  0.26403000  0.65191000  0.77209000  1.0
  H  H21  1  0.26400000  0.61213000  0.96393000  1.0
  H  H22  1  0.73600000  0.88787000  0.53608000  1.0
  H  H23  1  0.73598000  0.84817000  0.72790000  1.0
  C  C24  1  0.18181000  0.09090000  0.40910000  1.0
  C  C25  1  0.00000000  0.86320000  0.63680000  1.0
  C  C26  1  0.99998000  0.09089000  0.59092000  1.0
  C  C27  1  0.81819000  0.90910000  0.59089000  1.0
  C  C28  1  0.00000000  0.13680000  0.36320000  1.0
  C  C29  1  0.99999000  0.90909000  0.40910000  1.0
  C  C30  1  0.00001000  0.40911000  0.90908000  1.0
  C  C31  1  1.00000000  0.63680000  0.86320000  1.0
  C  C32  1  0.81819000  0.40910000  0.09091000  1.0
  C  C33  1  0.00000000  0.59092000  0.09089000  1.0
  C  C34  1  0.00000000  0.36320000  0.13681000  1.0
  C  C35  1  0.18181000  0.59091000  0.90911000  1.0
  C  C36  1  1.00000000  0.19489000  0.30511000  1.0
  C  C37  1  1.00000000  0.30510000  0.19489000  1.0
  C  C38  1  0.95701000  0.18011000  0.27690000  1.0
  C  C39  1  0.04299000  0.31988000  0.22310000  1.0
  C  C40  1  0.95701000  0.23391000  0.22310000  1.0
  C  C41  1  0.04299000  0.26609000  0.27690000  1.0
  C  C42  1  1.00000000  0.80511000  0.69489000  1.0
  C  C43  1  0.00001000  0.69490000  0.80510000  1.0
  C  C44  1  0.95701000  0.77689000  0.76611000  1.0
  C  C45  1  0.04299000  0.72310000  0.73389000  1.0
  C  C46  1  0.95702000  0.72311000  0.81989000  1.0
  C  C47  1  0.04299000  0.77690000  0.68010000  1.0
  C  C48  1  0.00000000  0.37168000  0.87166000  1.0
  C  C49  1  0.95707000  0.30009000  0.90828000  1.0
  C  C50  1  0.95728000  0.26560000  0.87325000  1.0
  C  C51  1  0.99999000  0.30061000  0.80060000  1.0
  C  C52  1  0.04270000  0.37325000  0.76558000  1.0
  C  C53  1  0.04293000  0.40830000  0.80005000  1.0
  C  C54  1  0.99998000  0.26531000  0.76532000  1.0
  C  C55  1  0.99997000  0.23468000  0.73469000  1.0
  C  C56  1  0.99996000  0.19939000  0.69940000  1.0
  C  C57  1  0.95727000  0.12675000  0.73442000  1.0
  C  C58  1  0.95705000  0.09171000  0.69994000  1.0
  C  C59  1  0.99997000  0.12832000  0.62834000  1.0
  C  C60  1  0.04288000  0.19992000  0.59171000  1.0
  C  C61  1  0.04265000  0.23440000  0.62675000  1.0
  C  C62  1  0.00001000  0.62836000  0.12831000  1.0
  C  C63  1  0.04295000  0.63468000  0.15696000  1.0
  C  C64  1  0.04273000  0.66950000  0.19166000  1.0
  C  C65  1  0.00001000  0.69942000  0.19937000  1.0
  C  C66  1  0.95731000  0.69173000  0.16943000  1.0
  C  C67  1  0.95708000  0.65702000  0.13462000  1.0
  C  C68  1  1.00000000  0.73469000  0.23467000  1.0
  C  C69  1  0.99998000  0.76530000  0.26532000  1.0
  C  C70  1  0.99997000  0.80058000  0.30062000  1.0
  C  C71  1  0.04266000  0.80825000  0.33058000  1.0
  C  C72  1  0.04289000  0.84296000  0.36539000  1.0
  C  C73  1  0.99997000  0.87164000  0.37169000  1.0
  C  C74  1  0.95705000  0.86534000  0.34302000  1.0
  C  C75  1  0.95727000  0.83052000  0.30831000  1.0
  C  C76  1  0.74333000  0.37167000  0.12834000  1.0
  C  C77  1  0.70836000  0.30008000  0.15701000  1.0
  C  C78  1  0.63884000  0.26560000  0.19172000  1.0
  C  C79  1  0.60121000  0.30061000  0.19940000  1.0
  C  C80  1  0.63884000  0.37326000  0.16945000  1.0
  C  C81  1  0.70836000  0.40830000  0.13463000  1.0
  C  C82  1  0.53063000  0.26532000  0.23470000  1.0
  C  C83  1  0.46937000  0.23469000  0.26534000  1.0
  C  C84  1  0.39880000  0.19939000  0.30064000  1.0
  C  C85  1  0.36117000  0.12675000  0.33057000  1.0
  C  C86  1  0.29165000  0.09171000  0.36538000  1.0
  C  C87  1  0.25667000  0.12832000  0.37170000  1.0
  C  C88  1  0.29164000  0.19991000  0.34305000  1.0
  C  C89  1  0.36116000  0.23439000  0.30835000  1.0
  C  C90  1  0.25667000  0.62835000  0.87167000  1.0
  C  C91  1  0.29165000  0.65704000  0.80007000  1.0
  C  C92  1  0.36117000  0.69175000  0.76560000  1.0
  C  C93  1  0.39880000  0.69942000  0.80061000  1.0
  C  C94  1  0.36116000  0.66947000  0.87327000  1.0
  C  C95  1  0.29163000  0.63464000  0.90832000  1.0
  C  C96  1  0.46937000  0.73470000  0.76533000  1.0
  C  C97  1  0.53063000  0.76533000  0.73468000  1.0
  C  C98  1  0.60121000  0.80063000  0.69937000  1.0
  C  C99  1  0.63884000  0.83056000  0.62673000  1.0
  C  C100  1  0.70837000  0.86539000  0.59168000  1.0
  C  C101  1  0.74333000  0.87168000  0.62832000  1.0
  C  C102  1  0.70836000  0.84302000  0.69991000  1.0
  C  C103  1  0.63883000  0.80832000  0.73440000  1.0
  Br  Br104  1  0.89643000  0.08769000  0.30875000  1.0
  Br  Br105  1  0.10357000  0.41230000  0.19125000  1.0
  Br  Br106  1  0.89643000  0.20517000  0.19126000  1.0
  Br  Br107  1  0.10357000  0.29483000  0.30873000  1.0
  Br  Br108  1  0.89643000  0.80873000  0.79485000  1.0
  Br  Br109  1  0.10357000  0.69127000  0.70515000  1.0
  Br  Br110  1  0.89645000  0.69126000  0.91232000  1.0
  Br  Br111  1  0.10355000  0.80873000  0.58767000  1.0
  Br  Br112  1  0.10160000  0.42495000  0.66879000  1.0
  Br  Br113  1  0.89837000  0.16882000  0.92497000  1.0
  Br  Br114  1  0.10154000  0.33119000  0.57501000  1.0
  Br  Br115  1  0.89840000  0.07504000  0.83122000  1.0
  Br  Br116  1  0.89840000  0.72960000  0.17663000  1.0
  Br  Br117  1  0.10164000  0.67670000  0.22953000  1.0
  Br  Br118  1  0.89839000  0.82335000  0.27040000  1.0
  Br  Br119  1  0.10155000  0.77036000  0.32340000  1.0
  Br  Br120  1  0.59376000  0.42496000  0.17663000  1.0
  Br  Br121  1  0.59376000  0.16881000  0.22962000  1.0
  Br  Br122  1  0.40623000  0.33117000  0.27048000  1.0
  Br  Br123  1  0.40625000  0.07505000  0.32337000  1.0
  Br  Br124  1  0.40622000  0.67662000  0.92500000  1.0
  Br  Br125  1  0.40625000  0.72965000  0.66880000  1.0
  Br  Br126  1  0.59375000  0.77043000  0.83119000  1.0
  Br  Br127  1  0.59378000  0.82337000  0.57501000  1.0
  O  O128  1  0.00000000  0.00000000  0.50000000  1.0
  O  O129  1  0.15298000  0.12707000  0.41399000  1.0
  O  O130  1  0.03971000  0.88573000  0.57457000  1.0
  O  O131  1  0.95892000  0.02589000  0.62709000  1.0
  O  O132  1  0.15299000  0.02591000  0.43302000  1.0
  O  O133  1  0.04106000  0.12707000  0.52591000  1.0
  O  O134  1  0.96028000  0.88570000  0.65399000  1.0
  O  O135  1  0.84701000  0.91399000  0.62708000  1.0
  O  O136  1  0.96031000  0.07458000  0.38571000  1.0
  O  O137  1  0.84703000  0.93304000  0.52588000  1.0
  O  O138  1  0.03971000  0.15399000  0.38571000  1.0
  O  O139  1  0.04106000  0.91398000  0.43303000  1.0
  O  O140  1  0.95893000  0.93303000  0.41398000  1.0
  O  O141  1  0.00000000  0.50000000  0.00000000  1.0
  O  O142  1  0.95893000  0.37293000  0.97409000  1.0
  O  O143  1  0.03973000  0.61430000  0.84600000  1.0
  O  O144  1  0.84702000  0.47410000  0.06697000  1.0
  O  O145  1  0.04108000  0.47411000  0.87291000  1.0
  O  O146  1  0.84702000  0.37293000  0.08601000  1.0
  O  O147  1  0.96029000  0.61426000  0.92542000  1.0
  O  O148  1  0.95893000  0.58602000  0.06696000  1.0
  O  O149  1  0.03969000  0.42542000  0.11429000  1.0
  O  O150  1  0.04106000  0.56697000  0.08601000  1.0
  O  O151  1  0.96030000  0.34602000  0.11428000  1.0
  O  O152  1  0.15299000  0.58601000  0.87292000  1.0
  O  O153  1  0.15297000  0.56697000  0.97412000  1.0
