# generated using pymatgen
data_Zn2H8C37O13F8
_symmetry_space_group_name_H-M   'P 1'
_cell_length_a   15.78580000
_cell_length_b   15.96790000
_cell_length_c   30.28280000
_cell_angle_alpha   89.21100000
_cell_angle_beta   89.36250000
_cell_angle_gamma   89.98540000
_symmetry_Int_Tables_number   1
_chemical_formula_structural   Zn2H8C37O13F8
_chemical_formula_sum   'Zn4 H16 C74 O26 F16'
_cell_volume   7632.07033836
_cell_formula_units_Z   2
loop_
 _symmetry_equiv_pos_site_id
 _symmetry_equiv_pos_as_xyz
  1  'x, y, z'
loop_
 _atom_site_type_symbol
 _atom_site_label
 _atom_site_symmetry_multiplicity
 _atom_site_fract_x
 _atom_site_fract_y
 _atom_site_fract_z
 _atom_site_occupancy
  Zn  Zn0  1  0.49858000  0.91118000  0.50049000  1.0
  Zn  Zn1  1  0.50136000  0.08180000  0.49879000  1.0
  Zn  Zn2  1  0.91449000  0.49887000  0.99997000  1.0
  Zn  Zn3  1  0.08629000  0.50250000  0.99892000  1.0
  H  H4  1  0.88318000  0.87603000  0.22506000  1.0
  H  H5  1  0.83613000  0.07848000  0.77820000  1.0
  H  H6  1  0.10918000  0.19907000  0.34828000  1.0
  H  H7  1  0.77883000  0.83391000  0.68498000  1.0
  H  H8  1  0.20790000  0.86486000  0.15027000  1.0
  H  H9  1  0.83389000  0.23692000  0.81455000  1.0
  H  H10  1  0.76971000  0.15671000  0.30875000  1.0
  H  H11  1  0.11942000  0.79902000  0.65937000  1.0
  H  H12  1  0.13219000  0.05312000  0.80016000  1.0
  H  H13  1  0.11167000  0.22144000  0.15979000  1.0
  H  H14  1  0.84157000  0.85071000  0.85930000  1.0
  H  H15  1  0.85363000  0.14149000  0.13971000  1.0
  H  H16  1  0.10702000  0.79140000  0.84299000  1.0
  H  H17  1  0.18561000  0.14657000  0.20657000  1.0
  H  H18  1  0.79488000  0.95577000  0.82013000  1.0
  H  H19  1  0.15915000  0.00077000  0.20895000  1.0
  C  C20  1  0.39020000  0.96353000  0.56106000  1.0
  C  C21  1  0.93557000  0.14004000  0.79368000  1.0
  C  C22  1  0.09400000  0.83654000  0.16208000  1.0
  C  C23  1  0.94691000  0.20575000  0.82374000  1.0
  C  C24  1  0.87114000  0.05076000  0.28941000  1.0
  C  C25  1  0.08790000  0.92668000  0.69825000  1.0
  C  C26  1  0.80515000  0.04468000  0.32049000  1.0
  C  C27  1  0.15104000  0.91320000  0.66674000  1.0
  C  C28  1  0.13237000  0.93415000  0.29521000  1.0
  C  C29  1  0.91199000  0.08466000  0.69158000  1.0
  C  C30  1  0.19205000  0.94518000  0.32824000  1.0
  C  C31  1  0.60793000  0.95843000  0.43855000  1.0
  C  C32  1  0.85198000  0.08954000  0.65854000  1.0
  C  C33  1  0.00565000  0.99214000  0.24799000  1.0
  C  C34  1  0.99580000  0.00964000  0.75232000  1.0
  C  C35  1  0.38418000  0.03423000  0.44338000  1.0
  C  C36  1  0.61763000  0.03005000  0.55497000  1.0
  C  C37  1  0.92754000  0.98570000  0.27955000  1.0
  C  C38  1  0.07340000  0.00193000  0.72047000  1.0
  C  C39  1  0.79275000  0.96932000  0.34463000  1.0
  C  C40  1  0.20538000  0.98012000  0.65460000  1.0
  C  C41  1  0.07799000  0.99968000  0.28209000  1.0
  C  C42  1  0.05813000  0.18088000  0.16830000  1.0
  C  C43  1  0.92295000  0.01246000  0.71825000  1.0
  C  C44  1  0.20156000  0.02098000  0.35066000  1.0
  C  C45  1  0.79924000  0.02153000  0.64865000  1.0
  C  C46  1  0.01408000  0.91645000  0.21668000  1.0
  C  C47  1  0.00232000  0.08592000  0.78331000  1.0
  C  C48  1  0.02353000  0.78509000  0.15375000  1.0
  C  C49  1  0.02464000  0.21748000  0.84534000  1.0
  C  C50  1  0.99974000  0.06543000  0.21387000  1.0
  C  C51  1  0.98775000  0.93763000  0.78699000  1.0
  C  C52  1  0.98120000  0.19155000  0.14613000  1.0
  C  C53  1  0.90269000  0.86104000  0.84293000  1.0
  C  C54  1  0.97210000  0.81086000  0.85468000  1.0
  C  C55  1  0.26381000  0.03017000  0.38313000  1.0
  C  C56  1  0.73765000  0.02720000  0.61552000  1.0
  C  C57  1  0.31869000  0.03593000  0.41083000  1.0
  C  C58  1  0.68339000  0.03115000  0.58734000  1.0
  C  C59  1  0.91505000  0.91217000  0.30518000  1.0
  C  C60  1  0.12731000  0.06819000  0.70715000  1.0
  C  C61  1  0.72781000  0.96121000  0.37658000  1.0
  C  C62  1  0.27006000  0.97092000  0.62271000  1.0
  C  C63  1  0.67194000  0.95610000  0.40451000  1.0
  C  C64  1  0.92559000  0.07631000  0.18890000  1.0
  C  C65  1  0.32584000  0.96392000  0.59494000  1.0
  C  C66  1  0.02815000  0.72087000  0.12252000  1.0
  C  C67  1  0.03477000  0.28137000  0.87633000  1.0
  C  C68  1  0.03288000  0.66614000  0.09498000  1.0
  C  C69  1  0.04039000  0.33629000  0.90368000  1.0
  C  C70  1  0.97225000  0.25587000  0.11395000  1.0
  C  C71  1  0.96350000  0.74571000  0.88652000  1.0
  C  C72  1  0.96585000  0.31209000  0.08665000  1.0
  C  C73  1  0.95781000  0.68847000  0.91335000  1.0
  C  C74  1  0.96620000  0.37954000  0.05462000  1.0
  C  C75  1  0.05622000  0.88910000  0.80197000  1.0
  C  C76  1  0.96054000  0.62015000  0.94480000  1.0
  C  C77  1  0.03257000  0.60460000  0.06113000  1.0
  C  C78  1  0.03831000  0.39800000  0.93750000  1.0
  C  C79  1  0.84965000  0.90375000  0.33594000  1.0
  C  C80  1  0.19112000  0.05684000  0.67555000  1.0
  C  C81  1  0.08685000  0.07358000  0.30610000  1.0
  C  C82  1  0.87126000  0.94478000  0.70709000  1.0
  C  C83  1  0.14606000  0.08685000  0.33894000  1.0
  C  C84  1  0.81070000  0.94728000  0.67371000  1.0
  C  C85  1  0.94326000  0.86600000  0.20812000  1.0
  C  C86  1  0.91404000  0.13685000  0.15651000  1.0
  C  C87  1  0.07912000  0.09509000  0.80617000  1.0
  C  C88  1  0.94868000  0.80295000  0.17761000  1.0
  C  C89  1  0.08917000  0.15929000  0.83548000  1.0
  C  C90  1  0.06688000  0.11890000  0.20069000  1.0
  C  C91  1  0.91130000  0.92329000  0.81072000  1.0
  C  C92  1  0.05069000  0.82679000  0.83412000  1.0
  C  C93  1  0.08891000  0.90254000  0.19237000  1.0
  O  O94  1  0.41521000  0.89165000  0.54686000  1.0
  O  O95  1  0.03369000  0.59568000  0.95622000  1.0
  O  O96  1  0.10532000  0.58071000  0.04563000  1.0
  O  O97  1  0.96557000  0.42149000  0.95099000  1.0
  O  O98  1  0.96082000  0.57826000  0.04850000  1.0
  O  O99  1  0.10996000  0.42490000  0.95211000  1.0
  O  O100  1  0.03829000  0.40683000  0.04237000  1.0
  O  O101  1  0.88925000  0.58954000  0.95863000  1.0
  O  O102  1  0.14529000  0.10758000  0.22021000  1.0
  O  O103  1  0.84194000  0.97287000  0.80098000  1.0
  O  O104  1  0.16415000  0.94520000  0.19542000  1.0
  O  O105  1  0.58398000  0.03053000  0.45074000  1.0
  O  O106  1  0.85482000  0.13718000  0.77651000  1.0
  O  O107  1  0.15235000  0.16111000  0.35985000  1.0
  O  O108  1  0.76199000  0.87964000  0.66518000  1.0
  O  O109  1  0.16767000  0.82273000  0.14007000  1.0
  O  O110  1  0.88114000  0.25742000  0.83232000  1.0
  O  O111  1  0.75230000  0.10994000  0.32791000  1.0
  O  O112  1  0.16173000  0.83794000  0.64731000  1.0
  O  O113  1  0.41318000  0.10522000  0.45647000  1.0
  O  O114  1  0.59075000  0.95872000  0.54356000  1.0
  O  O115  1  0.40841000  0.96240000  0.45652000  1.0
  O  O116  1  0.59109000  0.10165000  0.54034000  1.0
  O  O117  1  0.41711000  0.03451000  0.54764000  1.0
  O  O118  1  0.58040000  0.88774000  0.45414000  1.0
  O  O119  1  0.89373000  0.40656000  0.04125000  1.0
  F  F120  1  0.84200000  0.83099000  0.35865000  1.0
  F  F121  1  0.96116000  0.15271000  0.69755000  1.0
  F  F122  1  0.87902000  0.75554000  0.17010000  1.0
  F  F123  1  0.16444000  0.16734000  0.85626000  1.0
  F  F124  1  0.24260000  0.88011000  0.33869000  1.0
  F  F125  1  0.84451000  0.16155000  0.63524000  1.0
  F  F126  1  0.96881000  0.84661000  0.30133000  1.0
  F  F127  1  0.12089000  0.14628000  0.72347000  1.0
  F  F128  1  0.24053000  0.12292000  0.66478000  1.0
  F  F129  1  0.03565000  0.14093000  0.29694000  1.0
  F  F130  1  0.87521000  0.86886000  0.72871000  1.0
  F  F131  1  0.85848000  0.02472000  0.19730000  1.0
  F  F132  1  0.13536000  0.90308000  0.78473000  1.0
  F  F133  1  0.87590000  0.12770000  0.26885000  1.0
  F  F134  1  0.03815000  0.85807000  0.70764000  1.0
  F  F135  1  0.13031000  0.85750000  0.27706000  1.0
