# generated using pymatgen
data_Zn4H40C40O13
_symmetry_space_group_name_H-M   'P 1'
_cell_length_a   17.78470000
_cell_length_b   18.67730000
_cell_length_c   23.36170000
_cell_angle_alpha   66.58300000
_cell_angle_beta   69.80430000
_cell_angle_gamma   89.94360000
_symmetry_Int_Tables_number   1
_chemical_formula_structural   Zn4H40C40O13
_chemical_formula_sum   'Zn8 H80 C80 O26'
_cell_volume   6598.99068369
_cell_formula_units_Z   2
loop_
 _symmetry_equiv_pos_site_id
 _symmetry_equiv_pos_as_xyz
  1  'x, y, z'
loop_
 _atom_site_type_symbol
 _atom_site_label
 _atom_site_symmetry_multiplicity
 _atom_site_fract_x
 _atom_site_fract_y
 _atom_site_fract_z
 _atom_site_occupancy
  Zn  Zn0  1  0.11788000  0.53066000  0.94223000  1.0
  Zn  Zn1  1  0.97175000  0.55914000  0.05181000  1.0
  Zn  Zn2  1  0.97581000  0.38906000  0.05136000  1.0
  Zn  Zn3  1  0.93798000  0.53005000  0.93549000  1.0
  Zn  Zn4  1  0.38477000  0.97692000  0.05035000  1.0
  Zn  Zn5  1  0.52888000  0.11539000  0.93751000  1.0
  Zn  Zn6  1  0.52314000  0.94595000  0.93782000  1.0
  Zn  Zn7  1  0.56719000  0.97231000  0.05169000  1.0
  H  H8  1  0.49633000  0.86690000  0.26438000  1.0
  H  H9  1  0.26108000  0.87473000  0.25279000  1.0
  H  H10  1  0.24950000  0.63133000  0.73812000  1.0
  H  H11  1  0.01505000  0.63696000  0.72494000  1.0
  H  H12  1  0.62888000  0.01952000  0.73060000  1.0
  H  H13  1  0.62552000  0.24834000  0.73156000  1.0
  H  H14  1  0.86860000  0.25619000  0.25834000  1.0
  H  H15  1  0.86758000  0.48528000  0.25885000  1.0
  H  H16  1  0.19755000  0.30148000  0.91120000  1.0
  H  H17  1  0.12574000  0.22995000  0.98751000  1.0
  H  H18  1  0.21490000  0.13813000  0.98501000  1.0
  H  H19  1  0.28643000  0.21033000  0.90895000  1.0
  H  H20  1  0.21491000  0.12398000  0.09620000  1.0
  H  H21  1  0.28691000  0.18471000  0.10039000  1.0
  H  H22  1  0.12663000  0.21691000  0.09887000  1.0
  H  H23  1  0.19991000  0.27773000  0.10163000  1.0
  H  H24  1  0.30207000  0.39068000  0.91443000  1.0
  H  H25  1  0.30305000  0.38200000  0.99185000  1.0
  H  H26  1  0.39141000  0.28939000  0.99091000  1.0
  H  H27  1  0.39122000  0.29898000  0.91311000  1.0
  H  H28  1  0.89028000  0.80014000  0.90528000  1.0
  H  H29  1  0.88777000  0.78714000  0.98521000  1.0
  H  H30  1  0.79878000  0.87939000  0.98680000  1.0
  H  H31  1  0.80153000  0.89139000  0.90701000  1.0
  H  H32  1  0.69562000  0.77617000  0.09233000  1.0
  H  H33  1  0.62330000  0.71497000  0.08884000  1.0
  H  H34  1  0.78324000  0.68261000  0.09100000  1.0
  H  H35  1  0.71109000  0.62294000  0.08588000  1.0
  H  H36  1  0.78859000  0.71302000  0.89734000  1.0
  H  H37  1  0.71579000  0.64014000  0.97074000  1.0
  H  H38  1  0.62629000  0.73147000  0.97356000  1.0
  H  H39  1  0.69870000  0.80404000  0.89986000  1.0
  H  H40  1  0.16174000  0.79279000  0.93722000  1.0
  H  H41  1  0.24611000  0.75675000  0.89648000  1.0
  H  H42  1  0.33313000  0.85242000  0.89427000  1.0
  H  H43  1  0.24824000  0.88711000  0.93600000  1.0
  H  H44  1  0.39369000  0.74379000  0.96130000  1.0
  H  H45  1  0.35282000  0.70259000  0.05007000  1.0
  H  H46  1  0.30542000  0.64805000  0.96431000  1.0
  H  H47  1  0.26452000  0.60815000  0.05309000  1.0
  H  H48  1  0.10152000  0.73495000  0.06524000  1.0
  H  H49  1  0.14286000  0.65919000  0.11264000  1.0
  H  H50  1  0.23161000  0.75331000  0.11049000  1.0
  H  H51  1  0.18951000  0.82902000  0.06380000  1.0
  H  H52  1  0.89902000  0.26730000  0.92996000  1.0
  H  H53  1  0.85432000  0.34294000  0.88477000  1.0
  H  H54  1  0.76842000  0.24706000  0.88617000  1.0
  H  H55  1  0.81221000  0.17188000  0.93282000  1.0
  H  H56  1  0.64858000  0.29713000  0.94608000  1.0
  H  H57  1  0.60596000  0.25623000  0.03479000  1.0
  H  H58  1  0.73530000  0.39167000  0.94598000  1.0
  H  H59  1  0.69295000  0.34927000  0.03472000  1.0
  H  H60  1  0.83942000  0.20537000  0.05787000  1.0
  H  H61  1  0.75630000  0.23916000  0.10124000  1.0
  H  H62  1  0.66714000  0.14638000  0.10240000  1.0
  H  H63  1  0.75039000  0.11110000  0.06075000  1.0
  H  H64  1  0.14454000  0.76738000  0.36967000  1.0
  H  H65  1  0.14725000  0.78147000  0.43982000  1.0
  H  H66  1  0.14410000  0.86284000  0.36817000  1.0
  H  H67  1  0.48878000  0.85345000  0.38821000  1.0
  H  H68  1  0.41567000  0.77117000  0.45365000  1.0
  H  H69  1  0.49128000  0.75990000  0.38585000  1.0
  H  H70  1  0.02265000  0.74638000  0.60178000  1.0
  H  H71  1  0.09663000  0.73050000  0.53585000  1.0
  H  H72  1  0.02154000  0.65103000  0.60301000  1.0
  H  H73  1  0.36736000  0.64224000  0.62072000  1.0
  H  H74  1  0.36424000  0.72636000  0.55092000  1.0
  H  H75  1  0.36682000  0.73585000  0.62297000  1.0
  H  H76  1  0.74466000  0.35882000  0.61466000  1.0
  H  H77  1  0.72876000  0.35881000  0.54372000  1.0
  H  H78  1  0.64701000  0.36518000  0.61087000  1.0
  H  H79  1  0.64934000  0.02644000  0.60694000  1.0
  H  H80  1  0.73436000  0.09779000  0.54278000  1.0
  H  H81  1  0.74456000  0.02452000  0.61543000  1.0
  H  H82  1  0.76224000  0.48074000  0.37725000  1.0
  H  H83  1  0.77686000  0.40700000  0.44754000  1.0
  H  H84  1  0.86019000  0.47794000  0.38064000  1.0
  H  H85  1  0.86089000  0.14205000  0.38173000  1.0
  H  H86  1  0.77439000  0.14607000  0.44671000  1.0
  H  H87  1  0.76500000  0.14278000  0.37446000  1.0
  C  C88  1  0.14142000  0.63480000  0.00367000  1.0
  C  C89  1  0.90781000  0.41171000  0.17655000  1.0
  C  C90  1  0.14438000  0.36391000  0.00139000  1.0
  C  C91  1  0.86042000  0.36562000  0.99085000  1.0
  C  C92  1  0.08997000  0.59268000  0.81389000  1.0
  C  C93  1  0.86072000  0.64317000  0.98934000  1.0
  C  C94  1  0.36026000  0.14176000  0.99735000  1.0
  C  C95  1  0.58209000  0.09291000  0.81269000  1.0
  C  C96  1  0.35538000  0.86299000  0.99856000  1.0
  C  C97  1  0.64379000  0.86495000  0.99304000  1.0
  C  C98  1  0.41957000  0.91252000  0.17611000  1.0
  C  C99  1  0.64690000  0.13924000  0.99265000  1.0
  C  C100  1  0.38239000  0.87454000  0.25124000  1.0
  C  C101  1  0.43048000  0.85447000  0.29000000  1.0
  C  C102  1  0.39581000  0.81945000  0.36016000  1.0
  C  C103  1  0.30960000  0.80346000  0.39281000  1.0
  C  C104  1  0.26041000  0.82354000  0.35345000  1.0
  C  C105  1  0.29786000  0.85882000  0.28357000  1.0
  C  C106  1  0.27254000  0.76769000  0.46430000  1.0
  C  C107  1  0.23978000  0.73696000  0.52588000  1.0
  C  C108  1  0.20229000  0.70128000  0.59735000  1.0
  C  C109  1  0.25100000  0.68169000  0.63712000  1.0
  C  C110  1  0.21309000  0.64668000  0.70700000  1.0
  C  C111  1  0.12850000  0.63042000  0.73885000  1.0
  C  C112  1  0.08092000  0.64982000  0.69965000  1.0
  C  C113  1  0.11604000  0.68492000  0.62956000  1.0
  C  C114  1  0.62268000  0.13044000  0.73800000  1.0
  C  C115  1  0.64355000  0.08357000  0.70252000  1.0
  C  C116  1  0.68239000  0.11726000  0.63277000  1.0
  C  C117  1  0.70091000  0.20114000  0.59729000  1.0
  C  C118  1  0.68084000  0.24909000  0.63336000  1.0
  C  C119  1  0.64167000  0.21271000  0.70308000  1.0
  C  C120  1  0.73850000  0.23697000  0.52596000  1.0
  C  C121  1  0.76917000  0.26796000  0.46431000  1.0
  C  C122  1  0.80380000  0.30370000  0.39286000  1.0
  C  C123  1  0.82108000  0.25565000  0.35682000  1.0
  C  C124  1  0.85473000  0.29197000  0.28678000  1.0
  C  C125  1  0.87142000  0.37428000  0.25152000  1.0
  C  C126  1  0.85418000  0.42121000  0.28710000  1.0
  C  C127  1  0.82085000  0.38759000  0.35715000  1.0
  C  C128  1  0.18919000  0.25938000  0.96264000  1.0
  C  C129  1  0.24832000  0.19846000  0.96115000  1.0
  C  C130  1  0.30346000  0.20267000  0.99888000  1.0
  C  C131  1  0.24860000  0.18416000  0.07225000  1.0
  C  C132  1  0.19023000  0.24565000  0.07352000  1.0
  C  C133  1  0.20426000  0.30554000  0.00106000  1.0
  C  C134  1  0.29257000  0.34768000  0.96571000  1.0
  C  C135  1  0.35127000  0.28670000  0.96483000  1.0
  C  C136  1  0.84944000  0.78621000  0.95728000  1.0
  C  C137  1  0.79029000  0.84725000  0.95844000  1.0
  C  C138  1  0.70152000  0.80465000  0.99141000  1.0
  C  C139  1  0.68687000  0.74430000  0.06389000  1.0
  C  C140  1  0.74531000  0.68298000  0.06250000  1.0
  C  C141  1  0.80116000  0.70196000  0.98915000  1.0
  C  C142  1  0.74889000  0.70022000  0.94928000  1.0
  C  C143  1  0.68964000  0.76071000  0.95095000  1.0
  C  C144  1  0.21848000  0.77093000  0.93985000  1.0
  C  C145  1  0.27632000  0.83395000  0.93861000  1.0
  C  C146  1  0.29652000  0.80016000  0.00285000  1.0
  C  C147  1  0.33670000  0.72618000  0.00529000  1.0
  C  C148  1  0.27820000  0.66316000  0.00714000  1.0
  C  C149  1  0.19826000  0.69426000  0.00534000  1.0
  C  C150  1  0.15890000  0.71378000  0.06610000  1.0
  C  C151  1  0.21734000  0.77624000  0.06484000  1.0
  C  C152  1  0.84085000  0.28760000  0.93033000  1.0
  C  C153  1  0.78318000  0.22425000  0.93155000  1.0
  C  C154  1  0.70344000  0.19911000  0.99428000  1.0
  C  C155  1  0.66365000  0.27350000  0.99124000  1.0
  C  C156  1  0.72139000  0.33579000  0.99099000  1.0
  C  C157  1  0.80117000  0.30466000  0.99300000  1.0
  C  C158  1  0.78235000  0.22696000  0.05661000  1.0
  C  C159  1  0.72371000  0.16488000  0.05779000  1.0
  C  C160  1  0.16925000  0.80780000  0.38486000  1.0
  C  C161  1  0.45041000  0.79975000  0.39936000  1.0
  C  C162  1  0.06173000  0.70440000  0.59012000  1.0
  C  C163  1  0.34218000  0.69758000  0.60590000  1.0
  C  C164  1  0.70144000  0.33767000  0.59844000  1.0
  C  C165  1  0.70392000  0.06406000  0.59722000  1.0
  C  C166  1  0.80394000  0.44078000  0.39289000  1.0
  C  C167  1  0.80422000  0.16694000  0.39216000  1.0
  O  O168  1  0.00051000  0.50282000  0.99411000  1.0
  O  O169  1  0.17161000  0.60648000  0.96054000  1.0
  O  O170  1  0.91883000  0.48716000  0.14746000  1.0
  O  O171  1  0.07046000  0.33478000  0.04000000  1.0
  O  O172  1  0.06780000  0.61913000  0.04426000  1.0
  O  O173  1  0.17180000  0.43667000  0.96246000  1.0
  O  O174  1  0.92525000  0.36539000  0.14733000  1.0
  O  O175  1  0.90025000  0.33919000  0.02892000  1.0
  O  O176  1  0.01243000  0.57917000  0.84025000  1.0
  O  O177  1  0.86695000  0.43782000  0.95057000  1.0
  O  O178  1  0.13805000  0.57692000  0.84569000  1.0
  O  O179  1  0.90079000  0.63581000  0.02688000  1.0
  O  O180  1  0.86652000  0.60638000  0.95263000  1.0
  O  O181  1  0.50129000  0.00189000  0.99571000  1.0
  O  O182  1  0.32826000  0.06899000  0.03133000  1.0
  O  O183  1  0.56227000  0.13911000  0.84185000  1.0
  O  O184  1  0.42685000  0.87872000  0.95391000  1.0
  O  O185  1  0.43532000  0.16792000  0.96190000  1.0
  O  O186  1  0.32921000  0.89571000  0.03872000  1.0
  O  O187  1  0.57060000  0.01743000  0.84177000  1.0
  O  O188  1  0.60241000  0.87623000  0.95618000  1.0
  O  O189  1  0.49689000  0.92192000  0.14832000  1.0
  O  O190  1  0.64129000  0.89950000  0.03106000  1.0
  O  O191  1  0.37030000  0.93264000  0.14568000  1.0
  O  O192  1  0.61818000  0.16573000  0.94635000  1.0
  O  O193  1  0.63284000  0.06799000  0.03663000  1.0
