# generated using pymatgen
data_CdH4C7N4O3
_symmetry_space_group_name_H-M   'P 1'
_cell_length_a   8.89413000
_cell_length_b   9.65095000
_cell_length_c   10.74400000
_cell_angle_alpha   90.00000000
_cell_angle_beta   89.99990000
_cell_angle_gamma   111.03700000
_symmetry_Int_Tables_number   1
_chemical_formula_structural   CdH4C7N4O3
_chemical_formula_sum   'Cd4 H16 C28 N16 O12'
_cell_volume   860.76285107
_cell_formula_units_Z   4
loop_
 _symmetry_equiv_pos_site_id
 _symmetry_equiv_pos_as_xyz
  1  'x, y, z'
loop_
 _atom_site_type_symbol
 _atom_site_label
 _atom_site_symmetry_multiplicity
 _atom_site_fract_x
 _atom_site_fract_y
 _atom_site_fract_z
 _atom_site_occupancy
  Cd  Cd0  1  0.84964000  0.69555000  0.27642000  1.0
  Cd  Cd1  1  0.65037000  0.30445000  0.77642000  1.0
  Cd  Cd2  1  0.15037000  0.30445000  0.72358000  1.0
  Cd  Cd3  1  0.34963000  0.69555000  0.22358000  1.0
  H  H4  1  0.86132000  0.58316000  0.97580000  1.0
  H  H5  1  0.63868000  0.41684000  0.47580000  1.0
  H  H6  1  0.13868000  0.41684000  0.02420000  1.0
  H  H7  1  0.36132000  0.58316000  0.52420000  1.0
  H  H8  1  0.28423000  0.22084000  0.34891000  1.0
  H  H9  1  0.21577000  0.77916000  0.84891000  1.0
  H  H10  1  0.71577000  0.77917000  0.65109000  1.0
  H  H11  1  0.78423000  0.22083000  0.15109000  1.0
  H  H12  1  0.07568000  0.03904000  0.08812000  1.0
  H  H13  1  0.42432000  0.96096000  0.58812000  1.0
  H  H14  1  0.92432000  0.96096000  0.91188000  1.0
  H  H15  1  0.57568000  0.03904000  0.41188000  1.0
  H  H16  1  0.08687000  0.04833000  0.25269000  1.0
  H  H17  1  0.41313000  0.95167000  0.75269000  1.0
  H  H18  1  0.91313000  0.95167000  0.74731000  1.0
  H  H19  1  0.58687000  0.04833000  0.24731000  1.0
  C  C20  1  0.75186000  0.51132000  0.02133000  1.0
  C  C21  1  0.74814000  0.48868000  0.52133000  1.0
  C  C22  1  0.24814000  0.48868000  0.97867000  1.0
  C  C23  1  0.25186000  0.51132000  0.47867000  1.0
  C  C24  1  0.57170000  0.41120000  0.16274000  1.0
  C  C25  1  0.92830000  0.58880000  0.66273000  1.0
  C  C26  1  0.42830000  0.58880000  0.83726000  1.0
  C  C27  1  0.07170000  0.41120000  0.33726000  1.0
  C  C28  1  0.52515000  0.33160000  0.05155000  1.0
  C  C29  1  0.97485000  0.66840000  0.55155000  1.0
  C  C30  1  0.47485000  0.66840000  0.94845000  1.0
  C  C31  1  0.02515000  0.33160000  0.44845000  1.0
  C  C32  1  0.37830000  0.20698000  0.04267000  1.0
  C  C33  1  0.12170000  0.79302000  0.54267000  1.0
  C  C34  1  0.62170000  0.79302000  0.95733000  1.0
  C  C35  1  0.87830000  0.20698000  0.45733000  1.0
  C  C36  1  0.35713000  0.26012000  0.26542000  1.0
  C  C37  1  0.14287000  0.73988000  0.76542000  1.0
  C  C38  1  0.64287000  0.73988000  0.73458000  1.0
  C  C39  1  0.85713000  0.26012000  0.23458000  1.0
  C  C40  1  0.15440000  0.04491000  0.16802000  1.0
  C  C41  1  0.34560000  0.95509000  0.66801000  1.0
  C  C42  1  0.84560000  0.95509000  0.83198000  1.0
  C  C43  1  0.65440000  0.04491000  0.33199000  1.0
  C  C44  1  0.19595000  0.90475000  0.17229000  1.0
  C  C45  1  0.30404000  0.09525000  0.67229000  1.0
  C  C46  1  0.80405000  0.09525000  0.82771000  1.0
  C  C47  1  0.69595000  0.90475000  0.32771000  1.0
  N  N48  1  0.64111000  0.39624000  0.96311000  1.0
  N  N49  1  0.85889000  0.60376000  0.46311000  1.0
  N  N50  1  0.35889000  0.60376000  0.03689000  1.0
  N  N51  1  0.14111000  0.39624000  0.53689000  1.0
  N  N52  1  0.71447000  0.52606000  0.14162000  1.0
  N  N53  1  0.78553000  0.47394000  0.64162000  1.0
  N  N54  1  0.28553000  0.47394000  0.85838000  1.0
  N  N55  1  0.21447000  0.52606000  0.35838000  1.0
  N  N56  1  0.49024000  0.37670000  0.27258000  1.0
  N  N57  1  0.00976000  0.62330000  0.77257000  1.0
  N  N58  1  0.50976000  0.62330000  0.72743000  1.0
  N  N59  1  0.99024000  0.37670000  0.22743000  1.0
  N  N60  1  0.29769000  0.17867000  0.15995000  1.0
  N  N61  1  0.20231000  0.82133000  0.65994000  1.0
  N  N62  1  0.70231000  0.82133000  0.84005000  1.0
  N  N63  1  0.79769000  0.17867000  0.34005000  1.0
  O  O64  1  0.31952000  0.12887000  0.95037000  1.0
  O  O65  1  0.18048000  0.87113000  0.45037000  1.0
  O  O66  1  0.68048000  0.87113000  0.04963000  1.0
  O  O67  1  0.81952000  0.12887000  0.54963000  1.0
  O  O68  1  0.34319000  0.92069000  0.18231000  1.0
  O  O69  1  0.15681000  0.07931000  0.68231000  1.0
  O  O70  1  0.65681000  0.07931000  0.81769000  1.0
  O  O71  1  0.84319000  0.92069000  0.31769000  1.0
  O  O72  1  0.08284000  0.77834000  0.16673000  1.0
  O  O73  1  0.41716000  0.22166000  0.66666667  1.0
  O  O74  1  0.91716000  0.22166000  0.83327000  1.0
  O  O75  1  0.58284000  0.77834000  0.33327000  1.0
