# generated using pymatgen
data_SnH37C26NO3
_symmetry_space_group_name_H-M   'P 1'
_cell_length_a   9.51645000
_cell_length_b   11.53960000
_cell_length_c   12.37730000
_cell_angle_alpha   96.43900000
_cell_angle_beta   107.76200000
_cell_angle_gamma   101.70500000
_symmetry_Int_Tables_number   1
_chemical_formula_structural   SnH37C26NO3
_chemical_formula_sum   'Sn2 H74 C52 N2 O6'
_cell_volume   1245.24753838
_cell_formula_units_Z   2
loop_
 _symmetry_equiv_pos_site_id
 _symmetry_equiv_pos_as_xyz
  1  'x, y, z'
loop_
 _atom_site_type_symbol
 _atom_site_label
 _atom_site_symmetry_multiplicity
 _atom_site_fract_x
 _atom_site_fract_y
 _atom_site_fract_z
 _atom_site_occupancy
  Sn  Sn0  1  0.22133000  0.23342000  0.55707000  1.0
  Sn  Sn1  1  0.77867000  0.76658000  0.44293000  1.0
  H  H2  1  0.84293000  0.36699000  0.67336000  1.0
  H  H3  1  0.15707000  0.63301000  0.32663000  1.0
  H  H4  1  0.31552000  0.05056000  0.46742000  1.0
  H  H5  1  0.68448000  0.94943000  0.53258000  1.0
  H  H6  1  0.11582000  0.00847000  0.43345000  1.0
  H  H7  1  0.88418000  0.99153000  0.56655000  1.0
  H  H8  1  0.07946000  0.13888000  0.28401000  1.0
  H  H9  1  0.92054000  0.86112000  0.71599000  1.0
  H  H10  1  0.27647000  0.18750000  0.31382000  1.0
  H  H11  1  0.72353000  0.81250000  0.68618000  1.0
  H  H12  1  0.09319000  0.92490000  0.22588000  1.0
  H  H13  1  0.90681000  0.07510000  0.77412000  1.0
  H  H14  1  0.13697000  0.02486000  0.13585000  1.0
  H  H15  1  0.86302000  0.97514000  0.86415000  1.0
  H  H16  1  0.32222000  0.89321000  0.17902000  1.0
  H  H17  1  0.67778000  0.10679000  0.82098000  1.0
  H  H18  1  0.37727000  0.95131000  0.32829000  1.0
  H  H19  1  0.62273000  0.04869000  0.67171000  1.0
  H  H20  1  0.41655000  0.04773000  0.23342000  1.0
  H  H21  1  0.58344000  0.95226000  0.76658000  1.0
  H  H22  1  0.30499000  0.39023000  0.43160000  1.0
  H  H23  1  0.69501000  0.60977000  0.56840000  1.0
  H  H24  1  0.16157000  0.43089000  0.47979000  1.0
  H  H25  1  0.83843000  0.56911000  0.52021000  1.0
  H  H26  1  0.49704000  0.48071000  0.63741000  1.0
  H  H27  1  0.50296000  0.51929000  0.36259000  1.0
  H  H28  1  0.42210000  0.58507000  0.55927000  1.0
  H  H29  1  0.57790000  0.41494000  0.44073000  1.0
  H  H30  1  0.30767000  0.47888000  0.74195000  1.0
  H  H31  1  0.69233000  0.52112000  0.25805000  1.0
  H  H32  1  0.23049000  0.57994000  0.66071000  1.0
  H  H33  1  0.76951000  0.42007000  0.33929000  1.0
  H  H34  1  0.41348000  0.69431000  0.85151000  1.0
  H  H35  1  0.58652000  0.30569000  0.14849000  1.0
  H  H36  1  0.48955000  0.73321000  0.74285000  1.0
  H  H37  1  0.51045000  0.26679000  0.25716000  1.0
  H  H38  1  0.56088000  0.63192000  0.82961000  1.0
  H  H39  1  0.43912000  0.36808000  0.17040000  1.0
  H  H40  1  0.30766000  0.26916000  0.78871000  1.0
  H  H41  1  0.69234000  0.73084000  0.21129000  1.0
  H  H42  1  0.11260000  0.18898000  0.73030000  1.0
  H  H43  1  0.88740000  0.81102000  0.26970000  1.0
  H  H44  1  0.19158000  0.00213000  0.66607000  1.0
  H  H45  1  0.80842000  0.99787000  0.33393000  1.0
  H  H46  1  0.38472000  0.08292000  0.72693000  1.0
  H  H47  1  0.61528000  0.91708000  0.27307000  1.0
  H  H48  1  0.16252000  0.01991000  0.85859000  1.0
  H  H49  1  0.83747000  0.98009000  0.14141000  1.0
  H  H50  1  0.30521000  0.94637000  0.84979000  1.0
  H  H51  1  0.69479000  0.05363000  0.15020000  1.0
  H  H52  1  0.39396000  0.08960000  0.03771000  1.0
  H  H53  1  0.60603000  0.91040000  0.96229000  1.0
  H  H54  1  0.36385000  0.21082000  0.96554000  1.0
  H  H55  1  0.63615000  0.78918000  0.03446000  1.0
  H  H56  1  0.50814000  0.13872000  0.95390000  1.0
  H  H57  1  0.49186000  0.86128000  0.04610000  1.0
  H  H58  1  0.69454000  0.15420000  0.38660000  1.0
  H  H59  1  0.30546000  0.84579000  0.61341000  1.0
  H  H60  1  0.50258000  0.18018000  0.45837000  1.0
  H  H61  1  0.49742000  0.81982000  0.54163000  1.0
  H  H62  1  0.59184000  0.30441000  0.84273000  1.0
  H  H63  1  0.40816000  0.69559000  0.15727000  1.0
  H  H64  1  0.62501000  0.42666000  0.03046000  1.0
  H  H65  1  0.37499000  0.57334000  0.96954000  1.0
  H  H66  1  0.81887000  0.62305000  0.10480000  1.0
  H  H67  1  0.18113000  0.37695000  0.89520000  1.0
  H  H68  1  0.01479000  0.77811000  0.07923000  1.0
  H  H69  1  0.98521000  0.22189000  0.92077000  1.0
  H  H70  1  0.17141000  0.85752000  0.96356000  1.0
  H  H71  1  0.82859000  0.14248000  0.03644000  1.0
  H  H72  1  0.13879000  0.73729000  0.77260000  1.0
  H  H73  1  0.86122000  0.26271000  0.22740000  1.0
  H  H74  1  0.95680000  0.54001000  0.69999000  1.0
  H  H75  1  0.04321000  0.45999000  0.30001000  1.0
  C  C76  1  0.21102000  0.08083000  0.43360000  1.0
  C  C77  1  0.78898000  0.91917000  0.56640000  1.0
  C  C78  1  0.18595000  0.10982000  0.31265000  1.0
  C  C79  1  0.81405000  0.89018000  0.68735000  1.0
  C  C80  1  0.17875000  0.00375000  0.22293000  1.0
  C  C81  1  0.82125000  0.99625000  0.77707000  1.0
  C  C82  1  0.33156000  0.97207000  0.24183000  1.0
  C  C83  1  0.66844000  0.02793000  0.75817000  1.0
  C  C84  1  0.27173000  0.40751000  0.50830000  1.0
  C  C85  1  0.72827000  0.59249000  0.49170000  1.0
  C  C86  1  0.39101000  0.50834000  0.60051000  1.0
  C  C87  1  0.60899000  0.49166000  0.39949000  1.0
  C  C88  1  0.33760000  0.55346000  0.69808000  1.0
  C  C89  1  0.66240000  0.44654000  0.30192000  1.0
  C  C90  1  0.45660000  0.65860000  0.78543000  1.0
  C  C91  1  0.54340000  0.34140000  0.21457000  1.0
  C  C92  1  0.22601000  0.19289000  0.72385000  1.0
  C  C93  1  0.77399000  0.80711000  0.27615000  1.0
  C  C94  1  0.27192000  0.07436000  0.73673000  1.0
  C  C95  1  0.72808000  0.92564000  0.26327000  1.0
  C  C96  1  0.27735000  0.03463000  0.85169000  1.0
  C  C97  1  0.72264000  0.96537000  0.14831000  1.0
  C  C98  1  0.39181000  0.12313000  0.95771000  1.0
  C  C99  1  0.60819000  0.87687000  0.04229000  1.0
  C  C100  1  0.89864000  0.25271000  0.52614000  1.0
  C  C101  1  0.10136000  0.74729000  0.47386000  1.0
  C  C102  1  0.73022000  0.20963000  0.47239000  1.0
  C  C103  1  0.26978000  0.79037000  0.52761000  1.0
  C  C104  1  0.61880000  0.22455000  0.51455000  1.0
  C  C105  1  0.38121000  0.77545000  0.48545000  1.0
  C  C106  1  0.61841000  0.28497000  0.62647000  1.0
  C  C107  1  0.38159000  0.71503000  0.37353000  1.0
  C  C108  1  0.76336000  0.43011000  0.80703000  1.0
  C  C109  1  0.23664000  0.56989000  0.19297000  1.0
  C  C110  1  0.67535000  0.39070000  0.87328000  1.0
  C  C111  1  0.32465000  0.60930000  0.12671000  1.0
  C  C112  1  0.69492000  0.46060000  0.98012000  1.0
  C  C113  1  0.30509000  0.53940000  0.01988000  1.0
  C  C114  1  0.80185000  0.56959000  0.02122000  1.0
  C  C115  1  0.19815000  0.43041000  0.97878000  1.0
  C  C116  1  0.89307000  0.61347000  0.95568000  1.0
  C  C117  1  0.10694000  0.38653000  0.04432000  1.0
  C  C118  1  0.00186000  0.72640000  0.99588000  1.0
  C  C119  1  0.99814000  0.27360000  0.00412000  1.0
  C  C120  1  0.08898000  0.77023000  0.93165000  1.0
  C  C121  1  0.91102000  0.22977000  0.06835000  1.0
  C  C122  1  0.07097000  0.70194000  0.82403000  1.0
  C  C123  1  0.92903000  0.29806000  0.17597000  1.0
  C  C124  1  0.96726000  0.59105000  0.78271000  1.0
  C  C125  1  0.03275000  0.40895000  0.21729000  1.0
  C  C126  1  0.87521000  0.54365000  0.84647000  1.0
  C  C127  1  0.12479000  0.45635000  0.15353000  1.0
  N  N128  1  0.74772000  0.36096000  0.70080000  1.0
  N  N129  1  0.25228000  0.63904000  0.29920000  1.0
  O  O130  1  0.97064000  0.19525000  0.47448000  1.0
  O  O131  1  0.02936000  0.80475000  0.52552000  1.0
  O  O132  1  0.96369000  0.33653000  0.61281000  1.0
  O  O133  1  0.03631000  0.66347000  0.38719000  1.0
  O  O134  1  0.49484000  0.26392000  0.64749000  1.0
  O  O135  1  0.50516000  0.73608000  0.35251000  1.0
