# generated using pymatgen
data_Zn3P4H22C16(NO10)2
_symmetry_space_group_name_H-M   'P 1'
_cell_length_a   9.01508000
_cell_length_b   9.02800000
_cell_length_c   9.89936000
_cell_angle_alpha   109.35300000
_cell_angle_beta   101.08800000
_cell_angle_gamma   110.09100000
_symmetry_Int_Tables_number   1
_chemical_formula_structural   Zn3P4H22C16(NO10)2
_chemical_formula_sum   'Zn3 P4 H22 C16 N2 O20'
_cell_volume   669.94091148
_cell_formula_units_Z   1
loop_
 _symmetry_equiv_pos_site_id
 _symmetry_equiv_pos_as_xyz
  1  'x, y, z'
loop_
 _atom_site_type_symbol
 _atom_site_label
 _atom_site_symmetry_multiplicity
 _atom_site_fract_x
 _atom_site_fract_y
 _atom_site_fract_z
 _atom_site_occupancy
  Zn  Zn0  1  0.76221000  0.74064000  0.47111000  1.0
  Zn  Zn1  1  0.23779000  0.25935000  0.52889000  1.0
  Zn  Zn2  1  0.00000000  0.00000000  0.00000000  1.0
  P  P3  1  0.03474000  0.72166000  0.69652000  1.0
  P  P4  1  0.96526000  0.27834000  0.30348000  1.0
  P  P5  1  0.10619000  0.08744000  0.73698000  1.0
  P  P6  1  0.89381000  0.91256000  0.26302000  1.0
  H  H7  1  0.11694000  0.51581000  0.60967000  1.0
  H  H8  1  0.88306000  0.48419000  0.39033000  1.0
  H  H9  1  0.14608000  0.90673000  0.48324000  1.0
  H  H10  1  0.85392000  0.09327000  0.51676000  1.0
  H  H11  1  0.80208000  0.08812000  0.86297000  1.0
  H  H12  1  0.19792000  0.91188000  0.13703000  1.0
  H  H13  1  0.70361000  0.88438000  0.77509000  1.0
  H  H14  1  0.29639000  0.11562000  0.22491000  1.0
  H  H15  1  0.71840000  0.56293000  0.10827000  1.0
  H  H16  1  0.28160000  0.43707000  0.89172000  1.0
  H  H17  1  0.39980000  0.87949000  0.78436000  1.0
  H  H18  1  0.60020000  0.12052000  0.21564000  1.0
  H  H19  1  0.33679000  0.99383000  0.92845000  1.0
  H  H20  1  0.66321000  0.00617000  0.07155000  1.0
  H  H21  1  0.53013000  0.05077000  0.63094000  1.0
  H  H22  1  0.46987000  0.94923000  0.36906000  1.0
  H  H23  1  0.75768000  0.33764000  0.67895000  1.0
  H  H24  1  0.24232000  0.66236000  0.32105000  1.0
  H  H25  1  0.84525000  0.59996000  0.92905000  1.0
  H  H26  1  0.15476000  0.40004000  0.07095000  1.0
  H  H27  1  0.50755000  0.30464000  0.07643000  1.0
  H  H28  1  0.49245000  0.69536000  0.92357000  1.0
  C  C29  1  0.19086000  0.92174000  0.69615000  1.0
  C  C30  1  0.80914000  0.07826000  0.30385000  1.0
  C  C31  1  0.35938000  0.98369000  0.82137000  1.0
  C  C32  1  0.64062000  0.01631000  0.17862000  1.0
  C  C33  1  0.49640000  0.15256000  0.84673000  1.0
  C  C34  1  0.50360000  0.84744000  0.15328000  1.0
  C  C35  1  0.57208000  0.16643000  0.73704000  1.0
  C  C36  1  0.42793000  0.83357000  0.26296000  1.0
  C  C37  1  0.69870000  0.32542000  0.76349000  1.0
  C  C38  1  0.30130000  0.67459000  0.23650000  1.0
  C  C39  1  0.75041000  0.47014000  0.90042000  1.0
  C  C40  1  0.24960000  0.52986000  0.09958000  1.0
  C  C41  1  0.55487000  0.30132000  0.98263000  1.0
  C  C42  1  0.44513000  0.69868000  0.01737000  1.0
  C  C43  1  0.51530000  0.57431000  0.57673000  1.0
  C  C44  1  0.48469000  0.42569000  0.42328000  1.0
  N  N45  1  0.67794000  0.45315000  0.00491000  1.0
  N  N46  1  0.32206000  0.54685000  0.99509000  1.0
  O  O47  1  0.12569000  0.60362000  0.71159000  1.0
  O  O48  1  0.87431000  0.39638000  0.28841000  1.0
  O  O49  1  0.97452000  0.76974000  0.82944000  1.0
  O  O50  1  0.02548000  0.23026000  0.17056000  1.0
  O  O51  1  0.89429000  0.62276000  0.53782000  1.0
  O  O52  1  0.10571000  0.37724000  0.46218000  1.0
  O  O53  1  0.92544000  0.99920000  0.62102000  1.0
  O  O54  1  0.07456000  0.00080000  0.37898000  1.0
  O  O55  1  0.22329000  0.24672000  0.71854000  1.0
  O  O56  1  0.77671000  0.75328000  0.28146000  1.0
  O  O57  1  0.11676000  0.15094000  0.90296000  1.0
  O  O58  1  0.88324000  0.84906000  0.09704000  1.0
  O  O59  1  0.21608000  0.87811000  0.55245000  1.0
  O  O60  1  0.78392000  0.12189000  0.44755000  1.0
  O  O61  1  0.61046000  0.72989000  0.59910000  1.0
  O  O62  1  0.38954000  0.27011000  0.40091000  1.0
  O  O63  1  0.44700000  0.53459000  0.66630000  1.0
  O  O64  1  0.55300000  0.46541000  0.33371000  1.0
  O  O65  1  0.76197000  0.98328000  0.87998000  1.0
  O  O66  1  0.23803000  0.01672000  0.12002000  1.0
