# generated using pymatgen
data_CdH13C21(NO3)2
_symmetry_space_group_name_H-M   'P 1'
_cell_length_a   7.76579000
_cell_length_b   10.02110000
_cell_length_c   12.60560000
_cell_angle_alpha   96.54040000
_cell_angle_beta   101.83800000
_cell_angle_gamma   107.27500000
_symmetry_Int_Tables_number   1
_chemical_formula_structural   CdH13C21(NO3)2
_chemical_formula_sum   'Cd2 H26 C42 N4 O12'
_cell_volume   900.63171677
_cell_formula_units_Z   2
loop_
 _symmetry_equiv_pos_site_id
 _symmetry_equiv_pos_as_xyz
  1  'x, y, z'
loop_
 _atom_site_type_symbol
 _atom_site_label
 _atom_site_symmetry_multiplicity
 _atom_site_fract_x
 _atom_site_fract_y
 _atom_site_fract_z
 _atom_site_occupancy
  Cd  Cd0  1  0.12971000  0.65129000  0.43326000  1.0
  Cd  Cd1  1  0.87029000  0.34870000  0.56674000  1.0
  H  H2  1  0.29771000  0.96431000  0.52996000  1.0
  H  H3  1  0.70230000  0.03570000  0.47003000  1.0
  H  H4  1  0.09222000  0.13230000  0.42125000  1.0
  H  H5  1  0.90779000  0.86770000  0.57875000  1.0
  H  H6  1  0.89251000  0.83968000  0.11324000  1.0
  H  H7  1  0.10750000  0.16032000  0.88676000  1.0
  H  H8  1  0.82305000  0.25444000  0.13486000  1.0
  H  H9  1  0.17695000  0.74555000  0.86515000  1.0
  H  H10  1  0.74554000  0.21932000  0.97259000  1.0
  H  H11  1  0.25447000  0.78069000  0.02741000  1.0
  H  H12  1  0.56794000  0.15632000  0.77799000  1.0
  H  H13  1  0.43206000  0.84369000  0.22201000  1.0
  H  H14  1  0.53644000  0.72084000  0.77210000  1.0
  H  H15  1  0.46356000  0.27917000  0.22790000  1.0
  H  H16  1  0.70649000  0.77963000  0.96867000  1.0
  H  H17  1  0.29351000  0.22037000  0.03132000  1.0
  H  H18  1  0.60041000  0.63823000  0.48822000  1.0
  H  H19  1  0.39959000  0.36177000  0.51177000  1.0
  H  H20  1  0.19713000  0.58595000  0.19348000  1.0
  H  H21  1  0.80285000  0.41404000  0.80652000  1.0
  H  H22  1  0.73920000  0.56315000  0.31359000  1.0
  H  H23  1  0.26080000  0.43685000  0.68641000  1.0
  H  H24  1  0.20438000  0.52020000  0.03297000  1.0
  H  H25  1  0.79561000  0.47979000  0.96703000  1.0
  H  H26  1  0.77343000  0.53525000  0.15625000  1.0
  H  H27  1  0.22656000  0.46474000  0.84375000  1.0
  C  C28  1  0.99200000  0.35106000  0.34626000  1.0
  C  C29  1  0.00800000  0.64893000  0.65374000  1.0
  C  C30  1  0.02629000  0.10820000  0.33318000  1.0
  C  C31  1  0.97371000  0.89180000  0.66682000  1.0
  C  C32  1  0.99773000  0.97555000  0.27050000  1.0
  C  C33  1  0.00227000  0.02444000  0.72950000  1.0
  C  C34  1  0.05272000  0.86268000  0.32260000  1.0
  C  C35  1  0.94729000  0.13732000  0.67740000  1.0
  C  C36  1  0.90887000  0.94392000  0.15799000  1.0
  C  C37  1  0.09114000  0.05609000  0.84201000  1.0
  C  C38  1  0.84348000  0.04187000  0.10515000  1.0
  C  C39  1  0.15654000  0.95813000  0.89485000  1.0
  C  C40  1  0.87401000  0.17457000  0.16947000  1.0
  C  C41  1  0.12600000  0.82543000  0.83053000  1.0
  C  C42  1  0.96484000  0.20825000  0.28190000  1.0
  C  C43  1  0.03517000  0.79174000  0.71810000  1.0
  C  C44  1  0.74208000  0.00514000  0.98700000  1.0
  C  C45  1  0.25792000  0.99486000  0.01300000  1.0
  C  C46  1  0.70052000  0.10925000  0.93014000  1.0
  C  C47  1  0.29948000  0.89075000  0.06985000  1.0
  C  C48  1  0.60103000  0.07498000  0.82033000  1.0
  C  C49  1  0.39897000  0.92503000  0.17967000  1.0
  C  C50  1  0.54244000  0.93489000  0.76253000  1.0
  C  C51  1  0.45756000  0.06512000  0.23747000  1.0
  C  C52  1  0.58417000  0.82985000  0.81738000  1.0
  C  C53  1  0.41584000  0.17015000  0.18262000  1.0
  C  C54  1  0.68073000  0.86436000  0.92776000  1.0
  C  C55  1  0.31928000  0.13564000  0.07224000  1.0
  C  C56  1  0.42939000  0.89410000  0.64696000  1.0
  C  C57  1  0.57060000  0.10590000  0.35304000  1.0
  C  C58  1  0.53725000  0.61668000  0.40044000  1.0
  C  C59  1  0.46275000  0.38332000  0.59956000  1.0
  C  C60  1  0.32520000  0.58973000  0.24925000  1.0
  C  C61  1  0.67479000  0.41027000  0.75076000  1.0
  C  C62  1  0.60931000  0.58152000  0.31496000  1.0
  C  C63  1  0.39068000  0.41847000  0.68503000  1.0
  C  C64  1  0.48712000  0.53207000  0.10866000  1.0
  C  C65  1  0.51287000  0.46792000  0.89134000  1.0
  C  C66  1  0.33525000  0.51228000  0.01937000  1.0
  C  C67  1  0.66475000  0.48772000  0.98063000  1.0
  C  C68  1  0.65272000  0.51926000  0.08863000  1.0
  C  C69  1  0.34727000  0.48074000  0.91137000  1.0
  N  N70  1  0.36054000  0.62098000  0.35809000  1.0
  N  N71  1  0.63946000  0.37903000  0.64191000  1.0
  N  N72  1  0.47371000  0.56512000  0.21850000  1.0
  N  N73  1  0.52628000  0.43489000  0.78150000  1.0
  O  O74  1  0.06890000  0.37922000  0.45101000  1.0
  O  O75  1  0.93110000  0.62077000  0.54900000  1.0
  O  O76  1  0.94509000  0.44200000  0.29548000  1.0
  O  O77  1  0.05491000  0.55799000  0.70452000  1.0
  O  O78  1  0.12509000  0.88841000  0.42763000  1.0
  O  O79  1  0.87494000  0.11160000  0.57237000  1.0
  O  O80  1  0.01985000  0.74247000  0.26403000  1.0
  O  O81  1  0.98015000  0.25753000  0.73598000  1.0
  O  O82  1  0.37261000  0.76836000  0.59690000  1.0
  O  O83  1  0.62738000  0.23165000  0.40310000  1.0
  O  O84  1  0.39243000  0.00063000  0.60423000  1.0
  O  O85  1  0.60757000  0.99938000  0.39577000  1.0
