# generated using pymatgen
data_CaP2H28C34(NO4)2
_symmetry_space_group_name_H-M   'P 1'
_cell_length_a   5.63672000
_cell_length_b   12.08900000
_cell_length_c   12.42400000
_cell_angle_alpha   70.42600000
_cell_angle_beta   76.91400000
_cell_angle_gamma   89.98740000
_symmetry_Int_Tables_number   1
_chemical_formula_structural   CaP2H28C34(NO4)2
_chemical_formula_sum   'Ca1 P2 H28 C34 N2 O8'
_cell_volume   774.31707998
_cell_formula_units_Z   1
loop_
 _symmetry_equiv_pos_site_id
 _symmetry_equiv_pos_as_xyz
  1  'x, y, z'
loop_
 _atom_site_type_symbol
 _atom_site_label
 _atom_site_symmetry_multiplicity
 _atom_site_fract_x
 _atom_site_fract_y
 _atom_site_fract_z
 _atom_site_occupancy
  Ca  Ca0  1  0.33632000  0.00007000  0.00005000  1.0
  P  P1  1  0.71743000  0.89358000  0.20253000  1.0
  P  P2  1  0.91929000  0.10654000  0.79751000  1.0
  H  H3  1  0.33490000  0.99073000  0.43534000  1.0
  H  H4  1  0.77016000  0.00844000  0.56517000  1.0
  H  H5  1  0.34443000  0.18685000  0.46037000  1.0
  H  H6  1  0.80631000  0.81235000  0.54018000  1.0
  H  H7  1  0.72690000  0.32144000  0.37472000  1.0
  H  H8  1  0.10439000  0.67836000  0.62573000  1.0
  H  H9  1  0.10134000  0.25644000  0.26804000  1.0
  H  H10  1  0.37149000  0.74385000  0.73242000  1.0
  H  H11  1  0.09227000  0.05773000  0.24915000  1.0
  H  H12  1  0.34207000  0.94259000  0.75121000  1.0
  H  H13  1  0.22633000  0.80994000  0.33653000  1.0
  H  H14  1  0.56272000  0.19010000  0.66323000  1.0
  H  H15  1  0.86059000  0.66727000  0.43143000  1.0
  H  H16  1  0.29167000  0.33266000  0.56808000  1.0
  H  H17  1  0.87891000  0.46065000  0.43758000  1.0
  H  H18  1  0.31592000  0.53937000  0.56160000  1.0
  H  H19  1  0.26975000  0.39644000  0.34218000  1.0
  H  H20  1  0.61116000  0.60382000  0.65702000  1.0
  H  H21  1  0.63999000  0.53942000  0.24972000  1.0
  H  H22  1  0.88908000  0.46091000  0.74980000  1.0
  H  H23  1  0.66997000  0.17612000  0.09432000  1.0
  H  H24  1  0.76401000  0.82387000  0.90611000  1.0
  H  H25  1  0.71285000  0.38241000  0.09268000  1.0
  H  H26  1  0.80546000  0.61771000  0.90747000  1.0
  H  H27  1  0.13759000  0.46129000  0.90655000  1.0
  H  H28  1  0.04420000  0.53887000  0.09309000  1.0
  H  H29  1  0.12695000  0.25316000  0.91114000  1.0
  H  H30  1  0.03801000  0.74686000  0.08889000  1.0
  C  C31  1  0.71133000  0.01493000  0.34001000  1.0
  C  C32  1  0.05162000  0.98487000  0.66035000  1.0
  C  C33  1  0.50074000  0.05017000  0.39908000  1.0
  C  C34  1  0.90032000  0.94927000  0.60137000  1.0
  C  C35  1  0.50775000  0.16057000  0.41178000  1.0
  C  C36  1  0.92086000  0.83889000  0.58871000  1.0
  C  C37  1  0.72250000  0.23563000  0.36400000  1.0
  C  C38  1  0.08854000  0.76414000  0.63649000  1.0
  C  C39  1  0.93196000  0.19915000  0.30458000  1.0
  C  C40  1  0.23819000  0.80091000  0.69586000  1.0
  C  C41  1  0.92867000  0.08811000  0.29294000  1.0
  C  C42  1  0.22244000  0.91200000  0.70745000  1.0
  C  C43  1  0.45451000  0.68137000  0.28912000  1.0
  C  C44  1  0.74321000  0.31880000  0.71054000  1.0
  C  C45  1  0.23663000  0.71909000  0.33968000  1.0
  C  C46  1  0.57595000  0.28099000  0.66001000  1.0
  C  C47  1  0.03122000  0.63845000  0.39225000  1.0
  C  C48  1  0.42304000  0.36157000  0.60726000  1.0
  C  C49  1  0.04063000  0.52242000  0.39409000  1.0
  C  C50  1  0.43419000  0.47766000  0.60524000  1.0
  C  C51  1  0.25911000  0.48669000  0.34169000  1.0
  C  C52  1  0.60020000  0.51350000  0.65762000  1.0
  C  C53  1  0.46667000  0.56571000  0.28963000  1.0
  C  C54  1  0.75576000  0.43452000  0.70989000  1.0
  C  C55  1  0.55767000  0.24278000  0.05207000  1.0
  C  C56  1  0.60957000  0.75725000  0.94819000  1.0
  C  C57  1  0.58083000  0.35805000  0.05087000  1.0
  C  C58  1  0.63163000  0.64203000  0.94925000  1.0
  C  C59  1  0.42543000  0.43906000  0.99996000  1.0
  C  C60  1  0.42542000  0.56105000  0.99995000  1.0
  C  C61  1  0.25760000  0.40052000  0.94986000  1.0
  C  C62  1  0.20747000  0.59961000  0.04999000  1.0
  C  C63  1  0.25052000  0.28492000  0.95240000  1.0
  C  C64  1  0.20285000  0.71515000  0.04762000  1.0
  N  N65  1  0.39569000  0.20621000  0.00394000  1.0
  N  N66  1  0.39946000  0.79381000  0.99629000  1.0
  O  O67  1  0.70179000  0.90192000  0.33263000  1.0
  O  O68  1  0.03393000  0.09792000  0.66758000  1.0
  O  O69  1  0.97446000  0.92258000  0.13047000  1.0
  O  O70  1  0.10387000  0.07743000  0.86985000  1.0
  O  O71  1  0.67098000  0.75270000  0.23655000  1.0
  O  O72  1  0.90717000  0.24746000  0.76322000  1.0
  O  O73  1  0.51640000  0.95894000  0.15508000  1.0
  O  O74  1  0.67070000  0.04139000  0.84478000  1.0
