# generated using pymatgen
data_ZnH8C14(NO2)2
_symmetry_space_group_name_H-M   'P 1'
_cell_length_a   7.66551000
_cell_length_b   11.21230000
_cell_length_c   16.81270000
_cell_angle_alpha   89.99320000
_cell_angle_beta   89.99740000
_cell_angle_gamma   89.99910000
_symmetry_Int_Tables_number   1
_chemical_formula_structural   ZnH8C14(NO2)2
_chemical_formula_sum   'Zn4 H32 C56 N8 O16'
_cell_volume   1445.01789032
_cell_formula_units_Z   4
loop_
 _symmetry_equiv_pos_site_id
 _symmetry_equiv_pos_as_xyz
  1  'x, y, z'
loop_
 _atom_site_type_symbol
 _atom_site_label
 _atom_site_symmetry_multiplicity
 _atom_site_fract_x
 _atom_site_fract_y
 _atom_site_fract_z
 _atom_site_occupancy
  Zn  Zn0  1  0.23670000  0.82278000  0.00703000  1.0
  Zn  Zn1  1  0.26350000  0.17710000  0.50700000  1.0
  Zn  Zn2  1  0.76348000  0.32288000  0.49301000  1.0
  Zn  Zn3  1  0.73669000  0.67718000  0.99297000  1.0
  H  H4  1  0.22699000  0.76645000  0.24258000  1.0
  H  H5  1  0.22570000  0.60606000  0.64520000  1.0
  H  H6  1  0.93637000  0.41559000  0.87838000  1.0
  H  H7  1  0.35523000  0.83367000  0.37200000  1.0
  H  H8  1  0.90405000  0.32797000  0.74363000  1.0
  H  H9  1  0.27057000  0.68696000  0.78171000  1.0
  H  H10  1  0.95474000  0.09906000  0.22037000  1.0
  H  H11  1  0.06566000  0.16358000  0.35415000  1.0
  H  H12  1  0.27280000  0.23348000  0.74256000  1.0
  H  H13  1  0.27437000  0.39408000  0.14518000  1.0
  H  H14  1  0.56346000  0.58455000  0.37837000  1.0
  H  H15  1  0.14455000  0.16620000  0.87198000  1.0
  H  H16  1  0.59558000  0.67234000  0.24364000  1.0
  H  H17  1  0.22964000  0.31305000  0.28169000  1.0
  H  H18  1  0.54535000  0.90100000  0.72040000  1.0
  H  H19  1  0.43435000  0.83638000  0.85416000  1.0
  H  H20  1  0.77278000  0.26651000  0.25745000  1.0
  H  H21  1  0.77440000  0.10591000  0.85484000  1.0
  H  H22  1  0.06351000  0.91546000  0.62164000  1.0
  H  H23  1  0.64453000  0.33379000  0.12804000  1.0
  H  H24  1  0.09564000  0.82767000  0.75637000  1.0
  H  H25  1  0.72966000  0.18696000  0.71833000  1.0
  H  H26  1  0.04530000  0.59900000  0.27959000  1.0
  H  H27  1  0.93429000  0.66362000  0.14584000  1.0
  H  H28  1  0.72696000  0.73356000  0.75742000  1.0
  H  H29  1  0.72570000  0.89396000  0.35478000  1.0
  H  H30  1  0.43642000  0.08441000  0.12160000  1.0
  H  H31  1  0.85520000  0.66635000  0.62799000  1.0
  H  H32  1  0.40410000  0.17205000  0.25635000  1.0
  H  H33  1  0.77059000  0.81304000  0.21828000  1.0
  H  H34  1  0.45472000  0.40094000  0.77962000  1.0
  H  H35  1  0.56563000  0.33643000  0.64584000  1.0
  C  C36  1  0.10093000  0.07698000  0.32930000  1.0
  C  C37  1  0.19188000  0.85252000  0.26795000  1.0
  C  C38  1  0.09376000  0.93286000  0.22225000  1.0
  C  C39  1  0.16347000  0.56418000  0.69639000  1.0
  C  C40  1  0.09839000  0.56144000  0.83856000  1.0
  C  C41  1  0.00111000  0.45682000  0.82758000  1.0
  C  C42  1  0.26357000  0.88968000  0.33953000  1.0
  C  C43  1  0.05118000  0.46743000  0.68550000  1.0
  C  C44  1  0.08130000  0.91444000  0.13430000  1.0
  C  C45  1  0.98113000  0.40829000  0.75205000  1.0
  C  C46  1  0.18584000  0.61017000  0.77279000  1.0
  C  C47  1  0.23006000  0.00643000  0.36484000  1.0
  C  C48  1  0.03756000  0.04052000  0.25573000  1.0
  C  C49  1  0.10216000  0.62454000  0.91730000  1.0
  C  C50  1  0.39905000  0.92298000  0.82932000  1.0
  C  C51  1  0.30799000  0.14743000  0.76795000  1.0
  C  C52  1  0.40624000  0.06715000  0.72226000  1.0
  C  C53  1  0.33654000  0.43596000  0.19638000  1.0
  C  C54  1  0.40167000  0.43862000  0.33853000  1.0
  C  C55  1  0.49878000  0.54333000  0.32758000  1.0
  C  C56  1  0.23625000  0.11021000  0.83952000  1.0
  C  C57  1  0.44870000  0.53279000  0.18550000  1.0
  C  C58  1  0.41881000  0.08559000  0.63431000  1.0
  C  C59  1  0.51867000  0.59194000  0.25205000  1.0
  C  C60  1  0.31427000  0.38989000  0.27278000  1.0
  C  C61  1  0.26985000  0.99347000  0.86485000  1.0
  C  C62  1  0.46246000  0.95949000  0.75575000  1.0
  C  C63  1  0.39804000  0.37545000  0.41726000  1.0
  C  C64  1  0.89900000  0.57702000  0.17069000  1.0
  C  C65  1  0.80796000  0.35257000  0.23206000  1.0
  C  C66  1  0.90621000  0.43284000  0.27774000  1.0
  C  C67  1  0.83658000  0.06404000  0.80364000  1.0
  C  C68  1  0.90172000  0.06139000  0.66149000  1.0
  C  C69  1  0.99883000  0.95669000  0.67244000  1.0
  C  C70  1  0.73621000  0.38978000  0.16049000  1.0
  C  C71  1  0.94875000  0.96721000  0.81452000  1.0
  C  C72  1  0.91878000  0.41440000  0.36569000  1.0
  C  C73  1  0.01872000  0.90807000  0.74796000  1.0
  C  C74  1  0.81430000  0.11012000  0.72725000  1.0
  C  C75  1  0.76981000  0.50653000  0.13516000  1.0
  C  C76  1  0.96241000  0.54051000  0.24425000  1.0
  C  C77  1  0.89808000  0.12456000  0.58276000  1.0
  C  C78  1  0.60090000  0.42303000  0.67069000  1.0
  C  C79  1  0.69184000  0.64748000  0.73205000  1.0
  C  C80  1  0.59373000  0.56714000  0.77775000  1.0
  C  C81  1  0.66350000  0.93583000  0.30359000  1.0
  C  C82  1  0.59842000  0.93855000  0.16143000  1.0
  C  C83  1  0.50114000  0.04318000  0.17240000  1.0
  C  C84  1  0.76353000  0.61034000  0.66046000  1.0
  C  C85  1  0.55121000  0.03259000  0.31448000  1.0
  C  C86  1  0.58129000  0.58554000  0.86570000  1.0
  C  C87  1  0.48116000  0.09172000  0.24793000  1.0
  C  C88  1  0.68586000  0.88983000  0.22719000  1.0
  C  C89  1  0.73004000  0.49358000  0.63515000  1.0
  C  C90  1  0.53753000  0.45948000  0.74427000  1.0
  C  C91  1  0.60219000  0.87544000  0.08269000  1.0
  N  N92  1  0.35213000  0.06659000  0.41581000  1.0
  N  N93  1  0.00862000  0.42453000  0.60704000  1.0
  N  N94  1  0.14785000  0.93323000  0.91583000  1.0
  N  N95  1  0.49130000  0.57574000  0.10704000  1.0
  N  N96  1  0.64780000  0.56675000  0.08418000  1.0
  N  N97  1  0.99134000  0.92425000  0.89297000  1.0
  N  N98  1  0.85212000  0.43343000  0.58418000  1.0
  N  N99  1  0.50864000  0.07550000  0.39294000  1.0
  O  O100  1  0.13453000  0.80900000  0.11055000  1.0
  O  O101  1  0.04230000  0.99888000  0.08986000  1.0
  O  O102  1  0.23531000  0.69094000  0.92944000  1.0
  O  O103  1  0.97634000  0.61147000  0.96607000  1.0
  O  O104  1  0.36556000  0.19103000  0.61053000  1.0
  O  O105  1  0.45794000  0.00118000  0.58989000  1.0
  O  O106  1  0.26497000  0.30896000  0.42940000  1.0
  O  O107  1  0.52385000  0.38854000  0.46602000  1.0
  O  O108  1  0.86555000  0.30896000  0.38947000  1.0
  O  O109  1  0.95789000  0.49882000  0.41011000  1.0
  O  O110  1  0.76500000  0.19105000  0.57063000  1.0
  O  O111  1  0.02388000  0.11145000  0.53399000  1.0
  O  O112  1  0.63452000  0.69099000  0.88945000  1.0
  O  O113  1  0.54229000  0.50110000  0.91014000  1.0
  O  O114  1  0.73534000  0.80903000  0.07055000  1.0
  O  O115  1  0.47637000  0.88850000  0.03393000  1.0
