# generated using pymatgen
data_NiH28C20(NO)4
_symmetry_space_group_name_H-M   'P 1'
_cell_length_a   13.41730000
_cell_length_b   15.64770000
_cell_length_c   17.19520000
_cell_angle_alpha   87.46020000
_cell_angle_beta   81.90530000
_cell_angle_gamma   89.97240000
_symmetry_Int_Tables_number   1
_chemical_formula_structural   NiH28C20(NO)4
_chemical_formula_sum   'Ni4 H112 C80 N16 O16'
_cell_volume   3570.58993227
_cell_formula_units_Z   4
loop_
 _symmetry_equiv_pos_site_id
 _symmetry_equiv_pos_as_xyz
  1  'x, y, z'
loop_
 _atom_site_type_symbol
 _atom_site_label
 _atom_site_symmetry_multiplicity
 _atom_site_fract_x
 _atom_site_fract_y
 _atom_site_fract_z
 _atom_site_occupancy
  Ni  Ni0  1  0.00000000  0.00000000  0.00000000  1.0
  Ni  Ni1  1  0.51228000  0.50553000  0.24356000  1.0
  Ni  Ni2  1  0.48772000  0.49446000  0.75644000  1.0
  Ni  Ni3  1  0.00000000  0.00000000  0.50000000  1.0
  H  H4  1  0.03309000  0.74641000  0.13090000  1.0
  H  H5  1  0.96695000  0.25362000  0.86910000  1.0
  H  H6  1  0.90040000  0.74230000  0.16139000  1.0
  H  H7  1  0.09963000  0.25771000  0.83859000  1.0
  H  H8  1  0.98018000  0.77764000  0.22732000  1.0
  H  H9  1  0.01984000  0.22237000  0.77267000  1.0
  H  H10  1  0.86031000  0.89977000  0.23432000  1.0
  H  H11  1  0.13971000  0.10024000  0.76568000  1.0
  H  H12  1  0.80067000  0.12675000  0.19125000  1.0
  H  H13  1  0.19934000  0.87325000  0.80875000  1.0
  H  H14  1  0.84729000  0.07068000  0.27119000  1.0
  H  H15  1  0.15271000  0.92932000  0.72880000  1.0
  H  H16  1  0.73931000  0.03165000  0.23617000  1.0
  H  H17  1  0.26069000  0.96836000  0.76382000  1.0
  H  H18  1  0.23674000  0.05405000  0.93153000  1.0
  H  H19  1  0.76326000  0.94596000  0.06847000  1.0
  H  H20  1  0.26776000  0.11917000  0.16338000  1.0
  H  H21  1  0.73224000  0.88081000  0.83662000  1.0
  H  H22  1  0.07258000  0.05914000  0.15816000  1.0
  H  H23  1  0.92743000  0.94084000  0.84184000  1.0
  H  H24  1  0.41210000  0.09425000  0.95819000  1.0
  H  H25  1  0.58790000  0.90574000  0.04181000  1.0
  H  H26  1  0.43293000  0.10447000  0.05688000  1.0
  H  H27  1  0.56706000  0.89553000  0.94312000  1.0
  H  H28  1  0.35224000  0.25093000  0.05563000  1.0
  H  H29  1  0.64775000  0.74906000  0.94436000  1.0
  H  H30  1  0.33936000  0.24097000  0.95552000  1.0
  H  H31  1  0.66064000  0.75902000  0.04448000  1.0
  H  H32  1  0.54037000  0.23838000  0.02263000  1.0
  H  H33  1  0.45963000  0.76161000  0.97736000  1.0
  H  H34  1  0.52783000  0.22700000  0.92264000  1.0
  H  H35  1  0.47216000  0.77300000  0.07735000  1.0
  H  H36  1  0.57506000  0.37424000  0.94035000  1.0
  H  H37  1  0.42494000  0.62576000  0.05965000  1.0
  H  H38  1  0.45269000  0.37260000  0.91455000  1.0
  H  H39  1  0.54730000  0.62741000  0.08546000  1.0
  H  H40  1  0.59327000  0.39979000  0.08923000  1.0
  H  H41  1  0.40673000  0.60021000  0.91077000  1.0
  H  H42  1  0.30884000  0.42810000  0.01238000  1.0
  H  H43  1  0.69115000  0.57188000  0.98763000  1.0
  H  H44  1  0.30598000  0.50309000  0.15754000  1.0
  H  H45  1  0.69401000  0.49690000  0.84247000  1.0
  H  H46  1  0.42155000  0.77744000  0.21014000  1.0
  H  H47  1  0.57845000  0.22256000  0.78985000  1.0
  H  H48  1  0.32250000  0.77708000  0.29156000  1.0
  H  H49  1  0.67750000  0.22293000  0.70842000  1.0
  H  H50  1  0.29462000  0.75349000  0.19746000  1.0
  H  H51  1  0.70539000  0.24651000  0.80253000  1.0
  H  H52  1  0.22519000  0.63601000  0.32015000  1.0
  H  H53  1  0.77481000  0.36400000  0.67984000  1.0
  H  H54  1  0.22533000  0.41014000  0.39293000  1.0
  H  H55  1  0.77467000  0.58988000  0.60708000  1.0
  H  H56  1  0.14790000  0.46884000  0.33390000  1.0
  H  H57  1  0.85209000  0.53117000  0.66611000  1.0
  H  H58  1  0.17698000  0.51329000  0.42086000  1.0
  H  H59  1  0.82302000  0.48673000  0.57915000  1.0
  H  H60  1  0.79311000  0.60450000  0.08899000  1.0
  H  H61  1  0.20688000  0.39548000  0.91100000  1.0
  H  H62  1  0.83772000  0.50169000  0.05739000  1.0
  H  H63  1  0.16227000  0.49828000  0.94261000  1.0
  H  H64  1  0.87583000  0.54404000  0.14226000  1.0
  H  H65  1  0.12417000  0.45595000  0.85774000  1.0
  H  H66  1  0.80142000  0.38024000  0.16498000  1.0
  H  H67  1  0.19857000  0.61975000  0.83504000  1.0
  H  H68  1  0.61645000  0.23522000  0.28139000  1.0
  H  H69  1  0.38355000  0.76477000  0.71862000  1.0
  H  H70  1  0.74136000  0.26663000  0.29264000  1.0
  H  H71  1  0.25864000  0.73337000  0.70738000  1.0
  H  H72  1  0.71465000  0.23861000  0.19926000  1.0
  H  H73  1  0.28536000  0.76138000  0.80076000  1.0
  H  H74  1  0.43001000  0.60022000  0.40625000  1.0
  H  H75  1  0.57000000  0.39979000  0.59374000  1.0
  H  H76  1  0.71469000  0.55880000  0.47975000  1.0
  H  H77  1  0.28531000  0.44119000  0.52026000  1.0
  H  H78  1  0.71858000  0.50610000  0.32601000  1.0
  H  H79  1  0.28141000  0.49389000  0.67400000  1.0
  H  H80  1  0.57201000  0.59889000  0.58417000  1.0
  H  H81  1  0.42798000  0.40111000  0.41584000  1.0
  H  H82  1  0.44849000  0.59765000  0.56069000  1.0
  H  H83  1  0.55150000  0.40236000  0.43930000  1.0
  H  H84  1  0.49468000  0.73907000  0.60042000  1.0
  H  H85  1  0.50532000  0.26093000  0.39957000  1.0
  H  H86  1  0.46629000  0.74510000  0.50279000  1.0
  H  H87  1  0.53371000  0.25490000  0.49721000  1.0
  H  H88  1  0.68016000  0.73995000  0.54851000  1.0
  H  H89  1  0.31983000  0.26005000  0.45149000  1.0
  H  H90  1  0.65188000  0.74304000  0.45117000  1.0
  H  H91  1  0.34812000  0.25695000  0.54883000  1.0
  H  H92  1  0.56040000  0.88350000  0.47690000  1.0
  H  H93  1  0.43960000  0.11650000  0.52309000  1.0
  H  H94  1  0.60003000  0.88178000  0.57097000  1.0
  H  H95  1  0.39996000  0.11822000  0.42903000  1.0
  H  H96  1  0.77680000  0.93066000  0.58223000  1.0
  H  H97  1  0.22319000  0.06935000  0.41777000  1.0
  H  H98  1  0.71113000  0.88653000  0.35325000  1.0
  H  H99  1  0.28887000  0.11348000  0.64675000  1.0
  H  H100  1  0.90438000  0.95579000  0.34441000  1.0
  H  H101  1  0.09562000  0.04423000  0.65559000  1.0
  H  H102  1  0.83520000  0.16927000  0.67848000  1.0
  H  H103  1  0.16481000  0.83073000  0.32152000  1.0
  H  H104  1  0.87664000  0.11239000  0.76069000  1.0
  H  H105  1  0.12337000  0.88761000  0.23931000  1.0
  H  H106  1  0.75966000  0.08575000  0.73203000  1.0
  H  H107  1  0.24034000  0.91426000  0.26797000  1.0
  H  H108  1  0.85937000  0.94408000  0.74250000  1.0
  H  H109  1  0.14064000  0.05592000  0.25749000  1.0
  H  H110  1  0.99388000  0.75872000  0.65499000  1.0
  H  H111  1  0.00612000  0.24129000  0.34500000  1.0
  H  H112  1  0.88756000  0.78757000  0.72426000  1.0
  H  H113  1  0.11245000  0.21244000  0.27573000  1.0
  H  H114  1  0.01034000  0.81664000  0.73946000  1.0
  H  H115  1  0.98966000  0.18336000  0.26054000  1.0
  C  C116  1  0.96986000  0.77844000  0.16503000  1.0
  C  C117  1  0.03016000  0.22157000  0.83496000  1.0
  C  C118  1  0.96083000  0.86920000  0.13163000  1.0
  C  C119  1  0.03919000  0.13081000  0.86836000  1.0
  C  C120  1  0.89710000  0.92565000  0.17762000  1.0
  C  C121  1  0.10291000  0.07437000  0.82237000  1.0
  C  C122  1  0.87925000  0.01221000  0.15809000  1.0
  C  C123  1  0.12075000  0.98780000  0.84189000  1.0
  C  C124  1  0.81253000  0.06335000  0.21763000  1.0
  C  C125  1  0.18747000  0.93666000  0.78236000  1.0
  C  C126  1  0.21751000  0.06208000  0.99416000  1.0
  C  C127  1  0.78249000  0.93792000  0.00584000  1.0
  C  C128  1  0.23175000  0.09636000  0.11558000  1.0
  C  C129  1  0.76825000  0.90363000  0.88443000  1.0
  C  C130  1  0.13597000  0.06699000  0.11204000  1.0
  C  C131  1  0.86402000  0.93300000  0.88796000  1.0
  C  C132  1  0.38411000  0.12505000  0.01326000  1.0
  C  C133  1  0.61589000  0.87495000  0.98674000  1.0
  C  C134  1  0.38654000  0.22232000  0.00092000  1.0
  C  C135  1  0.61346000  0.77768000  0.99907000  1.0
  C  C136  1  0.49335000  0.25639000  0.97688000  1.0
  C  C137  1  0.50665000  0.74360000  0.02312000  1.0
  C  C138  1  0.49752000  0.35318000  0.96095000  1.0
  C  C139  1  0.50247000  0.64682000  0.03905000  1.0
  C  C140  1  0.51508000  0.41774000  0.08952000  1.0
  C  C141  1  0.48493000  0.58225000  0.91049000  1.0
  C  C142  1  0.36570000  0.43306000  0.05086000  1.0
  C  C143  1  0.63429000  0.56693000  0.94914000  1.0
  C  C144  1  0.36590000  0.46993000  0.12213000  1.0
  C  C145  1  0.63409000  0.53006000  0.87789000  1.0
  C  C146  1  0.35168000  0.74566000  0.23731000  1.0
  C  C147  1  0.64833000  0.25434000  0.76268000  1.0
  C  C148  1  0.37198000  0.65188000  0.25398000  1.0
  C  C149  1  0.62802000  0.34812000  0.74601000  1.0
  C  C150  1  0.29534000  0.60307000  0.30074000  1.0
  C  C151  1  0.70466000  0.39694000  0.69925000  1.0
  C  C152  1  0.30083000  0.51591000  0.32435000  1.0
  C  C153  1  0.69917000  0.48410000  0.67566000  1.0
  C  C154  1  0.20750000  0.47452000  0.37130000  1.0
  C  C155  1  0.79249000  0.52550000  0.62871000  1.0
  C  C156  1  0.81216000  0.53970000  0.10868000  1.0
  C  C157  1  0.18784000  0.46028000  0.89132000  1.0
  C  C158  1  0.72169000  0.49816000  0.15944000  1.0
  C  C159  1  0.27830000  0.50183000  0.84056000  1.0
  C  C160  1  0.73062000  0.41191000  0.18504000  1.0
  C  C161  1  0.26937000  0.58808000  0.81497000  1.0
  C  C162  1  0.65726000  0.36221000  0.23440000  1.0
  C  C163  1  0.34275000  0.63778000  0.76562000  1.0
  C  C164  1  0.68363000  0.27011000  0.25309000  1.0
  C  C165  1  0.31636000  0.72988000  0.74693000  1.0
  C  C166  1  0.50843000  0.58208000  0.40392000  1.0
  C  C167  1  0.49158000  0.41791000  0.59607000  1.0
  C  C168  1  0.65753000  0.55958000  0.44107000  1.0
  C  C169  1  0.34247000  0.44042000  0.55893000  1.0
  C  C170  1  0.65827000  0.53420000  0.36527000  1.0
  C  C171  1  0.34172000  0.46580000  0.63474000  1.0
  C  C172  1  0.52428000  0.62373000  0.54154000  1.0
  C  C173  1  0.47572000  0.37628000  0.45846000  1.0
  C  C174  1  0.52195000  0.72127000  0.53991000  1.0
  C  C175  1  0.47804000  0.27873000  0.46009000  1.0
  C  C176  1  0.62425000  0.76238000  0.51114000  1.0
  C  C177  1  0.37574000  0.23762000  0.48886000  1.0
  C  C178  1  0.61927000  0.85991000  0.51085000  1.0
  C  C179  1  0.38072000  0.14009000  0.48915000  1.0
  C  C180  1  0.78601000  0.92936000  0.51853000  1.0
  C  C181  1  0.21399000  0.07065000  0.48148000  1.0
  C  C182  1  0.75365000  0.90655000  0.39848000  1.0
  C  C183  1  0.24634000  0.09346000  0.60153000  1.0
  C  C184  1  0.84873000  0.94061000  0.39514000  1.0
  C  C185  1  0.15126000  0.05941000  0.60486000  1.0
  C  C186  1  0.83692000  0.10670000  0.70938000  1.0
  C  C187  1  0.16309000  0.89331000  0.29062000  1.0
  C  C188  1  0.88935000  0.04312000  0.65368000  1.0
  C  C189  1  0.11066000  0.95689000  0.34632000  1.0
  C  C190  1  0.89675000  0.95798000  0.68309000  1.0
  C  C191  1  0.10325000  0.04203000  0.31691000  1.0
  C  C192  1  0.96170000  0.80837000  0.69382000  1.0
  C  C193  1  0.03831000  0.19164000  0.30618000  1.0
  C  C194  1  0.95495000  0.89187000  0.64632000  1.0
  C  C195  1  0.04506000  0.10814000  0.35367000  1.0
  N  N196  1  0.12835000  0.04583000  0.03634000  1.0
  N  N197  1  0.87165000  0.95417000  0.96365000  1.0
  N  N198  1  0.28299000  0.09251000  0.04019000  1.0
  N  N199  1  0.71700000  0.90748000  0.95982000  1.0
  N  N200  1  0.46106000  0.40023000  0.03090000  1.0
  N  N201  1  0.53893000  0.59976000  0.96911000  1.0
  N  N202  1  0.45974000  0.46018000  0.14537000  1.0
  N  N203  1  0.54026000  0.53982000  0.85464000  1.0
  N  N204  1  0.56465000  0.54820000  0.34305000  1.0
  N  N205  1  0.43535000  0.45179000  0.65695000  1.0
  N  N206  1  0.56174000  0.58969000  0.46493000  1.0
  N  N207  1  0.43825000  0.41030000  0.53506000  1.0
  N  N208  1  0.71441000  0.90009000  0.47738000  1.0
  N  N209  1  0.28559000  0.09991000  0.52262000  1.0
  N  N210  1  0.86767000  0.95444000  0.47018000  1.0
  N  N211  1  0.13233000  0.04558000  0.52982000  1.0
  O  O212  1  0.01096000  0.88680000  0.06446000  1.0
  O  O213  1  0.98905000  0.11321000  0.93553000  1.0
  O  O214  1  0.91430000  0.05301000  0.09408000  1.0
  O  O215  1  0.08570000  0.94700000  0.90591000  1.0
  O  O216  1  0.45765000  0.62467000  0.22391000  1.0
  O  O217  1  0.54236000  0.37533000  0.77609000  1.0
  O  O218  1  0.37764000  0.46782000  0.31007000  1.0
  O  O219  1  0.62236000  0.53218000  0.68993000  1.0
  O  O220  1  0.64412000  0.54505000  0.17477000  1.0
  O  O221  1  0.35587000  0.45494000  0.82524000  1.0
  O  O222  1  0.57054000  0.38711000  0.26486000  1.0
  O  O223  1  0.42945000  0.61288000  0.73514000  1.0
  O  O224  1  0.92380000  0.07235000  0.58489000  1.0
  O  O225  1  0.07620000  0.92766000  0.41510000  1.0
  O  O226  1  0.00466000  0.89629000  0.57755000  1.0
  O  O227  1  0.99534000  0.10372000  0.42244000  1.0
