# generated using pymatgen
data_ZnH5C4(N2O)2
_symmetry_space_group_name_H-M   'P 1'
_cell_length_a   8.30011000
_cell_length_b   9.30913000
_cell_length_c   11.98110000
_cell_angle_alpha   70.09000000
_cell_angle_beta   69.74400000
_cell_angle_gamma   89.99990000
_symmetry_Int_Tables_number   1
_chemical_formula_structural   ZnH5C4(N2O)2
_chemical_formula_sum   'Zn4 H20 C16 N16 O8'
_cell_volume   809.25113921
_cell_formula_units_Z   4
loop_
 _symmetry_equiv_pos_site_id
 _symmetry_equiv_pos_as_xyz
  1  'x, y, z'
loop_
 _atom_site_type_symbol
 _atom_site_label
 _atom_site_symmetry_multiplicity
 _atom_site_fract_x
 _atom_site_fract_y
 _atom_site_fract_z
 _atom_site_occupancy
  Zn  Zn0  1  0.58946000  0.96721000  0.34759000  1.0
  Zn  Zn1  1  0.93706000  0.53276000  0.65248000  1.0
  Zn  Zn2  1  0.41054000  0.03279000  0.65241000  1.0
  Zn  Zn3  1  0.06294000  0.46724000  0.34752000  1.0
  H  H4  1  0.98336000  0.39495000  0.12976000  1.0
  H  H5  1  0.11309000  0.10500000  0.87029000  1.0
  H  H6  1  0.01664000  0.60505000  0.87024000  1.0
  H  H7  1  0.88691000  0.89500000  0.12971000  1.0
  H  H8  1  0.85763000  0.24351000  0.12852000  1.0
  H  H9  1  0.98618000  0.25646000  0.87146000  1.0
  H  H10  1  0.14237000  0.75649000  0.87148000  1.0
  H  H11  1  0.01382000  0.74354000  0.12854000  1.0
  H  H12  1  0.74604000  0.25733000  0.58325000  1.0
  H  H13  1  0.32923000  0.24271000  0.41675000  1.0
  H  H14  1  0.25397000  0.74267000  0.41675000  1.0
  H  H15  1  0.67077000  0.75730000  0.58325000  1.0
  H  H16  1  0.69209000  0.98835000  0.92935000  1.0
  H  H17  1  0.62146000  0.51169000  0.07067000  1.0
  H  H18  1  0.30791000  0.01165000  0.07065000  1.0
  H  H19  1  0.37854000  0.48831000  0.92933000  1.0
  H  H20  1  0.60817000  0.16090000  0.92382000  1.0
  H  H21  1  0.53206000  0.33913000  0.07619000  1.0
  H  H22  1  0.39183000  0.83910000  0.07618000  1.0
  H  H23  1  0.46794000  0.66087000  0.92381000  1.0
  C  C24  1  0.81799000  0.25313000  0.30369000  1.0
  C  C25  1  0.12173000  0.24684000  0.69631000  1.0
  C  C26  1  0.18201000  0.74687000  0.69631000  1.0
  C  C27  1  0.87827000  0.75316000  0.30369000  1.0
  C  C28  1  0.74738000  0.23857000  0.49834000  1.0
  C  C29  1  0.24574000  0.26151000  0.50164000  1.0
  C  C30  1  0.25262000  0.76143000  0.50166000  1.0
  C  C31  1  0.75426000  0.73849000  0.49835000  1.0
  C  C32  1  0.62836000  0.03152000  0.10137000  1.0
  C  C33  1  0.72971000  0.46853000  0.89866000  1.0
  C  C34  1  0.37164000  0.96848000  0.89862000  1.0
  C  C35  1  0.27029000  0.53148000  0.10134000  1.0
  C  C36  1  0.58965000  0.03852000  0.98523000  1.0
  C  C37  1  0.57490000  0.46151000  0.01479000  1.0
  C  C38  1  0.41035000  0.96148000  0.01477000  1.0
  C  C39  1  0.42510000  0.53849000  0.98521000  1.0
  N  N40  1  0.67493000  0.14754000  0.37502000  1.0
  N  N41  1  0.04996000  0.35244000  0.62498000  1.0
  N  N42  1  0.32507000  0.85246000  0.62498000  1.0
  N  N43  1  0.95004000  0.64756000  0.37502000  1.0
  N  N44  1  0.63292000  0.13816000  0.50048000  1.0
  N  N45  1  0.13339000  0.36187000  0.49951000  1.0
  N  N46  1  0.36708000  0.86185000  0.49952000  1.0
  N  N47  1  0.86661000  0.63813000  0.50049000  1.0
  N  N48  1  0.86566000  0.31304000  0.37922000  1.0
  N  N49  1  0.24494000  0.18698000  0.62078000  1.0
  N  N50  1  0.13434000  0.68696000  0.62078000  1.0
  N  N51  1  0.75506000  0.81302000  0.37922000  1.0
  N  N52  1  0.90472000  0.29143000  0.17798000  1.0
  N  N53  1  0.08275000  0.20856000  0.82204000  1.0
  N  N54  1  0.09528000  0.70857000  0.82202000  1.0
  N  N55  1  0.91725000  0.79144000  0.17796000  1.0
  O  O56  1  0.78060000  0.07308000  0.08849000  1.0
  O  O57  1  0.86905000  0.42696000  0.91159000  1.0
  O  O58  1  0.21940000  0.92692000  0.91151000  1.0
  O  O59  1  0.13095000  0.57304000  0.08841000  1.0
  O  O60  1  0.50197000  0.98172000  0.21105000  1.0
  O  O61  1  0.71300000  0.51842000  0.78896000  1.0
  O  O62  1  0.49803000  0.01828000  0.78895000  1.0
  O  O63  1  0.28700000  0.48158000  0.21104000  1.0
