# generated using pymatgen
data_GdH12C14NO8
_symmetry_space_group_name_H-M   'P 1'
_cell_length_a   6.02851000
_cell_length_b   14.49590000
_cell_length_c   17.72120000
_cell_angle_alpha   92.30540000
_cell_angle_beta   90.00000000
_cell_angle_gamma   90.00000000
_symmetry_Int_Tables_number   1
_chemical_formula_structural   GdH12C14NO8
_chemical_formula_sum   'Gd4 H48 C56 N4 O32'
_cell_volume   1547.37879249
_cell_formula_units_Z   4
loop_
 _symmetry_equiv_pos_site_id
 _symmetry_equiv_pos_as_xyz
  1  'x, y, z'
loop_
 _atom_site_type_symbol
 _atom_site_label
 _atom_site_symmetry_multiplicity
 _atom_site_fract_x
 _atom_site_fract_y
 _atom_site_fract_z
 _atom_site_occupancy
  Gd  Gd0  1  0.09139000  0.48435000  0.38379000  1.0
  Gd  Gd1  1  0.59139000  0.01565000  0.11621000  1.0
  Gd  Gd2  1  0.90860000  0.51565000  0.61621000  1.0
  Gd  Gd3  1  0.40860000  0.98435000  0.88379000  1.0
  H  H4  1  0.00258000  0.20164000  0.51506000  1.0
  H  H5  1  0.50260000  0.29835000  0.98494000  1.0
  H  H6  1  0.99741000  0.79836000  0.48495000  1.0
  H  H7  1  0.49741000  0.70164000  0.01506000  1.0
  H  H8  1  0.79543000  0.65469000  0.28628000  1.0
  H  H9  1  0.29542000  0.84531000  0.21372000  1.0
  H  H10  1  0.20458000  0.34531000  0.71372000  1.0
  H  H11  1  0.70457000  0.15469000  0.78628000  1.0
  H  H12  1  0.81747000  0.74956000  0.16990000  1.0
  H  H13  1  0.31748000  0.75044000  0.33011000  1.0
  H  H14  1  0.18253000  0.25043000  0.83010000  1.0
  H  H15  1  0.68253000  0.24957000  0.66989000  1.0
  H  H16  1  0.13931000  0.72745000  0.08389000  1.0
  H  H17  1  0.63933000  0.77255000  0.41611000  1.0
  H  H18  1  0.86069000  0.27254000  0.91612000  1.0
  H  H19  1  0.36070000  0.22745000  0.58388000  1.0
  H  H20  1  0.43547000  0.61013000  0.11719000  1.0
  H  H21  1  0.93549000  0.88987000  0.38281000  1.0
  H  H22  1  0.56453000  0.38986000  0.88281000  1.0
  H  H23  1  0.06454000  0.11013000  0.61718000  1.0
  H  H24  1  0.28561000  0.15924000  0.38058000  1.0
  H  H25  1  0.78562000  0.34076000  0.11941000  1.0
  H  H26  1  0.71440000  0.84075000  0.61941000  1.0
  H  H27  1  0.21439000  0.65925000  0.88059000  1.0
  H  H28  1  0.52741000  0.02333000  0.40015000  1.0
  H  H29  1  0.02743000  0.47667000  0.09985000  1.0
  H  H30  1  0.47260000  0.97667000  0.59985000  1.0
  H  H31  1  0.97261000  0.52333000  0.90015000  1.0
  H  H32  1  0.89440000  0.04605000  0.46433000  1.0
  H  H33  1  0.39442000  0.45395000  0.03567000  1.0
  H  H34  1  0.10561000  0.95395000  0.53567000  1.0
  H  H35  1  0.60562000  0.54605000  0.96433000  1.0
  H  H36  1  0.68677000  0.57377000  0.44547000  1.0
  H  H37  1  0.18677000  0.92624000  0.05453000  1.0
  H  H38  1  0.31322000  0.42623000  0.55453000  1.0
  H  H39  1  0.81322000  0.07376000  0.94547000  1.0
  H  H40  1  0.77724000  0.43034000  0.24956000  1.0
  H  H41  1  0.27724000  0.06967000  0.25044000  1.0
  H  H42  1  0.22276000  0.56966000  0.75044000  1.0
  H  H43  1  0.72275000  0.93034000  0.74956000  1.0
  H  H44  1  0.62122000  0.52953000  0.36563000  1.0
  H  H45  1  0.12122000  0.97046000  0.13437000  1.0
  H  H46  1  0.37877000  0.47046000  0.63437000  1.0
  H  H47  1  0.87877000  0.02954000  0.86563000  1.0
  H  H48  1  0.89563000  0.33895000  0.28165000  1.0
  H  H49  1  0.39563000  0.16106000  0.21835000  1.0
  H  H50  1  0.10437000  0.66105000  0.71835000  1.0
  H  H51  1  0.60437000  0.83895000  0.78165000  1.0
  C  C52  1  0.84423000  0.19168000  0.48621000  1.0
  C  C53  1  0.34424000  0.30831000  0.01379000  1.0
  C  C54  1  0.15577000  0.80832000  0.51379000  1.0
  C  C55  1  0.65577000  0.69168000  0.98621000  1.0
  C  C56  1  0.70434000  0.26776000  0.47810000  1.0
  C  C57  1  0.20436000  0.23224000  0.02191000  1.0
  C  C58  1  0.29565000  0.73224000  0.52191000  1.0
  C  C59  1  0.79564000  0.76776000  0.97810000  1.0
  C  C60  1  0.77414000  0.35702000  0.51718000  1.0
  C  C61  1  0.27415000  0.14298000  0.98283000  1.0
  C  C62  1  0.22585000  0.64298000  0.48283000  1.0
  C  C63  1  0.72585000  0.85702000  0.01718000  1.0
  C  C64  1  0.26406000  0.57368000  0.21751000  1.0
  C  C65  1  0.76407000  0.92633000  0.28249000  1.0
  C  C66  1  0.73594000  0.42632000  0.78250000  1.0
  C  C67  1  0.23593000  0.07368000  0.71750000  1.0
  C  C68  1  0.93286000  0.64698000  0.24660000  1.0
  C  C69  1  0.43286000  0.85302000  0.25340000  1.0
  C  C70  1  0.06714000  0.35301000  0.75340000  1.0
  C  C71  1  0.56714000  0.14698000  0.74660000  1.0
  C  C72  1  0.94498000  0.69918000  0.18229000  1.0
  C  C73  1  0.44499000  0.80081000  0.31772000  1.0
  C  C74  1  0.05501000  0.30081000  0.81771000  1.0
  C  C75  1  0.55501000  0.19919000  0.68228000  1.0
  C  C76  1  0.12627000  0.68678000  0.13408000  1.0
  C  C77  1  0.62629000  0.81322000  0.36592000  1.0
  C  C78  1  0.87372000  0.31322000  0.86592000  1.0
  C  C79  1  0.37373000  0.18678000  0.63408000  1.0
  C  C80  1  0.28874000  0.62274000  0.15192000  1.0
  C  C81  1  0.78875000  0.87726000  0.34808000  1.0
  C  C82  1  0.71126000  0.37725000  0.84808000  1.0
  C  C83  1  0.21126000  0.12275000  0.65191000  1.0
  C  C84  1  0.43891000  0.50714000  0.24231000  1.0
  C  C85  1  0.93891000  0.99286000  0.25769000  1.0
  C  C86  1  0.56109000  0.49285000  0.75769000  1.0
  C  C87  1  0.06107000  0.00715000  0.74230000  1.0
  C  C88  1  0.35225000  0.33397000  0.42379000  1.0
  C  C89  1  0.85225000  0.16603000  0.07620000  1.0
  C  C90  1  0.64774000  0.66602000  0.57621000  1.0
  C  C91  1  0.14773000  0.83398000  0.92379000  1.0
  C  C92  1  0.50379000  0.25566000  0.43828000  1.0
  C  C93  1  0.00381000  0.24434000  0.06172000  1.0
  C  C94  1  0.49620000  0.74434000  0.56172000  1.0
  C  C95  1  0.99620000  0.75566000  0.93828000  1.0
  C  C96  1  0.44300000  0.16727000  0.41036000  1.0
  C  C97  1  0.94301000  0.33273000  0.08963000  1.0
  C  C98  1  0.55700000  0.83273000  0.58964000  1.0
  C  C99  1  0.05700000  0.66728000  0.91037000  1.0
  C  C100  1  0.57928000  0.09156000  0.42110000  1.0
  C  C101  1  0.07929000  0.40844000  0.07890000  1.0
  C  C102  1  0.42073000  0.90844000  0.57890000  1.0
  C  C103  1  0.92074000  0.59156000  0.92110000  1.0
  C  C104  1  0.78266000  0.10428000  0.45790000  1.0
  C  C105  1  0.28268000  0.39571000  0.04210000  1.0
  C  C106  1  0.21735000  0.89572000  0.54210000  1.0
  C  C107  1  0.71735000  0.60428000  0.95790000  1.0
  N  N108  1  0.08904000  0.58561000  0.26436000  1.0
  N  N109  1  0.58904000  0.91439000  0.23564000  1.0
  N  N110  1  0.91096000  0.41438000  0.73564000  1.0
  N  N111  1  0.41095000  0.08562000  0.76436000  1.0
  O  O112  1  0.89426000  0.41565000  0.48420000  1.0
  O  O113  1  0.39427000  0.08435000  0.01580000  1.0
  O  O114  1  0.10572000  0.58435000  0.51580000  1.0
  O  O115  1  0.60572000  0.91565000  0.98420000  1.0
  O  O116  1  0.72533000  0.36878000  0.58657000  1.0
  O  O117  1  0.22534000  0.13122000  0.91343000  1.0
  O  O118  1  0.27465000  0.63122000  0.41343000  1.0
  O  O119  1  0.77465000  0.86878000  0.08657000  1.0
  O  O120  1  0.41574000  0.47796000  0.30952000  1.0
  O  O121  1  0.91574000  0.02204000  0.19047000  1.0
  O  O122  1  0.58426000  0.52204000  0.69048000  1.0
  O  O123  1  0.08425000  0.97797000  0.80952000  1.0
  O  O124  1  0.59913000  0.48654000  0.19941000  1.0
  O  O125  1  0.09913000  0.01346000  0.30059000  1.0
  O  O126  1  0.40087000  0.51345000  0.80059000  1.0
  O  O127  1  0.90086000  0.98655000  0.69941000  1.0
  O  O128  1  0.20065000  0.32350000  0.37440000  1.0
  O  O129  1  0.70065000  0.17650000  0.12560000  1.0
  O  O130  1  0.79934000  0.67650000  0.62560000  1.0
  O  O131  1  0.29933000  0.82350000  0.87440000  1.0
  O  O132  1  0.37744000  0.41195000  0.46064000  1.0
  O  O133  1  0.87744000  0.08805000  0.03936000  1.0
  O  O134  1  0.62254000  0.58805000  0.53936000  1.0
  O  O135  1  0.12254000  0.91195000  0.96064000  1.0
  O  O136  1  0.74387000  0.56227000  0.39309000  1.0
  O  O137  1  0.24387000  0.93772000  0.10691000  1.0
  O  O138  1  0.25612000  0.43772000  0.60691000  1.0
  O  O139  1  0.75612000  0.06228000  0.89308000  1.0
  O  O140  1  0.89513000  0.40597000  0.28453000  1.0
  O  O141  1  0.39513000  0.09404000  0.21547000  1.0
  O  O142  1  0.10487000  0.59403000  0.71547000  1.0
  O  O143  1  0.60486000  0.90597000  0.78453000  1.0
