# generated using pymatgen
data_ZnH4C14NO4
_symmetry_space_group_name_H-M   'P 1'
_cell_length_a   14.48340000
_cell_length_b   14.87630000
_cell_length_c   16.17570000
_cell_angle_alpha   90.00120000
_cell_angle_beta   90.35670000
_cell_angle_gamma   89.99780000
_symmetry_Int_Tables_number   1
_chemical_formula_structural   ZnH4C14NO4
_chemical_formula_sum   'Zn2 H8 C28 N2 O8'
_cell_volume   3485.13912905
_cell_formula_units_Z   2
loop_
 _symmetry_equiv_pos_site_id
 _symmetry_equiv_pos_as_xyz
  1  'x, y, z'
loop_
 _atom_site_type_symbol
 _atom_site_label
 _atom_site_symmetry_multiplicity
 _atom_site_fract_x
 _atom_site_fract_y
 _atom_site_fract_z
 _atom_site_occupancy
  Zn  Zn0  1  0.50000000  0.40467000  0.50000000  1.0
  Zn  Zn1  1  0.50000000  0.59533000  0.50000000  1.0
  H  H2  1  0.60440000  0.91604000  0.59617000  1.0
  H  H3  1  0.39560000  0.08396000  0.40383000  1.0
  H  H4  1  0.39560000  0.91605000  0.40383000  1.0
  H  H5  1  0.60440000  0.08395000  0.59617000  1.0
  H  H6  1  0.49966000  0.35515000  0.92290000  1.0
  H  H7  1  0.50034000  0.64485000  0.07710000  1.0
  H  H8  1  0.49978000  0.35515000  0.07709000  1.0
  H  H9  1  0.50022000  0.64485000  0.92291000  1.0
  C  C10  1  0.50008000  0.50000000  0.74987000  1.0
  C  C11  1  0.49970000  0.50000000  0.33940000  1.0
  C  C12  1  0.68022000  0.50000000  0.50032000  1.0
  C  C13  1  0.31978000  0.50000000  0.49968000  1.0
  C  C14  1  0.50000000  0.18872000  0.50000000  1.0
  C  C15  1  0.50000000  0.81128000  0.50000000  1.0
  C  C16  1  0.78000000  0.50000000  0.50015000  1.0
  C  C17  1  0.22000000  0.50000000  0.49985000  1.0
  C  C18  1  0.86475000  0.50000000  0.50008000  1.0
  C  C19  1  0.13525000  0.50000000  0.49992000  1.0
  C  C20  1  0.95738000  0.50000000  0.50001000  1.0
  C  C21  1  0.49991000  0.50000000  0.25013000  1.0
  C  C22  1  0.04262000  0.50000000  0.49999000  1.0
  C  C23  1  0.55918000  0.04666000  0.55449000  1.0
  C  C24  1  0.44081000  0.95334000  0.44551000  1.0
  C  C25  1  0.44081000  0.04666000  0.44551000  1.0
  C  C26  1  0.55919000  0.95334000  0.55449000  1.0
  C  C27  1  0.49989000  0.41824000  0.04287000  1.0
  C  C28  1  0.50011000  0.58176000  0.95713000  1.0
  C  C29  1  0.49982000  0.41823000  0.95713000  1.0
  C  C30  1  0.50018000  0.58177000  0.04287000  1.0
  C  C31  1  0.50005000  0.50001000  0.08725000  1.0
  C  C32  1  0.49995000  0.50000000  0.91275000  1.0
  C  C33  1  0.50002000  0.50000000  0.17476000  1.0
  C  C34  1  0.49998000  0.50000000  0.82524000  1.0
  C  C35  1  0.50000000  0.09313000  0.50000000  1.0
  C  C36  1  0.50000000  0.90687000  0.50000000  1.0
  C  C37  1  0.50030000  0.50000000  0.66060000  1.0
  N  N38  1  0.50000000  0.73332000  0.50000000  1.0
  N  N39  1  0.50000000  0.26668000  0.50000000  1.0
  O  O40  1  0.50039000  0.42324000  0.62547000  1.0
  O  O41  1  0.49961000  0.57676000  0.37453000  1.0
  O  O42  1  0.49961000  0.42323000  0.37452000  1.0
  O  O43  1  0.50039000  0.57677000  0.62548000  1.0
  O  O44  1  0.64144000  0.42316000  0.50040000  1.0
  O  O45  1  0.35856000  0.57684000  0.49960000  1.0
  O  O46  1  0.35856000  0.42316000  0.49961000  1.0
  O  O47  1  0.64144000  0.57684000  0.50040000  1.0
