# generated using pymatgen
data_BiH4C10(NO2)4
_symmetry_space_group_name_H-M   'P 1'
_cell_length_a   7.00368000
_cell_length_b   7.03728000
_cell_length_c   12.97550000
_cell_angle_alpha   81.54750000
_cell_angle_beta   78.36030000
_cell_angle_gamma   74.84950000
_symmetry_Int_Tables_number   1
_chemical_formula_structural   BiH4C10(NO2)4
_chemical_formula_sum   'Bi2 H8 C20 N8 O16'
_cell_volume   601.58670279
_cell_formula_units_Z   2
loop_
 _symmetry_equiv_pos_site_id
 _symmetry_equiv_pos_as_xyz
  1  'x, y, z'
loop_
 _atom_site_type_symbol
 _atom_site_label
 _atom_site_symmetry_multiplicity
 _atom_site_fract_x
 _atom_site_fract_y
 _atom_site_fract_z
 _atom_site_occupancy
  Bi  Bi0  1  0.04015000  0.87411000  0.85169000  1.0
  Bi  Bi1  1  0.95998000  0.12586000  0.14836000  1.0
  H  H2  1  0.30288000  0.05118000  0.43216000  1.0
  H  H3  1  0.69714000  0.94887000  0.56787000  1.0
  H  H4  1  0.79191000  0.41493000  0.90085000  1.0
  H  H5  1  0.20810000  0.58501000  0.09912000  1.0
  H  H6  1  0.08748000  0.43055000  0.70267000  1.0
  H  H7  1  0.91253000  0.56943000  0.29728000  1.0
  H  H8  1  0.23741000  0.42876000  0.51283000  1.0
  H  H9  1  0.76263000  0.57131000  0.48714000  1.0
  C  C10  1  0.56276000  0.08527000  0.87989000  1.0
  C  C11  1  0.43721000  0.91470000  0.12012000  1.0
  C  C12  1  0.40106000  0.26282000  0.90193000  1.0
  C  C13  1  0.59892000  0.73715000  0.09807000  1.0
  C  C14  1  0.68287000  0.33110000  0.89835000  1.0
  C  C15  1  0.31713000  0.66884000  0.10164000  1.0
  C  C16  1  0.57341000  0.88690000  0.84846000  1.0
  C  C17  1  0.42654000  0.11306000  0.15154000  1.0
  C  C18  1  0.18031000  0.29998000  0.91207000  1.0
  C  C19  1  0.81967000  0.69999000  0.08794000  1.0
  C  C20  1  0.18628000  0.84786000  0.59822000  1.0
  C  C21  1  0.81368000  0.15217000  0.40178000  1.0
  C  C22  1  0.24755000  0.73609000  0.51199000  1.0
  C  C23  1  0.75244000  0.26397000  0.48799000  1.0
  C  C24  1  0.13026000  0.55694000  0.65430000  1.0
  C  C25  1  0.86976000  0.44306000  0.34568000  1.0
  C  C26  1  0.17734000  0.05497000  0.61020000  1.0
  C  C27  1  0.82264000  0.94503000  0.38981000  1.0
  C  C28  1  0.33883000  0.77766000  0.40080000  1.0
  C  C29  1  0.66118000  0.22242000  0.59919000  1.0
  N  N30  1  0.73569000  0.13814000  0.87603000  1.0
  N  N31  1  0.26434000  0.86178000  0.12397000  1.0
  N  N32  1  0.11573000  0.73318000  0.68479000  1.0
  N  N33  1  0.88428000  0.26681000  0.31521000  1.0
  N  N34  1  0.20914000  0.55476000  0.55073000  1.0
  N  N35  1  0.79087000  0.44529000  0.44925000  1.0
  N  N36  1  0.48136000  0.40842000  0.91317000  1.0
  N  N37  1  0.51862000  0.59156000  0.08682000  1.0
  O  O38  1  0.74993000  0.76898000  0.84000000  1.0
  O  O39  1  0.25005000  0.23102000  0.16000000  1.0
  O  O40  1  0.23294000  0.16574000  0.52902000  1.0
  O  O41  1  0.76707000  0.83424000  0.47100000  1.0
  O  O42  1  0.10749000  0.11237000  0.70271000  1.0
  O  O43  1  0.89247000  0.88763000  0.29731000  1.0
  O  O44  1  0.42021000  0.84532000  0.83145000  1.0
  O  O45  1  0.57971000  0.15463000  0.16860000  1.0
  O  O46  1  0.10129000  0.15181000  0.94927000  1.0
  O  O47  1  0.89866000  0.84817000  0.05076000  1.0
  O  O48  1  0.08183000  0.47141000  0.88843000  1.0
  O  O49  1  0.91818000  0.52856000  0.11156000  1.0
  O  O50  1  0.39838000  0.64655000  0.34053000  1.0
  O  O51  1  0.60160000  0.35359000  0.65944000  1.0
  O  O52  1  0.35238000  0.96306000  0.37020000  1.0
  O  O53  1  0.64770000  0.03702000  0.62982000  1.0
