# generated using pymatgen
data_CoH8C8S2(NCl)2
_symmetry_space_group_name_H-M   'P 1'
_cell_length_a   7.31047000
_cell_length_b   9.27557000
_cell_length_c   9.27557000
_cell_angle_alpha   112.11300000
_cell_angle_beta   97.39940000
_cell_angle_gamma   97.39950000
_symmetry_Int_Tables_number   1
_chemical_formula_structural   CoH8C8S2(NCl)2
_chemical_formula_sum   'Co2 H16 C16 S4 N4 Cl4'
_cell_volume   566.98972008
_cell_formula_units_Z   2
loop_
 _symmetry_equiv_pos_site_id
 _symmetry_equiv_pos_as_xyz
  1  'x, y, z'
loop_
 _atom_site_type_symbol
 _atom_site_label
 _atom_site_symmetry_multiplicity
 _atom_site_fract_x
 _atom_site_fract_y
 _atom_site_fract_z
 _atom_site_occupancy
  Co  Co0  1  0.75000000  0.37292000  0.62709000  1.0
  Co  Co1  1  0.25000000  0.62709000  0.37291000  1.0
  H  H2  1  0.25000000  0.84913000  0.15088000  1.0
  H  H3  1  0.75000000  0.15088000  0.84912000  1.0
  H  H4  1  0.40867000  0.29468000  0.11081000  1.0
  H  H5  1  0.09134000  0.88920000  0.70533000  1.0
  H  H6  1  0.59133000  0.70533000  0.88920000  1.0
  H  H7  1  0.90867000  0.11080000  0.29466000  1.0
  H  H8  1  0.25000000  0.17221000  0.82780000  1.0
  H  H9  1  0.75000000  0.82779000  0.17221000  1.0
  H  H10  1  0.41654000  0.15595000  0.53824000  1.0
  H  H11  1  0.08346000  0.46176000  0.84405000  1.0
  H  H12  1  0.58345000  0.84404000  0.46175000  1.0
  H  H13  1  0.91654000  0.53825000  0.15595000  1.0
  H  H14  1  0.25382000  0.00323000  0.38390000  1.0
  H  H15  1  0.24618000  0.61610000  0.99678000  1.0
  H  H16  1  0.74619000  0.99677000  0.61610000  1.0
  H  H17  1  0.75381000  0.38390000  0.00322000  1.0
  C  C18  1  0.42400000  0.15712000  0.32041000  1.0
  C  C19  1  0.07601000  0.67959000  0.84288000  1.0
  C  C20  1  0.57600000  0.84288000  0.67959000  1.0
  C  C21  1  0.92400000  0.32041000  0.15712000  1.0
  C  C22  1  0.33767000  0.08046000  0.15014000  1.0
  C  C23  1  0.16233000  0.84986000  0.91954000  1.0
  C  C24  1  0.66232000  0.91954000  0.84986000  1.0
  C  C25  1  0.83767000  0.15013000  0.08045000  1.0
  C  C26  1  0.25000000  0.91993000  0.08007000  1.0
  C  C27  1  0.75000000  0.08007000  0.91993000  1.0
  C  C28  1  0.34022000  0.16997000  0.05686000  1.0
  C  C29  1  0.15978000  0.94314000  0.83003000  1.0
  C  C30  1  0.65978000  0.83003000  0.94315000  1.0
  C  C31  1  0.84022000  0.05685000  0.16996000  1.0
  C  C32  1  0.25000000  0.10149000  0.89852000  1.0
  C  C33  1  0.75000000  0.89851000  0.10148000  1.0
  S  S34  1  0.59594000  0.32125000  0.38332000  1.0
  S  S35  1  0.90406000  0.61668000  0.67876000  1.0
  S  S36  1  0.40407000  0.67875000  0.61669000  1.0
  S  S37  1  0.09593000  0.38331000  0.32124000  1.0
  N  N38  1  0.36520000  0.09661000  0.41886000  1.0
  N  N39  1  0.13481000  0.58114000  0.90340000  1.0
  N  N40  1  0.63481000  0.90339000  0.58113000  1.0
  N  N41  1  0.86519000  0.41886000  0.09661000  1.0
  Cl  Cl42  1  0.54987000  0.36443000  0.78772000  1.0
  Cl  Cl43  1  0.95013000  0.21228000  0.63558000  1.0
  Cl  Cl44  1  0.45012000  0.63557000  0.21228000  1.0
  Cl  Cl45  1  0.04988000  0.78772000  0.36443000  1.0
