# generated using pymatgen
data_NiH8C16N6(ClO2)2
_symmetry_space_group_name_H-M   'P 1'
_cell_length_a   4.54398000
_cell_length_b   5.55956000
_cell_length_c   16.31803433
_cell_angle_alpha   94.56741720
_cell_angle_beta   95.84687809
_cell_angle_gamma   94.91760000
_symmetry_Int_Tables_number   1
_chemical_formula_structural   NiH8C16N6(ClO2)2
_chemical_formula_sum   'Ni1 H8 C16 N6 Cl2 O4'
_cell_volume   406.95364955
_cell_formula_units_Z   1
loop_
 _symmetry_equiv_pos_site_id
 _symmetry_equiv_pos_as_xyz
  1  'x, y, z'
loop_
 _atom_site_type_symbol
 _atom_site_label
 _atom_site_symmetry_multiplicity
 _atom_site_fract_x
 _atom_site_fract_y
 _atom_site_fract_z
 _atom_site_occupancy
  Ni  Ni0  1  0.00000000  0.00000000  0.00000000  1.0
  H  H1  1  0.12477000  0.52625000  0.24560000  1.0
  H  H2  1  0.87523000  0.47375000  0.75440000  1.0
  H  H3  1  0.70511000  0.15288000  0.16033000  1.0
  H  H4  1  0.29489000  0.84712000  0.83967000  1.0
  H  H5  1  0.19925000  0.59197000  0.09737000  1.0
  H  H6  1  0.80074000  0.40803000  0.90263000  1.0
  H  H7  1  0.76608000  0.64726000  0.55134000  1.0
  H  H8  1  0.23392000  0.35274000  0.44866000  1.0
  C  C9  1  0.65061000  0.79787000  0.52940000  1.0
  C  C10  1  0.34939000  0.20213000  0.47061000  1.0
  C  C11  1  0.65923000  0.86816000  0.44945000  1.0
  C  C12  1  0.34078000  0.13184000  0.55055000  1.0
  C  C13  1  0.48561000  0.93700000  0.57911000  1.0
  C  C14  1  0.51440000  0.06300000  0.42089000  1.0
  C  C15  1  0.81632000  0.76356000  0.38168000  1.0
  C  C16  1  0.18368000  0.23644000  0.61832000  1.0
  C  C17  1  0.42880000  0.91434000  0.66656000  1.0
  C  C18  1  0.57121000  0.08566000  0.33344000  1.0
  C  C19  1  0.86745000  0.85876000  0.23746000  1.0
  C  C20  1  0.13255000  0.14124000  0.76254000  1.0
  C  C21  1  0.04057000  0.67409000  0.21383000  1.0
  C  C22  1  0.95943000  0.32591000  0.78617000  1.0
  C  C23  1  0.83086000  0.99862000  0.16920000  1.0
  C  C24  1  0.16914000  0.00138000  0.83080000  1.0
  N  N25  1  0.75596000  0.90003000  0.31374000  1.0
  N  N26  1  0.24405000  0.09997000  0.68626000  1.0
  N  N27  1  0.09879000  0.70972000  0.13607000  1.0
  N  N28  1  0.90120000  0.29028000  0.86393000  1.0
  N  N29  1  0.97305000  0.90283000  0.10827000  1.0
  N  N30  1  0.02695000  0.09718000  0.89173000  1.0
  Cl  Cl31  1  0.64311000  0.72075000  0.95357000  1.0
  Cl  Cl32  1  0.35689000  0.27925000  0.04643000  1.0
  O  O33  1  0.97385000  0.59540000  0.38265000  1.0
  O  O34  1  0.02615000  0.40460000  0.61735000  1.0
  O  O35  1  0.51819000  0.76965000  0.71350000  1.0
  O  O36  1  0.48181000  0.23035000  0.28650000  1.0
