# generated using pymatgen
data_H8PbC7SO8
_symmetry_space_group_name_H-M   'P 1'
_cell_length_a   7.41594000
_cell_length_b   8.68104000
_cell_length_c   9.95084000
_cell_angle_alpha   72.96110000
_cell_angle_beta   77.81370000
_cell_angle_gamma   79.27120000
_symmetry_Int_Tables_number   1
_chemical_formula_structural   H8PbC7SO8
_chemical_formula_sum   'H16 Pb2 C14 S2 O16'
_cell_volume   593.37534206
_cell_formula_units_Z   2
loop_
 _symmetry_equiv_pos_site_id
 _symmetry_equiv_pos_as_xyz
  1  'x, y, z'
loop_
 _atom_site_type_symbol
 _atom_site_label
 _atom_site_symmetry_multiplicity
 _atom_site_fract_x
 _atom_site_fract_y
 _atom_site_fract_z
 _atom_site_occupancy
  H  H0  1  0.61282000  0.65302000  0.10596000  1.0
  H  H1  1  0.38720000  0.34696000  0.89406000  1.0
  H  H2  1  0.49027000  0.51363000  0.19438000  1.0
  H  H3  1  0.50973000  0.48637000  0.80563000  1.0
  H  H4  1  0.00777000  0.67247000  0.95764000  1.0
  H  H5  1  0.99222000  0.32753000  0.04237000  1.0
  H  H6  1  0.07876000  0.55220000  0.09920000  1.0
  H  H7  1  0.92123000  0.44780000  0.90080000  1.0
  H  H8  1  0.48478000  0.21899000  0.73686000  1.0
  H  H9  1  0.51521000  0.78100000  0.26315000  1.0
  H  H10  1  0.55055000  0.28727000  0.48970000  1.0
  H  H11  1  0.44946000  0.71272000  0.51030000  1.0
  H  H12  1  0.74709000  0.20644000  0.28084000  1.0
  H  H13  1  0.25290000  0.79358000  0.71915000  1.0
  H  H14  1  0.91320000  0.73603000  0.55041000  1.0
  H  H15  1  0.08680000  0.26397000  0.44957000  1.0
  Pb  Pb16  1  0.25325000  0.86659000  0.03754000  1.0
  Pb  Pb17  1  0.74674000  0.13341000  0.96247000  1.0
  C  C18  1  0.71782000  0.89961000  0.65457000  1.0
  C  C19  1  0.28217000  0.10039000  0.34542000  1.0
  C  C20  1  0.61477000  0.05619000  0.63787000  1.0
  C  C21  1  0.38523000  0.94382000  0.36213000  1.0
  C  C22  1  0.62844000  0.16568000  0.50205000  1.0
  C  C23  1  0.37156000  0.83432000  0.49795000  1.0
  C  C24  1  0.73818000  0.11997000  0.38545000  1.0
  C  C25  1  0.26180000  0.88006000  0.61455000  1.0
  C  C26  1  0.83955000  0.96380000  0.40142000  1.0
  C  C27  1  0.16045000  0.03621000  0.59858000  1.0
  C  C28  1  0.82978000  0.85513000  0.53683000  1.0
  C  C29  1  0.17021000  0.14488000  0.46316000  1.0
  C  C30  1  0.96522000  0.91685000  0.27835000  1.0
  C  C31  1  0.03476000  0.08316000  0.72165000  1.0
  S  S32  1  0.70668000  0.75114000  0.82114000  1.0
  S  S33  1  0.29331000  0.24886000  0.17884000  1.0
  O  O34  1  0.54689000  0.66495000  0.83594000  1.0
  O  O35  1  0.45311000  0.33504000  0.16406000  1.0
  O  O36  1  0.51939000  0.62165000  0.19138000  1.0
  O  O37  1  0.48065000  0.37833000  0.80865000  1.0
  O  O38  1  0.88803000  0.64605000  0.81401000  1.0
  O  O39  1  0.11196000  0.35394000  0.18599000  1.0
  O  O40  1  0.05438000  0.66766000  0.04452000  1.0
  O  O41  1  0.94562000  0.33234000  0.95548000  1.0
  O  O42  1  0.67829000  0.83247000  0.93673000  1.0
  O  O43  1  0.32172000  0.16753000  0.06325000  1.0
  O  O44  1  0.50623000  0.09858000  0.75269000  1.0
  O  O45  1  0.49377000  0.90142000  0.24731000  1.0
  O  O46  1  0.08581000  0.79175000  0.29762000  1.0
  O  O47  1  0.91421000  0.20827000  0.70237000  1.0
  O  O48  1  0.95576000  0.01166000  0.15124000  1.0
  O  O49  1  0.04427000  0.98834000  0.84876000  1.0
