# generated using pymatgen
data_CdH8C11(SN4)2
_symmetry_space_group_name_H-M   'P 1'
_cell_length_a   8.25692000
_cell_length_b   8.47090000
_cell_length_c   10.76020000
_cell_angle_alpha   92.52130000
_cell_angle_beta   94.81300000
_cell_angle_gamma   101.12900000
_symmetry_Int_Tables_number   1
_chemical_formula_structural   CdH8C11(SN4)2
_chemical_formula_sum   'Cd2 H16 C22 S4 N16'
_cell_volume   734.45446443
_cell_formula_units_Z   2
loop_
 _symmetry_equiv_pos_site_id
 _symmetry_equiv_pos_as_xyz
  1  'x, y, z'
loop_
 _atom_site_type_symbol
 _atom_site_label
 _atom_site_symmetry_multiplicity
 _atom_site_fract_x
 _atom_site_fract_y
 _atom_site_fract_z
 _atom_site_occupancy
  Cd  Cd0  1  0.26972000  0.25946000  0.13570000  1.0
  Cd  Cd1  1  0.73028000  0.74053000  0.86430000  1.0
  H  H2  1  0.72054000  0.41316000  0.54895000  1.0
  H  H3  1  0.27946000  0.58685000  0.45105000  1.0
  H  H4  1  0.82707000  0.25195000  0.15710000  1.0
  H  H5  1  0.17293000  0.74805000  0.84290000  1.0
  H  H6  1  0.57965000  0.19981000  0.72977000  1.0
  H  H7  1  0.42035000  0.80019000  0.27024000  1.0
  H  H8  1  0.32442000  0.99811000  0.75430000  1.0
  H  H9  1  0.67559000  0.00189000  0.24570000  1.0
  H  H10  1  0.10828000  0.91245000  0.57572000  1.0
  H  H11  1  0.89172000  0.08755000  0.42428000  1.0
  H  H12  1  0.14033000  0.02821000  0.36840000  1.0
  H  H13  1  0.85967000  0.97179000  0.63160000  1.0
  H  H14  1  0.61578000  0.46827000  0.19756000  1.0
  H  H15  1  0.38422000  0.53173000  0.80244000  1.0
  H  H16  1  0.68592000  0.60599000  0.32854000  1.0
  H  H17  1  0.31408000  0.39402000  0.67146000  1.0
  C  C18  1  0.90126000  0.33951000  0.22636000  1.0
  C  C19  1  0.09874000  0.66050000  0.77364000  1.0
  C  C20  1  0.49677000  0.23213000  0.53696000  1.0
  C  C21  1  0.50323000  0.76788000  0.46304000  1.0
  C  C22  1  0.48333000  0.16498000  0.65280000  1.0
  C  C23  1  0.51667000  0.83502000  0.34721000  1.0
  C  C24  1  0.34024000  0.05106000  0.66451000  1.0
  C  C25  1  0.65976000  0.94894000  0.33549000  1.0
  C  C26  1  0.21757000  0.00353000  0.56340000  1.0
  C  C27  1  0.78244000  0.99647000  0.43660000  1.0
  C  C28  1  0.23278000  0.06843000  0.44729000  1.0
  C  C29  1  0.76722000  0.93157000  0.55271000  1.0
  C  C30  1  0.37465000  0.18517000  0.43444000  1.0
  C  C31  1  0.62536000  0.81483000  0.56556000  1.0
  C  C32  1  0.57118000  0.36580000  0.37180000  1.0
  C  C33  1  0.42881000  0.63420000  0.62820000  1.0
  C  C34  1  0.67364000  0.48006000  0.29363000  1.0
  C  C35  1  0.32636000  0.51995000  0.70637000  1.0
  C  C36  1  0.58886000  0.35483000  0.94581000  1.0
  C  C37  1  0.41114000  0.64517000  0.05418000  1.0
  C  C38  1  0.95211000  0.12373000  0.89133000  1.0
  C  C39  1  0.04790000  0.87629000  0.10867000  1.0
  S  S40  1  0.52915000  0.18869000  0.01500000  1.0
  S  S41  1  0.47085000  0.81131000  0.98500000  1.0
  S  S42  1  0.05709000  0.30386000  0.93395000  1.0
  S  S43  1  0.94290000  0.69613000  0.06604000  1.0
  N  N44  1  0.42615000  0.27046000  0.33212000  1.0
  N  N45  1  0.57385000  0.72954000  0.66789000  1.0
  N  N46  1  0.61788000  0.34764000  0.49396000  1.0
  N  N47  1  0.38212000  0.65237000  0.50604000  1.0
  N  N48  1  0.84209000  0.45060000  0.29286000  1.0
  N  N49  1  0.15791000  0.54941000  0.70714000  1.0
  N  N50  1  0.06317000  0.36193000  0.25782000  1.0
  N  N51  1  0.93683000  0.63807000  0.74218000  1.0
  N  N52  1  0.10037000  0.48893000  0.34362000  1.0
  N  N53  1  0.89963000  0.51108000  0.65638000  1.0
  N  N54  1  0.63366000  0.47039000  0.89045000  1.0
  N  N55  1  0.36634000  0.52960000  0.10954000  1.0
  N  N56  1  0.87376000  0.99443000  0.85787000  1.0
  N  N57  1  0.12622000  0.00554000  0.14212000  1.0
  N  N58  1  0.96865000  0.54393000  0.36546000  1.0
  N  N59  1  0.03135000  0.45607000  0.63455000  1.0
