# generated using pymatgen
data_ZnH20C20(NO)4
_symmetry_space_group_name_H-M   'P 1'
_cell_length_a   7.30722000
_cell_length_b   12.07820000
_cell_length_c   22.97940000
_cell_angle_alpha   81.50000000
_cell_angle_beta   89.99990000
_cell_angle_gamma   89.99970000
_symmetry_Int_Tables_number   1
_chemical_formula_structural   ZnH20C20(NO)4
_chemical_formula_sum   'Zn4 H80 C80 N16 O16'
_cell_volume   2005.84025143
_cell_formula_units_Z   4
loop_
 _symmetry_equiv_pos_site_id
 _symmetry_equiv_pos_as_xyz
  1  'x, y, z'
loop_
 _atom_site_type_symbol
 _atom_site_label
 _atom_site_symmetry_multiplicity
 _atom_site_fract_x
 _atom_site_fract_y
 _atom_site_fract_z
 _atom_site_occupancy
  Zn  Zn0  1  0.98528000  0.79436000  0.32542000  1.0
  Zn  Zn1  1  0.48527000  0.70565000  0.17458000  1.0
  Zn  Zn2  1  0.01472000  0.20565000  0.67458000  1.0
  Zn  Zn3  1  0.51472000  0.29435000  0.82542000  1.0
  H  H4  1  0.27789000  0.91014000  0.53114000  1.0
  H  H5  1  0.77788000  0.58985000  0.96886000  1.0
  H  H6  1  0.72211000  0.08986000  0.46885000  1.0
  H  H7  1  0.22212000  0.41014000  0.03114000  1.0
  H  H8  1  0.77493000  0.91397000  0.63214000  1.0
  H  H9  1  0.27492000  0.58602000  0.86785000  1.0
  H  H10  1  0.22507000  0.08603000  0.36785000  1.0
  H  H11  1  0.72508000  0.41397000  0.13215000  1.0
  H  H12  1  0.91863000  0.78792000  0.57013000  1.0
  H  H13  1  0.41862000  0.71207000  0.92987000  1.0
  H  H14  1  0.08137000  0.21208000  0.42987000  1.0
  H  H15  1  0.58138000  0.28792000  0.07013000  1.0
  H  H16  1  0.74913000  0.72160000  0.48904000  1.0
  H  H17  1  0.24912000  0.77839000  0.01096000  1.0
  H  H18  1  0.25088000  0.27840000  0.51096000  1.0
  H  H19  1  0.75088000  0.22160000  0.98903000  1.0
  H  H20  1  0.36805000  0.67250000  0.33344000  1.0
  H  H21  1  0.86805000  0.82750000  0.16656000  1.0
  H  H22  1  0.63194000  0.32750000  0.66656000  1.0
  H  H23  1  0.13195000  0.17250000  0.83344000  1.0
  H  H24  1  0.12206000  0.86326000  0.45218000  1.0
  H  H25  1  0.62205000  0.63674000  0.04783000  1.0
  H  H26  1  0.87795000  0.13675000  0.54782000  1.0
  H  H27  1  0.37795000  0.36326000  0.95217000  1.0
  H  H28  1  0.40813000  0.14156000  0.72914000  1.0
  H  H29  1  0.90814000  0.35844000  0.77086000  1.0
  H  H30  1  0.59186000  0.85844000  0.27086000  1.0
  H  H31  1  0.09186000  0.64156000  0.22914000  1.0
  H  H32  1  0.14189000  0.03253000  0.58460000  1.0
  H  H33  1  0.64188000  0.46747000  0.91540000  1.0
  H  H34  1  0.85811000  0.96747000  0.41540000  1.0
  H  H35  1  0.35812000  0.53253000  0.08460000  1.0
  H  H36  1  0.00017000  0.99770000  0.15229000  1.0
  H  H37  1  0.50017000  0.50230000  0.34771000  1.0
  H  H38  1  0.99983000  0.00230000  0.84771000  1.0
  H  H39  1  0.49983000  0.49770000  0.65229000  1.0
  H  H40  1  0.99930000  0.19441000  0.13854000  1.0
  H  H41  1  0.49930000  0.30559000  0.36146000  1.0
  H  H42  1  0.00071000  0.80559000  0.86146000  1.0
  H  H43  1  0.50071000  0.69441000  0.63854000  1.0
  H  H44  1  0.91519000  0.15336000  0.21043000  1.0
  H  H45  1  0.41520000  0.34664000  0.28957000  1.0
  H  H46  1  0.08481000  0.84664000  0.78957000  1.0
  H  H47  1  0.58481000  0.65336000  0.71043000  1.0
  H  H48  1  0.21573000  0.19563000  0.25264000  1.0
  H  H49  1  0.71573000  0.30437000  0.24736000  1.0
  H  H50  1  0.78427000  0.80437000  0.74737000  1.0
  H  H51  1  0.28428000  0.69563000  0.75264000  1.0
  H  H52  1  0.13637000  0.31387000  0.20461000  1.0
  H  H53  1  0.63637000  0.18613000  0.29539000  1.0
  H  H54  1  0.86364000  0.68613000  0.79539000  1.0
  H  H55  1  0.36364000  0.81387000  0.70461000  1.0
  H  H56  1  0.33559000  0.26493000  0.12483000  1.0
  H  H57  1  0.83560000  0.23508000  0.37517000  1.0
  H  H58  1  0.66441000  0.73507000  0.87517000  1.0
  H  H59  1  0.16441000  0.76493000  0.62483000  1.0
  H  H60  1  0.46917000  0.27850000  0.18762000  1.0
  H  H61  1  0.96917000  0.22150000  0.31237000  1.0
  H  H62  1  0.53083000  0.72150000  0.81238000  1.0
  H  H63  1  0.03084000  0.77851000  0.68763000  1.0
  H  H64  1  0.46864000  0.06951000  0.21610000  1.0
  H  H65  1  0.96863000  0.43049000  0.28390000  1.0
  H  H66  1  0.53136000  0.93049000  0.78390000  1.0
  H  H67  1  0.03137000  0.56952000  0.71610000  1.0
  H  H68  1  0.55942000  0.10671000  0.14488000  1.0
  H  H69  1  0.05943000  0.39330000  0.35511000  1.0
  H  H70  1  0.44058000  0.89329000  0.85512000  1.0
  H  H71  1  0.94058000  0.60671000  0.64489000  1.0
  H  H72  1  0.25822000  0.07463000  0.10019000  1.0
  H  H73  1  0.75823000  0.42537000  0.39981000  1.0
  H  H74  1  0.74178000  0.92537000  0.89981000  1.0
  H  H75  1  0.24178000  0.57463000  0.60019000  1.0
  H  H76  1  0.59641000  0.68073000  0.41439000  1.0
  H  H77  1  0.09641000  0.81927000  0.08561000  1.0
  H  H78  1  0.40359000  0.31927000  0.58561000  1.0
  H  H79  1  0.90359000  0.18073000  0.91439000  1.0
  H  H80  1  0.63178000  0.01797000  0.68608000  1.0
  H  H81  1  0.13177000  0.48203000  0.81393000  1.0
  H  H82  1  0.36821000  0.98203000  0.31392000  1.0
  H  H83  1  0.86822000  0.51797000  0.18607000  1.0
  C  C84  1  0.49903000  0.81104000  0.50459000  1.0
  C  C85  1  0.99902000  0.68896000  0.99541000  1.0
  C  C86  1  0.50097000  0.18896000  0.49541000  1.0
  C  C87  1  0.00098000  0.31104000  0.00459000  1.0
  C  C88  1  0.41814000  0.88204000  0.54020000  1.0
  C  C89  1  0.91813000  0.61796000  0.95980000  1.0
  C  C90  1  0.58186000  0.11796000  0.45980000  1.0
  C  C91  1  0.08186000  0.38204000  0.04020000  1.0
  C  C92  1  0.51364000  0.92015000  0.58626000  1.0
  C  C93  1  0.01363000  0.57985000  0.91375000  1.0
  C  C94  1  0.48636000  0.07986000  0.41374000  1.0
  C  C95  1  0.98637000  0.42014000  0.08626000  1.0
  C  C96  1  0.69658000  0.88617000  0.59661000  1.0
  C  C97  1  0.19657000  0.61382000  0.90340000  1.0
  C  C98  1  0.30342000  0.11383000  0.40340000  1.0
  C  C99  1  0.80343000  0.38617000  0.09661000  1.0
  C  C100  1  0.77761000  0.81483000  0.56150000  1.0
  C  C101  1  0.27760000  0.68516000  0.93850000  1.0
  C  C102  1  0.22239000  0.18517000  0.43850000  1.0
  C  C103  1  0.72240000  0.31483000  0.06150000  1.0
  C  C104  1  0.68147000  0.77663000  0.51593000  1.0
  C  C105  1  0.18146000  0.72336000  0.98407000  1.0
  C  C106  1  0.31853000  0.22338000  0.48406000  1.0
  C  C107  1  0.81854000  0.27663000  0.01593000  1.0
  C  C108  1  0.34223000  0.71269000  0.37201000  1.0
  C  C109  1  0.84223000  0.78731000  0.12800000  1.0
  C  C110  1  0.65777000  0.28731000  0.62799000  1.0
  C  C111  1  0.15777000  0.21269000  0.87200000  1.0
  C  C112  1  0.22326000  0.81266000  0.43393000  1.0
  C  C113  1  0.72325000  0.68734000  0.06607000  1.0
  C  C114  1  0.77674000  0.18734000  0.56607000  1.0
  C  C115  1  0.27675000  0.31266000  0.93393000  1.0
  C  C116  1  0.39596000  0.78042000  0.45509000  1.0
  C  C117  1  0.89595000  0.71958000  0.04491000  1.0
  C  C118  1  0.60404000  0.21958000  0.54491000  1.0
  C  C119  1  0.10404000  0.28042000  0.95509000  1.0
  C  C120  1  0.37921000  0.10068000  0.69120000  1.0
  C  C121  1  0.87921000  0.39932000  0.80880000  1.0
  C  C122  1  0.62078000  0.89932000  0.30880000  1.0
  C  C123  1  0.12079000  0.60067000  0.19120000  1.0
  C  C124  1  0.24856000  0.04192000  0.61616000  1.0
  C  C125  1  0.74854000  0.45808000  0.88384000  1.0
  C  C126  1  0.75144000  0.95808000  0.38384000  1.0
  C  C127  1  0.25145000  0.54191000  0.11616000  1.0
  C  C128  1  0.42139000  0.99428000  0.62134000  1.0
  C  C129  1  0.92138000  0.50572000  0.87866000  1.0
  C  C130  1  0.57861000  0.00573000  0.37866000  1.0
  C  C131  1  0.07862000  0.49427000  0.12134000  1.0
  C  C132  1  0.10095000  0.03538000  0.17902000  1.0
  C  C133  1  0.60095000  0.46462000  0.32098000  1.0
  C  C134  1  0.89905000  0.96462000  0.82098000  1.0
  C  C135  1  0.39906000  0.53538000  0.67902000  1.0
  C  C136  1  0.03941000  0.15582000  0.18314000  1.0
  C  C137  1  0.53941000  0.34418000  0.31686000  1.0
  C  C138  1  0.96059000  0.84418000  0.81686000  1.0
  C  C139  1  0.46059000  0.65582000  0.68314000  1.0
  C  C140  1  0.18720000  0.22779000  0.20626000  1.0
  C  C141  1  0.68720000  0.27221000  0.29374000  1.0
  C  C142  1  0.81280000  0.77221000  0.79374000  1.0
  C  C143  1  0.31281000  0.72779000  0.70626000  1.0
  C  C144  1  0.36365000  0.22676000  0.17066000  1.0
  C  C145  1  0.86366000  0.27324000  0.32934000  1.0
  C  C146  1  0.63635000  0.77324000  0.82934000  1.0
  C  C147  1  0.13635000  0.72676000  0.67066000  1.0
  C  C148  1  0.43313000  0.10706000  0.17103000  1.0
  C  C149  1  0.93313000  0.39294000  0.32896000  1.0
  C  C150  1  0.56687000  0.89294000  0.82897000  1.0
  C  C151  1  0.06687000  0.60707000  0.67104000  1.0
  C  C152  1  0.28742000  0.03610000  0.14579000  1.0
  C  C153  1  0.78742000  0.46391000  0.35420000  1.0
  C  C154  1  0.71259000  0.96390000  0.85421000  1.0
  C  C155  1  0.21258000  0.53610000  0.64579000  1.0
  C  C156  1  0.10310000  0.96171000  0.23905000  1.0
  C  C157  1  0.60309000  0.53829000  0.26095000  1.0
  C  C158  1  0.89691000  0.03829000  0.76095000  1.0
  C  C159  1  0.39691000  0.46171000  0.73905000  1.0
  C  C160  1  0.34513000  0.91602000  0.14267000  1.0
  C  C161  1  0.84513000  0.58398000  0.35733000  1.0
  C  C162  1  0.65487000  0.08398000  0.85733000  1.0
  C  C163  1  0.15487000  0.41602000  0.64267000  1.0
  N  N164  1  0.46612000  0.71651000  0.41506000  1.0
  N  N165  1  0.96611000  0.78349000  0.08494000  1.0
  N  N166  1  0.53388000  0.28349000  0.58494000  1.0
  N  N167  1  0.03389000  0.21651000  0.91505000  1.0
  N  N168  1  0.19263000  0.77064000  0.38230000  1.0
  N  N169  1  0.69263000  0.72936000  0.11770000  1.0
  N  N170  1  0.80737000  0.22936000  0.61770000  1.0
  N  N171  1  0.30737000  0.27064000  0.88230000  1.0
  N  N172  1  0.49960000  0.03318000  0.66932000  1.0
  N  N173  1  0.99960000  0.46682000  0.83068000  1.0
  N  N174  1  0.50039000  0.96682000  0.33068000  1.0
  N  N175  1  0.00040000  0.53318000  0.16932000  1.0
  N  N176  1  0.22491000  0.10806000  0.65951000  1.0
  N  N177  1  0.72490000  0.39194000  0.84048000  1.0
  N  N178  1  0.77509000  0.89194000  0.34048000  1.0
  N  N179  1  0.27509000  0.60806000  0.15952000  1.0
  O  O180  1  0.03405000  0.86264000  0.24106000  1.0
  O  O181  1  0.53404000  0.63736000  0.25894000  1.0
  O  O182  1  0.96596000  0.13736000  0.75894000  1.0
  O  O183  1  0.46596000  0.36264000  0.74106000  1.0
  O  O184  1  0.16269000  0.99842000  0.28412000  1.0
  O  O185  1  0.66270000  0.50158000  0.21588000  1.0
  O  O186  1  0.83730000  0.00158000  0.71588000  1.0
  O  O187  1  0.33730000  0.49842000  0.78412000  1.0
  O  O188  1  0.43430000  0.86412000  0.18702000  1.0
  O  O189  1  0.93430000  0.63588000  0.31298000  1.0
  O  O190  1  0.56571000  0.13588000  0.81298000  1.0
  O  O191  1  0.06570000  0.36412000  0.68702000  1.0
  O  O192  1  0.30048000  0.87050000  0.09864000  1.0
  O  O193  1  0.80049000  0.62950000  0.40136000  1.0
  O  O194  1  0.69951000  0.12950000  0.90136000  1.0
  O  O195  1  0.19951000  0.37051000  0.59864000  1.0
