# generated using pymatgen
data_ZnH21C20NO7
_symmetry_space_group_name_H-M   'P 1'
_cell_length_a   9.94920000
_cell_length_b   10.90330000
_cell_length_c   17.34650000
_cell_angle_alpha   93.92670000
_cell_angle_beta   92.54080000
_cell_angle_gamma   90.17190000
_symmetry_Int_Tables_number   1
_chemical_formula_structural   ZnH21C20NO7
_chemical_formula_sum   'Zn2 H42 C40 N2 O14'
_cell_volume   1875.43553877
_cell_formula_units_Z   2
loop_
 _symmetry_equiv_pos_site_id
 _symmetry_equiv_pos_as_xyz
  1  'x, y, z'
loop_
 _atom_site_type_symbol
 _atom_site_label
 _atom_site_symmetry_multiplicity
 _atom_site_fract_x
 _atom_site_fract_y
 _atom_site_fract_z
 _atom_site_occupancy
  Zn  Zn0  1  0.35973000  0.50229000  0.50228000  1.0
  Zn  Zn1  1  0.65371000  0.50684000  0.50502000  1.0
  H  H2  1  0.65037000  0.69405000  0.29528000  1.0
  H  H3  1  0.35537000  0.63059000  0.73723000  1.0
  H  H4  1  0.69889000  0.39762000  0.75691000  1.0
  H  H5  1  0.29507000  0.47594000  0.23973000  1.0
  H  H6  1  0.54039000  0.46268000  0.01215000  1.0
  H  H7  1  0.48681000  0.74017000  0.01478000  1.0
  H  H8  1  0.30755000  0.52160000  0.10046000  1.0
  H  H9  1  0.69055000  0.42076000  0.90110000  1.0
  H  H10  1  0.73161000  0.12026000  0.52672000  1.0
  H  H11  1  0.30440000  0.88922000  0.46528000  1.0
  H  H12  1  0.72100000  0.89103000  0.53964000  1.0
  H  H13  1  0.31071000  0.11945000  0.46147000  1.0
  H  H14  1  0.17897000  0.65387000  0.80960000  1.0
  H  H15  1  0.27150000  0.79395000  0.80890000  1.0
  H  H16  1  0.18091000  0.86499000  0.93788000  1.0
  H  H17  1  0.04796000  0.83009000  0.86756000  1.0
  H  H18  1  0.08900000  0.72460000  0.93886000  1.0
  H  H19  1  0.82565000  0.62593000  0.13855000  1.0
  H  H20  1  0.83715000  0.71831000  0.22769000  1.0
  H  H21  1  0.90126000  0.90151000  0.15749000  1.0
  H  H22  1  0.01397000  0.77763000  0.13790000  1.0
  H  H23  1  0.88586000  0.81193000  0.06755000  1.0
  H  H24  1  0.99710000  0.62753000  0.69629000  1.0
  H  H25  1  0.84484000  0.53664000  0.69051000  1.0
  H  H26  1  0.81967000  0.71477000  0.78596000  1.0
  H  H27  1  0.86024000  0.81932000  0.71537000  1.0
  H  H28  1  0.70921000  0.72987000  0.70373000  1.0
  H  H29  1  0.12923000  0.39489000  0.30427000  1.0
  H  H30  1  0.03538000  0.25723000  0.31681000  1.0
  H  H31  1  0.25123000  0.14016000  0.32911000  1.0
  H  H32  1  0.24230000  0.21384000  0.24075000  1.0
  H  H33  1  0.34447000  0.27846000  0.32079000  1.0
  H  H34  1  0.03035000  0.80253000  0.58581000  1.0
  H  H35  1  0.17439000  0.78919000  0.52661000  1.0
  H  H36  1  0.32550000  0.82327000  0.64707000  1.0
  H  H37  1  0.22123000  0.95164000  0.63019000  1.0
  H  H38  1  0.17976000  0.85143000  0.70251000  1.0
  H  H39  1  0.91106000  0.45505000  0.28582000  1.0
  H  H40  1  0.76867000  0.51387000  0.33708000  1.0
  H  H41  1  0.64211000  0.31945000  0.30045000  1.0
  H  H42  1  0.68954000  0.39280000  0.21703000  1.0
  H  H43  1  0.77947000  0.26128000  0.24647000  1.0
  C  C44  1  0.52243000  0.26952000  0.49164000  1.0
  C  C45  1  0.50492000  0.74153000  0.51170000  1.0
  C  C46  1  0.63805000  0.06876000  0.51479000  1.0
  C  C47  1  0.39646000  0.94120000  0.48065000  1.0
  C  C48  1  0.63254000  0.94224000  0.52139000  1.0
  C  C49  1  0.40040000  0.06799000  0.47710000  1.0
  C  C50  1  0.51153000  0.87761000  0.50454000  1.0
  C  C51  1  0.52137000  0.13253000  0.49397000  1.0
  C  C52  1  0.93912000  0.57241000  0.54860000  1.0
  C  C53  1  0.07662000  0.41732000  0.45131000  1.0
  C  C54  1  0.08110000  0.57131000  0.55109000  1.0
  C  C55  1  0.93526000  0.43177000  0.44139000  1.0
  C  C56  1  0.47503000  0.54226000  0.35674000  1.0
  C  C57  1  0.52497000  0.50092000  0.65262000  1.0
  C  C58  1  0.47365000  0.58007000  0.27529000  1.0
  C  C59  1  0.52783000  0.51509000  0.73935000  1.0
  C  C60  1  0.57528000  0.65701000  0.25215000  1.0
  C  C61  1  0.43014000  0.58905000  0.77482000  1.0
  C  C62  1  0.58035000  0.68477000  0.17497000  1.0
  C  C63  1  0.42918000  0.60679000  0.85531000  1.0
  C  C64  1  0.48565000  0.63329000  0.11896000  1.0
  C  C65  1  0.52425000  0.54545000  0.90226000  1.0
  C  C66  1  0.38205000  0.55958000  0.14373000  1.0
  C  C67  1  0.61905000  0.46977000  0.86496000  1.0
  C  C68  1  0.37482000  0.53402000  0.22093000  1.0
  C  C69  1  0.62399000  0.45607000  0.78473000  1.0
  C  C70  1  0.49722000  0.64839000  0.03574000  1.0
  C  C71  1  0.52004000  0.55033000  0.98668000  1.0
  C  C72  1  0.22896000  0.72818000  0.84694000  1.0
  C  C73  1  0.13123000  0.79057000  0.90126000  1.0
  C  C74  1  0.81536000  0.72044000  0.16488000  1.0
  C  C75  1  0.90947000  0.80834000  0.12981000  1.0
  C  C76  1  0.88865000  0.62665000  0.68099000  1.0
  C  C77  1  0.81526000  0.72933000  0.72383000  1.0
  C  C78  1  0.13131000  0.30558000  0.33024000  1.0
  C  C79  1  0.24991000  0.22989000  0.30408000  1.0
  C  C80  1  0.13781000  0.77941000  0.58464000  1.0
  C  C81  1  0.22105000  0.85532000  0.64509000  1.0
  C  C82  1  0.82129000  0.43040000  0.31671000  1.0
  C  C83  1  0.72791000  0.34528000  0.26727000  1.0
  N  N84  1  0.14649000  0.49178000  0.50405000  1.0
  N  N85  1  0.86937000  0.50599000  0.49210000  1.0
  O  O86  1  0.41005000  0.32211000  0.50181000  1.0
  O  O87  1  0.61345000  0.68893000  0.53226000  1.0
  O  O88  1  0.63370000  0.32197000  0.48016000  1.0
  O  O89  1  0.39102000  0.68921000  0.49667000  1.0
  O  O90  1  0.36653000  0.50077000  0.38146000  1.0
  O  O91  1  0.63443000  0.47174000  0.62045000  1.0
  O  O92  1  0.58754000  0.55287000  0.39488000  1.0
  O  O93  1  0.41255000  0.52133000  0.61830000  1.0
  O  O94  1  0.33582000  0.67759000  0.89295000  1.0
  O  O95  1  0.67895000  0.76015000  0.14993000  1.0
  O  O96  1  0.86839000  0.64390000  0.59808000  1.0
  O  O97  1  0.14868000  0.33039000  0.41394000  1.0
  O  O98  1  0.15474000  0.64914000  0.59995000  1.0
  O  O99  1  0.86688000  0.36507000  0.38431000  1.0
