# generated using pymatgen
data_ZnH17C20NO5
_symmetry_space_group_name_H-M   'P 1'
_cell_length_a   13.90480000
_cell_length_b   14.73540000
_cell_length_c   16.14280000
_cell_angle_alpha   90.12090000
_cell_angle_beta   90.33630000
_cell_angle_gamma   81.87100000
_symmetry_Int_Tables_number   1
_chemical_formula_structural   ZnH17C20NO5
_chemical_formula_sum   'Zn2 H34 C40 N2 O10'
_cell_volume   3274.25070282
_cell_formula_units_Z   2
loop_
 _symmetry_equiv_pos_site_id
 _symmetry_equiv_pos_as_xyz
  1  'x, y, z'
loop_
 _atom_site_type_symbol
 _atom_site_label
 _atom_site_symmetry_multiplicity
 _atom_site_fract_x
 _atom_site_fract_y
 _atom_site_fract_z
 _atom_site_occupancy
  Zn  Zn0  1  0.49912000  0.40436000  0.49962000  1.0
  Zn  Zn1  1  0.50087000  0.59565000  0.50039000  1.0
  H  H2  1  0.03310000  0.39580000  0.49362000  1.0
  H  H3  1  0.43800000  0.77273000  0.00082000  1.0
  H  H4  1  0.56704000  0.75451000  0.00090000  1.0
  H  H5  1  0.50262000  0.81904000  0.92042000  1.0
  H  H6  1  0.56420000  0.66363000  0.86704000  1.0
  H  H7  1  0.43785000  0.68147000  0.86682000  1.0
  H  H8  1  0.76138000  0.90534000  0.44678000  1.0
  H  H9  1  0.68705000  0.81656000  0.43432000  1.0
  H  H10  1  0.78064000  0.72334000  0.54439000  1.0
  H  H11  1  0.86049000  0.75233000  0.46581000  1.0
  H  H12  1  0.85349000  0.81245000  0.56190000  1.0
  H  H13  1  0.96689000  0.60419000  0.50639000  1.0
  H  H14  1  0.31293000  0.18346000  0.56568000  1.0
  H  H15  1  0.23862000  0.09468000  0.55324000  1.0
  H  H16  1  0.14650000  0.18755000  0.43810000  1.0
  H  H17  1  0.13950000  0.24768000  0.53418000  1.0
  H  H18  1  0.21935000  0.27666000  0.45561000  1.0
  H  H19  1  0.59639000  0.16191000  0.65926000  1.0
  H  H20  1  0.65486000  0.05028000  0.68616000  1.0
  H  H21  1  0.72475000  0.14071000  0.66842000  1.0
  H  H22  1  0.73631000  0.03684000  0.54599000  1.0
  H  H23  1  0.67514000  0.14658000  0.51870000  1.0
  H  H24  1  0.49888000  0.35586000  0.92094000  1.0
  H  H25  1  0.34513000  0.94972000  0.31384000  1.0
  H  H26  1  0.40360000  0.83810000  0.34075000  1.0
  H  H27  1  0.27525000  0.85929000  0.33159000  1.0
  H  H28  1  0.32485000  0.85342000  0.48131000  1.0
  H  H29  1  0.26368000  0.96318000  0.45401000  1.0
  H  H30  1  0.50117000  0.64411000  0.07906000  1.0
  H  H31  1  0.43309000  0.24542000  0.99910000  1.0
  H  H32  1  0.56214000  0.22726000  0.99920000  1.0
  H  H33  1  0.49751000  0.18092000  0.07958000  1.0
  H  H34  1  0.56219000  0.31853000  0.13321000  1.0
  H  H35  1  0.43585000  0.33632000  0.13294000  1.0
  C  C36  1  0.49980000  0.49980000  0.66086000  1.0
  C  C37  1  0.58806000  0.94549000  0.52215000  1.0
  C  C38  1  0.48867000  0.19006000  0.50211000  1.0
  C  C39  1  0.51132000  0.80994000  0.49789000  1.0
  C  C40  1  0.68956000  0.46300000  0.50087000  1.0
  C  C41  1  0.31044000  0.53702000  0.49914000  1.0
  C  C42  1  0.20549000  0.54663000  0.49973000  1.0
  C  C43  1  0.79451000  0.45337000  0.50028000  1.0
  C  C44  1  0.01796000  0.54075000  0.50199000  1.0
  C  C45  1  0.98204000  0.45925000  0.49802000  1.0
  C  C46  1  0.88217000  0.45407000  0.49923000  1.0
  C  C47  1  0.50019000  0.50022000  0.33915000  1.0
  C  C48  1  0.11782000  0.54593000  0.50077000  1.0
  C  C49  1  0.49942000  0.41498000  0.04322000  1.0
  C  C50  1  0.50062000  0.58499000  0.95678000  1.0
  C  C51  1  0.50006000  0.49892000  0.08659000  1.0
  C  C52  1  0.49997000  0.50106000  0.91341000  1.0
  C  C53  1  0.50063000  0.58167000  0.04288000  1.0
  C  C54  1  0.49940000  0.41831000  0.95712000  1.0
  C  C55  1  0.50013000  0.50031000  0.17423000  1.0
  C  C56  1  0.49990000  0.49966000  0.82577000  1.0
  C  C57  1  0.49886000  0.32714000  0.09104000  1.0
  C  C58  1  0.49994000  0.49976000  0.75023000  1.0
  C  C59  1  0.49787000  0.24069000  0.03910000  1.0
  C  C60  1  0.50121000  0.67283000  0.90896000  1.0
  C  C61  1  0.50226000  0.75928000  0.96091000  1.0
  C  C62  1  0.73182000  0.84929000  0.47879000  1.0
  C  C63  1  0.81111000  0.78025000  0.51548000  1.0
  C  C64  1  0.26818000  0.15072000  0.52121000  1.0
  C  C65  1  0.18888000  0.21976000  0.48452000  1.0
  C  C66  1  0.66946000  0.08490000  0.55562000  1.0
  C  C67  1  0.66059000  0.11087000  0.64793000  1.0
  C  C68  1  0.33053000  0.91511000  0.44438000  1.0
  C  C69  1  0.50007000  0.50024000  0.24976000  1.0
  C  C70  1  0.33941000  0.88914000  0.35208000  1.0
  C  C71  1  0.58432000  0.04085000  0.52580000  1.0
  C  C72  1  0.41568000  0.95915000  0.47420000  1.0
  C  C73  1  0.49499000  0.09329000  0.50296000  1.0
  C  C74  1  0.50500000  0.90671000  0.49704000  1.0
  C  C75  1  0.41193000  0.05452000  0.47786000  1.0
  N  N76  1  0.51433000  0.73085000  0.49897000  1.0
  N  N77  1  0.48566000  0.26916000  0.50103000  1.0
  O  O78  1  0.50098000  0.42220000  0.62547000  1.0
  O  O79  1  0.32985000  0.11065000  0.45363000  1.0
  O  O80  1  0.49902000  0.57781000  0.37453000  1.0
  O  O81  1  0.49846000  0.57749000  0.62590000  1.0
  O  O82  1  0.50152000  0.42252000  0.37411000  1.0
  O  O83  1  0.64969000  0.39039000  0.50080000  1.0
  O  O84  1  0.35030000  0.60961000  0.49920000  1.0
  O  O85  1  0.64742000  0.54568000  0.50129000  1.0
  O  O86  1  0.35258000  0.45432000  0.49873000  1.0
  O  O87  1  0.67014000  0.88936000  0.54638000  1.0
