# generated using pymatgen
data_Cu2H4C6N2O7
_symmetry_space_group_name_H-M   'P 1'
_cell_length_a   5.92235000
_cell_length_b   9.11763000
_cell_length_c   9.78280000
_cell_angle_alpha   114.39000000
_cell_angle_beta   89.99910000
_cell_angle_gamma   89.91270000
_symmetry_Int_Tables_number   1
_chemical_formula_structural   Cu2H4C6N2O7
_chemical_formula_sum   'Cu4 H8 C12 N4 O14'
_cell_volume   481.10571564
_cell_formula_units_Z   2
loop_
 _symmetry_equiv_pos_site_id
 _symmetry_equiv_pos_as_xyz
  1  'x, y, z'
loop_
 _atom_site_type_symbol
 _atom_site_label
 _atom_site_symmetry_multiplicity
 _atom_site_fract_x
 _atom_site_fract_y
 _atom_site_fract_z
 _atom_site_occupancy
  Cu  Cu0  1  0.31393000  0.17821000  0.63299000  1.0
  Cu  Cu1  1  0.81690000  0.82362000  0.36784000  1.0
  Cu  Cu2  1  0.11586000  0.51920000  0.75507000  1.0
  Cu  Cu3  1  0.61445000  0.47799000  0.24193000  1.0
  H  H4  1  0.15454000  0.68366000  0.00292000  1.0
  H  H5  1  0.65187000  0.31596000  0.99516000  1.0
  H  H6  1  0.89352000  0.71510000  0.96475000  1.0
  H  H7  1  0.39158000  0.28385000  0.03339000  1.0
  H  H8  1  0.04936000  0.30757000  0.85587000  1.0
  H  H9  1  0.55562000  0.69363000  0.14421000  1.0
  H  H10  1  0.05617000  0.96182000  0.15407000  1.0
  H  H11  1  0.55771000  0.03662000  0.84615000  1.0
  C  C12  1  0.41194000  0.37140000  0.45421000  1.0
  C  C13  1  0.91191000  0.63050000  0.54691000  1.0
  C  C14  1  0.58369000  0.24730000  0.36721000  1.0
  C  C15  1  0.08414000  0.75361000  0.63392000  1.0
  C  C16  1  0.87201000  0.17925000  0.18924000  1.0
  C  C17  1  0.37233000  0.82024000  0.81151000  1.0
  C  C18  1  0.91694000  0.04072000  0.21275000  1.0
  C  C19  1  0.41825000  0.95837000  0.78748000  1.0
  C  C20  1  0.62745000  0.10533000  0.39063000  1.0
  C  C21  1  0.12905000  0.89500000  0.61020000  1.0
  C  C22  1  0.01572000  0.21164000  0.07756000  1.0
  C  C23  1  0.51567000  0.78850000  0.92375000  1.0
  N  N24  1  0.79245000  0.00246000  0.30591000  1.0
  N  N25  1  0.29459000  0.99696000  0.69427000  1.0
  N  N26  1  0.70241000  0.27791000  0.26500000  1.0
  N  N27  1  0.20245000  0.72253000  0.73601000  1.0
  O  O28  1  0.32068000  0.36006000  0.57092000  1.0
  O  O29  1  0.81985000  0.64239000  0.43056000  1.0
  O  O30  1  0.36398000  0.48103000  0.41423000  1.0
  O  O31  1  0.86397000  0.52032000  0.58611000  1.0
  O  O32  1  0.92313000  0.27501000  0.99772000  1.0
  O  O33  1  0.42308000  0.72746000  0.00543000  1.0
  O  O34  1  0.22023000  0.16901000  0.07187000  1.0
  O  O35  1  0.72028000  0.82992000  0.92832000  1.0
  O  O36  1  0.52906000  0.05999000  0.48345000  1.0
  O  O37  1  0.03081000  0.94056000  0.51730000  1.0
  O  O38  1  0.00395000  0.63074000  0.96626000  1.0
  O  O39  1  0.50050000  0.36822000  0.03054000  1.0
  O  O40  1  0.09605000  0.31552000  0.76118000  1.0
  O  O41  1  0.61121000  0.68081000  0.23518000  1.0
