# generated using pymatgen
data_Zr3H2(C3O4)4
_symmetry_space_group_name_H-M   'P 1'
_cell_length_a   13.07536420
_cell_length_b   13.07550000
_cell_length_c   13.07601123
_cell_angle_alpha   90.01526442
_cell_angle_beta   119.99032418
_cell_angle_gamma   119.98903048
_symmetry_Int_Tables_number   1
_chemical_formula_structural   Zr3H2(C3O4)4
_chemical_formula_sum   'Zr6 H4 C24 O32'
_cell_volume   1581.06613327
_cell_formula_units_Z   2
loop_
 _symmetry_equiv_pos_site_id
 _symmetry_equiv_pos_as_xyz
  1  'x, y, z'
loop_
 _atom_site_type_symbol
 _atom_site_label
 _atom_site_symmetry_multiplicity
 _atom_site_fract_x
 _atom_site_fract_y
 _atom_site_fract_z
 _atom_site_occupancy
  Zr  Zr0  1  0.00227000  0.86351000  0.86317000  1.0
  Zr  Zr1  1  0.00230000  0.86352000  0.13423000  1.0
  Zr  Zr2  1  0.00226000  0.13462000  0.86315000  1.0
  Zr  Zr3  1  0.27334000  0.13461000  0.13424000  1.0
  Zr  Zr4  1  0.73121000  0.86357000  0.86318000  1.0
  Zr  Zr5  1  0.00225000  0.13462000  0.13427000  1.0
  H  H6  1  0.21566000  0.89243000  0.10539000  1.0
  H  H7  1  0.78895000  0.89239000  0.67865000  1.0
  H  H8  1  0.21571000  0.31921000  0.10545000  1.0
  H  H9  1  0.78888000  0.89239000  0.10547000  1.0
  C  C10  1  0.01185000  0.00372000  0.66048000  1.0
  C  C11  1  0.99301000  0.65145000  0.99404000  1.0
  C  C12  1  0.34506000  0.00357000  0.99396000  1.0
  C  C13  1  0.65938000  0.65139000  0.66049000  1.0
  C  C14  1  0.01186000  0.00376000  0.34640000  1.0
  C  C15  1  0.99276000  0.33727000  0.99407000  1.0
  C  C16  1  0.34524000  0.00367000  0.34637000  1.0
  C  C17  1  0.65931000  0.65127000  0.99384000  1.0
  C  C18  1  0.65933000  0.00381000  0.66048000  1.0
  C  C19  1  0.34504000  0.33721000  0.99367000  1.0
  C  C20  1  0.34530000  0.33726000  0.34645000  1.0
  C  C21  1  0.65926000  0.00383000  0.99394000  1.0
  C  C22  1  0.98967000  0.53917000  0.99235000  1.0
  C  C23  1  0.98955000  0.44628000  0.99241000  1.0
  C  C24  1  0.01515000  0.00535000  0.55152000  1.0
  C  C25  1  0.01516000  0.00538000  0.45869000  1.0
  C  C26  1  0.45570000  0.00527000  0.99234000  1.0
  C  C27  1  0.54858000  0.00539000  0.99232000  1.0
  C  C28  1  0.54874000  0.53909000  0.55152000  1.0
  C  C29  1  0.45591000  0.44623000  0.45871000  1.0
  C  C30  1  0.54860000  0.53893000  0.99208000  1.0
  C  C31  1  0.45567000  0.44609000  0.99195000  1.0
  C  C32  1  0.45586000  0.00539000  0.45866000  1.0
  C  C33  1  0.54871000  0.00546000  0.55153000  1.0
  O  O34  1  0.00935000  0.08975000  0.70274000  1.0
  O  O35  1  0.99554000  0.69621000  0.08257000  1.0
  O  O36  1  0.21434000  0.91505000  0.90796000  1.0
  O  O37  1  0.79015000  0.69609000  0.70275000  1.0
  O  O38  1  0.61564000  0.69623000  0.70269000  1.0
  O  O39  1  0.38880000  0.08964000  0.08242000  1.0
  O  O40  1  0.99547000  0.69617000  0.90802000  1.0
  O  O41  1  0.00931000  0.91519000  0.70272000  1.0
  O  O42  1  0.89020000  0.83096000  0.94268000  1.0
  O  O43  1  0.11432000  0.05511000  0.94268000  1.0
  O  O44  1  0.15508000  0.92271000  0.07511000  1.0
  O  O45  1  0.84951000  0.92270000  0.76951000  1.0
  O  O46  1  0.00939000  0.91525000  0.30166000  1.0
  O  O47  1  0.99518000  0.29495000  0.90801000  1.0
  O  O48  1  0.38895000  0.08971000  0.30164000  1.0
  O  O49  1  0.61561000  0.69606000  0.90789000  1.0
  O  O50  1  0.61558000  0.91530000  0.70271000  1.0
  O  O51  1  0.38879000  0.29495000  0.08215000  1.0
  O  O52  1  0.21456000  0.29505000  0.30171000  1.0
  O  O53  1  0.79000000  0.08988000  0.08243000  1.0
  O  O54  1  0.38904000  0.29499000  0.30170000  1.0
  O  O55  1  0.61552000  0.91534000  0.90791000  1.0
  O  O56  1  0.21450000  0.91507000  0.30156000  1.0
  O  O57  1  0.21427000  0.29507000  0.90778000  1.0
  O  O58  1  0.79008000  0.08983000  0.70272000  1.0
  O  O59  1  0.79004000  0.69600000  0.08238000  1.0
  O  O60  1  0.00933000  0.08974000  0.30169000  1.0
  O  O61  1  0.99526000  0.29506000  0.08259000  1.0
  O  O62  1  0.89023000  0.05515000  0.94272000  1.0
  O  O63  1  0.11437000  0.05513000  0.16686000  1.0
  O  O64  1  0.15510000  0.22834000  0.07516000  1.0
  O  O65  1  0.84944000  0.92269000  0.07516000  1.0
