# generated using pymatgen
data_ZnH6C11NO5
_symmetry_space_group_name_H-M   'P 1'
_cell_length_a   9.75904000
_cell_length_b   11.05000000
_cell_length_c   11.90390000
_cell_angle_alpha   90.18750000
_cell_angle_beta   91.84160000
_cell_angle_gamma   91.11480000
_symmetry_Int_Tables_number   1
_chemical_formula_structural   ZnH6C11NO5
_chemical_formula_sum   'Zn2 H12 C22 N2 O10'
_cell_volume   1282.76988681
_cell_formula_units_Z   2
loop_
 _symmetry_equiv_pos_site_id
 _symmetry_equiv_pos_as_xyz
  1  'x, y, z'
loop_
 _atom_site_type_symbol
 _atom_site_label
 _atom_site_symmetry_multiplicity
 _atom_site_fract_x
 _atom_site_fract_y
 _atom_site_fract_z
 _atom_site_occupancy
  Zn  Zn0  1  0.63712000  0.50571000  0.50611000  1.0
  Zn  Zn1  1  0.34898000  0.50054000  0.49669000  1.0
  H  H2  1  0.27330000  0.11074000  0.47042000  1.0
  H  H3  1  0.86650000  0.29469000  0.68292000  1.0
  H  H4  1  0.13971000  0.42521000  0.75473000  1.0
  H  H5  1  0.12346000  0.28719000  0.67575000  1.0
  H  H6  1  0.27364000  0.88620000  0.47404000  1.0
  H  H7  1  0.81587000  0.92381000  0.44743000  1.0
  H  H8  1  0.77742000  0.09316000  0.64618000  1.0
  H  H9  1  0.11595000  0.59593000  0.34756000  1.0
  H  H10  1  0.85801000  0.59970000  0.35245000  1.0
  H  H11  1  0.87914000  0.43302000  0.76174000  1.0
  H  H12  1  0.76682000  0.78898000  0.61110000  1.0
  H  H13  1  0.78299000  0.22344000  0.46767000  1.0
  C  C14  1  0.49240000  0.26751000  0.49983000  1.0
  C  C15  1  0.49098000  0.13304000  0.50241000  1.0
  C  C16  1  0.36937000  0.06367000  0.48482000  1.0
  C  C17  1  0.36971000  0.93722000  0.48609000  1.0
  C  C18  1  0.49197000  0.87256000  0.50178000  1.0
  C  C19  1  0.61174000  0.94239000  0.51562000  1.0
  C  C20  1  0.76681000  0.93764000  0.52883000  1.0
  C  C21  1  0.76124000  0.07910000  0.55456000  1.0
  C  C22  1  0.06789000  0.44917000  0.57875000  1.0
  C  C23  1  0.06124000  0.55415000  0.41628000  1.0
  C  C24  1  0.91864000  0.55685000  0.41919000  1.0
  C  C25  1  0.49729000  0.49908000  0.72079000  1.0
  C  C26  1  0.92516000  0.45270000  0.58229000  1.0
  C  C27  1  0.91961000  0.38279000  0.69087000  1.0
  C  C28  1  0.08229000  0.37808000  0.68641000  1.0
  C  C29  1  0.49281000  0.73803000  0.50385000  1.0
  C  C30  1  0.49203000  0.50841000  0.28227000  1.0
  C  C31  1  0.49817000  0.50010000  0.84216000  1.0
  C  C32  1  0.49812000  0.50277000  0.94498000  1.0
  C  C33  1  0.49728000  0.50569000  0.05833000  1.0
  C  C34  1  0.49575000  0.50817000  0.16107000  1.0
  C  C35  1  0.61016000  0.06791000  0.52157000  1.0
  N  N36  1  0.13920000  0.49939000  0.49738000  1.0
  N  N37  1  0.84735000  0.50563000  0.50393000  1.0
  O  O38  1  0.60851000  0.32036000  0.48453000  1.0
  O  O39  1  0.37942000  0.32029000  0.51262000  1.0
  O  O40  1  0.61163000  0.47949000  0.67575000  1.0
  O  O41  1  0.38268000  0.51797000  0.67071000  1.0
  O  O42  1  0.60726000  0.68857000  0.53029000  1.0
  O  O43  1  0.38085000  0.68170000  0.47982000  1.0
  O  O44  1  0.60548000  0.53055000  0.33538000  1.0
  O  O45  1  0.37613000  0.48603000  0.32425000  1.0
  O  O46  1  0.82359000  0.86324000  0.61417000  1.0
  O  O47  1  0.84503000  0.15911000  0.49239000  1.0
