# generated using pymatgen
data_MnH8C6(NO3)2
_symmetry_space_group_name_H-M   'P 1'
_cell_length_a   7.49420000
_cell_length_b   10.87190000
_cell_length_c   12.06480000
_cell_angle_alpha   104.56400000
_cell_angle_beta   89.99960000
_cell_angle_gamma   89.99920000
_symmetry_Int_Tables_number   1
_chemical_formula_structural   MnH8C6(NO3)2
_chemical_formula_sum   'Mn4 H32 C24 N8 O24'
_cell_volume   951.40778077
_cell_formula_units_Z   4
loop_
 _symmetry_equiv_pos_site_id
 _symmetry_equiv_pos_as_xyz
  1  'x, y, z'
loop_
 _atom_site_type_symbol
 _atom_site_label
 _atom_site_symmetry_multiplicity
 _atom_site_fract_x
 _atom_site_fract_y
 _atom_site_fract_z
 _atom_site_occupancy
  Mn  Mn0  1  0.99713000  0.56833000  0.81391000  1.0
  Mn  Mn1  1  0.49712000  0.93167000  0.68610000  1.0
  Mn  Mn2  1  0.00287000  0.43166000  0.18610000  1.0
  Mn  Mn3  1  0.50288000  0.06832000  0.31390000  1.0
  H  H4  1  0.79932000  0.46453000  0.95317000  1.0
  H  H5  1  0.29932000  0.03547000  0.54682000  1.0
  H  H6  1  0.20069000  0.53547000  0.04683000  1.0
  H  H7  1  0.70069000  0.96453000  0.45318000  1.0
  H  H8  1  0.66172000  0.48835000  0.85965000  1.0
  H  H9  1  0.16170000  0.01166000  0.64035000  1.0
  H  H10  1  0.33829000  0.51165000  0.14035000  1.0
  H  H11  1  0.83830000  0.98834000  0.35965000  1.0
  H  H12  1  0.00889000  0.30609000  0.80753000  1.0
  H  H13  1  0.50887000  0.19391000  0.69247000  1.0
  H  H14  1  0.99113000  0.69391000  0.19247000  1.0
  H  H15  1  0.49114000  0.80609000  0.30753000  1.0
  H  H16  1  0.18568000  0.33888000  0.73789000  1.0
  H  H17  1  0.68565000  0.16113000  0.76211000  1.0
  H  H18  1  0.81435000  0.66113000  0.26211000  1.0
  H  H19  1  0.31436000  0.83887000  0.23789000  1.0
  H  H20  1  0.21369000  0.01359000  0.10675000  1.0
  H  H21  1  0.71369000  0.48641000  0.39325000  1.0
  H  H22  1  0.78630000  0.98642000  0.89324000  1.0
  H  H23  1  0.28631000  0.51358000  0.60675000  1.0
  H  H24  1  0.42079000  0.18503000  0.89649000  1.0
  H  H25  1  0.92080000  0.31496000  0.60351000  1.0
  H  H26  1  0.57920000  0.81497000  0.10350000  1.0
  H  H27  1  0.07918000  0.68504000  0.39650000  1.0
  H  H28  1  0.39485000  0.20794000  0.04777000  1.0
  H  H29  1  0.89487000  0.29206000  0.45223000  1.0
  H  H30  1  0.60515000  0.79207000  0.95222000  1.0
  H  H31  1  0.10513000  0.70794000  0.54778000  1.0
  H  H32  1  0.20785000  0.21728000  0.96285000  1.0
  H  H33  1  0.70786000  0.28270000  0.53716000  1.0
  H  H34  1  0.79214000  0.78272000  0.03714000  1.0
  H  H35  1  0.29213000  0.71729000  0.46285000  1.0
  C  C36  1  0.30640000  0.02851000  0.94376000  1.0
  C  C37  1  0.80640000  0.47148000  0.55624000  1.0
  C  C38  1  0.69359000  0.97149000  0.05623000  1.0
  C  C39  1  0.19359000  0.52851000  0.44376000  1.0
  C  C40  1  0.33459000  0.16723000  0.96399000  1.0
  C  C41  1  0.83460000  0.33277000  0.53601000  1.0
  C  C42  1  0.66540000  0.83278000  0.03599000  1.0
  C  C43  1  0.16539000  0.66722000  0.46400000  1.0
  C  C44  1  0.22565000  0.84068000  0.97055000  1.0
  C  C45  1  0.72566000  0.65932000  0.52945000  1.0
  C  C46  1  0.77435000  0.15933000  0.02945000  1.0
  C  C47  1  0.27436000  0.34068000  0.47055000  1.0
  C  C48  1  0.29012000  0.82506000  0.85914000  1.0
  C  C49  1  0.79013000  0.67494000  0.64086000  1.0
  C  C50  1  0.70987000  0.17495000  0.14085000  1.0
  C  C51  1  0.20988000  0.32506000  0.35915000  1.0
  C  C52  1  0.15886000  0.75178000  0.03499000  1.0
  C  C53  1  0.65887000  0.74822000  0.46502000  1.0
  C  C54  1  0.84114000  0.24822000  0.96501000  1.0
  C  C55  1  0.34115000  0.25179000  0.53499000  1.0
  C  C56  1  0.31743000  0.71626000  0.75792000  1.0
  C  C57  1  0.81743000  0.78373000  0.74208000  1.0
  C  C58  1  0.68257000  0.28375000  0.24208000  1.0
  C  C59  1  0.18256000  0.21626000  0.25792000  1.0
  N  N60  1  0.34085000  0.94246000  0.84524000  1.0
  N  N61  1  0.84086000  0.55753000  0.65476000  1.0
  N  N62  1  0.65914000  0.05754000  0.15475000  1.0
  N  N63  1  0.15913000  0.44246000  0.34525000  1.0
  N  N64  1  0.23855000  0.96920000  0.02090000  1.0
  N  N65  1  0.73855000  0.53080000  0.47911000  1.0
  N  N66  1  0.76144000  0.03081000  0.97910000  1.0
  N  N67  1  0.26144000  0.46920000  0.52089000  1.0
  O  O68  1  0.13546000  0.79218000  0.14280000  1.0
  O  O69  1  0.63546000  0.70783000  0.35720000  1.0
  O  O70  1  0.86454000  0.20783000  0.85719000  1.0
  O  O71  1  0.36456000  0.29218000  0.64280000  1.0
  O  O72  1  0.12813000  0.63644000  0.97950000  1.0
  O  O73  1  0.62814000  0.86356000  0.52051000  1.0
  O  O74  1  0.87187000  0.36356000  0.02050000  1.0
  O  O75  1  0.37188000  0.13644000  0.47950000  1.0
  O  O76  1  0.40648000  0.74023000  0.67619000  1.0
  O  O77  1  0.90649000  0.75976000  0.82381000  1.0
  O  O78  1  0.59351000  0.25976000  0.32381000  1.0
  O  O79  1  0.09351000  0.24022000  0.17620000  1.0
  O  O80  1  0.25330000  0.60557000  0.75191000  1.0
  O  O81  1  0.75329000  0.89443000  0.74810000  1.0
  O  O82  1  0.74669000  0.39443000  0.24810000  1.0
  O  O83  1  0.24670000  0.10556000  0.25191000  1.0
  O  O84  1  0.76192000  0.52625000  0.90740000  1.0
  O  O85  1  0.26191000  0.97375000  0.59260000  1.0
  O  O86  1  0.23808000  0.47375000  0.09260000  1.0
  O  O87  1  0.73808000  0.02625000  0.40740000  1.0
  O  O88  1  0.07910000  0.37344000  0.78393000  1.0
  O  O89  1  0.57907000  0.12656000  0.71608000  1.0
  O  O90  1  0.92092000  0.62656000  0.21607000  1.0
  O  O91  1  0.42093000  0.87344000  0.28392000  1.0
