# generated using pymatgen
data_Zn4H40C53O16
_symmetry_space_group_name_H-M   'P 1'
_cell_length_a   15.04080000
_cell_length_b   15.08320000
_cell_length_c   17.82870000
_cell_angle_alpha   98.20010000
_cell_angle_beta   99.27450000
_cell_angle_gamma   90.01080000
_symmetry_Int_Tables_number   1
_chemical_formula_structural   Zn4H40C53O16
_chemical_formula_sum   'Zn4 H40 C53 O16'
_cell_volume   3949.88108929
_cell_formula_units_Z   1
loop_
 _symmetry_equiv_pos_site_id
 _symmetry_equiv_pos_as_xyz
  1  'x, y, z'
loop_
 _atom_site_type_symbol
 _atom_site_label
 _atom_site_symmetry_multiplicity
 _atom_site_fract_x
 _atom_site_fract_y
 _atom_site_fract_z
 _atom_site_occupancy
  Zn  Zn0  1  0.55836000  0.55409000  0.42504000  1.0
  Zn  Zn1  1  0.44671000  0.59449000  0.56400000  1.0
  Zn  Zn2  1  0.58707000  0.43528000  0.56366000  1.0
  Zn  Zn3  1  0.40557000  0.41807000  0.44229000  1.0
  H  H4  1  0.37036000  0.29052000  0.93756000  1.0
  H  H5  1  0.32836000  0.01121000  0.53980000  1.0
  H  H6  1  0.50473000  0.45051000  0.80059000  1.0
  H  H7  1  0.34177000  0.17503000  0.53499000  1.0
  H  H8  1  0.61452000  0.14382000  0.49176000  1.0
  H  H9  1  0.64888000  0.69230000  0.78964000  1.0
  H  H10  1  0.65677000  0.68776000  0.05808000  1.0
  H  H11  1  0.33858000  0.25982000  0.06278000  1.0
  H  H12  1  0.52120000  0.52636000  0.19606000  1.0
  H  H13  1  0.44479000  0.38020000  0.86118000  1.0
  H  H14  1  0.58607000  0.59606000  0.13549000  1.0
  H  H15  1  0.67968000  0.72401000  0.93264000  1.0
  H  H16  1  0.97020000  0.70478000  0.62042000  1.0
  H  H17  1  0.08273000  0.71961000  0.67164000  1.0
  H  H18  1  0.91452000  0.69019000  0.74335000  1.0
  H  H19  1  0.02585000  0.70549000  0.79397000  1.0
  H  H20  1  0.03376000  0.86037000  0.75432000  1.0
  H  H21  1  0.94340000  0.85084000  0.80576000  1.0
  H  H22  1  0.92154000  0.84489000  0.70434000  1.0
  H  H23  1  0.62457000  0.01937000  0.34782000  1.0
  H  H24  1  0.68963000  0.92049000  0.34998000  1.0
  H  H25  1  0.76647000  0.11333000  0.38876000  1.0
  H  H26  1  0.12903000  0.44521000  0.40913000  1.0
  H  H27  1  0.83079000  0.01527000  0.38914000  1.0
  H  H28  1  0.77343000  0.97118000  0.24644000  1.0
  H  H29  1  0.82914000  0.07762000  0.26528000  1.0
  H  H30  1  0.70967000  0.07023000  0.24649000  1.0
  H  H31  1  0.46918000  0.24965000  0.27378000  1.0
  H  H32  1  0.42999000  0.17173000  0.18939000  1.0
  H  H33  1  0.34589000  0.20445000  0.33669000  1.0
  H  H34  1  0.29714000  0.13367000  0.25201000  1.0
  H  H35  1  0.43392000  0.03702000  0.26059000  1.0
  H  H36  1  0.39047000  0.04652000  0.34836000  1.0
  H  H37  1  0.19209000  0.58656000  0.63929000  1.0
  H  H38  1  0.48705000  0.11036000  0.34248000  1.0
  H  H39  1  0.96864000  0.41197000  0.34994000  1.0
  H  H40  1  0.80528000  0.42133000  0.35994000  1.0
  H  H41  1  0.87164000  0.53697000  0.59786000  1.0
  H  H42  1  0.39431000  0.85928000  0.52539000  1.0
  H  H43  1  0.65368000  0.82560000  0.45363000  1.0
  C  C44  1  0.26652000  0.51450000  0.51550000  1.0
  C  C45  1  0.57540000  0.57754000  0.07334000  1.0
  C  C46  1  0.61522000  0.62919000  0.03025000  1.0
  C  C47  1  0.73207000  0.48302000  0.48596000  1.0
  C  C48  1  0.60287000  0.60882000  0.94871000  1.0
  C  C49  1  0.55067000  0.53077000  0.91195000  1.0
  C  C50  1  0.63951000  0.66506000  0.90355000  1.0
  C  C51  1  0.62351000  0.64731000  0.82445000  1.0
  C  C52  1  0.54108000  0.51078000  0.83114000  1.0
  C  C53  1  0.16933000  0.51442000  0.52312000  1.0
  C  C54  1  0.82972000  0.47908000  0.48012000  1.0
  C  C55  1  0.38972000  0.33787000  0.17019000  1.0
  C  C56  1  0.94697000  0.44076000  0.40358000  1.0
  C  C57  1  0.85683000  0.44495000  0.40910000  1.0
  C  C58  1  0.89294000  0.51159000  0.54341000  1.0
  C  C59  1  0.51322000  0.73494000  0.48847000  1.0
  C  C60  1  0.98540000  0.51391000  0.53745000  1.0
  C  C61  1  0.01367000  0.47559000  0.46693000  1.0
  C  C62  1  0.10641000  0.47530000  0.46187000  1.0
  C  C63  1  0.14181000  0.55513000  0.59209000  1.0
  C  C64  1  0.05196000  0.55435000  0.59922000  1.0
  C  C65  1  0.52297000  0.83373000  0.49072000  1.0
  C  C66  1  0.48257000  0.46790000  0.16462000  1.0
  C  C67  1  0.47985000  0.16864000  0.51417000  1.0
  C  C68  1  0.39026000  0.04037000  0.52811000  1.0
  C  C69  1  0.39775000  0.13093000  0.52634000  1.0
  C  C70  1  0.55167000  0.11453000  0.50098000  1.0
  C  C71  1  0.48701000  0.26662000  0.51137000  1.0
  C  C72  1  0.54299000  0.02060000  0.49662000  1.0
  C  C73  1  0.46189000  0.98250000  0.51284000  1.0
  C  C74  1  0.45458000  0.88884000  0.51131000  1.0
  C  C75  1  0.60145000  0.87026000  0.47102000  1.0
  C  C76  1  0.61163000  0.96166000  0.47458000  1.0
  C  C77  1  0.47553000  0.44783000  0.08428000  1.0
  C  C78  1  0.55525000  0.54807000  0.70259000  1.0
  C  C79  1  0.45330000  0.44520000  0.29307000  1.0
  C  C80  1  0.44147000  0.41563000  0.20843000  1.0
  C  C81  1  0.57480000  0.56848000  0.78810000  1.0
  C  C82  1  0.37944000  0.31860000  0.09107000  1.0
  C  C83  1  0.01597000  0.68893000  0.67158000  1.0
  C  C84  1  0.97972000  0.72397000  0.74443000  1.0
  C  C85  1  0.96904000  0.82554000  0.75262000  1.0
  C  C86  1  0.68794000  0.99181000  0.37483000  1.0
  C  C87  1  0.76881000  0.04349000  0.36103000  1.0
  C  C88  1  0.42125000  0.37140000  0.04685000  1.0
  C  C89  1  0.77031000  0.04043000  0.27513000  1.0
  C  C90  1  0.40861000  0.21532000  0.23836000  1.0
  C  C91  1  0.36162000  0.16057000  0.28596000  1.0
  C  C92  1  0.42136000  0.08433000  0.31054000  1.0
  C  C93  1  0.52005000  0.50094000  0.03884000  1.0
  C  C94  1  0.50855000  0.47659000  0.95788000  1.0
  C  C95  1  0.45384000  0.39954000  0.92319000  1.0
  C  C96  1  0.41183000  0.34903000  0.96558000  1.0
  O  O97  1  0.50066000  0.50101000  0.49928000  1.0
  O  O98  1  0.52177000  0.61130000  0.66709000  1.0
  O  O99  1  0.41903000  0.39583000  0.33405000  1.0
  O  O100  1  0.57205000  0.46923000  0.67209000  1.0
  O  O101  1  0.49756000  0.51886000  0.31888000  1.0
  O  O102  1  0.02398000  0.59274000  0.66625000  1.0
  O  O103  1  0.68814000  0.99870000  0.45669000  1.0
  O  O104  1  0.34815000  0.28098000  0.20828000  1.0
  O  O105  1  0.56657000  0.68543000  0.45263000  1.0
  O  O106  1  0.41449000  0.30398000  0.48519000  1.0
  O  O107  1  0.32085000  0.56272000  0.56838000  1.0
  O  O108  1  0.70937000  0.46787000  0.54914000  1.0
  O  O109  1  0.28791000  0.46646000  0.45634000  1.0
  O  O110  1  0.67931000  0.50190000  0.42698000  1.0
  O  O111  1  0.45208000  0.70767000  0.52243000  1.0
  O  O112  1  0.56434000  0.30505000  0.53414000  1.0
