# generated using pymatgen
data_ZnH8(C4N3)4
_symmetry_space_group_name_H-M   'P 1'
_cell_length_a   8.06292000
_cell_length_b   8.78708000
_cell_length_c   23.06680000
_cell_angle_alpha   90.00000000
_cell_angle_beta   90.00000000
_cell_angle_gamma   89.99970000
_symmetry_Int_Tables_number   1
_chemical_formula_structural   ZnH8(C4N3)4
_chemical_formula_sum   'Zn4 H32 C64 N48'
_cell_volume   1634.27177881
_cell_formula_units_Z   4
loop_
 _symmetry_equiv_pos_site_id
 _symmetry_equiv_pos_as_xyz
  1  'x, y, z'
loop_
 _atom_site_type_symbol
 _atom_site_label
 _atom_site_symmetry_multiplicity
 _atom_site_fract_x
 _atom_site_fract_y
 _atom_site_fract_z
 _atom_site_occupancy
  Zn  Zn0  1  0.33919000  0.00241000  0.95961000  1.0
  Zn  Zn1  1  0.16081000  0.99759000  0.45961000  1.0
  Zn  Zn2  1  0.66082000  0.50241000  0.54039000  1.0
  Zn  Zn3  1  0.83919000  0.49759000  0.04039000  1.0
  H  H4  1  0.23520000  0.92724000  0.73895000  1.0
  H  H5  1  0.26479000  0.07276000  0.23895000  1.0
  H  H6  1  0.76480000  0.42724000  0.76105000  1.0
  H  H7  1  0.73520000  0.57277000  0.26105000  1.0
  H  H8  1  0.36539000  0.16763000  0.70734000  1.0
  H  H9  1  0.13460000  0.83237000  0.20734000  1.0
  H  H10  1  0.63460000  0.66763000  0.79266000  1.0
  H  H11  1  0.86539000  0.33238000  0.29266000  1.0
  H  H12  1  0.48725000  0.34218000  0.78303000  1.0
  H  H13  1  0.01275000  0.65782000  0.28302000  1.0
  H  H14  1  0.51275000  0.84218000  0.71698000  1.0
  H  H15  1  0.98724000  0.15783000  0.21698000  1.0
  H  H16  1  0.49726000  0.25140000  0.88581000  1.0
  H  H17  1  0.00275000  0.74860000  0.38581000  1.0
  H  H18  1  0.50275000  0.75140000  0.61419000  1.0
  H  H19  1  0.99725000  0.24860000  0.11419000  1.0
  H  H20  1  0.97273000  0.83039000  0.74628000  1.0
  H  H21  1  0.52727000  0.16961000  0.24628000  1.0
  H  H22  1  0.02727000  0.33039000  0.75372000  1.0
  H  H23  1  0.47272000  0.66961000  0.25372000  1.0
  H  H24  1  0.95158000  0.76373000  0.64285000  1.0
  H  H25  1  0.54843000  0.23626000  0.14285000  1.0
  H  H26  1  0.04842000  0.26373000  0.85715000  1.0
  H  H27  1  0.45157000  0.73628000  0.35715000  1.0
  H  H28  1  0.12840000  0.54806000  0.60365000  1.0
  H  H29  1  0.37162000  0.45193000  0.10365000  1.0
  H  H30  1  0.87160000  0.04806000  0.89635000  1.0
  H  H31  1  0.62839000  0.95194000  0.39635000  1.0
  H  H32  1  0.30962000  0.40677000  0.67305000  1.0
  H  H33  1  0.19039000  0.59323000  0.17305000  1.0
  H  H34  1  0.69037000  0.90677000  0.82695000  1.0
  H  H35  1  0.80962000  0.09322000  0.32695000  1.0
  C  C36  1  0.12635000  0.75549000  0.00623000  1.0
  C  C37  1  0.37365000  0.24451000  0.50623000  1.0
  C  C38  1  0.87365000  0.25549000  0.49377000  1.0
  C  C39  1  0.62635000  0.74451000  0.99377000  1.0
  C  C40  1  0.11605000  0.42921000  0.94981000  1.0
  C  C41  1  0.38395000  0.57079000  0.44981000  1.0
  C  C42  1  0.88396000  0.92921000  0.55019000  1.0
  C  C43  1  0.61605000  0.07079000  0.05019000  1.0
  C  C44  1  0.13590000  0.71842000  0.94482000  1.0
  C  C45  1  0.36410000  0.28158000  0.44482000  1.0
  C  C46  1  0.86410000  0.21842000  0.55518000  1.0
  C  C47  1  0.63591000  0.78158000  0.05518000  1.0
  C  C48  1  0.12005000  0.57453000  0.91849000  1.0
  C  C49  1  0.37995000  0.42547000  0.41849000  1.0
  C  C50  1  0.87995000  0.07452000  0.58151000  1.0
  C  C51  1  0.62005000  0.92548000  0.08151000  1.0
  C  C52  1  0.16521000  0.68475000  0.82784000  1.0
  C  C53  1  0.33479000  0.31525000  0.32784000  1.0
  C  C54  1  0.83479000  0.18475000  0.67216000  1.0
  C  C55  1  0.66520000  0.81525000  0.17216000  1.0
  C  C56  1  0.21001000  0.82487000  0.85493000  1.0
  C  C57  1  0.28999000  0.17514000  0.35492000  1.0
  C  C58  1  0.78999000  0.32487000  0.64508000  1.0
  C  C59  1  0.71001000  0.67513000  0.14508000  1.0
  C  C60  1  0.29316000  0.96122000  0.82962000  1.0
  C  C61  1  0.20684000  0.03878000  0.32962000  1.0
  C  C62  1  0.70684000  0.46122000  0.67038000  1.0
  C  C63  1  0.79316000  0.53878000  0.17038000  1.0
  C  C64  1  0.29403000  0.00003000  0.77084000  1.0
  C  C65  1  0.20597000  0.99997000  0.27083000  1.0
  C  C66  1  0.70598000  0.50003000  0.72917000  1.0
  C  C67  1  0.79402000  0.49997000  0.22917000  1.0
  C  C68  1  0.36574000  0.13684000  0.75317000  1.0
  C  C69  1  0.13425000  0.86315000  0.25317000  1.0
  C  C70  1  0.63425000  0.63685000  0.74683000  1.0
  C  C71  1  0.86573000  0.36316000  0.24683000  1.0
  C  C72  1  0.43622000  0.23184000  0.79450000  1.0
  C  C73  1  0.06379000  0.76817000  0.29449000  1.0
  C  C74  1  0.56379000  0.73183000  0.70551000  1.0
  C  C75  1  0.93621000  0.26817000  0.20550000  1.0
  C  C76  1  0.43879000  0.18338000  0.85202000  1.0
  C  C77  1  0.06121000  0.81661000  0.35202000  1.0
  C  C78  1  0.56121000  0.68339000  0.64798000  1.0
  C  C79  1  0.93878000  0.31662000  0.14799000  1.0
  C  C80  1  0.15483000  0.65440000  0.76431000  1.0
  C  C81  1  0.34517000  0.34560000  0.26431000  1.0
  C  C82  1  0.84516000  0.15440000  0.73569000  1.0
  C  C83  1  0.65483000  0.84560000  0.23569000  1.0
  C  C84  1  0.04850000  0.73865000  0.72880000  1.0
  C  C85  1  0.45151000  0.26134000  0.22880000  1.0
  C  C86  1  0.95150000  0.23865000  0.77120000  1.0
  C  C87  1  0.54848000  0.76135000  0.27120000  1.0
  C  C88  1  0.03678000  0.70065000  0.67035000  1.0
  C  C89  1  0.46323000  0.29934000  0.17035000  1.0
  C  C90  1  0.96322000  0.20064000  0.82965000  1.0
  C  C91  1  0.53677000  0.79935000  0.32965000  1.0
  C  C92  1  0.13249000  0.58089000  0.64921000  1.0
  C  C93  1  0.36753000  0.41910000  0.14921000  1.0
  C  C94  1  0.86751000  0.08089000  0.85079000  1.0
  C  C95  1  0.63248000  0.91911000  0.35079000  1.0
  C  C96  1  0.23328000  0.50162000  0.68815000  1.0
  C  C97  1  0.26673000  0.49837000  0.18815000  1.0
  C  C98  1  0.76672000  0.00162000  0.81185000  1.0
  C  C99  1  0.73327000  0.99837000  0.31185000  1.0
  N  N100  1  0.21740000  0.87215000  0.02726000  1.0
  N  N101  1  0.28260000  0.12785000  0.52726000  1.0
  N  N102  1  0.78260000  0.37215000  0.47274000  1.0
  N  N103  1  0.71740000  0.62785000  0.97274000  1.0
  N  N104  1  0.18384000  0.87917000  0.08419000  1.0
  N  N105  1  0.31615000  0.12084000  0.58419000  1.0
  N  N106  1  0.81616000  0.37916000  0.41581000  1.0
  N  N107  1  0.68384000  0.62084000  0.91581000  1.0
  N  N108  1  0.07562000  0.77118000  0.09714000  1.0
  N  N109  1  0.42438000  0.22883000  0.59714000  1.0
  N  N110  1  0.92438000  0.27117000  0.40286000  1.0
  N  N111  1  0.57562000  0.72883000  0.90286000  1.0
  N  N112  1  0.03747000  0.69130000  0.04880000  1.0
  N  N113  1  0.46254000  0.30869000  0.54880000  1.0
  N  N114  1  0.96254000  0.19130000  0.45120000  1.0
  N  N115  1  0.53747000  0.80870000  0.95120000  1.0
  N  N116  1  0.02978000  0.38734000  0.99758000  1.0
  N  N117  1  0.47022000  0.61266000  0.49759000  1.0
  N  N118  1  0.97023000  0.88734000  0.50242000  1.0
  N  N119  1  0.52978000  0.11266000  0.00242000  1.0
  N  N120  1  0.07217000  0.24279000  0.00903000  1.0
  N  N121  1  0.42783000  0.75721000  0.50903000  1.0
  N  N122  1  0.92783000  0.74279000  0.49097000  1.0
  N  N123  1  0.57217000  0.25721000  0.99097000  1.0
  N  N124  1  0.18084000  0.20107000  0.96908000  1.0
  N  N125  1  0.31917000  0.79893000  0.46908000  1.0
  N  N126  1  0.81917000  0.70107000  0.53092000  1.0
  N  N127  1  0.68084000  0.29893000  0.03092000  1.0
  N  N128  1  0.21046000  0.31354000  0.93161000  1.0
  N  N129  1  0.28954000  0.68646000  0.43161000  1.0
  N  N130  1  0.78954000  0.81354000  0.56839000  1.0
  N  N131  1  0.71046000  0.18646000  0.06839000  1.0
  N  N132  1  0.18643000  0.83575000  0.91220000  1.0
  N  N133  1  0.31357000  0.16425000  0.41220000  1.0
  N  N134  1  0.81357000  0.33575000  0.58780000  1.0
  N  N135  1  0.68644000  0.66425000  0.08780000  1.0
  N  N136  1  0.13009000  0.56358000  0.86062000  1.0
  N  N137  1  0.36991000  0.43642000  0.36062000  1.0
  N  N138  1  0.86992000  0.06357000  0.63938000  1.0
  N  N139  1  0.63008000  0.93642000  0.13938000  1.0
  N  N140  1  0.36852000  0.05264000  0.86912000  1.0
  N  N141  1  0.13149000  0.94737000  0.36912000  1.0
  N  N142  1  0.63149000  0.55264000  0.63088000  1.0
  N  N143  1  0.86852000  0.44736000  0.13088000  1.0
  N  N144  1  0.24385000  0.53538000  0.74471000  1.0
  N  N145  1  0.25616000  0.46462000  0.24471000  1.0
  N  N146  1  0.75615000  0.03538000  0.75529000  1.0
  N  N147  1  0.74385000  0.96462000  0.25529000  1.0
