# generated using pymatgen
data_ZnH11C11N3O5
_symmetry_space_group_name_H-M   'P 1'
_cell_length_a   7.33068000
_cell_length_b   10.19060000
_cell_length_c   16.81660000
_cell_angle_alpha   89.99920000
_cell_angle_beta   79.10000000
_cell_angle_gamma   89.99860000
_symmetry_Int_Tables_number   1
_chemical_formula_structural   ZnH11C11N3O5
_chemical_formula_sum   'Zn4 H44 C44 N12 O20'
_cell_volume   1233.60306283
_cell_formula_units_Z   4
loop_
 _symmetry_equiv_pos_site_id
 _symmetry_equiv_pos_as_xyz
  1  'x, y, z'
loop_
 _atom_site_type_symbol
 _atom_site_label
 _atom_site_symmetry_multiplicity
 _atom_site_fract_x
 _atom_site_fract_y
 _atom_site_fract_z
 _atom_site_occupancy
  Zn  Zn0  1  0.62629000  0.20649000  0.40415000  1.0
  Zn  Zn1  1  0.37372000  0.70648000  0.09585000  1.0
  Zn  Zn2  1  0.37373000  0.79352000  0.59585000  1.0
  Zn  Zn3  1  0.62627000  0.29352000  0.90415000  1.0
  H  H4  1  0.28200000  0.35166000  0.51810000  1.0
  H  H5  1  0.71798000  0.85163000  0.98191000  1.0
  H  H6  1  0.71801000  0.64836000  0.48189000  1.0
  H  H7  1  0.28203000  0.14838000  0.01809000  1.0
  H  H8  1  0.64930000  0.46105000  0.67391000  1.0
  H  H9  1  0.35068000  0.96108000  0.82610000  1.0
  H  H10  1  0.35068000  0.53893000  0.32610000  1.0
  H  H11  1  0.64931000  0.03894000  0.17390000  1.0
  H  H12  1  0.16017000  0.37611000  0.17104000  1.0
  H  H13  1  0.83982000  0.87610000  0.32896000  1.0
  H  H14  1  0.83983000  0.62390000  0.82896000  1.0
  H  H15  1  0.16020000  0.12391000  0.67103000  1.0
  H  H16  1  0.49483000  0.43276000  0.14364000  1.0
  H  H17  1  0.50514000  0.93275000  0.35636000  1.0
  H  H18  1  0.50515000  0.56727000  0.85636000  1.0
  H  H19  1  0.49485000  0.06724000  0.64363000  1.0
  H  H20  1  0.69644000  0.35202000  0.24013000  1.0
  H  H21  1  0.30353000  0.85200000  0.25986000  1.0
  H  H22  1  0.30355000  0.64801000  0.75987000  1.0
  H  H23  1  0.69644000  0.14799000  0.74013000  1.0
  H  H24  1  0.31238000  0.47113000  0.64723000  1.0
  H  H25  1  0.68759000  0.97113000  0.85278000  1.0
  H  H26  1  0.68761000  0.52887000  0.35277000  1.0
  H  H27  1  0.31240000  0.02890000  0.14722000  1.0
  H  H28  1  0.96526000  0.34194000  0.47817000  1.0
  H  H29  1  0.03471000  0.84197000  0.02184000  1.0
  H  H30  1  0.03474000  0.65803000  0.52185000  1.0
  H  H31  1  0.96529000  0.15803000  0.97815000  1.0
  H  H32  1  0.91491000  0.20639000  0.54499000  1.0
  H  H33  1  0.08506000  0.70642000  0.95503000  1.0
  H  H34  1  0.08506000  0.79359000  0.45503000  1.0
  H  H35  1  0.91495000  0.29359000  0.04497000  1.0
  H  H36  1  0.96910000  0.36029000  0.58469000  1.0
  H  H37  1  0.03087000  0.86033000  0.91532000  1.0
  H  H38  1  0.03089000  0.63968000  0.41533000  1.0
  H  H39  1  0.96914000  0.13967000  0.08467000  1.0
  H  H40  1  0.70490000  0.98974000  0.48233000  1.0
  H  H41  1  0.29510000  0.48974000  0.01766000  1.0
  H  H42  1  0.29512000  0.01026000  0.51766000  1.0
  H  H43  1  0.70489000  0.51026000  0.98234000  1.0
  H  H44  1  0.88469000  0.04213000  0.41864000  1.0
  H  H45  1  0.11531000  0.54212000  0.08136000  1.0
  H  H46  1  0.11533000  0.95787000  0.58135000  1.0
  H  H47  1  0.88468000  0.45787000  0.91864000  1.0
  C  C48  1  0.40904000  0.36240000  0.54149000  1.0
  C  C49  1  0.59094000  0.86240000  0.95853000  1.0
  C  C50  1  0.59097000  0.63760000  0.45851000  1.0
  C  C51  1  0.40905000  0.13761000  0.04148000  1.0
  C  C52  1  0.60299000  0.42090000  0.62151000  1.0
  C  C53  1  0.39698000  0.92091000  0.87851000  1.0
  C  C54  1  0.39699000  0.57909000  0.37850000  1.0
  C  C55  1  0.60301000  0.07910000  0.12149000  1.0
  C  C56  1  0.97673000  0.21751000  0.28867000  1.0
  C  C57  1  0.02325000  0.71749000  0.21135000  1.0
  C  C58  1  0.02328000  0.78249000  0.71133000  1.0
  C  C59  1  0.97674000  0.28250000  0.78866000  1.0
  C  C60  1  0.17969000  0.25490000  0.27476000  1.0
  C  C61  1  0.82031000  0.75489000  0.22523000  1.0
  C  C62  1  0.82031000  0.74511000  0.72523000  1.0
  C  C63  1  0.17970000  0.24510000  0.77476000  1.0
  C  C64  1  0.25046000  0.33822000  0.21010000  1.0
  C  C65  1  0.74954000  0.83820000  0.28990000  1.0
  C  C66  1  0.74954000  0.66180000  0.78989000  1.0
  C  C67  1  0.25048000  0.16179000  0.71010000  1.0
  C  C68  1  0.43744000  0.37211000  0.19551000  1.0
  C  C69  1  0.56255000  0.87209000  0.30449000  1.0
  C  C70  1  0.56255000  0.62791000  0.80449000  1.0
  C  C71  1  0.43746000  0.12790000  0.69550000  1.0
  C  C72  1  0.54931000  0.32765000  0.24826000  1.0
  C  C73  1  0.45067000  0.82763000  0.25173000  1.0
  C  C74  1  0.45068000  0.67237000  0.75173000  1.0
  C  C75  1  0.54932000  0.17236000  0.74826000  1.0
  C  C76  1  0.30199000  0.21158000  0.32393000  1.0
  C  C77  1  0.69802000  0.71157000  0.17607000  1.0
  C  C78  1  0.69802000  0.78842000  0.67606000  1.0
  C  C79  1  0.30200000  0.28842000  0.82392000  1.0
  C  C80  1  0.24852000  0.11250000  0.39101000  1.0
  C  C81  1  0.75147000  0.61248000  0.10900000  1.0
  C  C82  1  0.75150000  0.88751000  0.60899000  1.0
  C  C83  1  0.24852000  0.38750000  0.89101000  1.0
  C  C84  1  0.69958000  0.35120000  0.55682000  1.0
  C  C85  1  0.30039000  0.85123000  0.94321000  1.0
  C  C86  1  0.30041000  0.64878000  0.44320000  1.0
  C  C87  1  0.69961000  0.14878000  0.05680000  1.0
  C  C88  1  0.89921000  0.31334000  0.53997000  1.0
  C  C89  1  0.10076000  0.81337000  0.96005000  1.0
  C  C90  1  0.10078000  0.68663000  0.46005000  1.0
  C  C91  1  0.89924000  0.18663000  0.03995000  1.0
  N  N92  1  0.57561000  0.31601000  0.50723000  1.0
  N  N93  1  0.42437000  0.81600000  0.99278000  1.0
  N  N94  1  0.42441000  0.68400000  0.49277000  1.0
  N  N95  1  0.57563000  0.18399000  0.00722000  1.0
  N  N96  1  0.48108000  0.25152000  0.31204000  1.0
  N  N97  1  0.51892000  0.75150000  0.18795000  1.0
  N  N98  1  0.51892000  0.74849000  0.68796000  1.0
  N  N99  1  0.48109000  0.24848000  0.81204000  1.0
  N  N100  1  0.42119000  0.42697000  0.61039000  1.0
  N  N101  1  0.57880000  0.92697000  0.88962000  1.0
  N  N102  1  0.57880000  0.57303000  0.38961000  1.0
  N  N103  1  0.42120000  0.07305000  0.11039000  1.0
  O  O104  1  0.87508000  0.28225000  0.34709000  1.0
  O  O105  1  0.12490000  0.78222000  0.15293000  1.0
  O  O106  1  0.12493000  0.71775000  0.65291000  1.0
  O  O107  1  0.87510000  0.21775000  0.84708000  1.0
  O  O108  1  0.92466000  0.13616000  0.24238000  1.0
  O  O109  1  0.07533000  0.63614000  0.25763000  1.0
  O  O110  1  0.07534000  0.86384000  0.75763000  1.0
  O  O111  1  0.92466000  0.36385000  0.74236000  1.0
  O  O112  1  0.10931000  0.04111000  0.39187000  1.0
  O  O113  1  0.89069000  0.54108000  0.10813000  1.0
  O  O114  1  0.89071000  0.95890000  0.60813000  1.0
  O  O115  1  0.10932000  0.45890000  0.89187000  1.0
  O  O116  1  0.36048000  0.10420000  0.44122000  1.0
  O  O117  1  0.63955000  0.60418000  0.05879000  1.0
  O  O118  1  0.63955000  0.89580000  0.55878000  1.0
  O  O119  1  0.36048000  0.39580000  0.94121000  1.0
  O  O120  1  0.74647000  0.03821000  0.42975000  1.0
  O  O121  1  0.25352000  0.53820000  0.07024000  1.0
  O  O122  1  0.25354000  0.96180000  0.57024000  1.0
  O  O123  1  0.74647000  0.46180000  0.92975000  1.0
