# generated using pymatgen
data_CdH8C8(ClO3)2
_symmetry_space_group_name_H-M   'P 1'
_cell_length_a   4.92784000
_cell_length_b   7.48155000
_cell_length_c   8.42958000
_cell_angle_alpha   99.48370000
_cell_angle_beta   100.31900000
_cell_angle_gamma   99.77880000
_symmetry_Int_Tables_number   1
_chemical_formula_structural   CdH8C8(ClO3)2
_chemical_formula_sum   'Cd1 H8 C8 Cl2 O6'
_cell_volume   295.14221469
_cell_formula_units_Z   1
loop_
 _symmetry_equiv_pos_site_id
 _symmetry_equiv_pos_as_xyz
  1  'x, y, z'
loop_
 _atom_site_type_symbol
 _atom_site_label
 _atom_site_symmetry_multiplicity
 _atom_site_fract_x
 _atom_site_fract_y
 _atom_site_fract_z
 _atom_site_occupancy
  Cd  Cd0  1  0.00000000  0.50000000  0.00000000  1.0
  H  H1  1  0.77363000  0.02506000  0.10850000  1.0
  H  H2  1  0.22637000  0.97494000  0.89150000  1.0
  H  H3  1  0.97656000  0.90257000  0.23210000  1.0
  H  H4  1  0.02344000  0.09743000  0.76790000  1.0
  H  H5  1  0.60152000  0.84712000  0.19919000  1.0
  H  H6  1  0.39848000  0.15288000  0.80081000  1.0
  H  H7  1  0.59688000  0.72391000  0.92351000  1.0
  H  H8  1  0.40311000  0.27609000  0.07649000  1.0
  C  C9  1  0.74031000  0.36074000  0.45387000  1.0
  C  C10  1  0.25970000  0.63926000  0.54613000  1.0
  C  C11  1  0.85653000  0.42711000  0.33003000  1.0
  C  C12  1  0.14348000  0.57289000  0.66998000  1.0
  C  C13  1  0.77992000  0.89016000  0.14275000  1.0
  C  C14  1  0.22008000  0.10984000  0.85725000  1.0
  C  C15  1  0.86534000  0.42834000  0.62186000  1.0
  C  C16  1  0.13467000  0.57166000  0.37814000  1.0
  Cl  Cl17  1  0.43032000  0.19703000  0.40112000  1.0
  Cl  Cl18  1  0.56968000  0.80298000  0.59888000  1.0
  O  O19  1  0.74531000  0.37566000  0.17692000  1.0
  O  O20  1  0.25469000  0.62434000  0.82308000  1.0
  O  O21  1  0.75845000  0.37514000  0.73607000  1.0
  O  O22  1  0.24155000  0.62486000  0.26394000  1.0
  O  O23  1  0.78363000  0.75440000  0.00065000  1.0
  O  O24  1  0.21637000  0.24560000  0.99935000  1.0
