# generated using pymatgen
data_GdH12C14NO8
_symmetry_space_group_name_H-M   'P 1'
_cell_length_a   5.97058000
_cell_length_b   8.72244000
_cell_length_c   31.01100000
_cell_angle_alpha   84.60920000
_cell_angle_beta   84.72460000
_cell_angle_gamma   70.00240000
_symmetry_Int_Tables_number   1
_chemical_formula_structural   GdH12C14NO8
_chemical_formula_sum   'Gd4 H48 C56 N4 O32'
_cell_volume   1507.81532363
_cell_formula_units_Z   4
loop_
 _symmetry_equiv_pos_site_id
 _symmetry_equiv_pos_as_xyz
  1  'x, y, z'
loop_
 _atom_site_type_symbol
 _atom_site_label
 _atom_site_symmetry_multiplicity
 _atom_site_fract_x
 _atom_site_fract_y
 _atom_site_fract_z
 _atom_site_occupancy
  Gd  Gd0  1  0.91425000  0.76033000  0.95918000  1.0
  Gd  Gd1  1  0.63455000  0.73974000  0.54076000  1.0
  Gd  Gd2  1  0.08575000  0.23967000  0.04082000  1.0
  Gd  Gd3  1  0.36544000  0.26026000  0.45924000  1.0
  H  H4  1  0.41474000  0.89272000  0.92994000  1.0
  H  H5  1  0.23894000  0.60758000  0.57030000  1.0
  H  H6  1  0.58526000  0.10728000  0.07006000  1.0
  H  H7  1  0.76105000  0.39242000  0.42970000  1.0
  H  H8  1  0.45098000  0.04398000  0.95191000  1.0
  H  H9  1  0.44714000  0.45649000  0.54825000  1.0
  H  H10  1  0.54901000  0.95602000  0.04809000  1.0
  H  H11  1  0.55285000  0.54351000  0.45175000  1.0
  H  H12  1  0.72416000  0.47860000  0.96122000  1.0
  H  H13  1  0.16476000  0.02151000  0.53870000  1.0
  H  H14  1  0.27585000  0.52139000  0.03878000  1.0
  H  H15  1  0.83523000  0.97848000  0.46130000  1.0
  H  H16  1  0.53066000  0.63098000  0.93605000  1.0
  H  H17  1  0.09944000  0.86929000  0.56395000  1.0
  H  H18  1  0.46934000  0.36901000  0.06395000  1.0
  H  H19  1  0.90055000  0.13070000  0.43605000  1.0
  H  H20  1  0.19577000  0.46314000  0.86441000  1.0
  H  H21  1  0.52697000  0.03737000  0.63548000  1.0
  H  H22  1  0.80423000  0.53686000  0.13559000  1.0
  H  H23  1  0.47304000  0.96263000  0.36452000  1.0
  H  H24  1  0.46864000  0.43055000  0.79850000  1.0
  H  H25  1  0.70339000  0.07029000  0.70152000  1.0
  H  H26  1  0.53137000  0.56945000  0.20150000  1.0
  H  H27  1  0.29661000  0.92971000  0.29848000  1.0
  H  H28  1  0.91235000  0.29037000  0.80480000  1.0
  H  H29  1  0.01348000  0.20999000  0.69533000  1.0
  H  H30  1  0.08766000  0.70963000  0.19520000  1.0
  H  H31  1  0.98652000  0.79001000  0.30467000  1.0
  H  H32  1  0.06635000  0.17455000  0.87654000  1.0
  H  H33  1  0.12148000  0.32534000  0.62362000  1.0
  H  H34  1  0.93365000  0.82545000  0.12347000  1.0
  H  H35  1  0.87852000  0.67466000  0.37638000  1.0
  H  H36  1  0.00952000  0.78655000  0.79802000  1.0
  H  H37  1  0.59560000  0.71437000  0.70172000  1.0
  H  H38  1  0.99049000  0.21345000  0.20198000  1.0
  H  H39  1  0.40440000  0.28564000  0.29828000  1.0
  H  H40  1  0.15008000  0.89812000  0.72712000  1.0
  H  H41  1  0.77631000  0.60078000  0.77283000  1.0
  H  H42  1  0.84993000  0.10189000  0.27288000  1.0
  H  H43  1  0.22371000  0.39923000  0.22717000  1.0
  H  H44  1  0.60674000  0.06162000  0.78822000  1.0
  H  H45  1  0.45716000  0.43759000  0.71273000  1.0
  H  H46  1  0.39327000  0.93839000  0.21178000  1.0
  H  H47  1  0.54284000  0.56241000  0.28726000  1.0
  H  H48  1  0.50474000  0.94331000  0.86030000  1.0
  H  H49  1  0.30940000  0.55749000  0.64048000  1.0
  H  H50  1  0.49527000  0.05668000  0.13970000  1.0
  H  H51  1  0.69060000  0.44250000  0.35952000  1.0
  C  C52  1  0.71968000  0.25082000  0.91082000  1.0
  C  C53  1  0.88428000  0.24900000  0.58921000  1.0
  C  C54  1  0.28032000  0.74917000  0.08918000  1.0
  C  C55  1  0.11571000  0.75100000  0.41079000  1.0
  C  C56  1  0.47409000  0.33479000  0.90748000  1.0
  C  C57  1  0.71932000  0.16509000  0.59249000  1.0
  C  C58  1  0.52591000  0.66521000  0.09252000  1.0
  C  C59  1  0.28068000  0.83491000  0.40751000  1.0
  C  C60  1  0.38684000  0.39988000  0.86688000  1.0
  C  C61  1  0.65749000  0.10037000  0.63308000  1.0
  C  C62  1  0.61316000  0.60012000  0.13312000  1.0
  C  C63  1  0.34251000  0.89962000  0.36692000  1.0
  C  C64  1  0.54266000  0.38206000  0.82981000  1.0
  C  C65  1  0.75936000  0.11852000  0.67021000  1.0
  C  C66  1  0.45735000  0.61794000  0.17019000  1.0
  C  C67  1  0.24065000  0.88148000  0.32979000  1.0
  C  C68  1  0.78768000  0.30198000  0.83334000  1.0
  C  C69  1  0.92801000  0.19838000  0.66675000  1.0
  C  C70  1  0.21232000  0.69802000  0.16666000  1.0
  C  C71  1  0.07199000  0.80162000  0.33325000  1.0
  C  C72  1  0.87528000  0.23625000  0.87369000  1.0
  C  C73  1  0.98928000  0.26369000  0.62640000  1.0
  C  C74  1  0.12472000  0.76374000  0.12631000  1.0
  C  C75  1  0.01072000  0.73631000  0.37360000  1.0
  C  C76  1  0.82069000  0.17947000  0.95381000  1.0
  C  C77  1  0.95520000  0.32047000  0.54622000  1.0
  C  C78  1  0.17930000  0.82053000  0.04619000  1.0
  C  C79  1  0.04478000  0.67954000  0.45378000  1.0
  C  C80  1  0.30819000  0.35259000  0.94731000  1.0
  C  C81  1  0.60952000  0.14756000  0.55261000  1.0
  C  C82  1  0.69181000  0.64742000  0.05269000  1.0
  C  C83  1  0.39048000  0.85242000  0.44739000  1.0
  C  C84  1  0.24376000  0.85764000  0.83480000  1.0
  C  C85  1  0.93754000  0.64313000  0.66544000  1.0
  C  C86  1  0.75624000  0.14235000  0.16520000  1.0
  C  C87  1  0.06245000  0.35687000  0.33456000  1.0
  C  C88  1  0.14439000  0.84522000  0.79669000  1.0
  C  C89  1  0.78756000  0.65525000  0.70332000  1.0
  C  C90  1  0.85562000  0.15478000  0.20331000  1.0
  C  C91  1  0.21244000  0.34476000  0.29668000  1.0
  C  C92  1  0.22161000  0.90889000  0.75751000  1.0
  C  C93  1  0.88894000  0.59052000  0.74261000  1.0
  C  C94  1  0.77839000  0.09112000  0.24249000  1.0
  C  C95  1  0.11106000  0.40948000  0.25739000  1.0
  C  C96  1  0.47706000  0.99739000  0.79118000  1.0
  C  C97  1  0.26639000  0.50208000  0.70949000  1.0
  C  C98  1  0.52294000  0.00262000  0.20882000  1.0
  C  C99  1  0.73361000  0.49793000  0.29050000  1.0
  C  C100  1  0.41794000  0.93287000  0.83184000  1.0
  C  C101  1  0.18374000  0.56756000  0.66876000  1.0
  C  C102  1  0.58207000  0.06713000  0.16816000  1.0
  C  C103  1  0.81626000  0.43244000  0.33124000  1.0
  C  C104  1  0.15165000  0.79957000  0.87745000  1.0
  C  C105  1  0.83018000  0.70139000  0.62263000  1.0
  C  C106  1  0.84836000  0.20043000  0.12255000  1.0
  C  C107  1  0.16982000  0.29860000  0.37737000  1.0
  N  N108  1  0.38279000  0.98655000  0.75435000  1.0
  N  N109  1  0.12433000  0.51230000  0.74608000  1.0
  N  N110  1  0.61721000  0.01346000  0.24566000  1.0
  N  N111  1  0.87567000  0.48771000  0.25392000  1.0
  O  O112  1  0.91112000  0.02607000  0.95873000  1.0
  O  O113  1  0.89628000  0.47394000  0.54128000  1.0
  O  O114  1  0.08887000  0.97393000  0.04127000  1.0
  O  O115  1  0.10371000  0.52605000  0.45872000  1.0
  O  O116  1  0.81689000  0.27852000  0.98209000  1.0
  O  O117  1  0.07804000  0.22156000  0.51796000  1.0
  O  O118  1  0.18309000  0.72148000  0.01791000  1.0
  O  O119  1  0.92196000  0.77843000  0.48204000  1.0
  O  O120  1  0.31926000  0.22361000  0.97178000  1.0
  O  O121  1  0.51538000  0.27683000  0.52822000  1.0
  O  O122  1  0.68072000  0.77639000  0.02821000  1.0
  O  O123  1  0.48461000  0.72316000  0.47178000  1.0
  O  O124  1  0.16599000  0.49254000  0.95589000  1.0
  O  O125  1  0.61520000  0.00781000  0.54390000  1.0
  O  O126  1  0.83402000  0.50746000  0.04411000  1.0
  O  O127  1  0.38480000  0.99219000  0.45610000  1.0
  O  O128  1  0.26547000  0.78453000  0.91193000  1.0
  O  O129  1  0.96343000  0.71595000  0.58833000  1.0
  O  O130  1  0.73453000  0.21547000  0.08807000  1.0
  O  O131  1  0.03656000  0.28404000  0.41167000  1.0
  O  O132  1  0.95622000  0.77143000  0.87983000  1.0
  O  O133  1  0.60900000  0.72990000  0.61998000  1.0
  O  O134  1  0.04378000  0.22857000  0.12017000  1.0
  O  O135  1  0.39099000  0.27011000  0.38002000  1.0
  O  O136  1  0.53456000  0.93512000  0.93986000  1.0
  O  O137  1  0.41040000  0.56534000  0.56029000  1.0
  O  O138  1  0.46543000  0.06489000  0.06014000  1.0
  O  O139  1  0.58959000  0.43465000  0.43972000  1.0
  O  O140  1  0.68685000  0.59338000  0.94859000  1.0
  O  O141  1  0.22995000  0.90652000  0.55120000  1.0
  O  O142  1  0.31317000  0.40662000  0.05140000  1.0
  O  O143  1  0.77004000  0.09347000  0.44880000  1.0
