# generated using pymatgen
data_Zn4H12C26S4O13
_symmetry_space_group_name_H-M   'P 1'
_cell_length_a   19.64520000
_cell_length_b   19.65690000
_cell_length_c   33.34740000
_cell_angle_alpha   79.28210000
_cell_angle_beta   79.31650000
_cell_angle_gamma   63.99580000
_symmetry_Int_Tables_number   1
_chemical_formula_structural   Zn4H12C26S4O13
_chemical_formula_sum   'Zn16 H48 C104 S16 O52'
_cell_volume   11293.04589847
_cell_formula_units_Z   4
loop_
 _symmetry_equiv_pos_site_id
 _symmetry_equiv_pos_as_xyz
  1  'x, y, z'
loop_
 _atom_site_type_symbol
 _atom_site_label
 _atom_site_symmetry_multiplicity
 _atom_site_fract_x
 _atom_site_fract_y
 _atom_site_fract_z
 _atom_site_occupancy
  Zn  Zn0  1  0.60009000  0.94338000  0.52188000  1.0
  Zn  Zn1  1  0.51652000  0.01616000  0.44051000  1.0
  Zn  Zn2  1  0.43891000  0.94064000  0.51709000  1.0
  Zn  Zn3  1  0.44529000  0.09913000  0.52134000  1.0
  Zn  Zn4  1  0.65012000  0.30622000  0.72847000  1.0
  Zn  Zn5  1  0.81051000  0.31045000  0.73303000  1.0
  Zn  Zn6  1  0.73403000  0.23237000  0.81009000  1.0
  Zn  Zn7  1  0.80495000  0.15221000  0.72809000  1.0
  Zn  Zn8  1  0.23293000  0.73327000  0.31035000  1.0
  Zn  Zn9  1  0.30450000  0.65138000  0.22869000  1.0
  Zn  Zn10  1  0.15040000  0.80648000  0.22812000  1.0
  Zn  Zn11  1  0.31093000  0.80924000  0.23313000  1.0
  Zn  Zn12  1  0.93948000  0.43988000  0.01689000  1.0
  Zn  Zn13  1  0.94473000  0.59874000  0.02164000  1.0
  Zn  Zn14  1  0.09930000  0.44419000  0.02162000  1.0
  Zn  Zn15  1  0.01672000  0.51712000  0.93968000  1.0
  H  H16  1  0.49773000  0.20412000  0.60086000  1.0
  H  H17  1  0.75238000  0.04593000  0.64913000  1.0
  H  H18  1  0.54607000  0.25222000  0.64916000  1.0
  H  H19  1  0.70395000  0.99779000  0.60089000  1.0
  H  H20  1  0.34754000  0.84770000  0.45063000  1.0
  H  H21  1  0.40249000  0.90231000  0.29932000  1.0
  H  H22  1  0.29929000  0.79937000  0.40239000  1.0
  H  H23  1  0.45076000  0.95065000  0.34755000  1.0
  H  H24  1  0.76094000  0.53649000  0.65921000  1.0
  H  H25  1  0.29711000  0.52125000  0.39867000  1.0
  H  H26  1  0.02139000  0.79701000  0.39871000  1.0
  H  H27  1  0.02938000  0.05056000  0.65211000  1.0
  H  H28  1  0.79938000  0.29923000  0.90240000  1.0
  H  H29  1  0.95071000  0.45072000  0.84760000  1.0
  H  H30  1  0.84759000  0.34757000  0.95065000  1.0
  H  H31  1  0.90244000  0.40243000  0.79936000  1.0
  H  H32  1  0.22852000  0.45301000  0.85133000  1.0
  H  H33  1  0.85844000  0.83731000  0.95997000  1.0
  H  H34  1  0.04604000  0.75218000  0.14910000  1.0
  H  H35  1  0.20398000  0.49774000  0.10088000  1.0
  H  H36  1  0.99770000  0.70401000  0.10085000  1.0
  H  H37  1  0.25230000  0.54585000  0.14918000  1.0
  H  H38  1  0.72062000  0.69945000  0.09786000  1.0
  H  H39  1  0.98906000  0.21363000  0.09078000  1.0
  H  H40  1  0.42456000  0.76885000  0.60087000  1.0
  H  H41  1  0.44864000  0.66949000  0.60300000  1.0
  H  H42  1  0.46417000  0.72400000  0.55588000  1.0
  H  H43  1  0.52299000  0.17884000  0.34677000  1.0
  H  H44  1  0.46330000  0.24261000  0.30911000  1.0
  H  H45  1  0.43570000  0.17598000  0.34413000  1.0
  H  H46  1  0.67604000  0.93562000  0.34398000  1.0
  H  H47  1  0.74259000  0.96358000  0.30908000  1.0
  H  H48  1  0.67863000  0.02293000  0.34677000  1.0
  H  H49  1  0.27817000  0.20170000  0.61022000  1.0
  H  H50  1  0.18017000  0.26807000  0.61365000  1.0
  H  H51  1  0.23332000  0.24115000  0.56516000  1.0
  H  H52  1  0.57128000  0.22700000  0.90327000  1.0
  H  H53  1  0.50744000  0.28659000  0.94088000  1.0
  H  H54  1  0.57411000  0.31422000  0.90589000  1.0
  H  H55  1  0.85153000  0.92802000  0.76012000  1.0
  H  H56  1  0.93028000  0.84239000  0.77591000  1.0
  H  H57  1  0.93876000  0.93095000  0.76282000  1.0
  H  H58  1  0.51691000  0.50872000  0.18485000  1.0
  H  H59  1  0.56972000  0.48205000  0.13625000  1.0
  H  H60  1  0.47169000  0.54839000  0.13992000  1.0
  H  H61  1  0.28576000  0.02623000  0.19415000  1.0
  H  H62  1  0.30147000  0.08041000  0.14693000  1.0
  H  H63  1  0.32533000  0.98106000  0.14926000  1.0
  C  C64  1  0.68439000  0.93850000  0.43856000  1.0
  C  C65  1  0.43063000  0.93068000  0.43053000  1.0
  C  C66  1  0.56170000  0.81559000  0.56146000  1.0
  C  C67  1  0.31559000  0.06129000  0.56144000  1.0
  C  C68  1  0.56934000  0.06957000  0.56944000  1.0
  C  C69  1  0.43837000  0.18436000  0.43861000  1.0
  C  C70  1  0.68905000  0.43451000  0.68850000  1.0
  C  C71  1  0.81944000  0.31937000  0.81945000  1.0
  C  C72  1  0.56553000  0.31152000  0.81137000  1.0
  C  C73  1  0.81131000  0.06575000  0.81155000  1.0
  C  C74  1  0.68073000  0.18048000  0.68060000  1.0
  C  C75  1  0.93447000  0.18798000  0.68853000  1.0
  C  C76  1  0.31127000  0.56580000  0.31176000  1.0
  C  C77  1  0.18066000  0.68044000  0.18061000  1.0
  C  C78  1  0.06580000  0.81114000  0.31182000  1.0
  C  C79  1  0.18831000  0.93446000  0.18855000  1.0
  C  C80  1  0.31938000  0.81936000  0.31946000  1.0
  C  C81  1  0.43434000  0.68872000  0.18857000  1.0
  C  C82  1  0.81562000  0.56200000  0.06147000  1.0
  C  C83  1  0.06938000  0.56941000  0.06940000  1.0
  C  C84  1  0.06096000  0.31568000  0.06146000  1.0
  C  C85  1  0.18415000  0.43876000  0.93823000  1.0
  C  C86  1  0.93053000  0.43063000  0.93059000  1.0
  C  C87  1  0.93821000  0.68468000  0.93877000  1.0
  C  C88  1  0.59806000  0.09817000  0.59822000  1.0
  C  C89  1  0.65187000  0.15173000  0.65194000  1.0
  C  C90  1  0.55328000  0.16997000  0.61171000  1.0
  C  C91  1  0.69668000  0.07996000  0.63843000  1.0
  C  C92  1  0.58005000  0.19660000  0.63843000  1.0
  C  C93  1  0.66991000  0.05332000  0.61171000  1.0
  C  C94  1  0.40192000  0.90188000  0.40183000  1.0
  C  C95  1  0.34814000  0.84818000  0.34815000  1.0
  C  C96  1  0.35925000  0.85925000  0.41746000  1.0
  C  C97  1  0.39082000  0.89079000  0.33249000  1.0
  C  C98  1  0.33250000  0.83253000  0.39077000  1.0
  C  C99  1  0.41756000  0.91750000  0.35918000  1.0
  C  C100  1  0.54459000  0.69634000  0.59872000  1.0
  C  C101  1  0.70400000  0.55394000  0.65115000  1.0
  C  C102  1  0.58549000  0.74101000  0.58628000  1.0
  C  C103  1  0.66373000  0.50933000  0.66357000  1.0
  C  C104  1  0.66125000  0.62215000  0.62751000  1.0
  C  C105  1  0.58892000  0.62842000  0.62233000  1.0
  C  C106  1  0.42454000  0.27283000  0.37045000  1.0
  C  C107  1  0.32619000  0.47607000  0.37893000  1.0
  C  C108  1  0.41403000  0.25839000  0.41321000  1.0
  C  C109  1  0.33641000  0.49080000  0.33653000  1.0
  C  C110  1  0.35806000  0.39694000  0.39165000  1.0
  C  C111  1  0.39209000  0.35254000  0.35863000  1.0
  C  C112  1  0.77283000  0.92458000  0.37043000  1.0
  C  C113  1  0.97616000  0.82610000  0.37896000  1.0
  C  C114  1  0.75845000  0.91410000  0.41320000  1.0
  C  C115  1  0.99080000  0.83631000  0.33655000  1.0
  C  C116  1  0.89702000  0.85801000  0.39167000  1.0
  C  C117  1  0.85256000  0.89207000  0.35864000  1.0
  C  C118  1  0.20014000  0.15654000  0.60253000  1.0
  C  C119  1  0.05021000  0.09468000  0.64747000  1.0
  C  C120  1  0.24115000  0.08713000  0.58641000  1.0
  C  C121  1  0.00925000  0.16343000  0.66356000  1.0
  C  C122  1  0.11981000  0.09147000  0.62521000  1.0
  C  C123  1  0.13076000  0.15799000  0.62470000  1.0
  C  C124  1  0.84812000  0.34819000  0.84816000  1.0
  C  C125  1  0.90186000  0.40186000  0.90186000  1.0
  C  C126  1  0.83248000  0.33249000  0.89078000  1.0
  C  C127  1  0.91752000  0.41754000  0.85922000  1.0
  C  C128  1  0.85920000  0.35921000  0.91748000  1.0
  C  C129  1  0.89079000  0.39083000  0.83252000  1.0
  C  C130  1  0.47716000  0.32545000  0.87953000  1.0
  C  C131  1  0.27375000  0.42389000  0.87108000  1.0
  C  C132  1  0.49148000  0.33602000  0.83676000  1.0
  C  C133  1  0.25914000  0.41367000  0.91349000  1.0
  C  C134  1  0.35287000  0.39201000  0.85833000  1.0
  C  C135  1  0.39740000  0.35794000  0.89132000  1.0
  C  C136  1  0.87569000  0.91925000  0.82169000  1.0
  C  C137  1  0.87475000  0.83028000  0.92752000  1.0
  C  C138  1  0.83657000  0.99062000  0.83586000  1.0
  C  C139  1  0.91348000  0.75931000  0.91365000  1.0
  C  C140  1  0.86067000  0.88895000  0.89434000  1.0
  C  C141  1  0.88898000  0.86167000  0.85563000  1.0
  C  C142  1  0.15187000  0.65172000  0.15190000  1.0
  C  C143  1  0.09809000  0.59810000  0.09816000  1.0
  C  C144  1  0.08005000  0.69657000  0.13837000  1.0
  C  C145  1  0.16994000  0.55329000  0.11167000  1.0
  C  C146  1  0.05330000  0.66991000  0.11165000  1.0
  C  C147  1  0.19669000  0.57994000  0.13840000  1.0
  C  C148  1  0.54987000  0.59347000  0.14748000  1.0
  C  C149  1  0.69980000  0.65533000  0.10251000  1.0
  C  C150  1  0.50882000  0.66290000  0.16360000  1.0
  C  C151  1  0.74079000  0.58658000  0.08641000  1.0
  C  C152  1  0.63025000  0.65847000  0.12481000  1.0
  C  C153  1  0.61928000  0.59197000  0.12533000  1.0
  C  C154  1  0.20537000  0.05379000  0.15130000  1.0
  C  C155  1  0.04597000  0.19625000  0.09885000  1.0
  C  C156  1  0.16448000  0.00910000  0.16373000  1.0
  C  C157  1  0.08625000  0.24086000  0.08640000  1.0
  C  C158  1  0.08875000  0.12802000  0.12248000  1.0
  C  C159  1  0.16109000  0.12173000  0.12768000  1.0
  C  C160  1  0.46627000  0.71537000  0.58921000  1.0
  C  C161  1  0.46368000  0.21468000  0.34085000  1.0
  C  C162  1  0.71464000  0.96372000  0.34080000  1.0
  C  C163  1  0.22393000  0.22053000  0.59774000  1.0
  C  C164  1  0.53537000  0.28626000  0.90915000  1.0
  C  C165  1  0.90056000  0.90396000  0.77781000  1.0
  C  C166  1  0.52606000  0.52950000  0.15227000  1.0
  C  C167  1  0.28370000  0.03466000  0.16082000  1.0
  S  S168  1  0.67553000  0.70077000  0.60305000  1.0
  S  S169  1  0.57399000  0.54987000  0.64671000  1.0
  S  S170  1  0.36583000  0.34024000  0.43808000  1.0
  S  S171  1  0.38459000  0.40887000  0.31193000  1.0
  S  S172  1  0.84035000  0.86579000  0.43809000  1.0
  S  S173  1  0.90882000  0.88457000  0.31194000  1.0
  S  S174  1  0.19582000  0.02569000  0.59811000  1.0
  S  S175  1  0.05486000  0.22436000  0.65176000  1.0
  S  S176  1  0.40952000  0.38430000  0.81189000  1.0
  S  S177  1  0.34121000  0.36537000  0.93805000  1.0
  S  S178  1  0.81688000  0.98697000  0.88922000  1.0
  S  S179  1  0.93301000  0.76344000  0.86040000  1.0
  S  S180  1  0.55424000  0.72428000  0.15191000  1.0
  S  S181  1  0.69520000  0.52560000  0.09825000  1.0
  S  S182  1  0.07448000  0.04936000  0.14690000  1.0
  S  S183  1  0.17602000  0.20025000  0.10325000  1.0
  O  O184  1  0.50052000  0.99956000  0.50053000  1.0
  O  O185  1  0.68541000  0.92186000  0.47754000  1.0
  O  O186  1  0.46884000  0.96935000  0.41422000  1.0
  O  O187  1  0.49534000  0.84416000  0.54962000  1.0
  O  O188  1  0.62512000  0.97433000  0.41964000  1.0
  O  O189  1  0.60957000  0.84577000  0.55376000  1.0
  O  O190  1  0.41465000  0.91439000  0.46895000  1.0
  O  O191  1  0.34221000  0.99440000  0.55027000  1.0
  O  O192  1  0.50344000  0.11324000  0.55845000  1.0
  O  O193  1  0.34761000  0.10736000  0.55285000  1.0
  O  O194  1  0.61297000  0.00399000  0.55821000  1.0
  O  O195  1  0.47432000  0.12506000  0.41981000  1.0
  O  O196  1  0.42151000  0.18545000  0.47760000  1.0
  O  O197  1  0.74963000  0.25075000  0.74984000  1.0
  O  O198  1  0.64184000  0.40368000  0.69651000  1.0
  O  O199  1  0.83592000  0.33539000  0.78103000  1.0
  O  O200  1  0.62487000  0.27577000  0.83019000  1.0
  O  O201  1  0.75559000  0.40714000  0.69988000  1.0
  O  O202  1  0.56437000  0.32813000  0.77235000  1.0
  O  O203  1  0.78089000  0.28107000  0.83568000  1.0
  O  O204  1  0.77554000  0.12376000  0.83157000  1.0
  O  O205  1  0.74652000  0.13667000  0.69172000  1.0
  O  O206  1  0.82708000  0.06723000  0.77251000  1.0
  O  O207  1  0.63740000  0.24627000  0.69162000  1.0
  O  O208  1  0.90700000  0.25461000  0.69991000  1.0
  O  O209  1  0.90375000  0.14083000  0.69664000  1.0
  O  O210  1  0.24929000  0.75031000  0.25015000  1.0
  O  O211  1  0.27559000  0.62412000  0.33124000  1.0
  O  O212  1  0.24658000  0.63682000  0.19161000  1.0
  O  O213  1  0.06566000  0.82737000  0.27281000  1.0
  O  O214  1  0.32766000  0.56560000  0.27275000  1.0
  O  O215  1  0.12410000  0.77553000  0.33141000  1.0
  O  O216  1  0.13711000  0.74607000  0.19181000  1.0
  O  O217  1  0.14039000  0.90431000  0.19628000  1.0
  O  O218  1  0.33539000  0.83572000  0.28104000  1.0
  O  O219  1  0.25468000  0.90573000  0.20036000  1.0
  O  O220  1  0.28121000  0.78073000  0.33577000  1.0
  O  O221  1  0.40236000  0.64258000  0.19716000  1.0
  O  O222  1  0.40757000  0.75562000  0.19973000  1.0
  O  O223  1  0.00011000  0.49991000  0.99998000  1.0
  O  O224  1  0.84307000  0.49533000  0.05012000  1.0
  O  O225  1  0.00357000  0.61310000  0.05832000  1.0
  O  O226  1  0.10825000  0.34644000  0.05339000  1.0
  O  O227  1  0.84638000  0.60909000  0.05339000  1.0
  O  O228  1  0.99439000  0.34316000  0.05013000  1.0
  O  O229  1  0.11293000  0.50371000  0.05828000  1.0
  O  O230  1  0.18439000  0.42241000  0.97725000  1.0
  O  O231  1  0.96892000  0.46909000  0.91436000  1.0
  O  O232  1  0.12575000  0.47445000  0.91874000  1.0
  O  O233  1  0.91424000  0.41442000  0.96901000  1.0
  O  O234  1  0.92197000  0.68480000  0.97768000  1.0
  O  O235  1  0.97391000  0.62624000  0.91919000  1.0
