# generated using pymatgen
data_NaH10C8O5F
_symmetry_space_group_name_H-M   'P 1'
_cell_length_a   5.38282000
_cell_length_b   5.86100000
_cell_length_c   30.54180000
_cell_angle_alpha   89.99890000
_cell_angle_beta   93.14400000
_cell_angle_gamma   89.99860000
_symmetry_Int_Tables_number   1
_chemical_formula_structural   NaH10C8O5F
_chemical_formula_sum   'Na4 H40 C32 O20 F4'
_cell_volume   962.10403279
_cell_formula_units_Z   4
loop_
 _symmetry_equiv_pos_site_id
 _symmetry_equiv_pos_as_xyz
  1  'x, y, z'
loop_
 _atom_site_type_symbol
 _atom_site_label
 _atom_site_symmetry_multiplicity
 _atom_site_fract_x
 _atom_site_fract_y
 _atom_site_fract_z
 _atom_site_occupancy
  Na  Na0  1  0.41998000  0.59173000  0.44783000  1.0
  Na  Na1  1  0.08001000  0.09168000  0.05217000  1.0
  Na  Na2  1  0.58002000  0.40829000  0.55217000  1.0
  Na  Na3  1  0.91998000  0.90831000  0.94783000  1.0
  H  H4  1  0.56501000  0.06851000  0.30746000  1.0
  H  H5  1  0.93500000  0.56846000  0.19255000  1.0
  H  H6  1  0.43501000  0.93147000  0.69254000  1.0
  H  H7  1  0.06504000  0.43159000  0.80746000  1.0
  H  H8  1  0.88137000  0.13223000  0.25317000  1.0
  H  H9  1  0.61866000  0.63224000  0.24683000  1.0
  H  H10  1  0.11867000  0.86776000  0.74683000  1.0
  H  H11  1  0.38138000  0.36781000  0.75317000  1.0
  H  H12  1  0.17229000  0.70572000  0.32746000  1.0
  H  H13  1  0.32776000  0.20572000  0.17254000  1.0
  H  H14  1  0.82773000  0.29426000  0.67254000  1.0
  H  H15  1  0.67223000  0.79429000  0.82746000  1.0
  H  H16  1  0.86103000  0.64108000  0.38336000  1.0
  H  H17  1  0.63896000  0.14108000  0.11663000  1.0
  H  H18  1  0.13898000  0.35891000  0.61664000  1.0
  H  H19  1  0.36104000  0.85892000  0.88337000  1.0
  H  H20  1  0.30128000  0.82613000  0.52341000  1.0
  H  H21  1  0.19872000  0.32611000  0.97658000  1.0
  H  H22  1  0.69871000  0.17389000  0.47658000  1.0
  H  H23  1  0.80126000  0.67387000  0.02342000  1.0
  H  H24  1  0.10370000  0.64634000  0.53080000  1.0
  H  H25  1  0.39629000  0.14632000  0.96920000  1.0
  H  H26  1  0.89629000  0.35367000  0.46920000  1.0
  H  H27  1  0.60369000  0.85366000  0.03080000  1.0
  H  H28  1  0.88479000  0.87979000  0.45341000  1.0
  H  H29  1  0.61519000  0.37974000  0.04659000  1.0
  H  H30  1  0.11520000  0.12023000  0.54659000  1.0
  H  H31  1  0.38479000  0.62023000  0.95341000  1.0
  H  H32  1  0.76734000  0.82844000  0.49896000  1.0
  H  H33  1  0.73265000  0.32844000  0.00104000  1.0
  H  H34  1  0.23265000  0.17158000  0.50104000  1.0
  H  H35  1  0.26733000  0.67153000  0.99896000  1.0
  H  H36  1  0.50365000  0.97407000  0.37757000  1.0
  H  H37  1  0.99636000  0.47400000  0.12243000  1.0
  H  H38  1  0.49634000  0.02594000  0.62243000  1.0
  H  H39  1  0.00362000  0.52600000  0.87757000  1.0
  H  H40  1  0.24935000  0.12014000  0.34984000  1.0
  H  H41  1  0.25066000  0.62007000  0.15016000  1.0
  H  H42  1  0.75064000  0.87984000  0.65016000  1.0
  H  H43  1  0.74934000  0.37992000  0.84984000  1.0
  C  C44  1  0.68920000  0.35230000  0.34909000  1.0
  C  C45  1  0.81079000  0.85227000  0.15091000  1.0
  C  C46  1  0.31080000  0.64768000  0.65091000  1.0
  C  C47  1  0.18922000  0.14774000  0.84909000  1.0
  C  C48  1  0.69686000  0.20744000  0.31270000  1.0
  C  C49  1  0.80315000  0.70740000  0.18731000  1.0
  C  C50  1  0.30316000  0.79254000  0.68730000  1.0
  C  C51  1  0.19687000  0.29264000  0.81270000  1.0
  C  C52  1  0.87412000  0.24299000  0.28165000  1.0
  C  C53  1  0.62591000  0.74297000  0.21835000  1.0
  C  C54  1  0.12590000  0.75700000  0.71835000  1.0
  C  C55  1  0.37412000  0.25706000  0.78165000  1.0
  C  C56  1  0.04057000  0.42214000  0.28765000  1.0
  C  C57  1  0.45943000  0.92215000  0.21236000  1.0
  C  C58  1  0.95943000  0.57784000  0.71235000  1.0
  C  C59  1  0.54058000  0.07787000  0.78764000  1.0
  C  C60  1  0.03701000  0.56815000  0.32352000  1.0
  C  C61  1  0.46299000  0.06817000  0.17647000  1.0
  C  C62  1  0.96298000  0.43182000  0.67647000  1.0
  C  C63  1  0.53702000  0.93186000  0.82353000  1.0
  C  C64  1  0.86014000  0.53218000  0.35445000  1.0
  C  C65  1  0.63990000  0.03215000  0.14555000  1.0
  C  C66  1  0.13989000  0.46781000  0.64555000  1.0
  C  C67  1  0.36009000  0.96786000  0.85445000  1.0
  C  C68  1  0.37809000  0.12192000  0.37924000  1.0
  C  C69  1  0.12190000  0.62184000  0.12076000  1.0
  C  C70  1  0.62192000  0.87808000  0.62076000  1.0
  C  C71  1  0.87810000  0.37816000  0.87924000  1.0
  C  C72  1  0.22176000  0.09278000  0.41892000  1.0
  C  C73  1  0.27819000  0.59270000  0.08108000  1.0
  C  C74  1  0.77821000  0.90722000  0.58108000  1.0
  C  C75  1  0.72178000  0.40727000  0.91892000  1.0
  O  O76  1  0.26911000  0.65995000  0.51887000  1.0
  O  O77  1  0.23089000  0.15994000  0.98113000  1.0
  O  O78  1  0.73089000  0.34006000  0.48113000  1.0
  O  O79  1  0.76910000  0.84005000  0.01887000  1.0
  O  O80  1  0.72291000  0.87707000  0.46842000  1.0
  O  O81  1  0.77707000  0.37704000  0.03158000  1.0
  O  O82  1  0.27708000  0.12295000  0.53158000  1.0
  O  O83  1  0.22290000  0.62294000  0.96842000  1.0
  O  O84  1  0.51993000  0.32837000  0.38110000  1.0
  O  O85  1  0.98006000  0.82832000  0.11890000  1.0
  O  O86  1  0.48007000  0.67162000  0.61890000  1.0
  O  O87  1  0.01994000  0.17169000  0.88110000  1.0
  O  O88  1  0.18925000  0.26050000  0.44420000  1.0
  O  O89  1  0.31070000  0.76043000  0.05580000  1.0
  O  O90  1  0.81074000  0.73953000  0.55580000  1.0
  O  O91  1  0.68928000  0.23955000  0.94420000  1.0
  O  O92  1  0.13214000  0.89376000  0.42269000  1.0
  O  O93  1  0.36781000  0.39367000  0.07731000  1.0
  O  O94  1  0.86785000  0.10627000  0.57731000  1.0
  O  O95  1  0.63217000  0.60631000  0.92269000  1.0
  F  F96  1  0.21350000  0.45628000  0.25695000  1.0
  F  F97  1  0.28655000  0.95632000  0.24306000  1.0
  F  F98  1  0.78653000  0.54370000  0.74306000  1.0
  F  F99  1  0.71346000  0.04369000  0.75694000  1.0
