# generated using pymatgen
data_HoH18(C2O)7
_symmetry_space_group_name_H-M   'P 1'
_cell_length_a   12.89150000
_cell_length_b   14.08630000
_cell_length_c   18.82470000
_cell_angle_alpha   89.99990000
_cell_angle_beta   90.00010000
_cell_angle_gamma   90.00000000
_symmetry_Int_Tables_number   1
_chemical_formula_structural   HoH18(C2O)7
_chemical_formula_sum   'Ho8 H144 C112 O56'
_cell_volume   3418.44384560
_cell_formula_units_Z   8
loop_
 _symmetry_equiv_pos_site_id
 _symmetry_equiv_pos_as_xyz
  1  'x, y, z'
loop_
 _atom_site_type_symbol
 _atom_site_label
 _atom_site_symmetry_multiplicity
 _atom_site_fract_x
 _atom_site_fract_y
 _atom_site_fract_z
 _atom_site_occupancy
  Ho  Ho0  1  0.71712000  0.00453000  0.88993000  1.0
  Ho  Ho1  1  0.78288000  0.99547000  0.38993000  1.0
  Ho  Ho2  1  0.28288000  0.50453000  0.61007000  1.0
  Ho  Ho3  1  0.21712000  0.49547000  0.11007000  1.0
  Ho  Ho4  1  0.77282000  0.02072000  0.67176000  1.0
  Ho  Ho5  1  0.72718000  0.97928000  0.17175000  1.0
  Ho  Ho6  1  0.22718000  0.52072000  0.82825000  1.0
  Ho  Ho7  1  0.27282000  0.47928000  0.32824000  1.0
  H  H8  1  0.99277000  0.06905000  0.88163000  1.0
  H  H9  1  0.50723000  0.93095000  0.38163000  1.0
  H  H10  1  0.00723000  0.56905000  0.61837000  1.0
  H  H11  1  0.49277000  0.43095000  0.11837000  1.0
  H  H12  1  0.12189000  0.04117000  0.75154000  1.0
  H  H13  1  0.37811000  0.95883000  0.25154000  1.0
  H  H14  1  0.87811000  0.54117000  0.74846000  1.0
  H  H15  1  0.62189000  0.45883000  0.24846000  1.0
  H  H16  1  0.15185000  0.01391000  0.84090000  1.0
  H  H17  1  0.34815000  0.98609000  0.34090000  1.0
  H  H18  1  0.84816000  0.51391000  0.65910000  1.0
  H  H19  1  0.65184000  0.48609000  0.15910000  1.0
  H  H20  1  0.26507000  0.14878000  0.83166000  1.0
  H  H21  1  0.23493000  0.85123000  0.33165000  1.0
  H  H22  1  0.73493000  0.64877000  0.66835000  1.0
  H  H23  1  0.76507000  0.35122000  0.16834000  1.0
  H  H24  1  0.19617000  0.19301000  0.75774000  1.0
  H  H25  1  0.30383000  0.80699000  0.25774000  1.0
  H  H26  1  0.80383000  0.69301000  0.74226000  1.0
  H  H27  1  0.69617000  0.30699000  0.24226000  1.0
  H  H28  1  0.22231000  0.21671000  0.95290000  1.0
  H  H29  1  0.27769000  0.78329000  0.45290000  1.0
  H  H30  1  0.77769000  0.71671000  0.54710000  1.0
  H  H31  1  0.72231000  0.28329000  0.04710000  1.0
  H  H32  1  0.13119000  0.12304000  0.94432000  1.0
  H  H33  1  0.36881000  0.87696000  0.44432000  1.0
  H  H34  1  0.86881000  0.62304000  0.55568000  1.0
  H  H35  1  0.63119000  0.37696000  0.05568000  1.0
  H  H36  1  0.08920000  0.23609000  0.97304000  1.0
  H  H37  1  0.41079000  0.76390000  0.47304000  1.0
  H  H38  1  0.91079000  0.73609000  0.52696000  1.0
  H  H39  1  0.58920000  0.26391000  0.02696000  1.0
  H  H40  1  0.98893000  0.33333333  0.76767000  1.0
  H  H41  1  0.51107000  0.66666667  0.26767000  1.0
  H  H42  1  0.01107000  0.83334000  0.73233000  1.0
  H  H43  1  0.48893000  0.16666000  0.23233000  1.0
  H  H44  1  0.90687000  0.23692000  0.74513000  1.0
  H  H45  1  0.59313000  0.76308000  0.24513000  1.0
  H  H46  1  0.09313000  0.73692000  0.75487000  1.0
  H  H47  1  0.40687000  0.26308000  0.25487000  1.0
  H  H48  1  0.03898000  0.23332000  0.72091000  1.0
  H  H49  1  0.46103000  0.76668000  0.22091000  1.0
  H  H50  1  0.96103000  0.73332000  0.77909000  1.0
  H  H51  1  0.53897000  0.26668000  0.27908000  1.0
  H  H52  1  0.93633000  0.31851000  0.89930000  1.0
  H  H53  1  0.56367000  0.68149000  0.39930000  1.0
  H  H54  1  0.06367000  0.81851000  0.60070000  1.0
  H  H55  1  0.43633000  0.18149000  0.10070000  1.0
  H  H56  1  0.93319000  0.20364000  0.93964000  1.0
  H  H57  1  0.56681000  0.79636000  0.43965000  1.0
  H  H58  1  0.06681000  0.70364000  0.56035000  1.0
  H  H59  1  0.43319000  0.29636000  0.06035000  1.0
  H  H60  1  0.84911000  0.22999000  0.86868000  1.0
  H  H61  1  0.65089000  0.77001000  0.36868000  1.0
  H  H62  1  0.15089000  0.72999000  0.63132000  1.0
  H  H63  1  0.34911000  0.27001000  0.13132000  1.0
  H  H64  1  0.40063000  0.90379000  0.84791000  1.0
  H  H65  1  0.09937000  0.09621000  0.34791000  1.0
  H  H66  1  0.59937000  0.40379000  0.65209000  1.0
  H  H67  1  0.90063000  0.59621000  0.15209000  1.0
  H  H68  1  0.33542000  0.00043000  0.80949000  1.0
  H  H69  1  0.16458000  0.99957000  0.30949000  1.0
  H  H70  1  0.66458000  0.50043000  0.69051000  1.0
  H  H71  1  0.83542000  0.49957000  0.19051000  1.0
  H  H72  1  0.21127000  0.89744000  0.75425000  1.0
  H  H73  1  0.28873000  0.10256000  0.25425000  1.0
  H  H74  1  0.78873000  0.39744000  0.74575000  1.0
  H  H75  1  0.71127000  0.60256000  0.24575000  1.0
  H  H76  1  0.25531000  0.81324000  0.81675000  1.0
  H  H77  1  0.24469000  0.18676000  0.31675000  1.0
  H  H78  1  0.74469000  0.31324000  0.68325000  1.0
  H  H79  1  0.75531000  0.68676000  0.18325000  1.0
  H  H80  1  0.29414000  0.82267000  0.66153000  1.0
  H  H81  1  0.20586000  0.17733000  0.16153000  1.0
  H  H82  1  0.70586000  0.32267000  0.83847000  1.0
  H  H83  1  0.79414000  0.67733000  0.33847000  1.0
  H  H84  1  0.40654000  0.07421000  0.70466000  1.0
  H  H85  1  0.09346000  0.92579000  0.20466000  1.0
  H  H86  1  0.59346000  0.57421000  0.79534000  1.0
  H  H87  1  0.90654000  0.42579000  0.29534000  1.0
  H  H88  1  0.34187000  0.98361000  0.65671000  1.0
  H  H89  1  0.15812000  0.01639000  0.15671000  1.0
  H  H90  1  0.65813000  0.48361000  0.84329000  1.0
  H  H91  1  0.84188000  0.51639000  0.34329000  1.0
  H  H92  1  0.47532000  0.00807000  0.63979000  1.0
  H  H93  1  0.02468000  0.99193000  0.13979000  1.0
  H  H94  1  0.52468000  0.50807000  0.86021000  1.0
  H  H95  1  0.97533000  0.49193000  0.36021000  1.0
  H  H96  1  0.50325000  0.68634000  0.73850000  1.0
  H  H97  1  0.99675000  0.31366000  0.23850000  1.0
  H  H98  1  0.49675000  0.18634000  0.76150000  1.0
  H  H99  1  0.00325000  0.81366000  0.26150000  1.0
  H  H100  1  0.48577000  0.76336000  0.81205000  1.0
  H  H101  1  0.01423000  0.23664000  0.31205000  1.0
  H  H102  1  0.51423000  0.26336000  0.68795000  1.0
  H  H103  1  0.98577000  0.73664000  0.18795000  1.0
  H  H104  1  0.59351000  0.77888000  0.75399000  1.0
  H  H105  1  0.90650000  0.22112000  0.25399000  1.0
  H  H106  1  0.40650000  0.27888000  0.74601000  1.0
  H  H107  1  0.09351000  0.72112000  0.24601000  1.0
  H  H108  1  0.49621000  0.74269000  0.61844000  1.0
  H  H109  1  0.00379000  0.25731000  0.11844000  1.0
  H  H110  1  0.50379000  0.24269000  0.88156000  1.0
  H  H111  1  0.99620000  0.75731000  0.38156000  1.0
  H  H112  1  0.56766000  0.84938000  0.62972000  1.0
  H  H113  1  0.93235000  0.15062000  0.12972000  1.0
  H  H114  1  0.43235000  0.34938000  0.87028000  1.0
  H  H115  1  0.06765000  0.65062000  0.37028000  1.0
  H  H116  1  0.44030000  0.85368000  0.59394000  1.0
  H  H117  1  0.05970000  0.14632000  0.09394000  1.0
  H  H118  1  0.55970000  0.35368000  0.90606000  1.0
  H  H119  1  0.94030000  0.64632000  0.40606000  1.0
  H  H120  1  0.53058000  0.81200000  0.90964000  1.0
  H  H121  1  0.96942000  0.18800000  0.40964000  1.0
  H  H122  1  0.46942000  0.31200000  0.59036000  1.0
  H  H123  1  0.03058000  0.68800000  0.09036000  1.0
  H  H124  1  0.41725000  0.66929000  0.88831000  1.0
  H  H125  1  0.08276000  0.33071000  0.38831000  1.0
  H  H126  1  0.58276000  0.16929000  0.61169000  1.0
  H  H127  1  0.91724000  0.83071000  0.11169000  1.0
  H  H128  1  0.47544000  0.57576000  0.10181000  1.0
  H  H129  1  0.02456000  0.42424000  0.60181000  1.0
  H  H130  1  0.52456000  0.07576000  0.39819000  1.0
  H  H131  1  0.97544000  0.92424000  0.89819000  1.0
  H  H132  1  0.58946000  0.71696000  0.12206000  1.0
  H  H133  1  0.91054000  0.28304000  0.62206000  1.0
  H  H134  1  0.41054000  0.21696000  0.37794000  1.0
  H  H135  1  0.08946000  0.78304000  0.87794000  1.0
  H  H136  1  0.72980000  0.79993000  0.86496000  1.0
  H  H137  1  0.77020000  0.20007000  0.36496000  1.0
  H  H138  1  0.27020000  0.29993000  0.63504000  1.0
  H  H139  1  0.22980000  0.70007000  0.13504000  1.0
  H  H140  1  0.78608000  0.84391000  0.79643000  1.0
  H  H141  1  0.71392000  0.15609000  0.29643000  1.0
  H  H142  1  0.21392000  0.34391000  0.70357000  1.0
  H  H143  1  0.28608000  0.65609000  0.20357000  1.0
  H  H144  1  0.62117000  0.10584000  0.01777000  1.0
  H  H145  1  0.87883000  0.89415000  0.51777000  1.0
  H  H146  1  0.37883000  0.60584000  0.48223000  1.0
  H  H147  1  0.12117000  0.39416000  0.98223000  1.0
  H  H148  1  0.61156000  0.15948000  0.94231000  1.0
  H  H149  1  0.88844000  0.84052000  0.44231000  1.0
  H  H150  1  0.38844000  0.65948000  0.55769000  1.0
  H  H151  1  0.11156000  0.34052000  0.05769000  1.0
  C  C152  1  0.01026000  0.09657000  0.82838000  1.0
  C  C153  1  0.48974000  0.90343000  0.32838000  1.0
  C  C154  1  0.98974000  0.59657000  0.67162000  1.0
  C  C155  1  0.51026000  0.40343000  0.17162000  1.0
  C  C156  1  0.12173000  0.06969000  0.80573000  1.0
  C  C157  1  0.37827000  0.93031000  0.30573000  1.0
  C  C158  1  0.87827000  0.56968000  0.69427000  1.0
  C  C159  1  0.62173000  0.43031000  0.19427000  1.0
  C  C160  1  0.18678000  0.16111000  0.81049000  1.0
  C  C161  1  0.31322000  0.83889000  0.31048000  1.0
  C  C162  1  0.81322000  0.66111000  0.68952000  1.0
  C  C163  1  0.68678000  0.33889000  0.18951000  1.0
  C  C164  1  0.12420000  0.22785000  0.85905000  1.0
  C  C165  1  0.37580000  0.77215000  0.35905000  1.0
  C  C166  1  0.87580000  0.72785000  0.64095000  1.0
  C  C167  1  0.62420000  0.27215000  0.14095000  1.0
  C  C168  1  0.00802000  0.20824000  0.83483000  1.0
  C  C169  1  0.49198000  0.79176000  0.33483000  1.0
  C  C170  1  0.99198000  0.70824000  0.66517000  1.0
  C  C171  1  0.50802000  0.29176000  0.16517000  1.0
  C  C172  1  0.92835000  0.05597000  0.77935000  1.0
  C  C173  1  0.57165000  0.94403000  0.27935000  1.0
  C  C174  1  0.07165000  0.55597000  0.72065000  1.0
  C  C175  1  0.42835000  0.44403000  0.22065000  1.0
  C  C176  1  0.15268000  0.33197000  0.84853000  1.0
  C  C177  1  0.34731000  0.66803000  0.34853000  1.0
  C  C178  1  0.84731000  0.83197000  0.65147000  1.0
  C  C179  1  0.65268000  0.16803000  0.15147000  1.0
  C  C180  1  0.14247000  0.19966000  0.93697000  1.0
  C  C181  1  0.35752000  0.80034000  0.43697000  1.0
  C  C182  1  0.85752000  0.69966000  0.56303000  1.0
  C  C183  1  0.64247000  0.30034000  0.06303000  1.0
  C  C184  1  0.98532000  0.25559000  0.76297000  1.0
  C  C185  1  0.51468000  0.74440000  0.26297000  1.0
  C  C186  1  0.01468000  0.75559000  0.73703000  1.0
  C  C187  1  0.48532000  0.24440000  0.23703000  1.0
  C  C188  1  0.92769000  0.24203000  0.88909000  1.0
  C  C189  1  0.57231000  0.75797000  0.38909000  1.0
  C  C190  1  0.07231000  0.74203000  0.61091000  1.0
  C  C191  1  0.42769000  0.25797000  0.11091000  1.0
  C  C192  1  0.44678000  0.93142000  0.73910000  1.0
  C  C193  1  0.05322000  0.06858000  0.23910000  1.0
  C  C194  1  0.55322000  0.43142000  0.76090000  1.0
  C  C195  1  0.94678000  0.56859000  0.26090000  1.0
  C  C196  1  0.36495000  0.92879000  0.79851000  1.0
  C  C197  1  0.13506000  0.07121000  0.29851000  1.0
  C  C198  1  0.63506000  0.42879000  0.70149000  1.0
  C  C199  1  0.86495000  0.57121000  0.20149000  1.0
  C  C200  1  0.28036000  0.86002000  0.77346000  1.0
  C  C201  1  0.21964000  0.13998000  0.27346000  1.0
  C  C202  1  0.71964000  0.36002000  0.72654000  1.0
  C  C203  1  0.78036000  0.63998000  0.22654000  1.0
  C  C204  1  0.32801000  0.80133000  0.71274000  1.0
  C  C205  1  0.17199000  0.19867000  0.21274000  1.0
  C  C206  1  0.67199000  0.30133000  0.78726000  1.0
  C  C207  1  0.82801000  0.69867000  0.28726000  1.0
  C  C208  1  0.44691000  0.82630000  0.70879000  1.0
  C  C209  1  0.05309000  0.17370000  0.20879000  1.0
  C  C210  1  0.55309000  0.32630000  0.79121000  1.0
  C  C211  1  0.94691000  0.67370000  0.29121000  1.0
  C  C212  1  0.55407000  0.95617000  0.76830000  1.0
  C  C213  1  0.94593000  0.04383000  0.26830000  1.0
  C  C214  1  0.44593000  0.45617000  0.73170000  1.0
  C  C215  1  0.05407000  0.54383000  0.23170000  1.0
  C  C216  1  0.30989000  0.69514000  0.71832000  1.0
  C  C217  1  0.19011000  0.30486000  0.21831000  1.0
  C  C218  1  0.69011000  0.19514000  0.78169000  1.0
  C  C219  1  0.80989000  0.80486000  0.28168000  1.0
  C  C220  1  0.41615000  0.00329000  0.68134000  1.0
  C  C221  1  0.08385000  0.99671000  0.18134000  1.0
  C  C222  1  0.58385000  0.50329000  0.81866000  1.0
  C  C223  1  0.91615000  0.49671000  0.31866000  1.0
  C  C224  1  0.51078000  0.76018000  0.75660000  1.0
  C  C225  1  0.98922000  0.23982000  0.25660000  1.0
  C  C226  1  0.48922000  0.26018000  0.74340000  1.0
  C  C227  1  0.01078000  0.73982000  0.24340000  1.0
  C  C228  1  0.48983000  0.81802000  0.63318000  1.0
  C  C229  1  0.01017000  0.18198000  0.13318000  1.0
  C  C230  1  0.51017000  0.31802000  0.86682000  1.0
  C  C231  1  0.98983000  0.68198000  0.36682000  1.0
  C  C232  1  0.56818000  0.77116000  0.01637000  1.0
  C  C233  1  0.93182000  0.22884000  0.51637000  1.0
  C  C234  1  0.43182000  0.27116000  0.48363000  1.0
  C  C235  1  0.06818000  0.72884000  0.98363000  1.0
  C  C236  1  0.51925000  0.75828000  0.95061000  1.0
  C  C237  1  0.98075000  0.24172000  0.45061000  1.0
  C  C238  1  0.48074000  0.25828000  0.54939000  1.0
  C  C239  1  0.01925000  0.74172000  0.04939000  1.0
  C  C240  1  0.45632000  0.67955000  0.93906000  1.0
  C  C241  1  0.04368000  0.32045000  0.43906000  1.0
  C  C242  1  0.54368000  0.17955000  0.56095000  1.0
  C  C243  1  0.95632000  0.82045000  0.06094000  1.0
  C  C244  1  0.44174000  0.61249000  0.99320000  1.0
  C  C245  1  0.05827000  0.38751000  0.49320000  1.0
  C  C246  1  0.55826000  0.11249000  0.50680000  1.0
  C  C247  1  0.94174000  0.88751000  0.00680000  1.0
  C  C248  1  0.48945000  0.62652000  0.05937000  1.0
  C  C249  1  0.01055000  0.37348000  0.55937000  1.0
  C  C250  1  0.51055000  0.12652000  0.44063000  1.0
  C  C251  1  0.98945000  0.87348000  0.94063000  1.0
  C  C252  1  0.55227000  0.70521000  0.07094000  1.0
  C  C253  1  0.94772000  0.29480000  0.57093000  1.0
  C  C254  1  0.44772000  0.20520000  0.42907000  1.0
  C  C255  1  0.05227000  0.79479000  0.92906000  1.0
  C  C256  1  0.63646000  0.85569000  0.02825000  1.0
  C  C257  1  0.86354000  0.14431000  0.52825000  1.0
  C  C258  1  0.36354000  0.35569000  0.47175000  1.0
  C  C259  1  0.13645000  0.64431000  0.97175000  1.0
  C  C260  1  0.37370000  0.52778000  0.98094000  1.0
  C  C261  1  0.12631000  0.47222000  0.48093000  1.0
  C  C262  1  0.62630000  0.02778000  0.51907000  1.0
  C  C263  1  0.87370000  0.97222000  0.01907000  1.0
  O  O264  1  0.83963000  0.03057000  0.80508000  1.0
  O  O265  1  0.66037000  0.96943000  0.30508000  1.0
  O  O266  1  0.16037000  0.53057000  0.69492000  1.0
  O  O267  1  0.33963000  0.46943000  0.19492000  1.0
  O  O268  1  0.94447000  0.04778000  0.71331000  1.0
  O  O269  1  0.55553000  0.95222000  0.21331000  1.0
  O  O270  1  0.05553000  0.54778000  0.78669000  1.0
  O  O271  1  0.44447000  0.45222000  0.28669000  1.0
  O  O272  1  0.13733000  0.39386000  0.89712000  1.0
  O  O273  1  0.36267000  0.60614000  0.39712000  1.0
  O  O274  1  0.86267000  0.89386000  0.60288000  1.0
  O  O275  1  0.63733000  0.10614000  0.10288000  1.0
  O  O276  1  0.19384000  0.36062000  0.79031000  1.0
  O  O277  1  0.30616000  0.63939000  0.29031000  1.0
  O  O278  1  0.80616000  0.86061000  0.70969000  1.0
  O  O279  1  0.69384000  0.13938000  0.20969000  1.0
  O  O280  1  0.62710000  0.97217000  0.72467000  1.0
  O  O281  1  0.87290000  0.02783000  0.22467000  1.0
  O  O282  1  0.37290000  0.47218000  0.77533000  1.0
  O  O283  1  0.12710000  0.52783000  0.27533000  1.0
  O  O284  1  0.56762000  0.95790000  0.83531000  1.0
  O  O285  1  0.93238000  0.04210000  0.33531000  1.0
  O  O286  1  0.43238000  0.45789000  0.66469000  1.0
  O  O287  1  0.06762000  0.54211000  0.16469000  1.0
  O  O288  1  0.32484000  0.64731000  0.66151000  1.0
  O  O289  1  0.17516000  0.35269000  0.16150000  1.0
  O  O290  1  0.67516000  0.14731000  0.83850000  1.0
  O  O291  1  0.82484000  0.85269000  0.33849000  1.0
  O  O292  1  0.28267000  0.65972000  0.77750000  1.0
  O  O293  1  0.21733000  0.34028000  0.27750000  1.0
  O  O294  1  0.71733000  0.15972000  0.72250000  1.0
  O  O295  1  0.78267000  0.84028000  0.22249000  1.0
  O  O296  1  0.65841000  0.87740000  0.09176000  1.0
  O  O297  1  0.84159000  0.12260000  0.59176000  1.0
  O  O298  1  0.34159000  0.37740000  0.40824000  1.0
  O  O299  1  0.15842000  0.62260000  0.90824000  1.0
  O  O300  1  0.66888000  0.90000000  0.97364000  1.0
  O  O301  1  0.83113000  0.09999000  0.47364000  1.0
  O  O302  1  0.33112000  0.40000000  0.52636000  1.0
  O  O303  1  0.16887000  0.59999000  0.02636000  1.0
  O  O304  1  0.35137000  0.47554000  0.03450000  1.0
  O  O305  1  0.14863000  0.52446000  0.53450000  1.0
  O  O306  1  0.64863000  0.97554000  0.46550000  1.0
  O  O307  1  0.85137000  0.02446000  0.96550000  1.0
  O  O308  1  0.34188000  0.51130000  0.91851000  1.0
  O  O309  1  0.15813000  0.48870000  0.41851000  1.0
  O  O310  1  0.65813000  0.01130000  0.58149000  1.0
  O  O311  1  0.84188000  0.98870000  0.08149000  1.0
  O  O312  1  0.77221000  0.85242000  0.84830000  1.0
  O  O313  1  0.72779000  0.14758000  0.34830000  1.0
  O  O314  1  0.22779000  0.35242000  0.65170000  1.0
  O  O315  1  0.27221000  0.64758000  0.15170000  1.0
  O  O316  1  0.61474000  0.09733000  0.96493000  1.0
  O  O317  1  0.88525000  0.90267000  0.46493000  1.0
  O  O318  1  0.38525000  0.59733000  0.53507000  1.0
  O  O319  1  0.11474000  0.40267000  0.03507000  1.0
