# generated using pymatgen
data_Zn4H9C28S2O13F5
_symmetry_space_group_name_H-M   'P 1'
_cell_length_a   18.56170000
_cell_length_b   19.74190000
_cell_length_c   32.84741294
_cell_angle_alpha   78.68664369
_cell_angle_beta   73.58655460
_cell_angle_gamma   61.95700000
_symmetry_Int_Tables_number   1
_chemical_formula_structural   Zn4H9C28S2O13F5
_chemical_formula_sum   'Zn16 H36 C112 S8 O52 F20'
_cell_volume   10162.05705344
_cell_formula_units_Z   4
loop_
 _symmetry_equiv_pos_site_id
 _symmetry_equiv_pos_as_xyz
  1  'x, y, z'
loop_
 _atom_site_type_symbol
 _atom_site_label
 _atom_site_symmetry_multiplicity
 _atom_site_fract_x
 _atom_site_fract_y
 _atom_site_fract_z
 _atom_site_occupancy
  Zn  Zn0  1  0.60728000  0.44342000  0.51887000  1.0
  Zn  Zn1  1  0.52329000  0.51538000  0.43820000  1.0
  Zn  Zn2  1  0.43509000  0.60138000  0.52354000  1.0
  Zn  Zn3  1  0.43498000  0.44018000  0.51828000  1.0
  Zn  Zn4  1  0.64314000  0.80952000  0.73187000  1.0
  Zn  Zn5  1  0.80970000  0.64963000  0.72581000  1.0
  Zn  Zn6  1  0.72913000  0.73456000  0.81239000  1.0
  Zn  Zn7  1  0.81837000  0.80681000  0.72938000  1.0
  Zn  Zn8  1  0.22522000  0.23626000  0.31306000  1.0
  Zn  Zn9  1  0.31555000  0.30778000  0.23071000  1.0
  Zn  Zn10  1  0.14583000  0.30701000  0.22935000  1.0
  Zn  Zn11  1  0.31509000  0.14861000  0.22621000  1.0
  Zn  Zn12  1  0.93996000  0.10116000  0.02374000  1.0
  Zn  Zn13  1  0.93132000  0.94263000  0.01908000  1.0
  Zn  Zn14  1  0.10392000  0.94134000  0.01961000  1.0
  Zn  Zn15  1  0.02622000  0.01484000  0.93754000  1.0
  H  H16  1  0.54190000  0.03380000  0.65541000  1.0
  H  H17  1  0.28737000  0.02376000  0.40147000  1.0
  H  H18  1  0.83543000  0.51761000  0.62163000  1.0
  H  H19  1  0.78484000  0.47750000  0.66697000  1.0
  H  H20  1  0.73687000  0.42935000  0.61891000  1.0
  H  H21  1  0.78746000  0.46949000  0.57356000  1.0
  H  H22  1  0.21600000  0.32615000  0.43096000  1.0
  H  H23  1  0.30937000  0.23794000  0.42836000  1.0
  H  H24  1  0.35762000  0.28598000  0.47630000  1.0
  H  H25  1  0.26434000  0.37416000  0.47894000  1.0
  H  H26  1  0.02453000  0.23781000  0.42812000  1.0
  H  H27  1  0.02716000  0.32601000  0.43064000  1.0
  H  H28  1  0.88299000  0.37421000  0.47861000  1.0
  H  H29  1  0.88028000  0.28608000  0.47612000  1.0
  H  H30  1  0.03521000  0.82064000  0.63107000  1.0
  H  H31  1  0.08045000  0.78068000  0.67646000  1.0
  H  H32  1  0.22476000  0.73260000  0.62841000  1.0
  H  H33  1  0.17936000  0.77262000  0.58305000  1.0
  H  H34  1  0.84855000  0.34021000  0.96232000  1.0
  H  H35  1  0.22348000  0.92357000  0.81936000  1.0
  H  H36  1  0.22613000  0.01163000  0.82200000  1.0
  H  H37  1  0.37018000  0.96374000  0.77395000  1.0
  H  H38  1  0.36772000  0.87557000  0.77128000  1.0
  H  H39  1  0.85777000  0.78626000  0.97597000  1.0
  H  H40  1  0.76434000  0.87437000  0.97863000  1.0
  H  H41  1  0.71640000  0.82632000  0.93053000  1.0
  H  H42  1  0.80976000  0.73827000  0.92791000  1.0
  H  H43  1  0.97983000  0.71633000  0.09459000  1.0
  H  H44  1  0.66969000  0.96884000  0.07342000  1.0
  H  H45  1  0.71523000  0.92865000  0.11877000  1.0
  H  H46  1  0.57117000  0.97683000  0.16687000  1.0
  H  H47  1  0.52566000  0.01699000  0.12157000  1.0
  H  H48  1  0.96495000  0.27303000  0.08317000  1.0
  H  H49  1  0.91425000  0.23293000  0.12850000  1.0
  H  H50  1  0.96235000  0.28086000  0.17658000  1.0
  H  H51  1  0.01295000  0.32102000  0.13125000  1.0
  C  C52  1  0.70663000  0.43175000  0.43106000  1.0
  C  C53  1  0.43838000  0.68393000  0.43835000  1.0
  C  C54  1  0.56802000  0.56965000  0.56851000  1.0
  C  C55  1  0.29365000  0.56793000  0.56838000  1.0
  C  C56  1  0.56344000  0.31614000  0.56089000  1.0
  C  C57  1  0.43156000  0.43091000  0.43103000  1.0
  C  C58  1  0.67969000  0.68253000  0.68129000  1.0
  C  C59  1  0.81188000  0.56560000  0.81066000  1.0
  C  C60  1  0.54443000  0.81881000  0.81923000  1.0
  C  C61  1  0.81985000  0.81875000  0.81824000  1.0
  C  C62  1  0.68843000  0.93444000  0.68851000  1.0
  C  C63  1  0.95597000  0.68084000  0.68073000  1.0
  C  C64  1  0.31826000  0.31881000  0.31891000  1.0
  C  C65  1  0.18955000  0.43380000  0.18832000  1.0
  C  C66  1  0.04405000  0.31873000  0.31842000  1.0
  C  C67  1  0.18269000  0.18061000  0.18091000  1.0
  C  C68  1  0.31157000  0.06628000  0.31172000  1.0
  C  C69  1  0.45693000  0.18129000  0.18115000  1.0
  C  C70  1  0.79423000  0.06903000  0.06860000  1.0
  C  C71  1  0.05996000  0.81568000  0.06138000  1.0
  C  C72  1  0.06946000  0.06844000  0.06874000  1.0
  C  C73  1  0.20679000  0.93083000  0.93145000  1.0
  C  C74  1  0.93974000  0.18438000  0.93862000  1.0
  C  C75  1  0.93175000  0.93144000  0.93110000  1.0
  C  C76  1  0.66103000  0.19739000  0.60089000  1.0
  C  C77  1  0.59084000  0.05242000  0.64925000  1.0
  C  C78  1  0.58821000  0.24184000  0.58601000  1.0
  C  C79  1  0.66414000  0.00928000  0.66359000  1.0
  C  C80  1  0.59012000  0.12107000  0.62632000  1.0
  C  C81  1  0.66325000  0.12842000  0.62386000  1.0
  C  C82  1  0.42868000  0.77327000  0.36946000  1.0
  C  C83  1  0.32109000  0.97756000  0.38012000  1.0
  C  C84  1  0.41416000  0.75821000  0.41338000  1.0
  C  C85  1  0.33632000  0.99110000  0.33631000  1.0
  C  C86  1  0.35497000  0.89789000  0.39201000  1.0
  C  C87  1  0.39531000  0.85260000  0.35675000  1.0
  C  C88  1  0.65015000  0.65543000  0.65285000  1.0
  C  C89  1  0.59476000  0.59943000  0.59705000  1.0
  C  C90  1  0.69715000  0.58305000  0.63644000  1.0
  C  C91  1  0.54667000  0.67254000  0.61345000  1.0
  C  C92  1  0.67072000  0.55644000  0.60987000  1.0
  C  C93  1  0.57330000  0.69941000  0.64020000  1.0
  C  C94  1  0.77828000  0.51015000  0.63597000  1.0
  C  C95  1  0.74825000  0.47996000  0.60586000  1.0
  C  C96  1  0.34770000  0.34774000  0.34642000  1.0
  C  C97  1  0.40379000  0.40341000  0.40196000  1.0
  C  C98  1  0.32895000  0.33634000  0.39078000  1.0
  C  C99  1  0.42318000  0.41551000  0.35719000  1.0
  C  C100  1  0.35565000  0.36283000  0.41722000  1.0
  C  C101  1  0.39630000  0.38868000  0.33049000  1.0
  C  C102  1  0.28407000  0.30076000  0.42753000  1.0
  C  C103  1  0.31433000  0.33088000  0.45757000  1.0
  C  C104  1  0.95814000  0.34769000  0.34608000  1.0
  C  C105  1  0.79093000  0.40364000  0.40188000  1.0
  C  C106  1  0.94413000  0.33620000  0.39047000  1.0
  C  C107  1  0.80401000  0.41558000  0.35712000  1.0
  C  C108  1  0.86453000  0.36285000  0.41700000  1.0
  C  C109  1  0.88434000  0.38867000  0.33034000  1.0
  C  C110  1  0.98789000  0.30064000  0.42723000  1.0
  C  C111  1  0.89753000  0.33085000  0.45730000  1.0
  C  C112  1  0.04143000  0.65066000  0.65269000  1.0
  C  C113  1  0.20870000  0.59478000  0.59702000  1.0
  C  C114  1  0.08728000  0.69361000  0.64007000  1.0
  C  C115  1  0.16329000  0.55069000  0.60965000  1.0
  C  C116  1  0.16692000  0.66705000  0.61354000  1.0
  C  C117  1  0.08300000  0.57747000  0.63638000  1.0
  C  C118  1  0.08417000  0.77011000  0.64416000  1.0
  C  C119  1  0.17452000  0.74001000  0.61407000  1.0
  C  C120  1  0.88048000  0.41754000  0.82104000  1.0
  C  C121  1  0.87002000  0.33134000  0.92853000  1.0
  C  C122  1  0.83675000  0.49098000  0.83539000  1.0
  C  C123  1  0.91414000  0.25887000  0.91336000  1.0
  C  C124  1  0.85801000  0.38908000  0.89464000  1.0
  C  C125  1  0.89326000  0.35884000  0.85435000  1.0
  C  C126  1  0.29264000  0.90172000  0.90386000  1.0
  C  C127  1  0.45992000  0.84616000  0.84823000  1.0
  C  C128  1  0.30673000  0.91316000  0.85948000  1.0
  C  C129  1  0.44659000  0.83411000  0.89298000  1.0
  C  C130  1  0.38637000  0.88670000  0.83297000  1.0
  C  C131  1  0.36629000  0.86075000  0.91973000  1.0
  C  C132  1  0.26285000  0.94881000  0.82279000  1.0
  C  C133  1  0.35318000  0.91877000  0.79268000  1.0
  C  C134  1  0.90401000  0.90393000  0.90192000  1.0
  C  C135  1  0.84849000  0.84817000  0.84600000  1.0
  C  C136  1  0.85581000  0.86335000  0.91699000  1.0
  C  C137  1  0.89701000  0.88918000  0.83034000  1.0
  C  C138  1  0.82937000  0.83678000  0.89040000  1.0
  C  C139  1  0.92370000  0.91591000  0.85715000  1.0
  C  C140  1  0.81449000  0.83118000  0.95723000  1.0
  C  C141  1  0.78444000  0.80110000  0.92709000  1.0
  C  C142  1  0.20805000  0.55294000  0.14906000  1.0
  C  C143  1  0.04119000  0.69784000  0.10074000  1.0
  C  C144  1  0.16465000  0.50851000  0.16376000  1.0
  C  C145  1  0.08565000  0.74097000  0.08633000  1.0
  C  C146  1  0.08623000  0.62929000  0.12365000  1.0
  C  C147  1  0.16425000  0.62199000  0.12610000  1.0
  C  C148  1  0.70914000  0.09878000  0.09697000  1.0
  C  C149  1  0.54197000  0.15453000  0.15273000  1.0
  C  C150  1  0.66343000  0.05569000  0.10972000  1.0
  C  C151  1  0.58725000  0.19876000  0.14012000  1.0
  C  C152  1  0.58388000  0.08224000  0.13630000  1.0
  C  C153  1  0.66754000  0.17193000  0.11335000  1.0
  C  C154  1  0.66630000  0.97925000  0.10570000  1.0
  C  C155  1  0.57602000  0.00944000  0.13586000  1.0
  C  C156  1  0.09926000  0.09523000  0.09714000  1.0
  C  C157  1  0.15529000  0.15075000  0.15279000  1.0
  C  C158  1  0.05249000  0.16750000  0.11362000  1.0
  C  C159  1  0.20306000  0.07756000  0.13646000  1.0
  C  C160  1  0.07913000  0.19395000  0.14016000  1.0
  C  C161  1  0.17619000  0.05089000  0.10973000  1.0
  C  C162  1  0.97141000  0.24038000  0.11417000  1.0
  C  C163  1  0.00156000  0.27042000  0.14429000  1.0
  S  S164  1  0.52072000  0.19853000  0.60046000  1.0
  S  S165  1  0.73273000  0.05130000  0.64950000  1.0
  S  S166  1  0.35870000  0.84257000  0.43974000  1.0
  S  S167  1  0.39161000  0.90768000  0.30914000  1.0
  S  S168  1  0.81047000  0.48835000  0.89077000  1.0
  S  S169  1  0.94108000  0.25989000  0.85805000  1.0
  S  S170  1  0.06833000  0.55185000  0.14937000  1.0
  S  S171  1  0.18226000  0.69904000  0.10036000  1.0
  O  O172  1  0.50047000  0.49957000  0.50061000  1.0
  O  O173  1  0.70574000  0.41623000  0.47085000  1.0
  O  O174  1  0.47949000  0.62384000  0.41766000  1.0
  O  O175  1  0.49769000  0.61281000  0.55878000  1.0
  O  O176  1  0.64349000  0.46839000  0.41426000  1.0
  O  O177  1  0.61942000  0.50236000  0.55635000  1.0
  O  O178  1  0.41559000  0.68662000  0.47892000  1.0
  O  O179  1  0.32503000  0.61591000  0.55947000  1.0
  O  O180  1  0.49231000  0.34355000  0.55101000  1.0
  O  O181  1  0.32731000  0.50094000  0.55535000  1.0
  O  O182  1  0.61426000  0.34620000  0.55125000  1.0
  O  O183  1  0.47359000  0.46876000  0.41428000  1.0
  O  O184  1  0.41015000  0.41364000  0.47078000  1.0
  O  O185  1  0.74988000  0.75047000  0.74994000  1.0
  O  O186  1  0.63326000  0.74946000  0.69443000  1.0
  O  O187  1  0.83064000  0.56477000  0.77025000  1.0
  O  O188  1  0.60790000  0.78148000  0.83581000  1.0
  O  O189  1  0.75043000  0.63482000  0.68993000  1.0
  O  O190  1  0.54500000  0.83596000  0.77953000  1.0
  O  O191  1  0.77322000  0.62498000  0.83235000  1.0
  O  O192  1  0.77786000  0.78136000  0.83768000  1.0
  O  O193  1  0.76063000  0.90453000  0.69737000  1.0
  O  O194  1  0.83923000  0.83283000  0.77823000  1.0
  O  O195  1  0.63557000  0.90650000  0.69892000  1.0
  O  O196  1  0.91914000  0.63761000  0.69071000  1.0
  O  O197  1  0.92720000  0.74874000  0.69226000  1.0
  O  O198  1  0.24944000  0.24908000  0.25058000  1.0
  O  O199  1  0.27524000  0.28223000  0.33833000  1.0
  O  O200  1  0.26024000  0.40459000  0.19843000  1.0
  O  O201  1  0.05061000  0.33220000  0.27842000  1.0
  O  O202  1  0.33794000  0.33274000  0.27896000  1.0
  O  O203  1  0.10398000  0.28248000  0.33799000  1.0
  O  O204  1  0.13743000  0.40477000  0.19729000  1.0
  O  O205  1  0.13243000  0.24865000  0.19227000  1.0
  O  O206  1  0.33405000  0.06426000  0.27122000  1.0
  O  O207  1  0.25256000  0.13697000  0.19109000  1.0
  O  O208  1  0.27055000  0.12598000  0.33288000  1.0
  O  O209  1  0.42302000  0.24853000  0.19379000  1.0
  O  O210  1  0.42550000  0.13329000  0.19032000  1.0
  O  O211  1  0.99881000  0.00012000  0.99993000  1.0
  O  O212  1  0.83072000  0.11257000  0.05863000  1.0
  O  O213  1  0.98879000  0.84484000  0.05162000  1.0
  O  O214  1  0.11515000  0.00093000  0.05634000  1.0
  O  O215  1  0.82298000  0.00135000  0.05674000  1.0
  O  O216  1  0.99948000  0.11659000  0.05932000  1.0
  O  O217  1  0.11218000  0.84449000  0.05180000  1.0
  O  O218  1  0.20009000  0.91580000  0.97139000  1.0
  O  O219  1  0.98080000  0.12447000  0.91745000  1.0
  O  O220  1  0.14683000  0.96883000  0.91202000  1.0
  O  O221  1  0.91903000  0.18636000  0.97902000  1.0
  O  O222  1  0.90888000  0.91528000  0.97084000  1.0
  O  O223  1  0.97516000  0.96805000  0.91433000  1.0
  F  F224  1  0.72414000  0.21665000  0.59446000  1.0
  F  F225  1  0.46982000  0.71915000  0.34132000  1.0
  F  F226  1  0.90864000  0.40228000  0.77986000  1.0
  F  F227  1  0.28384000  0.53355000  0.15551000  1.0
  F  F228  1  0.47154000  0.72135000  0.60431000  1.0
  F  F229  1  0.52033000  0.77054000  0.65331000  1.0
  F  F230  1  0.46911000  0.45366000  0.33731000  1.0
  F  F231  1  0.42000000  0.40450000  0.28843000  1.0
  F  F232  1  0.73973000  0.45379000  0.33730000  1.0
  F  F233  1  0.88668000  0.40458000  0.28825000  1.0
  F  F234  1  0.19462000  0.47959000  0.59650000  1.0
  F  F235  1  0.04752000  0.52869000  0.64547000  1.0
  F  F236  1  0.51097000  0.79608000  0.91285000  1.0
  F  F237  1  0.36383000  0.84495000  0.96181000  1.0
  F  F238  1  0.92101000  0.90508000  0.78823000  1.0
  F  F239  1  0.96987000  0.95398000  0.83732000  1.0
  F  F240  1  0.55593000  0.26975000  0.15324000  1.0
  F  F241  1  0.70291000  0.22079000  0.10422000  1.0
  F  F242  1  0.27819000  0.02868000  0.14554000  1.0
  F  F243  1  0.22892000  0.97988000  0.09656000  1.0
