# generated using pymatgen
data_Cu3H6C15N19
_symmetry_space_group_name_H-M   'P 1'
_cell_length_a   28.22380000
_cell_length_b   28.54730000
_cell_length_c   28.56010000
_cell_angle_alpha   89.99810000
_cell_angle_beta   89.99860000
_cell_angle_gamma   89.99840000
_symmetry_Int_Tables_number   1
_chemical_formula_structural   Cu3H6C15N19
_chemical_formula_sum   'Cu12 H24 C60 N76'
_cell_volume   23011.25198357
_cell_formula_units_Z   4
loop_
 _symmetry_equiv_pos_site_id
 _symmetry_equiv_pos_as_xyz
  1  'x, y, z'
loop_
 _atom_site_type_symbol
 _atom_site_label
 _atom_site_symmetry_multiplicity
 _atom_site_fract_x
 _atom_site_fract_y
 _atom_site_fract_z
 _atom_site_occupancy
  Cu  Cu0  1  0.87452000  0.08091000  0.16923000  1.0
  Cu  Cu1  1  0.82829000  0.12674000  0.07881000  1.0
  Cu  Cu2  1  0.92003000  0.17237000  0.12506000  1.0
  Cu  Cu3  1  0.12685000  0.41756000  0.67093000  1.0
  Cu  Cu4  1  0.17164000  0.37321000  0.57919000  1.0
  Cu  Cu5  1  0.07992000  0.32736000  0.62546000  1.0
  Cu  Cu6  1  0.37306000  0.91786000  0.32953000  1.0
  Cu  Cu7  1  0.32799000  0.87321000  0.42103000  1.0
  Cu  Cu8  1  0.41969000  0.82741000  0.37484000  1.0
  Cu  Cu9  1  0.62689000  0.58269000  0.82927000  1.0
  Cu  Cu10  1  0.67163000  0.62707000  0.92102000  1.0
  Cu  Cu11  1  0.57996000  0.67289000  0.87479000  1.0
  H  H12  1  0.79864000  0.00120000  0.19108000  1.0
  H  H13  1  0.74802000  0.05098000  0.05655000  1.0
  H  H14  1  0.99946000  0.19450000  0.20206000  1.0
  H  H15  1  0.95025000  0.05832000  0.24875000  1.0
  H  H16  1  0.80647000  0.20256000  0.99937000  1.0
  H  H17  1  0.94242000  0.25202000  0.04999000  1.0
  H  H18  1  0.20311000  0.49707000  0.69284000  1.0
  H  H19  1  0.25102000  0.44985000  0.55643000  1.0
  H  H20  1  0.99952000  0.30577000  0.70155000  1.0
  H  H21  1  0.05146000  0.44009000  0.75069000  1.0
  H  H22  1  0.19317000  0.29781000  0.49941000  1.0
  H  H23  1  0.05730000  0.24809000  0.55005000  1.0
  H  H24  1  0.29709000  0.99752000  0.30770000  1.0
  H  H25  1  0.24863000  0.94990000  0.44378000  1.0
  H  H26  1  0.50004000  0.80579000  0.29886000  1.0
  H  H27  1  0.44873000  0.94045000  0.25000000  1.0
  H  H28  1  0.30640000  0.79772000  0.50078000  1.0
  H  H29  1  0.44234000  0.74808000  0.45028000  1.0
  H  H30  1  0.70307000  0.50319000  0.80740000  1.0
  H  H31  1  0.75105000  0.55052000  0.94377000  1.0
  H  H32  1  0.49947000  0.69443000  0.79876000  1.0
  H  H33  1  0.55144000  0.56013000  0.74958000  1.0
  H  H34  1  0.69327000  0.70266000  0.00071000  1.0
  H  H35  1  0.55718000  0.75198000  0.95031000  1.0
  C  C36  1  0.79230000  0.01960000  0.15845000  1.0
  C  C37  1  0.75810000  0.01085000  0.12378000  1.0
  C  C38  1  0.76670000  0.04478000  0.08916000  1.0
  C  C39  1  0.98124000  0.16146000  0.20731000  1.0
  C  C40  1  0.98994000  0.12637000  0.24072000  1.0
  C  C41  1  0.95632000  0.09140000  0.23104000  1.0
  C  C42  1  0.83938000  0.20855000  0.01804000  1.0
  C  C43  1  0.87455000  0.24233000  0.00962000  1.0
  C  C44  1  0.90942000  0.23363000  0.04362000  1.0
  C  C45  1  0.20883000  0.47919000  0.65980000  1.0
  C  C46  1  0.24217000  0.48874000  0.62454000  1.0
  C  C47  1  0.23308000  0.45529000  0.58959000  1.0
  C  C48  1  0.01851000  0.33827000  0.70754000  1.0
  C  C49  1  0.01028000  0.37308000  0.74134000  1.0
  C  C50  1  0.04477000  0.40742000  0.73248000  1.0
  C  C51  1  0.16027000  0.29171000  0.51808000  1.0
  C  C52  1  0.12511000  0.25790000  0.50963000  1.0
  C  C53  1  0.09027000  0.26654000  0.54368000  1.0
  C  C54  1  0.29118000  0.97955000  0.34065000  1.0
  C  C55  1  0.25775000  0.98903000  0.37584000  1.0
  C  C56  1  0.26672000  0.95546000  0.41073000  1.0
  C  C57  1  0.48123000  0.83838000  0.29291000  1.0
  C  C58  1  0.48965000  0.87328000  0.25923000  1.0
  C  C59  1  0.45524000  0.90771000  0.26815000  1.0
  C  C60  1  0.33931000  0.79166000  0.48212000  1.0
  C  C61  1  0.37449000  0.75789000  0.49061000  1.0
  C  C62  1  0.40937000  0.76655000  0.45662000  1.0
  C  C63  1  0.70883000  0.52105000  0.84044000  1.0
  C  C64  1  0.74222000  0.51155000  0.87568000  1.0
  C  C65  1  0.73311000  0.54501000  0.91063000  1.0
  C  C66  1  0.51844000  0.66192000  0.79278000  1.0
  C  C67  1  0.51020000  0.62708000  0.75900000  1.0
  C  C68  1  0.54477000  0.59280000  0.76781000  1.0
  C  C69  1  0.66033000  0.70867000  0.98208000  1.0
  C  C70  1  0.62511000  0.74238000  0.99059000  1.0
  C  C71  1  0.59020000  0.73363000  0.95663000  1.0
  C  C72  1  0.65865000  0.91103000  0.12443000  1.0
  C  C73  1  0.72202000  0.97497000  0.12393000  1.0
  C  C74  1  0.34099000  0.58920000  0.62464000  1.0
  C  C75  1  0.27795000  0.52491000  0.62447000  1.0
  C  C76  1  0.15875000  0.08929000  0.37573000  1.0
  C  C77  1  0.22195000  0.02518000  0.37592000  1.0
  C  C78  1  0.84108000  0.41114000  0.87568000  1.0
  C  C79  1  0.77804000  0.47541000  0.87577000  1.0
  C  C80  1  0.08925000  0.12503000  0.34064000  1.0
  C  C81  1  0.02577000  0.12602000  0.27683000  1.0
  C  C82  1  0.41044000  0.62517000  0.65958000  1.0
  C  C83  1  0.47416000  0.62649000  0.72312000  1.0
  C  C84  1  0.91048000  0.37511000  0.84073000  1.0
  C  C85  1  0.97423000  0.37368000  0.77724000  1.0
  C  C86  1  0.58930000  0.87511000  0.15969000  1.0
  C  C87  1  0.52572000  0.87385000  0.22336000  1.0
  C  C88  1  0.87521000  0.34116000  0.91034000  1.0
  C  C89  1  0.87477000  0.27808000  0.97380000  1.0
  C  C90  1  0.37516000  0.65911000  0.58994000  1.0
  C  C91  1  0.37470000  0.72216000  0.52644000  1.0
  C  C92  1  0.62435000  0.84110000  0.08997000  1.0
  C  C93  1  0.62486000  0.77806000  0.02648000  1.0
  C  C94  1  0.12439000  0.15916000  0.41029000  1.0
  C  C95  1  0.12485000  0.22223000  0.47375000  1.0
  N  N96  1  0.37546000  0.62449000  0.62476000  1.0
  N  N97  1  0.62410000  0.87577000  0.12471000  1.0
  N  N98  1  0.87553000  0.37583000  0.87557000  1.0
  N  N99  1  0.12412000  0.12445000  0.37554000  1.0
  N  N100  1  0.80310000  0.07198000  0.10253000  1.0
  N  N101  1  0.81947000  0.05586000  0.14518000  1.0
  N  N102  1  0.92936000  0.10495000  0.19475000  1.0
  N  N103  1  0.94530000  0.14810000  0.17953000  1.0
  N  N104  1  0.89573000  0.19750000  0.07056000  1.0
  N  N105  1  0.85261000  0.18144000  0.05420000  1.0
  N  N106  1  0.19717000  0.42762000  0.60330000  1.0
  N  N107  1  0.18164000  0.44293000  0.64656000  1.0
  N  N108  1  0.07179000  0.39380000  0.69625000  1.0
  N  N109  1  0.05502000  0.35123000  0.68026000  1.0
  N  N110  1  0.10393000  0.30265000  0.57065000  1.0
  N  N111  1  0.14703000  0.31876000  0.55427000  1.0
  N  N112  1  0.30259000  0.92775000  0.39701000  1.0
  N  N113  1  0.31824000  0.94318000  0.35384000  1.0
  N  N114  1  0.42811000  0.89405000  0.30427000  1.0
  N  N115  1  0.44471000  0.85137000  0.32014000  1.0
  N  N116  1  0.39569000  0.80262000  0.42960000  1.0
  N  N117  1  0.35255000  0.81870000  0.44591000  1.0
  N  N118  1  0.69717000  0.57265000  0.89692000  1.0
  N  N119  1  0.68163000  0.55730000  0.85369000  1.0
  N  N120  1  0.57185000  0.60651000  0.80396000  1.0
  N  N121  1  0.55504000  0.64905000  0.81997000  1.0
  N  N122  1  0.60389000  0.69754000  0.92966000  1.0
  N  N123  1  0.64707000  0.68154000  0.94595000  1.0
  N  N124  1  0.66967000  0.92979000  0.08259000  1.0
  N  N125  1  0.67742000  0.92293000  0.16609000  1.0
  N  N126  1  0.70988000  0.95601000  0.16594000  1.0
  N  N127  1  0.70248000  0.96258000  0.08223000  1.0
  N  N128  1  0.32282000  0.57686000  0.66645000  1.0
  N  N129  1  0.32933000  0.57085000  0.58277000  1.0
  N  N130  1  0.29668000  0.53790000  0.58258000  1.0
  N  N131  1  0.29058000  0.54359000  0.66645000  1.0
  N  N132  1  0.17028000  0.07086000  0.41757000  1.0
  N  N133  1  0.17719000  0.07720000  0.33395000  1.0
  N  N134  1  0.20953000  0.04404000  0.33395000  1.0
  N  N135  1  0.20304000  0.03800000  0.41778000  1.0
  N  N136  1  0.82947000  0.42957000  0.91751000  1.0
  N  N137  1  0.82294000  0.42344000  0.83385000  1.0
  N  N138  1  0.79068000  0.45670000  0.83380000  1.0
  N  N139  1  0.79681000  0.46251000  0.91766000  1.0
  N  N140  1  0.07035000  0.08345000  0.32853000  1.0
  N  N141  1  0.07780000  0.16708000  0.32260000  1.0
  N  N142  1  0.04494000  0.16770000  0.28988000  1.0
  N  N143  1  0.03788000  0.08386000  0.29549000  1.0
  N  N144  1  0.42129000  0.66721000  0.67801000  1.0
  N  N145  1  0.42998000  0.58376000  0.67122000  1.0
  N  N146  1  0.46261000  0.58433000  0.70412000  1.0
  N  N147  1  0.45429000  0.66800000  0.71059000  1.0
  N  N148  1  0.92130000  0.33305000  0.82235000  1.0
  N  N149  1  0.92999000  0.41651000  0.82901000  1.0
  N  N150  1  0.96265000  0.41587000  0.79614000  1.0
  N  N151  1  0.95431000  0.33218000  0.78980000  1.0
  N  N152  1  0.57835000  0.83305000  0.17804000  1.0
  N  N153  1  0.57010000  0.91659000  0.17163000  1.0
  N  N154  1  0.53754000  0.91605000  0.20459000  1.0
  N  N155  1  0.54544000  0.83230000  0.21069000  1.0
  N  N156  1  0.83285000  0.32273000  0.92167000  1.0
  N  N157  1  0.91737000  0.32962000  0.92913000  1.0
  N  N158  1  0.91726000  0.29698000  0.96166000  1.0
  N  N159  1  0.83252000  0.29038000  0.95454000  1.0
  N  N160  1  0.41731000  0.67062000  0.57112000  1.0
  N  N161  1  0.33280000  0.67753000  0.57861000  1.0
  N  N162  1  0.33245000  0.70987000  0.54573000  1.0
  N  N163  1  0.41718000  0.70325000  0.53857000  1.0
  N  N164  1  0.66675000  0.82285000  0.07849000  1.0
  N  N165  1  0.58217000  0.82933000  0.07140000  1.0
  N  N166  1  0.58232000  0.79671000  0.03884000  1.0
  N  N167  1  0.66713000  0.79052000  0.04563000  1.0
  N  N168  1  0.16671000  0.17782000  0.42136000  1.0
  N  N169  1  0.08227000  0.17050000  0.42926000  1.0
  N  N170  1  0.08239000  0.20313000  0.46180000  1.0
  N  N171  1  0.16707000  0.21017000  0.45422000  1.0
