# generated using pymatgen
data_Cu2H23C25N15O2
_symmetry_space_group_name_H-M   'P 1'
_cell_length_a   8.06812000
_cell_length_b   8.07425000
_cell_length_c   12.52070000
_cell_angle_alpha   108.02600000
_cell_angle_beta   96.79880000
_cell_angle_gamma   109.61800000
_symmetry_Int_Tables_number   1
_chemical_formula_structural   Cu2H23C25N15O2
_chemical_formula_sum   'Cu2 H23 C25 N15 O2'
_cell_volume   707.73750455
_cell_formula_units_Z   1
loop_
 _symmetry_equiv_pos_site_id
 _symmetry_equiv_pos_as_xyz
  1  'x, y, z'
loop_
 _atom_site_type_symbol
 _atom_site_label
 _atom_site_symmetry_multiplicity
 _atom_site_fract_x
 _atom_site_fract_y
 _atom_site_fract_z
 _atom_site_occupancy
  Cu  Cu0  1  0.14225000  0.43987000  0.52271000  1.0
  Cu  Cu1  1  0.91674000  0.61939000  0.47707000  1.0
  H  H2  1  0.73012000  0.08235000  0.65557000  1.0
  H  H3  1  0.42709000  0.07523000  0.34487000  1.0
  H  H4  1  0.85729000  0.34184000  0.00028000  1.0
  H  H5  1  0.34014000  0.85591000  0.99985000  1.0
  H  H6  1  0.37585000  0.28291000  0.63096000  1.0
  H  H7  1  0.65169000  0.74453000  0.36908000  1.0
  H  H8  1  0.60831000  0.43871000  0.67127000  1.0
  H  H9  1  0.76682000  0.93650000  0.32861000  1.0
  H  H10  1  0.59408000  0.15902000  0.05637000  1.0
  H  H11  1  0.10180000  0.53646000  0.94374000  1.0
  H  H12  1  0.71811000  0.21820000  0.50026000  1.0
  H  H13  1  0.27794000  0.07055000  0.94317000  1.0
  H  H14  1  0.12717000  0.33387000  0.05694000  1.0
  H  H15  1  0.23242000  0.17408000  0.78054000  1.0
  H  H16  1  0.39363000  0.45129000  0.21944000  1.0
  H  H17  1  0.81135000  0.45340000  0.83849000  1.0
  H  H18  1  0.61356000  0.97215000  0.16167000  1.0
  H  H19  1  0.56621000  0.82781000  0.90524000  1.0
  H  H20  1  0.92276000  0.66156000  0.09467000  1.0
  H  H21  1  0.72141000  0.73580000  0.84259000  1.0
  H  H22  1  0.89317000  0.87910000  0.15753000  1.0
  H  H23  1  0.32436000  0.52731000  0.79415000  1.0
  H  H24  1  0.73331000  0.53036000  0.20569000  1.0
  C  C25  1  0.51882000  0.32289000  0.79891000  1.0
  C  C26  1  0.52342000  0.71923000  0.20113000  1.0
  C  C27  1  0.60892000  0.02575000  0.58579000  1.0
  C  C28  1  0.44013000  0.02354000  0.41451000  1.0
  C  C29  1  0.46920000  0.77589000  0.66185000  1.0
  C  C30  1  0.11419000  0.80753000  0.33809000  1.0
  C  C31  1  0.72060000  0.30805000  0.95276000  1.0
  C  C32  1  0.35412000  0.76685000  0.04736000  1.0
  C  C33  1  0.48662000  0.39478000  0.70407000  1.0
  C  C34  1  0.69031000  0.78211000  0.29590000  1.0
  C  C35  1  0.57166000  0.20322000  0.98394000  1.0
  C  C36  1  0.21843000  0.58671000  0.01623000  1.0
  C  C37  1  0.45687000  0.87088000  0.57977000  1.0
  C  C38  1  0.29120000  0.87726000  0.42027000  1.0
  C  C39  1  0.60102000  0.10108000  0.50019000  1.0
  C  C40  1  0.39603000  0.15470000  0.92128000  1.0
  C  C41  1  0.23299000  0.47390000  0.07885000  1.0
  C  C42  1  0.43108000  0.56350000  0.74826000  1.0
  C  C43  1  0.81526000  0.68288000  0.25166000  1.0
  C  C44  1  0.37014000  0.21318000  0.82922000  1.0
  C  C45  1  0.38370000  0.54020000  0.17081000  1.0
  C  C46  1  0.69442000  0.36883000  0.86148000  1.0
  C  C47  1  0.50630000  0.83211000  0.13865000  1.0
  C  C48  1  0.59214000  0.75124000  0.82446000  1.0
  C  C49  1  0.92689000  0.76803000  0.17552000  1.0
  N  N50  1  0.29877000  0.79868000  0.49992000  1.0
  N  N51  1  0.35935000  0.60914000  0.65150000  1.0
  N  N52  1  0.95768000  0.70790000  0.34838000  1.0
  N  N53  1  0.00712000  0.63465000  0.71020000  1.0
  N  N54  1  0.92403000  0.29660000  0.28964000  1.0
  N  N55  1  0.96596000  0.53108000  0.60918000  1.0
  N  N56  1  0.92175000  0.35689000  0.39070000  1.0
  N  N57  1  0.04044000  0.72883000  0.80774000  1.0
  N  N58  1  0.92035000  0.23194000  0.19207000  1.0
  N  N59  1  0.43258000  0.41242000  0.42262000  1.0
  N  N60  1  0.98966000  0.00957000  0.57706000  1.0
  N  N61  1  0.27319000  0.33693000  0.41377000  1.0
  N  N62  1  0.92297000  0.85923000  0.58605000  1.0
  N  N63  1  0.58736000  0.47684000  0.42486000  1.0
  N  N64  1  0.05188000  0.16185000  0.57463000  1.0
  O  O65  1  0.61197000  0.86901000  0.75422000  1.0
  O  O66  1  0.11496000  0.85794000  0.24573000  1.0
