# generated using pymatgen
data_MnH16C14(N7O)2
_symmetry_space_group_name_H-M   'P 1'
_cell_length_a   9.49189000
_cell_length_b   9.58963000
_cell_length_c   12.23410000
_cell_angle_alpha   95.53020000
_cell_angle_beta   96.31290000
_cell_angle_gamma   117.62700000
_symmetry_Int_Tables_number   1
_chemical_formula_structural   MnH16C14(N7O)2
_chemical_formula_sum   'Mn2 H32 C28 N28 O4'
_cell_volume   966.81697345
_cell_formula_units_Z   2
loop_
 _symmetry_equiv_pos_site_id
 _symmetry_equiv_pos_as_xyz
  1  'x, y, z'
loop_
 _atom_site_type_symbol
 _atom_site_label
 _atom_site_symmetry_multiplicity
 _atom_site_fract_x
 _atom_site_fract_y
 _atom_site_fract_z
 _atom_site_occupancy
  Mn  Mn0  1  0.49999000  0.99999000  1.00000000  1.0
  Mn  Mn1  1  0.50000000  0.00001000  0.50000000  1.0
  H  H2  1  0.88924000  0.52406000  0.67907000  1.0
  H  H3  1  0.11076000  0.47594000  0.32093000  1.0
  H  H4  1  0.94961000  0.58146000  0.81702000  1.0
  H  H5  1  0.05039000  0.41853000  0.18299000  1.0
  H  H6  1  0.43400000  0.42763000  0.65929000  1.0
  H  H7  1  0.56600000  0.57237000  0.34071000  1.0
  H  H8  1  0.59167000  0.37929000  0.65127000  1.0
  H  H9  1  0.40833000  0.62072000  0.34873000  1.0
  H  H10  1  0.06750000  0.07883000  0.83208000  1.0
  H  H11  1  0.93251000  0.92117000  0.16792000  1.0
  H  H12  1  0.12393000  0.92898000  0.84788000  1.0
  H  H13  1  0.87608000  0.07103000  0.15212000  1.0
  H  H14  1  0.61895000  0.20852000  0.78199000  1.0
  H  H15  1  0.38105000  0.79148000  0.21801000  1.0
  H  H16  1  0.32942000  0.23618000  0.01291000  1.0
  H  H17  1  0.67058000  0.76382000  0.98709000  1.0
  H  H18  1  0.36283000  0.45421000  0.86952000  1.0
  H  H19  1  0.63717000  0.54580000  0.13049000  1.0
  H  H20  1  0.28393000  0.88312000  0.71564000  1.0
  H  H21  1  0.71607000  0.11687000  0.28435000  1.0
  H  H22  1  0.26938000  0.17477000  0.48162000  1.0
  H  H23  1  0.73061000  0.82522000  0.51838000  1.0
  H  H24  1  0.05169000  0.15097000  0.62387000  1.0
  H  H25  1  0.94832000  0.84903000  0.37613000  1.0
  H  H26  1  0.46661000  0.77534000  0.80313000  1.0
  H  H27  1  0.53338000  0.22466000  0.19687000  1.0
  H  H28  1  0.30813000  0.71051000  0.85840000  1.0
  H  H29  1  0.69186000  0.28947000  0.14160000  1.0
  H  H30  1  0.78716000  0.18388000  0.64488000  1.0
  H  H31  1  0.21285000  0.81613000  0.35512000  1.0
  H  H32  1  0.71815000  0.02499000  0.70055000  1.0
  H  H33  1  0.28185000  0.97501000  0.29945000  1.0
  C  C34  1  0.66239000  0.61552000  0.73389000  1.0
  C  C35  1  0.33761000  0.38448000  0.26611000  1.0
  C  C36  1  0.88439000  0.84624000  0.76266000  1.0
  C  C37  1  0.11561000  0.15376000  0.23734000  1.0
  C  C38  1  0.54653000  0.44126000  0.70592000  1.0
  C  C39  1  0.45347000  0.55874000  0.29408000  1.0
  C  C40  1  0.05842000  0.96807000  0.78977000  1.0
  C  C41  1  0.94158000  0.03193000  0.21023000  1.0
  C  C42  1  0.54917000  0.24734000  0.82951000  1.0
  C  C43  1  0.45083000  0.75266000  0.17049000  1.0
  C  C44  1  0.39628000  0.26427000  0.94461000  1.0
  C  C45  1  0.60373000  0.73573000  0.05539000  1.0
  C  C46  1  0.41101000  0.37192000  0.87455000  1.0
  C  C47  1  0.58899000  0.62808000  0.12546000  1.0
  C  C48  1  0.25007000  0.95623000  0.66773000  1.0
  C  C49  1  0.74993000  0.04377000  0.33227000  1.0
  C  C50  1  0.23911000  0.10976000  0.55070000  1.0
  C  C51  1  0.76089000  0.89025000  0.44930000  1.0
  C  C52  1  0.13219000  0.10012000  0.62024000  1.0
  C  C53  1  0.86781000  0.89988000  0.37976000  1.0
  C  C54  1  0.87330000  0.17996000  0.96241000  1.0
  C  C55  1  0.12668000  0.82002000  0.03757000  1.0
  C  C56  1  0.08155000  0.40993000  0.92455000  1.0
  C  C57  1  0.91843000  0.59004000  0.07544000  1.0
  C  C58  1  0.31836000  0.63490000  0.55262000  1.0
  C  C59  1  0.68165000  0.36510000  0.44739000  1.0
  C  C60  1  0.08942000  0.42833000  0.59716000  1.0
  C  C61  1  0.91059000  0.57168000  0.40284000  1.0
  N  N62  1  0.62123000  0.73025000  0.74145000  1.0
  N  N63  1  0.37878000  0.26975000  0.25855000  1.0
  N  N64  1  0.76056000  0.87497000  0.75943000  1.0
  N  N65  1  0.23945000  0.12503000  0.24058000  1.0
  N  N66  1  0.82828000  0.68453000  0.74677000  1.0
  N  N67  1  0.17173000  0.31547000  0.25324000  1.0
  N  N68  1  0.93086000  0.61784000  0.74336000  1.0
  N  N69  1  0.06914000  0.38216000  0.25664000  1.0
  N  N70  1  0.50850000  0.35988000  0.80214000  1.0
  N  N71  1  0.49150000  0.64013000  0.19786000  1.0
  N  N72  1  0.48229000  0.18708000  0.91552000  1.0
  N  N73  1  0.51770000  0.81292000  0.08448000  1.0
  N  N74  1  0.14065000  0.00250000  0.69396000  1.0
  N  N75  1  0.85936000  0.99751000  0.30604000  1.0
  N  N76  1  0.31215000  0.02013000  0.58127000  1.0
  N  N77  1  0.68785000  0.97986000  0.41872000  1.0
  N  N78  1  0.02246000  0.27113000  0.95583000  1.0
  N  N79  1  0.97751000  0.72884000  0.04414000  1.0
  N  N80  1  0.74290000  0.08440000  0.97278000  1.0
  N  N81  1  0.25708000  0.91558000  0.02722000  1.0
  N  N82  1  0.15049000  0.53636000  0.89772000  1.0
  N  N83  1  0.84949000  0.46363000  0.10228000  1.0
  N  N84  1  0.23718000  0.49708000  0.58061000  1.0
  N  N85  1  0.76283000  0.50293000  0.41941000  1.0
  N  N86  1  0.40717000  0.75610000  0.52578000  1.0
  N  N87  1  0.59285000  0.24391000  0.47422000  1.0
  N  N88  1  0.95729000  0.35110000  0.61465000  1.0
  N  N89  1  0.04272000  0.64891000  0.38535000  1.0
  O  O90  1  0.39702000  0.80887000  0.84053000  1.0
  O  O91  1  0.60296000  0.19112000  0.15946000  1.0
  O  O92  1  0.68683000  0.09550000  0.66141000  1.0
  O  O93  1  0.31318000  0.90451000  0.33859000  1.0
