# generated using pymatgen
data_KHC3(NO)4
_symmetry_space_group_name_H-M   'P 1'
_cell_length_a   6.78219000
_cell_length_b   6.98154000
_cell_length_c   8.07343000
_cell_angle_alpha   97.62920000
_cell_angle_beta   99.23830000
_cell_angle_gamma   115.51900000
_symmetry_Int_Tables_number   1
_chemical_formula_structural   KHC3(NO)4
_chemical_formula_sum   'K2 H2 C6 N8 O8'
_cell_volume   331.64438363
_cell_formula_units_Z   2
loop_
 _symmetry_equiv_pos_site_id
 _symmetry_equiv_pos_as_xyz
  1  'x, y, z'
loop_
 _atom_site_type_symbol
 _atom_site_label
 _atom_site_symmetry_multiplicity
 _atom_site_fract_x
 _atom_site_fract_y
 _atom_site_fract_z
 _atom_site_occupancy
  K  K0  1  0.79984000  0.01785000  0.67579000  1.0
  K  K1  1  0.20012000  0.98219000  0.32421000  1.0
  H  H2  1  0.21612000  0.51530000  0.12967000  1.0
  H  H3  1  0.78388000  0.48469000  0.87033000  1.0
  C  C4  1  0.30722000  0.56525000  0.76170000  1.0
  C  C5  1  0.69278000  0.43475000  0.23830000  1.0
  C  C6  1  0.47933000  0.74285000  0.01102000  1.0
  C  C7  1  0.52068000  0.25714000  0.98898000  1.0
  C  C8  1  0.27848000  0.56264000  0.01821000  1.0
  C  C9  1  0.72152000  0.43735000  0.98179000  1.0
  N  N10  1  0.49678000  0.74357000  0.84686000  1.0
  N  N11  1  0.50322000  0.25644000  0.15314000  1.0
  N  N12  1  0.16944000  0.44789000  0.85598000  1.0
  N  N13  1  0.83056000  0.55210000  0.14401000  1.0
  N  N14  1  0.25462000  0.49905000  0.57846000  1.0
  N  N15  1  0.74538000  0.50095000  0.42154000  1.0
  N  N16  1  0.65334000  0.90239000  0.15084000  1.0
  N  N17  1  0.34666000  0.09760000  0.84915000  1.0
  O  O18  1  0.61511000  0.90374000  0.29791000  1.0
  O  O19  1  0.38491000  0.09626000  0.70209000  1.0
  O  O20  1  0.83406000  0.03017000  0.12236000  1.0
  O  O21  1  0.16594000  0.96982000  0.87762000  1.0
  O  O22  1  0.09703000  0.31292000  0.50734000  1.0
  O  O23  1  0.90297000  0.68707000  0.49266000  1.0
  O  O24  1  0.36829000  0.62774000  0.49721000  1.0
  O  O25  1  0.63171000  0.37226000  0.50279000  1.0
