# generated using pymatgen
data_ZnH13C23(NO2)4
_symmetry_space_group_name_H-M   'P 1'
_cell_length_a   8.17152000
_cell_length_b   11.56840000
_cell_length_c   14.40410000
_cell_angle_alpha   69.99630000
_cell_angle_beta   82.60040000
_cell_angle_gamma   74.86980000
_symmetry_Int_Tables_number   1
_chemical_formula_structural   ZnH13C23(NO2)4
_chemical_formula_sum   'Zn2 H26 C46 N8 O16'
_cell_volume   1233.96786042
_cell_formula_units_Z   2
loop_
 _symmetry_equiv_pos_site_id
 _symmetry_equiv_pos_as_xyz
  1  'x, y, z'
loop_
 _atom_site_type_symbol
 _atom_site_label
 _atom_site_symmetry_multiplicity
 _atom_site_fract_x
 _atom_site_fract_y
 _atom_site_fract_z
 _atom_site_occupancy
  Zn  Zn0  1  0.41417000  0.84285000  0.05413000  1.0
  Zn  Zn1  1  0.58582000  0.15714000  0.94588000  1.0
  H  H2  1  0.35707000  0.45962000  0.30160000  1.0
  H  H3  1  0.64292000  0.54038000  0.69841000  1.0
  H  H4  1  0.83513000  0.35179000  0.62297000  1.0
  H  H5  1  0.16488000  0.64821000  0.37703000  1.0
  H  H6  1  0.99537000  0.74218000  0.64954000  1.0
  H  H7  1  0.00463000  0.25782000  0.35046000  1.0
  H  H8  1  0.36852000  0.14410000  0.17749000  1.0
  H  H9  1  0.63148000  0.85591000  0.82251000  1.0
  H  H10  1  0.70566000  0.81942000  0.36290000  1.0
  H  H11  1  0.29434000  0.18058000  0.63709000  1.0
  H  H12  1  0.59429000  0.17528000  0.41946000  1.0
  H  H13  1  0.40570000  0.82472000  0.58054000  1.0
  H  H14  1  0.75957000  0.16451000  0.62606000  1.0
  H  H15  1  0.24044000  0.83549000  0.37393000  1.0
  H  H16  1  0.01036000  0.11382000  0.88907000  1.0
  H  H17  1  0.98963000  0.88618000  0.11094000  1.0
  H  H18  1  0.10694000  0.81152000  0.76762000  1.0
  H  H19  1  0.89306000  0.18848000  0.23238000  1.0
  H  H20  1  0.49446000  0.58040000  0.05442000  1.0
  H  H21  1  0.50554000  0.41959000  0.94556000  1.0
  H  H22  1  0.75108000  0.41811000  0.03752000  1.0
  H  H23  1  0.24891000  0.58190000  0.96245000  1.0
  H  H24  1  0.04112000  0.70135000  0.98463000  1.0
  H  H25  1  0.95887000  0.29865000  0.01538000  1.0
  H  H26  1  0.77125000  0.85064000  0.00695000  1.0
  H  H27  1  0.22874000  0.14935000  0.99307000  1.0
  C  C28  1  0.37066000  0.30739000  0.27316000  1.0
  C  C29  1  0.62935000  0.69262000  0.72684000  1.0
  C  C30  1  0.47120000  0.17449000  0.29577000  1.0
  C  C31  1  0.52880000  0.82551000  0.70423000  1.0
  C  C32  1  0.45181000  0.10191000  0.23946000  1.0
  C  C33  1  0.54819000  0.89809000  0.76053000  1.0
  C  C34  1  0.53864000  0.97493000  0.26317000  1.0
  C  C35  1  0.46136000  0.02507000  0.73683000  1.0
  C  C36  1  0.64244000  0.91933000  0.34460000  1.0
  C  C37  1  0.35757000  0.08068000  0.65539000  1.0
  C  C38  1  0.66438000  0.99183000  0.40041000  1.0
  C  C39  1  0.33563000  0.00817000  0.59959000  1.0
  C  C40  1  0.57887000  0.11989000  0.37494000  1.0
  C  C41  1  0.42113000  0.88011000  0.62506000  1.0
  C  C42  1  0.51749000  0.89594000  0.20374000  1.0
  C  C43  1  0.48251000  0.10406000  0.79626000  1.0
  C  C44  1  0.77136000  0.94151000  0.48609000  1.0
  C  C45  1  0.22864000  0.05850000  0.51391000  1.0
  C  C46  1  0.88401000  0.94147000  0.61167000  1.0
  C  C47  1  0.11600000  0.05853000  0.38833000  1.0
  C  C48  1  0.92764000  0.98351000  0.68799000  1.0
  C  C49  1  0.07236000  0.01650000  0.31201000  1.0
  C  C50  1  0.84867000  0.10840000  0.68411000  1.0
  C  C51  1  0.15133000  0.89160000  0.31589000  1.0
  C  C52  1  0.87572000  0.15411000  0.75738000  1.0
  C  C53  1  0.12428000  0.84589000  0.24262000  1.0
  C  C54  1  0.98741000  0.07841000  0.83233000  1.0
  C  C55  1  0.01259000  0.92159000  0.16767000  1.0
  C  C56  1  0.07248000  0.95668000  0.83356000  1.0
  C  C57  1  0.92752000  0.04332000  0.16644000  1.0
  C  C58  1  0.03989000  0.90800000  0.76300000  1.0
  C  C59  1  0.96011000  0.09200000  0.23700000  1.0
  C  C60  1  0.78024000  0.27978000  0.76165000  1.0
  C  C61  1  0.21977000  0.72021000  0.23836000  1.0
  C  C62  1  0.20166000  0.87982000  0.90991000  1.0
  C  C63  1  0.79833000  0.12018000  0.09009000  1.0
  C  C64  1  0.61877000  0.60246000  0.03873000  1.0
  C  C65  1  0.38123000  0.39754000  0.96125000  1.0
  C  C66  1  0.76371000  0.51287000  0.02821000  1.0
  C  C67  1  0.23629000  0.48713000  0.97178000  1.0
  C  C68  1  0.92131000  0.54582000  0.00707000  1.0
  C  C69  1  0.07868000  0.45419000  0.99292000  1.0
  C  C70  1  0.92351000  0.66951000  0.00018000  1.0
  C  C71  1  0.07649000  0.33049000  0.99982000  1.0
  C  C72  1  0.77359000  0.75391000  0.01221000  1.0
  C  C73  1  0.22640000  0.24608000  0.98779000  1.0
  N  N74  1  0.78403000  0.01745000  0.53804000  1.0
  N  N75  1  0.21598000  0.98255000  0.46196000  1.0
  N  N76  1  0.86096000  0.82140000  0.52289000  1.0
  N  N77  1  0.13904000  0.17860000  0.47711000  1.0
  N  N78  1  0.93145000  0.82429000  0.60213000  1.0
  N  N79  1  0.06855000  0.17571000  0.39787000  1.0
  N  N80  1  0.62289000  0.72129000  0.03027000  1.0
  N  N81  1  0.37710000  0.27871000  0.96973000  1.0
  O  O82  1  0.43392000  0.37519000  0.31385000  1.0
  O  O83  1  0.56607000  0.62481000  0.68616000  1.0
  O  O84  1  0.24246000  0.35116000  0.22471000  1.0
  O  O85  1  0.75755000  0.64884000  0.77529000  1.0
  O  O86  1  0.44098000  0.95865000  0.12037000  1.0
  O  O87  1  0.55902000  0.04135000  0.87962000  1.0
  O  O88  1  0.56739000  0.77850000  0.23515000  1.0
  O  O89  1  0.43260000  0.22150000  0.76485000  1.0
  O  O90  1  0.76806000  0.37859000  0.67659000  1.0
  O  O91  1  0.23194000  0.62141000  0.32342000  1.0
  O  O92  1  0.71289000  0.30055000  0.83775000  1.0
  O  O93  1  0.28711000  0.69944000  0.16225000  1.0
  O  O94  1  0.23069000  0.93957000  0.96549000  1.0
  O  O95  1  0.76930000  0.06042000  0.03451000  1.0
  O  O96  1  0.27297000  0.76791000  0.91648000  1.0
  O  O97  1  0.72703000  0.23208000  0.08352000  1.0
