# generated using pymatgen
data_NdH23C38(NO2)4
_symmetry_space_group_name_H-M   'P 1'
_cell_length_a   9.08391000
_cell_length_b   13.47250000
_cell_length_c   14.09740000
_cell_angle_alpha   96.80980000
_cell_angle_beta   96.39700000
_cell_angle_gamma   104.58900000
_symmetry_Int_Tables_number   1
_chemical_formula_structural   NdH23C38(NO2)4
_chemical_formula_sum   'Nd2 H46 C76 N8 O16'
_cell_volume   1639.85820729
_cell_formula_units_Z   2
loop_
 _symmetry_equiv_pos_site_id
 _symmetry_equiv_pos_as_xyz
  1  'x, y, z'
loop_
 _atom_site_type_symbol
 _atom_site_label
 _atom_site_symmetry_multiplicity
 _atom_site_fract_x
 _atom_site_fract_y
 _atom_site_fract_z
 _atom_site_occupancy
  Nd  Nd0  1  0.36875000  0.35690000  0.51244000  1.0
  Nd  Nd1  1  0.63125000  0.64310000  0.48756000  1.0
  H  H2  1  0.46230000  0.56736000  0.05955000  1.0
  H  H3  1  0.53770000  0.43264000  0.94045000  1.0
  H  H4  1  0.31507000  0.21316000  0.83085000  1.0
  H  H5  1  0.68492000  0.78684000  0.16916000  1.0
  H  H6  1  0.12791000  0.03663000  0.09792000  1.0
  H  H7  1  0.87209000  0.96338000  0.90208000  1.0
  H  H8  1  0.49473000  0.55645000  0.23471000  1.0
  H  H9  1  0.50527000  0.44355000  0.76529000  1.0
  H  H10  1  0.28206000  0.91291000  0.83611000  1.0
  H  H11  1  0.71794000  0.08709000  0.16390000  1.0
  H  H12  1  0.96630000  0.21996000  0.13425000  1.0
  H  H13  1  0.03369000  0.78003000  0.86575000  1.0
  H  H14  1  0.94254000  0.50201000  0.30600000  1.0
  H  H15  1  0.05746000  0.49799000  0.69400000  1.0
  H  H16  1  0.47743000  0.15779000  0.39206000  1.0
  H  H17  1  0.52257000  0.84221000  0.60794000  1.0
  H  H18  1  0.61847000  0.20675000  0.30131000  1.0
  H  H19  1  0.38153000  0.79325000  0.69870000  1.0
  H  H20  1  0.84477000  0.88201000  0.31452000  1.0
  H  H21  1  0.15522000  0.11799000  0.68547000  1.0
  H  H22  1  0.72863000  0.18186000  0.99289000  1.0
  H  H23  1  0.27137000  0.81814000  0.00711000  1.0
  H  H24  1  0.10729000  0.88712000  0.26896000  1.0
  H  H25  1  0.89271000  0.11288000  0.73104000  1.0
  H  H26  1  0.64070000  0.12797000  0.49984000  1.0
  H  H27  1  0.35930000  0.87203000  0.50016000  1.0
  H  H28  1  0.03504000  0.39341000  0.57598000  1.0
  H  H29  1  0.96496000  0.60659000  0.42402000  1.0
  H  H30  1  0.43763000  0.33271000  0.22319000  1.0
  H  H31  1  0.56238000  0.66729000  0.77681000  1.0
  H  H32  1  0.20711000  0.48277000  0.95791000  1.0
  H  H33  1  0.79289000  0.51723000  0.04209000  1.0
  H  H34  1  0.98723000  0.39459000  0.03360000  1.0
  H  H35  1  0.01277000  0.60541000  0.96640000  1.0
  H  H36  1  0.67418000  0.96998000  0.39607000  1.0
  H  H37  1  0.32583000  0.03002000  0.60393000  1.0
  H  H38  1  0.38715000  0.98026000  0.29218000  1.0
  H  H39  1  0.61285000  0.01974000  0.70782000  1.0
  H  H40  1  0.20820000  0.18952000  0.23053000  1.0
  H  H41  1  0.79180000  0.81049000  0.76948000  1.0
  H  H42  1  0.73557000  0.23779000  0.71090000  1.0
  H  H43  1  0.26443000  0.76221000  0.28910000  1.0
  H  H44  1  0.57458000  0.33024000  0.08063000  1.0
  H  H45  1  0.42542000  0.66976000  0.91937000  1.0
  H  H46  1  0.75240000  0.31030000  0.57655000  1.0
  H  H47  1  0.24760000  0.68970000  0.42345000  1.0
  C  C48  1  0.29466000  0.45219000  0.33548000  1.0
  C  C49  1  0.70534000  0.54781000  0.66452000  1.0
  C  C50  1  0.68299000  0.40891000  0.38241000  1.0
  C  C51  1  0.31701000  0.59109000  0.61759000  1.0
  C  C52  1  0.11419000  0.42574000  0.17747000  1.0
  C  C53  1  0.88580000  0.57425000  0.82253000  1.0
  C  C54  1  0.97748000  0.36967000  0.21744000  1.0
  C  C55  1  0.02252000  0.63033000  0.78256000  1.0
  C  C56  1  0.25975000  0.47180000  0.23418000  1.0
  C  C57  1  0.74025000  0.52820000  0.76582000  1.0
  C  C58  1  0.44498000  0.25253000  0.66797000  1.0
  C  C59  1  0.55502000  0.74747000  0.33203000  1.0
  C  C60  1  0.36475000  0.52785000  0.09199000  1.0
  C  C61  1  0.63525000  0.47215000  0.90801000  1.0
  C  C62  1  0.43437000  0.20975000  0.83665000  1.0
  C  C63  1  0.56562000  0.79025000  0.16335000  1.0
  C  C64  1  0.22598000  0.10178000  0.09585000  1.0
  C  C65  1  0.77402000  0.89822000  0.90415000  1.0
  C  C66  1  0.38261000  0.52316000  0.19067000  1.0
  C  C67  1  0.61739000  0.47684000  0.80933000  1.0
  C  C68  1  0.91545000  0.26301000  0.18599000  1.0
  C  C69  1  0.08455000  0.73699000  0.81400000  1.0
  C  C70  1  0.77146000  0.36054000  0.31445000  1.0
  C  C71  1  0.22855000  0.63946000  0.68555000  1.0
  C  C72  1  0.90195000  0.41857000  0.28204000  1.0
  C  C73  1  0.09806000  0.58143000  0.71796000  1.0
  C  C74  1  0.51507000  0.22567000  0.75882000  1.0
  C  C75  1  0.48493000  0.77433000  0.24118000  1.0
  C  C76  1  0.11139000  0.11348000  0.40963000  1.0
  C  C77  1  0.88861000  0.88653000  0.59037000  1.0
  C  C78  1  0.35675000  0.11430000  0.38058000  1.0
  C  C79  1  0.64325000  0.88570000  0.61942000  1.0
  C  C80  1  0.72097000  0.25424000  0.27944000  1.0
  C  C81  1  0.27903000  0.74576000  0.72056000  1.0
  C  C82  1  0.88913000  0.96120000  0.35258000  1.0
  C  C83  1  0.11087000  0.03880000  0.64742000  1.0
  C  C84  1  0.66526000  0.19464000  0.92699000  1.0
  C  C85  1  0.33473000  0.80536000  0.07301000  1.0
  C  C86  1  0.15097000  0.96358000  0.31296000  1.0
  C  C87  1  0.84903000  0.03642000  0.68704000  1.0
  C  C88  1  0.50931000  0.19260000  0.92269000  1.0
  C  C89  1  0.49069000  0.80740000  0.07731000  1.0
  C  C90  1  0.42945000  0.18234000  0.00862000  1.0
  C  C91  1  0.57055000  0.81766000  0.99138000  1.0
  C  C92  1  0.01143000  0.16587000  0.45487000  1.0
  C  C93  1  0.98857000  0.83413000  0.54513000  1.0
  C  C94  1  0.76103000  0.16605000  0.49785000  1.0
  C  C95  1  0.23897000  0.83395000  0.50215000  1.0
  C  C96  1  0.98039000  0.31354000  0.54228000  1.0
  C  C97  1  0.01961000  0.68646000  0.45772000  1.0
  C  C98  1  0.85343000  0.11285000  0.44992000  1.0
  C  C99  1  0.14658000  0.88715000  0.55008000  1.0
  C  C100  1  0.24573000  0.00031000  0.94426000  1.0
  C  C101  1  0.75428000  0.99969000  0.05574000  1.0
  C  C102  1  0.39913000  0.26745000  0.16485000  1.0
  C  C103  1  0.60087000  0.73255000  0.83515000  1.0
  C  C104  1  0.04917000  0.01162000  0.35709000  1.0
  C  C105  1  0.95083000  0.98838000  0.64290000  1.0
  C  C106  1  0.22251000  0.48088000  0.03550000  1.0
  C  C107  1  0.77749000  0.51912000  0.96450000  1.0
  C  C108  1  0.09843000  0.43080000  0.07818000  1.0
  C  C109  1  0.90157000  0.56920000  0.92182000  1.0
  C  C110  1  0.79531000  0.00960000  0.39810000  1.0
  C  C111  1  0.20469000  0.99040000  0.60190000  1.0
  C  C112  1  0.30569000  0.01494000  0.32550000  1.0
  C  C113  1  0.69431000  0.98506000  0.67450000  1.0
  C  C114  1  0.30360000  0.09811000  0.01535000  1.0
  C  C115  1  0.69640000  0.90189000  0.98465000  1.0
  C  C116  1  0.27139000  0.18624000  0.16951000  1.0
  C  C117  1  0.72861000  0.81377000  0.83049000  1.0
  C  C118  1  0.66988000  0.22446000  0.77062000  1.0
  C  C119  1  0.33012000  0.77553000  0.22938000  1.0
  C  C120  1  0.47680000  0.26536000  0.08513000  1.0
  C  C121  1  0.52320000  0.73464000  0.91487000  1.0
  C  C122  1  0.82390000  0.26733000  0.54241000  1.0
  C  C123  1  0.17610000  0.73267000  0.45759000  1.0
  N  N124  1  0.26334000  0.16340000  0.42028000  1.0
  N  N125  1  0.73666000  0.83660000  0.57972000  1.0
  N  N126  1  0.07292000  0.26420000  0.50187000  1.0
  N  N127  1  0.92708000  0.73580000  0.49813000  1.0
  N  N128  1  0.79059000  0.20669000  0.21660000  1.0
  N  N129  1  0.20941000  0.79331000  0.78340000  1.0
  N  N130  1  0.74489000  0.20998000  0.85276000  1.0
  N  N131  1  0.25511000  0.79002000  0.14724000  1.0
  O  O132  1  0.56612000  0.34882000  0.40720000  1.0
  O  O133  1  0.43388000  0.65119000  0.59280000  1.0
  O  O134  1  0.40468000  0.51620000  0.39505000  1.0
  O  O135  1  0.59532000  0.48380000  0.60495000  1.0
  O  O136  1  0.32828000  0.28955000  0.66896000  1.0
  O  O137  1  0.67172000  0.71045000  0.33104000  1.0
  O  O138  1  0.50749000  0.24265000  0.59174000  1.0
  O  O139  1  0.49251000  0.75735000  0.40826000  1.0
  O  O140  1  0.73039000  0.50656000  0.40967000  1.0
  O  O141  1  0.26961000  0.49344000  0.59033000  1.0
  O  O142  1  0.21992000  0.36752000  0.35840000  1.0
  O  O143  1  0.78008000  0.63248000  0.64160000  1.0
  O  O144  1  0.33207000  0.98679000  0.87553000  1.0
  O  O145  1  0.66793000  0.01321000  0.12447000  1.0
  O  O146  1  0.12669000  0.93469000  0.95165000  1.0
  O  O147  1  0.87330000  0.06531000  0.04836000  1.0
