# generated using pymatgen
data_Pr2H10C14N4O15
_symmetry_space_group_name_H-M   'P 1'
_cell_length_a   11.03870000
_cell_length_b   12.09460000
_cell_length_c   19.38640000
_cell_angle_alpha   90.00010000
_cell_angle_beta   90.00000000
_cell_angle_gamma   89.99980000
_symmetry_Int_Tables_number   1
_chemical_formula_structural   Pr2H10C14N4O15
_chemical_formula_sum   'Pr8 H40 C56 N16 O60'
_cell_volume   2588.25230598
_cell_formula_units_Z   4
loop_
 _symmetry_equiv_pos_site_id
 _symmetry_equiv_pos_as_xyz
  1  'x, y, z'
loop_
 _atom_site_type_symbol
 _atom_site_label
 _atom_site_symmetry_multiplicity
 _atom_site_fract_x
 _atom_site_fract_y
 _atom_site_fract_z
 _atom_site_occupancy
  Pr  Pr0  1  0.86333000  0.66420000  0.64691000  1.0
  Pr  Pr1  1  0.13667000  0.33580000  0.14690000  1.0
  Pr  Pr2  1  0.36333000  0.83580000  0.14690000  1.0
  Pr  Pr3  1  0.63667000  0.16420000  0.64690000  1.0
  Pr  Pr4  1  0.38231000  0.48195000  0.86617000  1.0
  Pr  Pr5  1  0.61769000  0.51805000  0.36617000  1.0
  Pr  Pr6  1  0.88231000  0.01805000  0.36617000  1.0
  Pr  Pr7  1  0.11769000  0.98195000  0.86617000  1.0
  H  H8  1  0.64382000  0.51001000  0.75047000  1.0
  H  H9  1  0.35618000  0.48999000  0.25047000  1.0
  H  H10  1  0.14382000  0.98999000  0.25047000  1.0
  H  H11  1  0.85618000  0.01001000  0.75047000  1.0
  H  H12  1  0.78884000  0.75917000  0.92939000  1.0
  H  H13  1  0.21116000  0.24083000  0.42939000  1.0
  H  H14  1  0.28885000  0.74084000  0.42939000  1.0
  H  H15  1  0.71115000  0.25917000  0.92939000  1.0
  H  H16  1  0.14262000  0.61355000  0.75173000  1.0
  H  H17  1  0.85738000  0.38645000  0.25173000  1.0
  H  H18  1  0.64262000  0.88645000  0.25173000  1.0
  H  H19  1  0.35738000  0.11355000  0.75173000  1.0
  H  H20  1  0.98997000  0.23650000  0.74946000  1.0
  H  H21  1  0.01003000  0.76349000  0.24947000  1.0
  H  H22  1  0.48997000  0.26350000  0.24946000  1.0
  H  H23  1  0.51003000  0.73650000  0.74946000  1.0
  H  H24  1  0.10739000  0.60834000  0.59135000  1.0
  H  H25  1  0.89260000  0.39166000  0.09135000  1.0
  H  H26  1  0.60740000  0.89166000  0.09135000  1.0
  H  H27  1  0.39260000  0.10835000  0.59135000  1.0
  H  H28  1  0.09782000  0.73500000  0.57830000  1.0
  H  H29  1  0.90218000  0.26500000  0.07830000  1.0
  H  H30  1  0.59781000  0.76499000  0.07829000  1.0
  H  H31  1  0.40219000  0.23501000  0.57829000  1.0
  H  H32  1  0.91409000  0.86391000  0.54250000  1.0
  H  H33  1  0.08591000  0.13609000  0.04250000  1.0
  H  H34  1  0.41408000  0.63609000  0.04250000  1.0
  H  H35  1  0.58592000  0.36391000  0.54250000  1.0
  H  H36  1  0.83022000  0.90311000  0.60657000  1.0
  H  H37  1  0.16978000  0.09689000  0.10657000  1.0
  H  H38  1  0.33021000  0.59689000  0.10657000  1.0
  H  H39  1  0.66979000  0.40311000  0.60657000  1.0
  H  H40  1  0.46694000  0.38045000  0.73021000  1.0
  H  H41  1  0.53306000  0.61955000  0.23021000  1.0
  H  H42  1  0.96694000  0.11955000  0.23021000  1.0
  H  H43  1  0.03306000  0.88045000  0.73021000  1.0
  H  H44  1  0.40379000  0.48393000  0.69316000  1.0
  H  H45  1  0.59621000  0.51607000  0.19315000  1.0
  H  H46  1  0.90379000  0.01608000  0.19316000  1.0
  H  H47  1  0.09621000  0.98392000  0.69316000  1.0
  C  C48  1  0.67590000  0.56680000  0.79014000  1.0
  C  C49  1  0.32410000  0.43320000  0.29014000  1.0
  C  C50  1  0.17590000  0.93321000  0.29014000  1.0
  C  C51  1  0.82410000  0.06680000  0.79014000  1.0
  C  C52  1  0.64931000  0.64388000  0.89692000  1.0
  C  C53  1  0.35069000  0.35612000  0.39692000  1.0
  C  C54  1  0.14932000  0.85612000  0.39692000  1.0
  C  C55  1  0.85068000  0.14388000  0.89692000  1.0
  C  C56  1  0.75584000  0.70461000  0.88897000  1.0
  C  C57  1  0.24416000  0.29539000  0.38896000  1.0
  C  C58  1  0.25586000  0.79540000  0.38897000  1.0
  C  C59  1  0.74415000  0.20460000  0.88897000  1.0
  C  C60  1  0.81475000  0.69587000  0.82587000  1.0
  C  C61  1  0.18525000  0.30414000  0.32587000  1.0
  C  C62  1  0.31476000  0.80414000  0.32587000  1.0
  C  C63  1  0.68524000  0.19587000  0.82587000  1.0
  C  C64  1  0.91759000  0.77314000  0.80728000  1.0
  C  C65  1  0.08241000  0.22686000  0.30727000  1.0
  C  C66  1  0.41759000  0.72686000  0.30727000  1.0
  C  C67  1  0.58241000  0.27314000  0.80727000  1.0
  C  C68  1  0.57500000  0.65315000  0.96229000  1.0
  C  C69  1  0.42500000  0.34685000  0.46229000  1.0
  C  C70  1  0.07501000  0.84685000  0.46230000  1.0
  C  C71  1  0.92499000  0.15315000  0.96230000  1.0
  C  C72  1  0.10884000  0.52892000  0.75126000  1.0
  C  C73  1  0.89116000  0.47108000  0.25125000  1.0
  C  C74  1  0.60883000  0.97108000  0.25125000  1.0
  C  C75  1  0.39117000  0.02892000  0.75125000  1.0
  C  C76  1  0.13143000  0.34769000  0.78356000  1.0
  C  C77  1  0.86857000  0.65231000  0.28356000  1.0
  C  C78  1  0.63143000  0.15231000  0.28356000  1.0
  C  C79  1  0.36857000  0.84769000  0.78356000  1.0
  C  C80  1  0.02379000  0.32077000  0.75024000  1.0
  C  C81  1  0.97621000  0.67923000  0.25024000  1.0
  C  C82  1  0.52379000  0.17923000  0.25024000  1.0
  C  C83  1  0.47621000  0.82077000  0.75024000  1.0
  C  C84  1  0.96142000  0.40636000  0.71809000  1.0
  C  C85  1  0.03858000  0.59364000  0.21809000  1.0
  C  C86  1  0.46142000  0.09364000  0.21809000  1.0
  C  C87  1  0.53858000  0.90636000  0.71809000  1.0
  C  C88  1  0.83959000  0.38667000  0.68466000  1.0
  C  C89  1  0.16042000  0.61333000  0.18466000  1.0
  C  C90  1  0.33959000  0.11334000  0.18466000  1.0
  C  C91  1  0.66042000  0.88666000  0.68466000  1.0
  C  C92  1  0.20620000  0.26000000  0.82012000  1.0
  C  C93  1  0.79380000  0.74000000  0.32012000  1.0
  C  C94  1  0.70620000  0.24000000  0.32012000  1.0
  C  C95  1  0.29380000  0.76000000  0.82012000  1.0
  C  C96  1  0.32075000  0.38474000  0.01888000  1.0
  C  C97  1  0.67925000  0.61526000  0.51888000  1.0
  C  C98  1  0.82075000  0.11527000  0.51888000  1.0
  C  C99  1  0.17925000  0.88473000  0.01888000  1.0
  C  C100  1  0.19631000  0.43111000  0.99278000  1.0
  C  C101  1  0.80369000  0.56888000  0.49278000  1.0
  C  C102  1  0.69632000  0.06889000  0.49277000  1.0
  C  C103  1  0.30368000  0.93111000  0.99278000  1.0
  N  N104  1  0.77689000  0.62408000  0.77719000  1.0
  N  N105  1  0.22311000  0.37592000  0.27719000  1.0
  N  N106  1  0.27690000  0.87592000  0.27719000  1.0
  N  N107  1  0.72310000  0.12408000  0.77719000  1.0
  N  N108  1  0.60751000  0.57711000  0.84688000  1.0
  N  N109  1  0.39249000  0.42289000  0.34688000  1.0
  N  N110  1  0.10752000  0.92289000  0.34688000  1.0
  N  N111  1  0.89248000  0.07711000  0.84688000  1.0
  N  N112  1  0.00493000  0.51023000  0.71718000  1.0
  N  N113  1  0.99507000  0.48977000  0.21718000  1.0
  N  N114  1  0.50493000  0.98977000  0.21718000  1.0
  N  N115  1  0.49507000  0.01023000  0.71717000  1.0
  N  N116  1  0.17333000  0.45228000  0.78496000  1.0
  N  N117  1  0.82667000  0.54772000  0.28496000  1.0
  N  N118  1  0.67333000  0.04771000  0.28496000  1.0
  N  N119  1  0.32667000  0.95229000  0.78496000  1.0
  O  O120  1  0.96232000  0.76313000  0.74655000  1.0
  O  O121  1  0.03768000  0.23687000  0.24655000  1.0
  O  O122  1  0.46232000  0.73687000  0.24655000  1.0
  O  O123  1  0.53768000  0.26313000  0.74655000  1.0
  O  O124  1  0.94717000  0.84413000  0.85128000  1.0
  O  O125  1  0.05283000  0.15587000  0.35128000  1.0
  O  O126  1  0.44717000  0.65587000  0.35127000  1.0
  O  O127  1  0.55283000  0.34413000  0.85127000  1.0
  O  O128  1  0.46535000  0.61951000  0.95908000  1.0
  O  O129  1  0.53465000  0.38049000  0.45908000  1.0
  O  O130  1  0.96536000  0.88049000  0.45908000  1.0
  O  O131  1  0.03464000  0.11951000  0.95908000  1.0
  O  O132  1  0.62999000  0.69253000  0.01335000  1.0
  O  O133  1  0.37001000  0.30747000  0.51335000  1.0
  O  O134  1  0.13000000  0.80746000  0.51335000  1.0
  O  O135  1  0.87000000  0.19254000  0.01335000  1.0
  O  O136  1  0.79176000  0.46686000  0.65174000  1.0
  O  O137  1  0.20824000  0.53314000  0.15174000  1.0
  O  O138  1  0.29176000  0.03315000  0.15174000  1.0
  O  O139  1  0.70824000  0.96686000  0.65174000  1.0
  O  O140  1  0.79323000  0.29302000  0.69392000  1.0
  O  O141  1  0.20677000  0.70698000  0.19393000  1.0
  O  O142  1  0.29323000  0.20699000  0.19392000  1.0
  O  O143  1  0.70677000  0.79301000  0.69392000  1.0
  O  O144  1  0.30213000  0.29098000  0.84927000  1.0
  O  O145  1  0.69787000  0.70902000  0.34927000  1.0
  O  O146  1  0.80213000  0.20902000  0.34927000  1.0
  O  O147  1  0.19787000  0.79098000  0.84926000  1.0
  O  O148  1  0.16586000  0.16180000  0.81681000  1.0
  O  O149  1  0.83414000  0.83820000  0.31681000  1.0
  O  O150  1  0.66587000  0.33820000  0.31681000  1.0
  O  O151  1  0.33413000  0.66180000  0.81681000  1.0
  O  O152  1  0.40963000  0.39261000  0.97825000  1.0
  O  O153  1  0.59037000  0.60739000  0.47825000  1.0
  O  O154  1  0.90963000  0.10739000  0.47825000  1.0
  O  O155  1  0.09037000  0.89261000  0.97825000  1.0
  O  O156  1  0.32269000  0.34435000  0.07923000  1.0
  O  O157  1  0.67731000  0.65565000  0.57923000  1.0
  O  O158  1  0.82269000  0.15565000  0.57923000  1.0
  O  O159  1  0.17731000  0.84435000  0.07923000  1.0
  O  O160  1  0.19749000  0.48325000  0.93612000  1.0
  O  O161  1  0.80251000  0.51675000  0.43613000  1.0
  O  O162  1  0.69749000  0.01676000  0.43612000  1.0
  O  O163  1  0.30251000  0.98324000  0.93613000  1.0
  O  O164  1  0.10447000  0.41355000  0.03048000  1.0
  O  O165  1  0.89553000  0.58645000  0.53048000  1.0
  O  O166  1  0.60447000  0.08645000  0.53048000  1.0
  O  O167  1  0.39553000  0.91354000  0.03048000  1.0
  O  O168  1  0.08560000  0.67643000  0.61514000  1.0
  O  O169  1  0.91440000  0.32357000  0.11514000  1.0
  O  O170  1  0.58560000  0.82357000  0.11514000  1.0
  O  O171  1  0.41440000  0.17643000  0.61514000  1.0
  O  O172  1  0.89184000  0.84859000  0.59158000  1.0
  O  O173  1  0.10815000  0.15141000  0.09158000  1.0
  O  O174  1  0.39184000  0.65141000  0.09158000  1.0
  O  O175  1  0.60816000  0.34859000  0.59158000  1.0
  O  O176  1  0.43538000  0.45770000  0.73689000  1.0
  O  O177  1  0.56462000  0.54230000  0.23689000  1.0
  O  O178  1  0.93539000  0.04230000  0.23689000  1.0
  O  O179  1  0.06461000  0.95770000  0.73689000  1.0
