# generated using pymatgen
data_Hg2H12C12S(NCl2)2
_symmetry_space_group_name_H-M   'P 1'
_cell_length_a   8.97646000
_cell_length_b   12.43420000
_cell_length_c   15.64600000
_cell_angle_alpha   90.00000000
_cell_angle_beta   90.00000000
_cell_angle_gamma   90.00000000
_symmetry_Int_Tables_number   1
_chemical_formula_structural   Hg2H12C12S(NCl2)2
_chemical_formula_sum   'Hg8 H48 C48 S4 N8 Cl16'
_cell_volume   1746.32983789
_cell_formula_units_Z   4
loop_
 _symmetry_equiv_pos_site_id
 _symmetry_equiv_pos_as_xyz
  1  'x, y, z'
loop_
 _atom_site_type_symbol
 _atom_site_label
 _atom_site_symmetry_multiplicity
 _atom_site_fract_x
 _atom_site_fract_y
 _atom_site_fract_z
 _atom_site_occupancy
  Hg  Hg0  1  0.81654000  0.19511000  0.71468000  1.0
  Hg  Hg1  1  0.31654000  0.80489000  0.28532000  1.0
  Hg  Hg2  1  0.81654000  0.30489000  0.21468000  1.0
  Hg  Hg3  1  0.31654000  0.69511000  0.78532000  1.0
  Hg  Hg4  1  0.18401000  0.35767000  0.71680000  1.0
  Hg  Hg5  1  0.68401000  0.64233000  0.28320000  1.0
  Hg  Hg6  1  0.18401000  0.14233000  0.21680000  1.0
  Hg  Hg7  1  0.68400000  0.85767000  0.78320000  1.0
  H  H8  1  0.96696000  0.15148000  0.53895000  1.0
  H  H9  1  0.46696000  0.84852000  0.46105000  1.0
  H  H10  1  0.96696000  0.34852000  0.03895000  1.0
  H  H11  1  0.46696000  0.65148000  0.96105000  1.0
  H  H12  1  0.90904000  0.10979000  0.38567000  1.0
  H  H13  1  0.40904000  0.89021000  0.61433000  1.0
  H  H14  1  0.90904000  0.39021000  0.88567000  1.0
  H  H15  1  0.40904000  0.60978000  0.11433000  1.0
  H  H16  1  0.64077000  0.08593000  0.34320000  1.0
  H  H17  1  0.14077000  0.91407000  0.65680000  1.0
  H  H18  1  0.64077000  0.41407000  0.84320000  1.0
  H  H19  1  0.14077000  0.58593000  0.15680000  1.0
  H  H20  1  0.44309000  0.10861000  0.45424000  1.0
  H  H21  1  0.94308000  0.89139000  0.54576000  1.0
  H  H22  1  0.44309000  0.39139000  0.95424000  1.0
  H  H23  1  0.94308000  0.60861000  0.04576000  1.0
  H  H24  1  0.49493000  0.08114000  0.66838000  1.0
  H  H25  1  0.99493000  0.91886000  0.33162000  1.0
  H  H26  1  0.49493000  0.41886000  0.16838000  1.0
  H  H27  1  0.99493000  0.58114000  0.83162000  1.0
  H  H28  1  0.37214000  0.14532000  0.59586000  1.0
  H  H29  1  0.87214000  0.85468000  0.40414000  1.0
  H  H30  1  0.37214000  0.35468000  0.09586000  1.0
  H  H31  1  0.87214000  0.64532000  0.90414000  1.0
  H  H32  1  0.00706000  0.36019000  0.55005000  1.0
  H  H33  1  0.50706000  0.63981000  0.44995000  1.0
  H  H34  1  0.00706000  0.13981000  0.05005000  1.0
  H  H35  1  0.50706000  0.86019000  0.94995000  1.0
  H  H36  1  0.04564000  0.36226000  0.39086000  1.0
  H  H37  1  0.54564000  0.63774000  0.60914000  1.0
  H  H38  1  0.04564000  0.13774000  0.89086000  1.0
  H  H39  1  0.54564000  0.86226000  0.10914000  1.0
  H  H40  1  0.30716000  0.37298000  0.33492000  1.0
  H  H41  1  0.80716000  0.62702000  0.66509000  1.0
  H  H42  1  0.30716000  0.12702000  0.83492000  1.0
  H  H43  1  0.80716000  0.87298000  0.16508000  1.0
  H  H44  1  0.51904000  0.37709000  0.43890000  1.0
  H  H45  1  0.01904000  0.62291000  0.56110000  1.0
  H  H46  1  0.51904000  0.12291000  0.93890000  1.0
  H  H47  1  0.01904000  0.87709000  0.06110000  1.0
  H  H48  1  0.49191000  0.44871000  0.65142000  1.0
  H  H49  1  0.99190000  0.55129000  0.34858000  1.0
  H  H50  1  0.49191000  0.05129000  0.15143000  1.0
  H  H51  1  0.99191000  0.94871000  0.84857000  1.0
  H  H52  1  0.60760000  0.37535000  0.58015000  1.0
  H  H53  1  0.10760000  0.62465000  0.41985000  1.0
  H  H54  1  0.60760000  0.12465000  0.08015000  1.0
  H  H55  1  0.10760000  0.87535000  0.91985000  1.0
  C  C56  1  0.85250000  0.14230000  0.51656000  1.0
  C  C57  1  0.35250000  0.85770000  0.48344000  1.0
  C  C58  1  0.85250000  0.35770000  0.01656000  1.0
  C  C59  1  0.35250000  0.64230000  0.98344000  1.0
  C  C60  1  0.81931000  0.11778000  0.43201000  1.0
  C  C61  1  0.31931000  0.88223000  0.56799000  1.0
  C  C62  1  0.81931000  0.38223000  0.93201000  1.0
  C  C63  1  0.31931000  0.61777000  0.06799000  1.0
  C  C64  1  0.67048000  0.10550000  0.40885000  1.0
  C  C65  1  0.17047000  0.89450000  0.59115000  1.0
  C  C66  1  0.67048000  0.39450000  0.90885000  1.0
  C  C67  1  0.17047000  0.60550000  0.09115000  1.0
  C  C68  1  0.56035000  0.11775000  0.47086000  1.0
  C  C69  1  0.06035000  0.88225000  0.52914000  1.0
  C  C70  1  0.56035000  0.38225000  0.97086000  1.0
  C  C71  1  0.06035000  0.61775000  0.02914000  1.0
  C  C72  1  0.60101000  0.14179000  0.55483000  1.0
  C  C73  1  0.10101000  0.85821000  0.44517000  1.0
  C  C74  1  0.60101000  0.35821000  0.05483000  1.0
  C  C75  1  0.10101000  0.64179000  0.94517000  1.0
  C  C76  1  0.48420000  0.14919000  0.62364000  1.0
  C  C77  1  0.98420000  0.85081000  0.37636000  1.0
  C  C78  1  0.48420000  0.35081000  0.12364000  1.0
  C  C79  1  0.98420000  0.64919000  0.87636000  1.0
  C  C80  1  0.11805000  0.36291000  0.52171000  1.0
  C  C81  1  0.61805000  0.63709000  0.47829000  1.0
  C  C82  1  0.11804000  0.13709000  0.02171000  1.0
  C  C83  1  0.61804000  0.86291000  0.97829000  1.0
  C  C84  1  0.14082000  0.36550000  0.43397000  1.0
  C  C85  1  0.64082000  0.63450000  0.56603000  1.0
  C  C86  1  0.14082000  0.13450000  0.93397000  1.0
  C  C87  1  0.64082000  0.86550000  0.06603000  1.0
  C  C88  1  0.28642000  0.37082000  0.40343000  1.0
  C  C89  1  0.78642000  0.62918000  0.59657000  1.0
  C  C90  1  0.28642000  0.12918000  0.90343000  1.0
  C  C91  1  0.78642000  0.87082000  0.09656000  1.0
  C  C92  1  0.40417000  0.37321000  0.46143000  1.0
  C  C93  1  0.90417000  0.62679000  0.53857000  1.0
  C  C94  1  0.40417000  0.12679000  0.96143000  1.0
  C  C95  1  0.90417000  0.87321000  0.03857000  1.0
  C  C96  1  0.37474000  0.37001000  0.54895000  1.0
  C  C97  1  0.87474000  0.62999000  0.45105000  1.0
  C  C98  1  0.37474000  0.12999000  0.04895000  1.0
  C  C99  1  0.87474000  0.87001000  0.95105000  1.0
  C  C100  1  0.49967000  0.37472000  0.61293000  1.0
  C  C101  1  0.99967000  0.62528000  0.38707000  1.0
  C  C102  1  0.49967000  0.12528000  0.11293000  1.0
  C  C103  1  0.99967000  0.87472000  0.88707000  1.0
  S  S104  1  0.49765000  0.26710000  0.69186000  1.0
  S  S105  1  0.99765000  0.73290000  0.30814000  1.0
  S  S106  1  0.49765000  0.23290000  0.19186000  1.0
  S  S107  1  0.99765000  0.76710000  0.80814000  1.0
  N  N108  1  0.74553000  0.15471000  0.57589000  1.0
  N  N109  1  0.24553000  0.84529000  0.42411000  1.0
  N  N110  1  0.74553000  0.34529000  0.07589000  1.0
  N  N111  1  0.24553000  0.65471000  0.92411000  1.0
  N  N112  1  0.23269000  0.36437000  0.57714000  1.0
  N  N113  1  0.73269000  0.63563000  0.42286000  1.0
  N  N114  1  0.23269000  0.13563000  0.07714000  1.0
  N  N115  1  0.73269000  0.86437000  0.92286000  1.0
  Cl  Cl116  1  0.87972000  0.39929000  0.70077000  1.0
  Cl  Cl117  1  0.37972000  0.60070000  0.29923000  1.0
  Cl  Cl118  1  0.87972000  0.10070000  0.20077000  1.0
  Cl  Cl119  1  0.37972000  0.89930000  0.79923000  1.0
  Cl  Cl120  1  0.75184000  0.10725000  0.84956000  1.0
  Cl  Cl121  1  0.25184000  0.89274000  0.15044000  1.0
  Cl  Cl122  1  0.75184000  0.39275000  0.34956000  1.0
  Cl  Cl123  1  0.25184000  0.60725000  0.65044000  1.0
  Cl  Cl124  1  0.10150000  0.14193000  0.69731000  1.0
  Cl  Cl125  1  0.60150000  0.85807000  0.30269000  1.0
  Cl  Cl126  1  0.10150000  0.35807000  0.19731000  1.0
  Cl  Cl127  1  0.60150000  0.64193000  0.80269000  1.0
  Cl  Cl128  1  0.20758000  0.40106000  0.86430000  1.0
  Cl  Cl129  1  0.70758000  0.59894000  0.13569000  1.0
  Cl  Cl130  1  0.20758000  0.09894000  0.36430000  1.0
  Cl  Cl131  1  0.70758000  0.90106000  0.63570000  1.0
