# generated using pymatgen
data_Cu2PH12C15I2N3
_symmetry_space_group_name_H-M   'P 1'
_cell_length_a   11.46890000
_cell_length_b   17.89160000
_cell_length_c   17.89590000
_cell_angle_alpha   115.55600000
_cell_angle_beta   102.32900000
_cell_angle_gamma   102.32500000
_symmetry_Int_Tables_number   1
_chemical_formula_structural   Cu2PH12C15I2N3
_chemical_formula_sum   'Cu12 P6 H72 C90 I12 N18'
_cell_volume   3035.76418070
_cell_formula_units_Z   6
loop_
 _symmetry_equiv_pos_site_id
 _symmetry_equiv_pos_as_xyz
  1  'x, y, z'
loop_
 _atom_site_type_symbol
 _atom_site_label
 _atom_site_symmetry_multiplicity
 _atom_site_fract_x
 _atom_site_fract_y
 _atom_site_fract_z
 _atom_site_occupancy
  Cu  Cu0  1  0.96173000  0.57890000  0.55960000  1.0
  Cu  Cu1  1  0.40230000  0.44043000  0.01932000  1.0
  Cu  Cu2  1  0.38287000  0.98057000  0.42100000  1.0
  Cu  Cu3  1  0.03827000  0.42110000  0.44040000  1.0
  Cu  Cu4  1  0.59771000  0.55957000  0.98068000  1.0
  Cu  Cu5  1  0.61713000  0.01943000  0.57900000  1.0
  Cu  Cu6  1  0.68092000  0.58417000  0.76372000  1.0
  Cu  Cu7  1  0.91738000  0.23644000  0.82063000  1.0
  Cu  Cu8  1  0.09670000  0.17944000  0.41579000  1.0
  Cu  Cu9  1  0.31908000  0.41583000  0.23628000  1.0
  Cu  Cu10  1  0.08262000  0.76356000  0.17938000  1.0
  Cu  Cu11  1  0.90330000  0.82056000  0.58421000  1.0
  P  P12  1  0.84540000  0.58127000  0.64269000  1.0
  P  P13  1  0.20286000  0.35740000  0.93872000  1.0
  P  P14  1  0.26408000  0.06127000  0.41866000  1.0
  P  P15  1  0.15460000  0.41873000  0.35731000  1.0
  P  P16  1  0.79714000  0.64260000  0.06128000  1.0
  P  P17  1  0.73592000  0.93873000  0.58134000  1.0
  H  H18  1  0.84563000  0.40690000  0.53622000  1.0
  H  H19  1  0.30961000  0.46387000  0.87082000  1.0
  H  H20  1  0.43873000  0.12918000  0.59296000  1.0
  H  H21  1  0.15437000  0.59310000  0.46378000  1.0
  H  H22  1  0.69039000  0.53613000  0.12918000  1.0
  H  H23  1  0.56127000  0.87082000  0.40704000  1.0
  H  H24  1  0.75050000  0.26141000  0.52650000  1.0
  H  H25  1  0.22430000  0.47359000  0.73507000  1.0
  H  H26  1  0.48906000  0.26494000  0.73839000  1.0
  H  H27  1  0.24950000  0.73859000  0.47350000  1.0
  H  H28  1  0.77569000  0.52641000  0.26493000  1.0
  H  H29  1  0.51094000  0.73506000  0.26161000  1.0
  H  H30  1  0.64546000  0.25828000  0.63501000  1.0
  H  H31  1  0.01077000  0.36515000  0.62351000  1.0
  H  H32  1  0.38701000  0.37651000  0.74152000  1.0
  H  H33  1  0.35454000  0.74172000  0.36499000  1.0
  H  H34  1  0.98923000  0.63485000  0.37649000  1.0
  H  H35  1  0.61299000  0.62349000  0.25848000  1.0
  H  H36  1  0.62835000  0.39963000  0.74352000  1.0
  H  H37  1  0.88509000  0.25668000  0.65635000  1.0
  H  H38  1  0.22852000  0.34372000  0.60022000  1.0
  H  H39  1  0.37165000  0.60038000  0.25648000  1.0
  H  H40  1  0.11491000  0.74332000  0.34365000  1.0
  H  H41  1  0.77148000  0.65628000  0.39978000  1.0
  H  H42  1  0.10593000  0.69697000  0.74636000  1.0
  H  H43  1  0.35961000  0.25360000  0.95078000  1.0
  H  H44  1  0.40887000  0.04932000  0.30289000  1.0
  H  H45  1  0.89407000  0.30303000  0.25364000  1.0
  H  H46  1  0.64039000  0.74641000  0.04922000  1.0
  H  H47  1  0.59112000  0.95068000  0.69711000  1.0
  H  H48  1  0.21951000  0.80463000  0.90869000  1.0
  H  H49  1  0.31084000  0.09118000  0.89603000  1.0
  H  H50  1  0.41463000  0.10402000  0.19516000  1.0
  H  H51  1  0.78049000  0.19537000  0.09131000  1.0
  H  H52  1  0.68916000  0.90882000  0.10397000  1.0
  H  H53  1  0.58536000  0.89598000  0.80483000  1.0
  H  H54  1  0.09204000  0.82684000  0.01065000  1.0
  H  H55  1  0.08139000  0.98929000  0.81620000  1.0
  H  H56  1  0.26479000  0.18370000  0.17298000  1.0
  H  H57  1  0.90796000  0.17316000  0.98935000  1.0
  H  H58  1  0.91861000  0.01071000  0.18380000  1.0
  H  H59  1  0.73520000  0.81629000  0.82702000  1.0
  H  H60  1  0.85865000  0.73937000  0.94547000  1.0
  H  H61  1  0.91331000  0.05459000  0.79392000  1.0
  H  H62  1  0.11898000  0.20599000  0.26056000  1.0
  H  H63  1  0.14135000  0.26063000  0.05453000  1.0
  H  H64  1  0.08669000  0.94541000  0.20608000  1.0
  H  H65  1  0.88102000  0.79401000  0.73944000  1.0
  H  H66  1  0.73593000  0.62258000  0.51039000  1.0
  H  H67  1  0.22556000  0.48966000  0.11236000  1.0
  H  H68  1  0.11325000  0.88759000  0.37739000  1.0
  H  H69  1  0.26407000  0.37742000  0.48961000  1.0
  H  H70  1  0.77444000  0.51034000  0.88764000  1.0
  H  H71  1  0.88675000  0.11241000  0.62261000  1.0
  H  H72  1  0.53530000  0.65611000  0.47249000  1.0
  H  H73  1  0.06276000  0.52750000  0.18373000  1.0
  H  H74  1  0.87905000  0.81622000  0.34371000  1.0
  H  H75  1  0.46470000  0.34390000  0.52751000  1.0
  H  H76  1  0.93724000  0.47250000  0.81628000  1.0
  H  H77  1  0.12095000  0.18378000  0.65629000  1.0
  H  H78  1  0.39219000  0.65495000  0.56176000  1.0
  H  H79  1  0.83044000  0.43830000  0.09325000  1.0
  H  H80  1  0.73723000  0.90678000  0.34495000  1.0
  H  H81  1  0.60782000  0.34506000  0.43824000  1.0
  H  H82  1  0.16956000  0.56170000  0.90675000  1.0
  H  H83  1  0.26276000  0.09322000  0.65505000  1.0
  H  H84  1  0.45228000  0.61886000  0.68090000  1.0
  H  H85  1  0.77149000  0.31927000  0.93802000  1.0
  H  H86  1  0.83359000  0.06211000  0.38137000  1.0
  H  H87  1  0.54772000  0.38114000  0.31910000  1.0
  H  H88  1  0.22851000  0.68073000  0.06198000  1.0
  H  H89  1  0.16641000  0.93789000  0.61863000  1.0
  C  C90  1  0.78156000  0.47741000  0.64218000  1.0
  C  C91  1  0.13958000  0.35793000  0.83541000  1.0
  C  C92  1  0.30404000  0.16461000  0.52246000  1.0
  C  C93  1  0.21844000  0.52259000  0.35782000  1.0
  C  C94  1  0.86042000  0.64207000  0.16459000  1.0
  C  C95  1  0.69596000  0.83539000  0.47754000  1.0
  C  C96  1  0.79525000  0.40199000  0.58018000  1.0
  C  C97  1  0.21529000  0.41992000  0.82198000  1.0
  C  C98  1  0.39319000  0.17802000  0.59785000  1.0
  C  C99  1  0.20475000  0.59801000  0.41982000  1.0
  C  C100  1  0.78471000  0.58008000  0.17802000  1.0
  C  C101  1  0.60681000  0.82198000  0.40215000  1.0
  C  C102  1  0.74308000  0.32162000  0.57538000  1.0
  C  C103  1  0.16798000  0.42473000  0.74642000  1.0
  C  C104  1  0.42138000  0.25359000  0.67818000  1.0
  C  C105  1  0.25693000  0.67838000  0.42462000  1.0
  C  C106  1  0.83202000  0.57527000  0.25358000  1.0
  C  C107  1  0.57862000  0.74641000  0.32182000  1.0
  C  C108  1  0.68332000  0.31959000  0.63504000  1.0
  C  C109  1  0.04858000  0.36510000  0.68475000  1.0
  C  C110  1  0.36362000  0.31527000  0.68022000  1.0
  C  C111  1  0.31668000  0.68041000  0.36496000  1.0
  C  C112  1  0.95142000  0.63490000  0.31525000  1.0
  C  C113  1  0.63638000  0.68472000  0.31978000  1.0
  C  C114  1  0.67433000  0.39754000  0.69558000  1.0
  C  C115  1  0.97900000  0.30457000  0.70218000  1.0
  C  C116  1  0.27661000  0.29788000  0.60231000  1.0
  C  C117  1  0.32567000  0.60246000  0.30442000  1.0
  C  C118  1  0.02100000  0.69543000  0.29782000  1.0
  C  C119  1  0.72339000  0.70212000  0.39769000  1.0
  C  C120  1  0.92496000  0.66134000  0.76242000  1.0
  C  C121  1  0.16266000  0.23762000  0.89906000  1.0
  C  C122  1  0.26342000  0.10091000  0.33852000  1.0
  C  C123  1  0.07505000  0.33866000  0.23758000  1.0
  C  C124  1  0.83734000  0.76238000  0.10094000  1.0
  C  C125  1  0.73658000  0.89909000  0.66148000  1.0
  C  C126  1  0.05548000  0.70829000  0.79322000  1.0
  C  C127  1  0.26233000  0.20675000  0.91521000  1.0
  C  C128  1  0.34700000  0.08479000  0.29153000  1.0
  C  C129  1  0.94453000  0.29171000  0.20679000  1.0
  C  C130  1  0.73767000  0.79325000  0.08479000  1.0
  C  C131  1  0.65300000  0.91520000  0.70847000  1.0
  C  C132  1  0.11758000  0.76832000  0.88320000  1.0
  C  C133  1  0.23445000  0.11673000  0.88522000  1.0
  C  C134  1  0.34898000  0.11475000  0.23147000  1.0
  C  C135  1  0.88242000  0.23168000  0.11680000  1.0
  C  C136  1  0.76555000  0.88327000  0.11479000  1.0
  C  C137  1  0.65102000  0.88525000  0.76853000  1.0
  C  C138  1  0.04750000  0.78094000  0.93984000  1.0
  C  C139  1  0.10774000  0.06014000  0.84117000  1.0
  C  C140  1  0.26617000  0.15873000  0.21884000  1.0
  C  C141  1  0.95250000  0.21906000  0.06016000  1.0
  C  C142  1  0.89227000  0.93986000  0.15883000  1.0
  C  C143  1  0.73383000  0.84127000  0.78115000  1.0
  C  C144  1  0.91800000  0.73228000  0.90441000  1.0
  C  C145  1  0.01371000  0.09562000  0.82793000  1.0
  C  C146  1  0.18541000  0.17198000  0.26759000  1.0
  C  C147  1  0.08200000  0.26772000  0.09559000  1.0
  C  C148  1  0.98629000  0.90438000  0.17207000  1.0
  C  C149  1  0.81459000  0.82802000  0.73241000  1.0
  C  C150  1  0.69782000  0.60486000  0.61534000  1.0
  C  C151  1  0.08261000  0.38479000  0.98966000  1.0
  C  C152  1  0.09301000  0.01036000  0.39520000  1.0
  C  C153  1  0.30218000  0.39514000  0.38466000  1.0
  C  C154  1  0.91739000  0.61521000  0.01034000  1.0
  C  C155  1  0.90699000  0.98964000  0.60480000  1.0
  C  C156  1  0.67013000  0.62293000  0.54628000  1.0
  C  C157  1  0.12390000  0.45381000  0.07679000  1.0
  C  C158  1  0.04717000  0.92319000  0.37706000  1.0
  C  C159  1  0.32987000  0.37707000  0.45372000  1.0
  C  C160  1  0.87610000  0.54620000  0.92321000  1.0
  C  C161  1  0.95283000  0.07681000  0.62294000  1.0
  C  C162  1  0.55923000  0.64151000  0.52585000  1.0
  C  C163  1  0.03337000  0.47421000  0.11576000  1.0
  C  C164  1  0.91765000  0.88420000  0.35839000  1.0
  C  C165  1  0.44078000  0.35849000  0.47415000  1.0
  C  C166  1  0.96663000  0.52579000  0.88424000  1.0
  C  C167  1  0.08235000  0.11580000  0.64160000  1.0
  C  C168  1  0.47996000  0.64129000  0.57509000  1.0
  C  C169  1  0.90492000  0.42501000  0.06628000  1.0
  C  C170  1  0.83869000  0.93374000  0.35869000  1.0
  C  C171  1  0.52004000  0.35871000  0.42492000  1.0
  C  C172  1  0.09508000  0.57499000  0.93372000  1.0
  C  C173  1  0.16130000  0.06626000  0.64131000  1.0
  C  C174  1  0.51286000  0.62145000  0.64202000  1.0
  C  C175  1  0.87095000  0.35814000  0.97951000  1.0
  C  C176  1  0.89150000  0.02055000  0.37867000  1.0
  C  C177  1  0.48714000  0.37855000  0.35798000  1.0
  C  C178  1  0.12905000  0.64187000  0.02049000  1.0
  C  C179  1  0.10849000  0.97945000  0.62132000  1.0
  I  I180  1  0.83766000  0.46394000  0.39119000  1.0
  I  I181  1  0.44645000  0.60890000  0.07285000  1.0
  I  I182  1  0.37379000  0.92721000  0.53608000  1.0
  I  I183  1  0.16234000  0.53606000  0.60880000  1.0
  I  I184  1  0.55355000  0.39110000  0.92715000  1.0
  I  I185  1  0.62621000  0.07279000  0.46392000  1.0
  I  I186  1  0.52635000  0.58711000  0.84620000  1.0
  I  I187  1  0.68040000  0.15389000  0.74101000  1.0
  I  I188  1  0.93940000  0.25917000  0.41311000  1.0
  I  I189  1  0.47365000  0.41289000  0.15379000  1.0
  I  I190  1  0.31961000  0.84611000  0.25899000  1.0
  I  I191  1  0.06060000  0.74083000  0.58689000  1.0
  N  N192  1  0.72008000  0.47501000  0.69828000  1.0
  N  N193  1  0.02202000  0.30187000  0.77693000  1.0
  N  N194  1  0.24495000  0.22312000  0.52488000  1.0
  N  N195  1  0.27992000  0.52499000  0.30172000  1.0
  N  N196  1  0.97798000  0.69813000  0.22307000  1.0
  N  N197  1  0.75505000  0.77688000  0.47512000  1.0
  N  N198  1  0.85771000  0.67285000  0.81779000  1.0
  N  N199  1  0.04006000  0.18228000  0.85514000  1.0
  N  N200  1  0.18467000  0.14481000  0.32706000  1.0
  N  N201  1  0.14229000  0.32715000  0.18221000  1.0
  N  N202  1  0.95994000  0.81772000  0.14486000  1.0
  N  N203  1  0.81533000  0.85519000  0.67294000  1.0
  N  N204  1  0.61958000  0.60355000  0.66192000  1.0
  N  N205  1  0.95780000  0.33825000  0.94174000  1.0
  N  N206  1  0.01612000  0.05832000  0.39659000  1.0
  N  N207  1  0.38042000  0.39645000  0.33808000  1.0
  N  N208  1  0.04220000  0.66175000  0.05826000  1.0
  N  N209  1  0.98388000  0.94168000  0.60341000  1.0
