# generated using pymatgen
data_LiH13C8N2O
_symmetry_space_group_name_H-M   'P 1'
_cell_length_a   8.66341000
_cell_length_b   9.28404000
_cell_length_c   11.73790000
_cell_angle_alpha   90.00090000
_cell_angle_beta   73.77400000
_cell_angle_gamma   90.00010000
_symmetry_Int_Tables_number   1
_chemical_formula_structural   LiH13C8N2O
_chemical_formula_sum   'Li4 H52 C32 N8 O4'
_cell_volume   906.49005715
_cell_formula_units_Z   4
loop_
 _symmetry_equiv_pos_site_id
 _symmetry_equiv_pos_as_xyz
  1  'x, y, z'
loop_
 _atom_site_type_symbol
 _atom_site_label
 _atom_site_symmetry_multiplicity
 _atom_site_fract_x
 _atom_site_fract_y
 _atom_site_fract_z
 _atom_site_occupancy
  Li  Li0  1  0.49578000  0.61930000  0.44710000  1.0
  Li  Li1  1  0.50422000  0.11930000  0.05289000  1.0
  Li  Li2  1  0.50423000  0.38070000  0.55290000  1.0
  Li  Li3  1  0.49578000  0.88069000  0.94710000  1.0
  H  H4  1  0.03046000  0.77790000  0.27968000  1.0
  H  H5  1  0.96954000  0.27788000  0.22032000  1.0
  H  H6  1  0.96955000  0.22210000  0.72033000  1.0
  H  H7  1  0.03045000  0.72211000  0.77967000  1.0
  H  H8  1  0.17104000  0.04259000  0.03195000  1.0
  H  H9  1  0.82896000  0.54258000  0.46804000  1.0
  H  H10  1  0.82896000  0.95741000  0.96805000  1.0
  H  H11  1  0.17104000  0.45742000  0.53194000  1.0
  H  H12  1  0.00881000  0.02016000  0.16353000  1.0
  H  H13  1  0.99119000  0.52015000  0.33646000  1.0
  H  H14  1  0.99119000  0.97984000  0.83647000  1.0
  H  H15  1  0.00881000  0.47985000  0.66352000  1.0
  H  H16  1  0.05743000  0.88064000  0.05666000  1.0
  H  H17  1  0.94257000  0.38063000  0.44333000  1.0
  H  H18  1  0.94257000  0.11936000  0.94334000  1.0
  H  H19  1  0.05743000  0.61937000  0.55666000  1.0
  H  H20  1  0.59713000  0.93028000  0.34522000  1.0
  H  H21  1  0.40287000  0.43028000  0.15478000  1.0
  H  H22  1  0.40287000  0.06973000  0.65478000  1.0
  H  H23  1  0.59713000  0.56972000  0.84522000  1.0
  H  H24  1  0.78106000  0.83100000  0.30799000  1.0
  H  H25  1  0.21894000  0.33100000  0.19201000  1.0
  H  H26  1  0.21894000  0.16900000  0.69201000  1.0
  H  H27  1  0.78107000  0.66900000  0.80799000  1.0
  H  H28  1  0.87327000  0.05287000  0.37742000  1.0
  H  H29  1  0.12673000  0.55286000  0.12259000  1.0
  H  H30  1  0.12673000  0.94713000  0.62259000  1.0
  H  H31  1  0.87327000  0.44714000  0.87741000  1.0
  H  H32  1  0.68473000  0.08371000  0.48184000  1.0
  H  H33  1  0.31527000  0.58371000  0.01817000  1.0
  H  H34  1  0.31528000  0.91629000  0.51816000  1.0
  H  H35  1  0.68473000  0.41629000  0.98184000  1.0
  H  H36  1  0.93215000  0.85119000  0.49408000  1.0
  H  H37  1  0.06785000  0.35119000  0.00592000  1.0
  H  H38  1  0.06785000  0.14881000  0.50592000  1.0
  H  H39  1  0.93215000  0.64882000  0.99408000  1.0
  H  H40  1  0.83785000  0.97658000  0.60729000  1.0
  H  H41  1  0.16215000  0.47657000  0.89272000  1.0
  H  H42  1  0.16215000  0.02342000  0.39271000  1.0
  H  H43  1  0.83785000  0.52343000  0.10729000  1.0
  H  H44  1  0.58121000  0.85383000  0.64686000  1.0
  H  H45  1  0.41880000  0.35383000  0.85314000  1.0
  H  H46  1  0.41879000  0.14616000  0.35314000  1.0
  H  H47  1  0.58121000  0.64617000  0.14686000  1.0
  H  H48  1  0.71235000  0.70266000  0.60566000  1.0
  H  H49  1  0.28765000  0.20266000  0.89433000  1.0
  H  H50  1  0.28765000  0.29734000  0.39434000  1.0
  H  H51  1  0.71234000  0.79734000  0.10567000  1.0
  H  H52  1  0.44044000  0.89152000  0.17509000  1.0
  H  H53  1  0.55956000  0.39151000  0.32490000  1.0
  H  H54  1  0.55957000  0.10848000  0.82490000  1.0
  H  H55  1  0.44043000  0.60849000  0.67509000  1.0
  C  C56  1  0.25641000  0.73202000  0.31042000  1.0
  C  C57  1  0.74361000  0.23201000  0.18957000  1.0
  C  C58  1  0.74361000  0.26799000  0.68958000  1.0
  C  C59  1  0.25638000  0.76798000  0.81043000  1.0
  C  C60  1  0.15811000  0.80321000  0.25433000  1.0
  C  C61  1  0.84189000  0.30320000  0.24566000  1.0
  C  C62  1  0.84190000  0.19679000  0.74567000  1.0
  C  C63  1  0.15809000  0.69679000  0.75434000  1.0
  C  C64  1  0.22379000  0.90141000  0.16157000  1.0
  C  C65  1  0.77621000  0.40141000  0.33842000  1.0
  C  C66  1  0.77621000  0.09857000  0.83843000  1.0
  C  C67  1  0.22379000  0.59859000  0.66157000  1.0
  C  C68  1  0.10912000  0.96554000  0.09990000  1.0
  C  C69  1  0.89088000  0.46553000  0.40009000  1.0
  C  C70  1  0.89088000  0.03446000  0.90010000  1.0
  C  C71  1  0.10912000  0.53447000  0.59990000  1.0
  C  C72  1  0.69264000  0.88723000  0.38045000  1.0
  C  C73  1  0.30735000  0.38723000  0.11955000  1.0
  C  C74  1  0.30735000  0.11277000  0.61955000  1.0
  C  C75  1  0.69265000  0.61277000  0.88045000  1.0
  C  C76  1  0.77154000  0.99969000  0.44021000  1.0
  C  C77  1  0.22846000  0.49968000  0.05980000  1.0
  C  C78  1  0.22846000  0.00031000  0.55979000  1.0
  C  C79  1  0.77154000  0.50031000  0.94021000  1.0
  C  C80  1  0.82027000  0.91044000  0.53451000  1.0
  C  C81  1  0.17973000  0.41044000  0.96550000  1.0
  C  C82  1  0.17973000  0.08955000  0.46550000  1.0
  C  C83  1  0.82027000  0.58956000  0.03451000  1.0
  C  C84  1  0.67937000  0.80748000  0.57549000  1.0
  C  C85  1  0.32064000  0.30747000  0.92451000  1.0
  C  C86  1  0.32063000  0.19252000  0.42451000  1.0
  C  C87  1  0.67937000  0.69252000  0.07549000  1.0
  N  N88  1  0.34741000  0.67444000  0.35394000  1.0
  N  N89  1  0.65261000  0.17443000  0.14605000  1.0
  N  N90  1  0.65262000  0.32557000  0.64606000  1.0
  N  N91  1  0.34737000  0.82556000  0.85394000  1.0
  N  N92  1  0.37729000  0.94084000  0.12366000  1.0
  N  N93  1  0.62270000  0.44084000  0.37634000  1.0
  N  N94  1  0.62270000  0.05916000  0.87634000  1.0
  N  N95  1  0.37729000  0.55917000  0.62366000  1.0
  O  O96  1  0.62120000  0.78266000  0.47213000  1.0
  O  O97  1  0.37879000  0.28266000  0.02787000  1.0
  O  O98  1  0.37880000  0.21734000  0.52787000  1.0
  O  O99  1  0.62120000  0.71735000  0.97213000  1.0
