# generated using pymatgen
data_NiPH25C31N2O9
_symmetry_space_group_name_H-M   'P 1'
_cell_length_a   10.15800000
_cell_length_b   14.29030000
_cell_length_c   20.90730000
_cell_angle_alpha   87.29880000
_cell_angle_beta   89.99930000
_cell_angle_gamma   89.99990000
_symmetry_Int_Tables_number   1
_chemical_formula_structural   NiPH25C31N2O9
_chemical_formula_sum   'Ni4 P4 H100 C124 N8 O36'
_cell_volume   3031.54966518
_cell_formula_units_Z   4
loop_
 _symmetry_equiv_pos_site_id
 _symmetry_equiv_pos_as_xyz
  1  'x, y, z'
loop_
 _atom_site_type_symbol
 _atom_site_label
 _atom_site_symmetry_multiplicity
 _atom_site_fract_x
 _atom_site_fract_y
 _atom_site_fract_z
 _atom_site_occupancy
  Ni  Ni0  1  0.75112000  0.74255000  0.14945000  1.0
  Ni  Ni1  1  0.25111000  0.75744000  0.35056000  1.0
  Ni  Ni2  1  0.24885000  0.25745000  0.85054000  1.0
  Ni  Ni3  1  0.74885000  0.24255000  0.64946000  1.0
  P  P4  1  0.94397000  0.22222000  0.36292000  1.0
  P  P5  1  0.44397000  0.27779000  0.13707000  1.0
  P  P6  1  0.05605000  0.77778000  0.63708000  1.0
  P  P7  1  0.55606000  0.72223000  0.86293000  1.0
  H  H8  1  0.69985000  0.19189000  0.41896000  1.0
  H  H9  1  0.19985000  0.30811000  0.08103000  1.0
  H  H10  1  0.30015000  0.80808000  0.58104000  1.0
  H  H11  1  0.80017000  0.69191000  0.91897000  1.0
  H  H12  1  0.98907000  0.80024000  0.08721000  1.0
  H  H13  1  0.48905000  0.69973000  0.41278000  1.0
  H  H14  1  0.01091000  0.19976000  0.91278000  1.0
  H  H15  1  0.51093000  0.30026000  0.58722000  1.0
  H  H16  1  0.01408000  0.69685000  0.10637000  1.0
  H  H17  1  0.51407000  0.80313000  0.39363000  1.0
  H  H18  1  0.98591000  0.30316000  0.89363000  1.0
  H  H19  1  0.48591000  0.19687000  0.60638000  1.0
  H  H20  1  0.63989000  0.68548000  0.24887000  1.0
  H  H21  1  0.13996000  0.81450000  0.25112000  1.0
  H  H22  1  0.36012000  0.31452000  0.75113000  1.0
  H  H23  1  0.86011000  0.18549000  0.74887000  1.0
  H  H24  1  0.55133000  0.76591000  0.27224000  1.0
  H  H25  1  0.05135000  0.73408000  0.22775000  1.0
  H  H26  1  0.44871000  0.23408000  0.72777000  1.0
  H  H27  1  0.94870000  0.26592000  0.77223000  1.0
  H  H28  1  0.11159000  0.48182000  0.21970000  1.0
  H  H29  1  0.61163000  0.01819000  0.28028000  1.0
  H  H30  1  0.88843000  0.51818000  0.78032000  1.0
  H  H31  1  0.38843000  0.98182000  0.71969000  1.0
  H  H32  1  0.13190000  0.33020000  0.28192000  1.0
  H  H33  1  0.63191000  0.16980000  0.21805000  1.0
  H  H34  1  0.86811000  0.66982000  0.71808000  1.0
  H  H35  1  0.36812000  0.83018000  0.78192000  1.0
  H  H36  1  0.00460000  0.20393000  0.22441000  1.0
  H  H37  1  0.50460000  0.29605000  0.27559000  1.0
  H  H38  1  0.99541000  0.79607000  0.77558000  1.0
  H  H39  1  0.49542000  0.70394000  0.72441000  1.0
  H  H40  1  0.98555000  0.06729000  0.15521000  1.0
  H  H41  1  0.48557000  0.43268000  0.34478000  1.0
  H  H42  1  0.01446000  0.93273000  0.84477000  1.0
  H  H43  1  0.51447000  0.56728000  0.65523000  1.0
  H  H44  1  0.80782000  0.90444000  0.31006000  1.0
  H  H45  1  0.30779000  0.59553000  0.18994000  1.0
  H  H46  1  0.19220000  0.09556000  0.68992000  1.0
  H  H47  1  0.69220000  0.40444000  0.81008000  1.0
  H  H48  1  0.82831000  0.04074000  0.38080000  1.0
  H  H49  1  0.32828000  0.45924000  0.11920000  1.0
  H  H50  1  0.17171000  0.95924000  0.61918000  1.0
  H  H51  1  0.67171000  0.54076000  0.88082000  1.0
  H  H52  1  0.16988000  0.09834000  0.33385000  1.0
  H  H53  1  0.66986000  0.40166000  0.16615000  1.0
  H  H54  1  0.83013000  0.90166000  0.66614000  1.0
  H  H55  1  0.33014000  0.59836000  0.83386000  1.0
  H  H56  1  0.40761000  0.10983000  0.36065000  1.0
  H  H57  1  0.90760000  0.39018000  0.13935000  1.0
  H  H58  1  0.59239000  0.89017000  0.63935000  1.0
  H  H59  1  0.09241000  0.60984000  0.86065000  1.0
  H  H60  1  0.33249000  0.35397000  0.46743000  1.0
  H  H61  1  0.83249000  0.14604000  0.03256000  1.0
  H  H62  1  0.66752000  0.64600000  0.53259000  1.0
  H  H63  1  0.16753000  0.85400000  0.96743000  1.0
  H  H64  1  0.09206000  0.34006000  0.44463000  1.0
  H  H65  1  0.59206000  0.15995000  0.05536000  1.0
  H  H66  1  0.90796000  0.65992000  0.55538000  1.0
  H  H67  1  0.40797000  0.84008000  0.94463000  1.0
  H  H68  1  0.72905000  0.35787000  0.34589000  1.0
  H  H69  1  0.22905000  0.14211000  0.15411000  1.0
  H  H70  1  0.27097000  0.64213000  0.65411000  1.0
  H  H71  1  0.77097000  0.85789000  0.84590000  1.0
  H  H72  1  0.71147000  0.50956000  0.28309000  1.0
  H  H73  1  0.21149000  0.99045000  0.21692000  1.0
  H  H74  1  0.28855000  0.49044000  0.71692000  1.0
  H  H75  1  0.78853000  0.00958000  0.78310000  1.0
  H  H76  1  0.56880000  0.87884000  0.17486000  1.0
  H  H77  1  0.06878000  0.62118000  0.32514000  1.0
  H  H78  1  0.43120000  0.12115000  0.82515000  1.0
  H  H79  1  0.93117000  0.37886000  0.67485000  1.0
  H  H80  1  0.43653000  0.99410000  0.10988000  1.0
  H  H81  1  0.93653000  0.50592000  0.39012000  1.0
  H  H82  1  0.56345000  0.00588000  0.89013000  1.0
  H  H83  1  0.06342000  0.49413000  0.60988000  1.0
  H  H84  1  0.67580000  0.92302000  0.94667000  1.0
  H  H85  1  0.17581000  0.57697000  0.55333000  1.0
  H  H86  1  0.32419000  0.07698000  0.05334000  1.0
  H  H87  1  0.82419000  0.42301000  0.44666000  1.0
  H  H88  1  0.79409000  0.81160000  0.01811000  1.0
  H  H89  1  0.29412000  0.68839000  0.48189000  1.0
  H  H90  1  0.20591000  0.18841000  0.98188000  1.0
  H  H91  1  0.70591000  0.31159000  0.51811000  1.0
  H  H92  1  0.48708000  0.71617000  0.11606000  1.0
  H  H93  1  0.98708000  0.78382000  0.38394000  1.0
  H  H94  1  0.51290000  0.28387000  0.88393000  1.0
  H  H95  1  0.01289000  0.21613000  0.61607000  1.0
  H  H96  1  0.36288000  0.61372000  0.04668000  1.0
  H  H97  1  0.86289000  0.88626000  0.45331000  1.0
  H  H98  1  0.63707000  0.38632000  0.95331000  1.0
  H  H99  1  0.13705000  0.11368000  0.54668000  1.0
  H  H100  1  0.73300000  0.47720000  0.00528000  1.0
  H  H101  1  0.23299000  0.02279000  0.49471000  1.0
  H  H102  1  0.26695000  0.52281000  0.99474000  1.0
  H  H103  1  0.76694000  0.97719000  0.50526000  1.0
  H  H104  1  0.84273000  0.59305000  0.07106000  1.0
  H  H105  1  0.34274000  0.90695000  0.42893000  1.0
  H  H106  1  0.15721000  0.40695000  0.92895000  1.0
  H  H107  1  0.65719000  0.09304000  0.57105000  1.0
  C  C108  1  0.90811000  0.59645000  0.20839000  1.0
  C  C109  1  0.40812000  0.90353000  0.29162000  1.0
  C  C110  1  0.09189000  0.40357000  0.79161000  1.0
  C  C111  1  0.59188000  0.09644000  0.70839000  1.0
  C  C112  1  0.91115000  0.50481000  0.24715000  1.0
  C  C113  1  0.41117000  0.99517000  0.25284000  1.0
  C  C114  1  0.08885000  0.49521000  0.75285000  1.0
  C  C115  1  0.58884000  0.00481000  0.74716000  1.0
  C  C116  1  0.02850000  0.45326000  0.24699000  1.0
  C  C117  1  0.52851000  0.04673000  0.25299000  1.0
  C  C118  1  0.97151000  0.54676000  0.75302000  1.0
  C  C119  1  0.47152000  0.95325000  0.74699000  1.0
  C  C120  1  0.03871000  0.36815000  0.28163000  1.0
  C  C121  1  0.53873000  0.13184000  0.21835000  1.0
  C  C122  1  0.96129000  0.63187000  0.71838000  1.0
  C  C123  1  0.46130000  0.86814000  0.78163000  1.0
  C  C124  1  0.93053000  0.33280000  0.31696000  1.0
  C  C125  1  0.43053000  0.16721000  0.18303000  1.0
  C  C126  1  0.06949000  0.66721000  0.68304000  1.0
  C  C127  1  0.56950000  0.83280000  0.81697000  1.0
  C  C128  1  0.92086000  0.12998000  0.30783000  1.0
  C  C129  1  0.42086000  0.37000000  0.19217000  1.0
  C  C130  1  0.07916000  0.87002000  0.69216000  1.0
  C  C131  1  0.57917000  0.62999000  0.80784000  1.0
  C  C132  1  0.96317000  0.13817000  0.24386000  1.0
  C  C133  1  0.46317000  0.36181000  0.25613000  1.0
  C  C134  1  0.03685000  0.86183000  0.75613000  1.0
  C  C135  1  0.53687000  0.63818000  0.74387000  1.0
  C  C136  1  0.95255000  0.06209000  0.20491000  1.0
  C  C137  1  0.45255000  0.43789000  0.29508000  1.0
  C  C138  1  0.04746000  0.93792000  0.79507000  1.0
  C  C139  1  0.54748000  0.56209000  0.70493000  1.0
  C  C140  1  0.89886000  0.97738000  0.22925000  1.0
  C  C141  1  0.39885000  0.52260000  0.27075000  1.0
  C  C142  1  0.10115000  0.02262000  0.77073000  1.0
  C  C143  1  0.60117000  0.47739000  0.72927000  1.0
  C  C144  1  0.89071000  0.89689000  0.18550000  1.0
  C  C145  1  0.39070000  0.60309000  0.31450000  1.0
  C  C146  1  0.10930000  0.10311000  0.81448000  1.0
  C  C147  1  0.60931000  0.39690000  0.68552000  1.0
  C  C148  1  0.85277000  0.96989000  0.29243000  1.0
  C  C149  1  0.35275000  0.53009000  0.20757000  1.0
  C  C150  1  0.14725000  0.03012000  0.70755000  1.0
  C  C151  1  0.64726000  0.46989000  0.79245000  1.0
  C  C152  1  0.86409000  0.04573000  0.33161000  1.0
  C  C153  1  0.36407000  0.45425000  0.16839000  1.0
  C  C154  1  0.13595000  0.95427000  0.66838000  1.0
  C  C155  1  0.63596000  0.54574000  0.83162000  1.0
  C  C156  1  0.11539000  0.21898000  0.38693000  1.0
  C  C157  1  0.61538000  0.28103000  0.11306000  1.0
  C  C158  1  0.88462000  0.78101000  0.61307000  1.0
  C  C159  1  0.38463000  0.71899000  0.88694000  1.0
  C  C160  1  0.20419000  0.15342000  0.36410000  1.0
  C  C161  1  0.70418000  0.34657000  0.13590000  1.0
  C  C162  1  0.79581000  0.84657000  0.63590000  1.0
  C  C163  1  0.29582000  0.65345000  0.86411000  1.0
  C  C164  1  0.33787000  0.15994000  0.37884000  1.0
  C  C165  1  0.83786000  0.34006000  0.12116000  1.0
  C  C166  1  0.66213000  0.84005000  0.62116000  1.0
  C  C167  1  0.16215000  0.65996000  0.87885000  1.0
  C  C168  1  0.38408000  0.23344000  0.41463000  1.0
  C  C169  1  0.88407000  0.26656000  0.08537000  1.0
  C  C170  1  0.61592000  0.76654000  0.58538000  1.0
  C  C171  1  0.11594000  0.73348000  0.91463000  1.0
  C  C172  1  0.52829000  0.25026000  0.42205000  1.0
  C  C173  1  0.02828000  0.24974000  0.07795000  1.0
  C  C174  1  0.47171000  0.74971000  0.57795000  1.0
  C  C175  1  0.97172000  0.75032000  0.92205000  1.0
  C  C176  1  0.29486000  0.29781000  0.43903000  1.0
  C  C177  1  0.79485000  0.20220000  0.06096000  1.0
  C  C178  1  0.70514000  0.70217000  0.56098000  1.0
  C  C179  1  0.20516000  0.79784000  0.93903000  1.0
  C  C180  1  0.16133000  0.28983000  0.42595000  1.0
  C  C181  1  0.66132000  0.21017000  0.07405000  1.0
  C  C182  1  0.83868000  0.71015000  0.57407000  1.0
  C  C183  1  0.33869000  0.78986000  0.92595000  1.0
  C  C184  1  0.81224000  0.38382000  0.31707000  1.0
  C  C185  1  0.31226000  0.11618000  0.18293000  1.0
  C  C186  1  0.18778000  0.61619000  0.68294000  1.0
  C  C187  1  0.68778000  0.88383000  0.81707000  1.0
  C  C188  1  0.80279000  0.46957000  0.28231000  1.0
  C  C189  1  0.30282000  0.03042000  0.21769000  1.0
  C  C190  1  0.19722000  0.53044000  0.71769000  1.0
  C  C191  1  0.69721000  0.96958000  0.78232000  1.0
  C  C192  1  0.58649000  0.89189000  0.12391000  1.0
  C  C193  1  0.08649000  0.60812000  0.37609000  1.0
  C  C194  1  0.41349000  0.10809000  0.87609000  1.0
  C  C195  1  0.91347000  0.39190000  0.62391000  1.0
  C  C196  1  0.51397000  0.95562000  0.08668000  1.0
  C  C197  1  0.01397000  0.54439000  0.41332000  1.0
  C  C198  1  0.48600000  0.04435000  0.91332000  1.0
  C  C199  1  0.98598000  0.45564000  0.58668000  1.0
  C  C200  1  0.54007000  0.96804000  0.02075000  1.0
  C  C201  1  0.04006000  0.53196000  0.47925000  1.0
  C  C202  1  0.45990000  0.03196000  0.97926000  1.0
  C  C203  1  0.95990000  0.46804000  0.52074000  1.0
  C  C204  1  0.64536000  0.91672000  0.99651000  1.0
  C  C205  1  0.14536000  0.58327000  0.50349000  1.0
  C  C206  1  0.35464000  0.08328000  0.00350000  1.0
  C  C207  1  0.85464000  0.41671000  0.49650000  1.0
  C  C208  1  0.71364000  0.85317000  0.03606000  1.0
  C  C209  1  0.21365000  0.64683000  0.46394000  1.0
  C  C210  1  0.28636000  0.14684000  0.96394000  1.0
  C  C211  1  0.78636000  0.35315000  0.53605000  1.0
  C  C212  1  0.53729000  0.66350000  0.08913000  1.0
  C  C213  1  0.03728000  0.83649000  0.41086000  1.0
  C  C214  1  0.46269000  0.33651000  0.91087000  1.0
  C  C215  1  0.96267000  0.16349000  0.58912000  1.0
  C  C216  1  0.46882000  0.60405000  0.05089000  1.0
  C  C217  1  0.96882000  0.89594000  0.44910000  1.0
  C  C218  1  0.53114000  0.39598000  0.94911000  1.0
  C  C219  1  0.03112000  0.10402000  0.55089000  1.0
  C  C220  1  0.53550000  0.53326000  0.01961000  1.0
  C  C221  1  0.03550000  0.96673000  0.48039000  1.0
  C  C222  1  0.46445000  0.46676000  0.98040000  1.0
  C  C223  1  0.96445000  0.03323000  0.51959000  1.0
  C  C224  1  0.67276000  0.52923000  0.02784000  1.0
  C  C225  1  0.17276000  0.97076000  0.47215000  1.0
  C  C226  1  0.32720000  0.47078000  0.97217000  1.0
  C  C227  1  0.82718000  0.02921000  0.52783000  1.0
  C  C228  1  0.73621000  0.59254000  0.06548000  1.0
  C  C229  1  0.23621000  0.90745000  0.43451000  1.0
  C  C230  1  0.26375000  0.40746000  0.93453000  1.0
  C  C231  1  0.76374000  0.09253000  0.56547000  1.0
  N  N232  1  0.68217000  0.83982000  0.09834000  1.0
  N  N233  1  0.18216000  0.66018000  0.40166000  1.0
  N  N234  1  0.31781000  0.16016000  0.90166000  1.0
  N  N235  1  0.81780000  0.33983000  0.59834000  1.0
  N  N236  1  0.66922000  0.65820000  0.09632000  1.0
  N  N237  1  0.16923000  0.84179000  0.40367000  1.0
  N  N238  1  0.33073000  0.34181000  0.90369000  1.0
  N  N239  1  0.83072000  0.15819000  0.59631000  1.0
  O  O240  1  0.79547000  0.63853000  0.20584000  1.0
  O  O241  1  0.29551000  0.86144000  0.29419000  1.0
  O  O242  1  0.20453000  0.36149000  0.79414000  1.0
  O  O243  1  0.70451000  0.13852000  0.70585000  1.0
  O  O244  1  0.01186000  0.62497000  0.18115000  1.0
  O  O245  1  0.51189000  0.87504000  0.31887000  1.0
  O  O246  1  0.98815000  0.37504000  0.81886000  1.0
  O  O247  1  0.48813000  0.12496000  0.68114000  1.0
  O  O248  1  0.85023000  0.21433000  0.41904000  1.0
  O  O249  1  0.35023000  0.28568000  0.08096000  1.0
  O  O250  1  0.14977000  0.78567000  0.58095000  1.0
  O  O251  1  0.64979000  0.71433000  0.91905000  1.0
  O  O252  1  0.80917000  0.83134000  0.20514000  1.0
  O  O253  1  0.30917000  0.66865000  0.29487000  1.0
  O  O254  1  0.19085000  0.16865000  0.79485000  1.0
  O  O255  1  0.69086000  0.33135000  0.70515000  1.0
  O  O256  1  0.95571000  0.90001000  0.13483000  1.0
  O  O257  1  0.45573000  0.59997000  0.36517000  1.0
  O  O258  1  0.04427000  0.10000000  0.86515000  1.0
  O  O259  1  0.54428000  0.40002000  0.63485000  1.0
  O  O260  1  0.60218000  0.17351000  0.41789000  1.0
  O  O261  1  0.10218000  0.32648000  0.08211000  1.0
  O  O262  1  0.39782000  0.82647000  0.58210000  1.0
  O  O263  1  0.89784000  0.67354000  0.91790000  1.0
  O  O264  1  0.57303000  0.32968000  0.42771000  1.0
  O  O265  1  0.07302000  0.17031000  0.07228000  1.0
  O  O266  1  0.42698000  0.67030000  0.57229000  1.0
  O  O267  1  0.92699000  0.82971000  0.92772000  1.0
  O  O268  1  0.00334000  0.73894000  0.06805000  1.0
  O  O269  1  0.50334000  0.76103000  0.43195000  1.0
  O  O270  1  0.99663000  0.26107000  0.93195000  1.0
  O  O271  1  0.49662000  0.23896000  0.56806000  1.0
  O  O272  1  0.55941000  0.72040000  0.23872000  1.0
  O  O273  1  0.05945000  0.77961000  0.26126000  1.0
  O  O274  1  0.44062000  0.27961000  0.76128000  1.0
  O  O275  1  0.94060000  0.22039000  0.73872000  1.0
