# generated using pymatgen
data_CuH7C9N2
_symmetry_space_group_name_H-M   'P 1'
_cell_length_a   27.78950000
_cell_length_b   29.77090000
_cell_length_c   30.75880000
_cell_angle_alpha   90.24650000
_cell_angle_beta   92.29700000
_cell_angle_gamma   90.65300000
_symmetry_Int_Tables_number   1
_chemical_formula_structural   CuH7C9N2
_chemical_formula_sum   'Cu12 H84 C108 N24'
_cell_volume   25424.93516890
_cell_formula_units_Z   12
loop_
 _symmetry_equiv_pos_site_id
 _symmetry_equiv_pos_as_xyz
  1  'x, y, z'
loop_
 _atom_site_type_symbol
 _atom_site_label
 _atom_site_symmetry_multiplicity
 _atom_site_fract_x
 _atom_site_fract_y
 _atom_site_fract_z
 _atom_site_occupancy
  Cu  Cu0  1  0.14683000  0.22070000  0.78057000  1.0
  Cu  Cu1  1  0.23496000  0.15727000  0.79988000  1.0
  Cu  Cu2  1  0.21298000  0.23560000  0.86646000  1.0
  Cu  Cu3  1  0.88976000  0.22311000  0.21978000  1.0
  Cu  Cu4  1  0.80866000  0.14866000  0.21416000  1.0
  Cu  Cu5  1  0.80146000  0.23847000  0.15626000  1.0
  Cu  Cu6  1  0.81426000  0.75737000  0.73343000  1.0
  Cu  Cu7  1  0.72674000  0.82204000  0.74019000  1.0
  Cu  Cu8  1  0.75566000  0.76057000  0.82063000  1.0
  Cu  Cu9  1  0.14270000  0.77884000  0.23008000  1.0
  Cu  Cu10  1  0.20913000  0.86563000  0.24308000  1.0
  Cu  Cu11  1  0.23946000  0.78688000  0.18065000  1.0
  H  H12  1  0.09239000  0.16745000  0.70358000  1.0
  H  H13  1  0.21834000  0.08445000  0.72394000  1.0
  H  H14  1  0.17006000  0.32599000  0.90180000  1.0
  H  H15  1  0.08025000  0.30671000  0.78467000  1.0
  H  H16  1  0.32500000  0.11359000  0.84678000  1.0
  H  H17  1  0.28382000  0.20724000  0.94653000  1.0
  H  H18  1  0.94281000  0.19826000  0.30909000  1.0
  H  H19  1  0.83773000  0.08967000  0.29819000  1.0
  H  H20  1  0.83513000  0.32773000  0.10730000  1.0
  H  H21  1  0.96503000  0.29286000  0.18167000  1.0
  H  H22  1  0.72407000  0.09131000  0.16847000  1.0
  H  H23  1  0.70260000  0.21964000  0.10502000  1.0
  H  H24  1  0.86988000  0.80207000  0.65646000  1.0
  H  H25  1  0.75174000  0.89432000  0.66900000  1.0
  H  H26  1  0.81347000  0.68903000  0.87745000  1.0
  H  H27  1  0.88518000  0.67734000  0.75542000  1.0
  H  H28  1  0.63057000  0.86455000  0.77259000  1.0
  H  H29  1  0.68369000  0.79877000  0.89014000  1.0
  H  H30  1  0.07054000  0.79223000  0.30642000  1.0
  H  H31  1  0.16077000  0.91110000  0.32406000  1.0
  H  H32  1  0.22934000  0.70246000  0.11710000  1.0
  H  H33  1  0.08966000  0.70065000  0.17497000  1.0
  H  H34  1  0.27703000  0.94426000  0.20764000  1.0
  H  H35  1  0.33292000  0.82829000  0.14157000  1.0
  H  H36  1  0.51977000  0.07854000  0.00237000  1.0
  H  H37  1  0.55197000  0.94498000  0.05020000  1.0
  H  H38  1  0.50620000  0.98050000  0.91884000  1.0
  H  H39  1  0.41038000  0.99181000  0.00978000  1.0
  H  H40  1  0.09401000  0.01587000  0.52400000  1.0
  H  H41  1  0.97031000  0.94498000  0.46602000  1.0
  H  H42  1  0.97395000  0.08309000  0.51028000  1.0
  H  H43  1  0.98557000  0.98819000  0.60028000  1.0
  H  H44  1  0.01070000  0.51834000  0.90001000  1.0
  H  H45  1  0.95136000  0.55033000  0.02436000  1.0
  H  H46  1  0.10171000  0.52663000  0.00179000  1.0
  H  H47  1  0.01148000  0.42297000  0.98779000  1.0
  H  H48  1  0.07005000  0.11854000  0.64109000  1.0
  H  H49  1  0.09689000  0.02662000  0.60058000  1.0
  H  H50  1  0.15227000  0.05193000  0.66006000  1.0
  H  H51  1  0.01352000  0.09210000  0.58232000  1.0
  H  H52  1  0.88802000  0.05412000  0.36552000  1.0
  H  H53  1  0.96080000  0.09371000  0.43534000  1.0
  H  H54  1  0.94473000  0.14302000  0.37893000  1.0
  H  H55  1  0.91714000  0.99852000  0.42553000  1.0
  H  H56  1  0.89092000  0.85297000  0.58792000  1.0
  H  H57  1  0.89810000  0.95742000  0.58862000  1.0
  H  H58  1  0.83254000  0.92919000  0.62760000  1.0
  H  H59  1  0.94833000  0.88836000  0.53168000  1.0
  H  H60  1  0.12125000  0.92070000  0.39500000  1.0
  H  H61  1  0.01858000  0.90638000  0.42913000  1.0
  H  H62  1  0.03977000  0.85330000  0.36966000  1.0
  H  H63  1  0.10648000  0.96495000  0.45817000  1.0
  H  H64  1  0.13379000  0.40050000  0.90732000  1.0
  H  H65  1  0.03293000  0.44178000  0.88734000  1.0
  H  H66  1  0.05256000  0.37822000  0.83922000  1.0
  H  H67  1  0.11184000  0.45766000  0.95916000  1.0
  H  H68  1  0.06430000  0.64271000  0.11599000  1.0
  H  H69  1  0.11335000  0.58962000  0.04313000  1.0
  H  H70  1  0.16652000  0.64000000  0.08065000  1.0
  H  H71  1  0.00861000  0.58993000  0.07231000  1.0
  H  H72  1  0.88379000  0.40133000  0.08706000  1.0
  H  H73  1  0.99188000  0.41340000  0.06641000  1.0
  H  H74  1  0.97850000  0.35554000  0.11645000  1.0
  H  H75  1  0.90490000  0.47261000  0.04183000  1.0
  H  H76  1  0.87283000  0.63088000  0.90708000  1.0
  H  H77  1  0.95873000  0.57562000  0.87491000  1.0
  H  H78  1  0.92204000  0.62211000  0.81939000  1.0
  H  H79  1  0.91241000  0.58415000  0.96385000  1.0
  H  H80  1  0.38870000  0.09022000  0.89562000  1.0
  H  H81  1  0.41880000  0.08781000  0.99416000  1.0
  H  H82  1  0.35452000  0.14425000  0.97408000  1.0
  H  H83  1  0.44770000  0.03499000  0.91315000  1.0
  H  H84  1  0.63026000  0.85996000  0.93047000  1.0
  H  H85  1  0.54144000  0.91625000  0.90107000  1.0
  H  H86  1  0.57741000  0.88176000  0.84320000  1.0
  H  H87  1  0.59210000  0.90591000  0.99135000  1.0
  H  H88  1  0.40443000  0.88067000  0.12354000  1.0
  H  H89  1  0.40352000  0.97932000  0.09044000  1.0
  H  H90  1  0.34329000  0.96368000  0.14262000  1.0
  H  H91  1  0.47497000  0.90264000  0.07704000  1.0
  H  H92  1  0.65738000  0.06107000  0.11557000  1.0
  H  H93  1  0.57944000  0.10050000  0.05189000  1.0
  H  H94  1  0.63401000  0.15592000  0.08138000  1.0
  H  H95  1  0.60159000  0.00365000  0.08073000  1.0
  C  C96  1  0.12621000  0.15208000  0.71374000  1.0
  C  C97  1  0.14779000  0.11278000  0.69841000  1.0
  C  C98  1  0.19042000  0.10965000  0.72445000  1.0
  C  C99  1  0.15272000  0.31521000  0.87122000  1.0
  C  C100  1  0.11423000  0.33464000  0.84706000  1.0
  C  C101  1  0.10656000  0.30503000  0.81165000  1.0
  C  C102  1  0.30957000  0.13974000  0.86637000  1.0
  C  C103  1  0.32062000  0.15248000  0.90982000  1.0
  C  C104  1  0.28825000  0.18743000  0.91727000  1.0
  C  C105  1  0.91404000  0.17471000  0.29981000  1.0
  C  C106  1  0.89861000  0.13597000  0.32160000  1.0
  C  C107  1  0.86081000  0.11887000  0.29418000  1.0
  C  C108  1  0.86247000  0.31408000  0.12953000  1.0
  C  C109  1  0.91147000  0.32621000  0.13552000  1.0
  C  C110  1  0.92897000  0.29572000  0.16707000  1.0
  C  C111  1  0.72556000  0.12552000  0.15651000  1.0
  C  C112  1  0.69486000  0.14749000  0.12604000  1.0
  C  C113  1  0.71456000  0.19122000  0.12447000  1.0
  C  C114  1  0.83687000  0.81927000  0.66358000  1.0
  C  C115  1  0.82026000  0.86141000  0.64917000  1.0
  C  C116  1  0.77695000  0.86672000  0.67074000  1.0
  C  C117  1  0.82612000  0.69149000  0.84462000  1.0
  C  C118  1  0.86325000  0.66809000  0.82468000  1.0
  C  C119  1  0.86253000  0.68563000  0.78220000  1.0
  C  C120  1  0.64951000  0.84484000  0.79735000  1.0
  C  C121  1  0.64090000  0.84133000  0.84203000  1.0
  C  C122  1  0.67689000  0.81184000  0.85762000  1.0
  C  C123  1  0.09714000  0.81911000  0.30494000  1.0
  C  C124  1  0.10349000  0.85743000  0.33162000  1.0
  C  C125  1  0.14357000  0.87951000  0.31433000  1.0
  C  C126  1  0.19779000  0.70774000  0.13613000  1.0
  C  C127  1  0.15260000  0.68581000  0.13287000  1.0
  C  C128  1  0.12631000  0.70678000  0.16541000  1.0
  C  C129  1  0.28511000  0.91123000  0.19490000  1.0
  C  C130  1  0.32082000  0.89880000  0.16606000  1.0
  C  C131  1  0.31430000  0.85198000  0.16168000  1.0
  C  C132  1  0.47859000  0.01630000  0.97795000  1.0
  C  C133  1  0.51659000  0.04229000  0.00605000  1.0
  C  C134  1  0.54399000  0.01644000  0.03302000  1.0
  C  C135  1  0.52998000  0.96626000  0.02843000  1.0
  C  C136  1  0.50745000  0.98100000  0.95429000  1.0
  C  C137  1  0.53465000  0.95396000  0.98015000  1.0
  C  C138  1  0.44948000  0.98975000  0.01090000  1.0
  C  C139  1  0.47605000  0.96352000  0.03793000  1.0
  C  C140  1  0.01741000  0.02847000  0.54504000  1.0
  C  C141  1  0.05646000  0.00548000  0.51929000  1.0
  C  C142  1  0.03996000  0.97484000  0.48953000  1.0
  C  C143  1  0.98481000  0.96967000  0.48972000  1.0
  C  C144  1  0.98287000  0.04755000  0.50991000  1.0
  C  C145  1  0.96618000  0.01742000  0.47986000  1.0
  C  C146  1  0.98885000  0.98970000  0.56518000  1.0
  C  C147  1  0.97105000  0.95903000  0.53639000  1.0
  C  C148  1  0.04114000  0.48995000  0.96392000  1.0
  C  C149  1  0.00642000  0.51756000  0.93504000  1.0
  C  C150  1  0.97336000  0.54061000  0.95692000  1.0
  C  C151  1  0.97817000  0.53202000  0.00625000  1.0
  C  C152  1  0.06272000  0.52333000  0.99743000  1.0
  C  C153  1  0.03016000  0.54605000  0.02019000  1.0
  C  C154  1  0.00810000  0.45926000  0.99022000  1.0
  C  C155  1  0.97531000  0.48099000  0.01318000  1.0
  C  C156  1  0.13103000  0.08229000  0.66426000  1.0
  C  C157  1  0.09157000  0.08823000  0.63759000  1.0
  C  C158  1  0.07531000  0.05689000  0.60429000  1.0
  C  C159  1  0.03555000  0.06222000  0.57823000  1.0
  C  C160  1  0.91929000  0.11979000  0.36215000  1.0
  C  C161  1  0.91216000  0.07917000  0.38119000  1.0
  C  C162  1  0.93748000  0.06730000  0.42079000  1.0
  C  C163  1  0.93762000  0.02650000  0.44068000  1.0
  C  C164  1  0.84381000  0.89443000  0.62287000  1.0
  C  C165  1  0.87993000  0.88730000  0.59521000  1.0
  C  C166  1  0.90636000  0.92372000  0.57674000  1.0
  C  C167  1  0.94146000  0.92067000  0.54732000  1.0
  C  C168  1  0.07426000  0.87103000  0.36706000  1.0
  C  C169  1  0.08597000  0.90407000  0.39647000  1.0
  C  C170  1  0.05516000  0.92040000  0.42911000  1.0
  C  C171  1  0.06910000  0.95290000  0.45857000  1.0
  C  C172  1  0.08686000  0.37397000  0.85741000  1.0
  C  C173  1  0.09920000  0.40397000  0.88937000  1.0
  C  C174  1  0.06786000  0.43819000  0.90470000  1.0
  C  C175  1  0.07735000  0.46238000  0.94133000  1.0
  C  C176  1  0.13833000  0.65128000  0.10192000  1.0
  C  C177  1  0.09373000  0.63225000  0.09573000  1.0
  C  C178  1  0.08313000  0.59920000  0.06288000  1.0
  C  C179  1  0.03934000  0.57956000  0.05362000  1.0
  C  C180  1  0.93938000  0.35974000  0.11374000  1.0
  C  C181  1  0.92249000  0.39479000  0.08956000  1.0
  C  C182  1  0.95389000  0.42293000  0.06552000  1.0
  C  C183  1  0.94150000  0.45939000  0.04114000  1.0
  C  C184  1  0.89599000  0.63488000  0.84207000  1.0
  C  C185  1  0.89827000  0.61878000  0.88350000  1.0
  C  C186  1  0.93324000  0.58712000  0.89872000  1.0
  C  C187  1  0.93761000  0.57154000  0.94031000  1.0
  C  C188  1  0.35544000  0.13300000  0.94019000  1.0
  C  C189  1  0.38748000  0.10112000  0.92962000  1.0
  C  C190  1  0.41940000  0.07812000  0.95977000  1.0
  C  C191  1  0.44800000  0.04429000  0.94766000  1.0
  C  C192  1  0.60478000  0.86575000  0.86436000  1.0
  C  C193  1  0.60288000  0.87388000  0.90791000  1.0
  C  C194  1  0.56810000  0.90345000  0.92499000  1.0
  C  C195  1  0.56664000  0.91912000  0.96663000  1.0
  C  C196  1  0.35312000  0.92817000  0.14361000  1.0
  C  C197  1  0.39255000  0.91560000  0.12188000  1.0
  C  C198  1  0.41810000  0.94547000  0.09435000  1.0
  C  C199  1  0.45729000  0.93492000  0.07129000  1.0
  C  C200  1  0.65373000  0.13078000  0.10069000  1.0
  C  C201  1  0.63812000  0.08729000  0.09733000  1.0
  C  C202  1  0.59818000  0.07357000  0.06958000  1.0
  C  C203  1  0.58280000  0.03035000  0.06278000  1.0
  N  N204  1  0.19393000  0.14437000  0.75276000  1.0
  N  N205  1  0.15395000  0.17064000  0.74606000  1.0
  N  N206  1  0.13808000  0.27093000  0.81447000  1.0
  N  N207  1  0.16664000  0.27727000  0.85159000  1.0
  N  N208  1  0.26036000  0.19484000  0.88114000  1.0
  N  N209  1  0.27359000  0.16501000  0.84961000  1.0
  N  N210  1  0.85459000  0.14543000  0.25906000  1.0
  N  N211  1  0.88788000  0.18000000  0.26246000  1.0
  N  N212  1  0.89323000  0.26807000  0.17904000  1.0
  N  N213  1  0.85197000  0.27926000  0.15547000  1.0
  N  N214  1  0.75384000  0.19482000  0.15145000  1.0
  N  N215  1  0.76053000  0.15396000  0.17147000  1.0
  N  N216  1  0.76856000  0.83072000  0.69587000  1.0
  N  N217  1  0.80605000  0.80136000  0.69167000  1.0
  N  N218  1  0.82805000  0.71689000  0.77737000  1.0
  N  N219  1  0.80544000  0.72049000  0.81623000  1.0
  N  N220  1  0.70462000  0.79930000  0.82482000  1.0
  N  N221  1  0.68783000  0.82008000  0.78738000  1.0
  N  N222  1  0.15949000  0.85611000  0.28030000  1.0
  N  N223  1  0.13073000  0.81845000  0.27451000  1.0
  N  N224  1  0.15376000  0.73850000  0.18598000  1.0
  N  N225  1  0.19822000  0.73920000  0.16776000  1.0
  N  N226  1  0.27762000  0.83797000  0.18577000  1.0
  N  N227  1  0.25964000  0.87477000  0.20673000  1.0
