# generated using pymatgen
data_GdH16C27N2O7
_symmetry_space_group_name_H-M   'P 1'
_cell_length_a   10.55040000
_cell_length_b   10.71660000
_cell_length_c   11.81680000
_cell_angle_alpha   76.85980000
_cell_angle_beta   83.01920000
_cell_angle_gamma   65.83010000
_symmetry_Int_Tables_number   1
_chemical_formula_structural   GdH16C27N2O7
_chemical_formula_sum   'Gd2 H32 C54 N4 O14'
_cell_volume   1186.40966177
_cell_formula_units_Z   2
loop_
 _symmetry_equiv_pos_site_id
 _symmetry_equiv_pos_as_xyz
  1  'x, y, z'
loop_
 _atom_site_type_symbol
 _atom_site_label
 _atom_site_symmetry_multiplicity
 _atom_site_fract_x
 _atom_site_fract_y
 _atom_site_fract_z
 _atom_site_occupancy
  Gd  Gd0  1  0.98946000  0.25135000  0.09996000  1.0
  Gd  Gd1  1  0.01054000  0.74865000  0.90004000  1.0
  H  H2  1  0.21237000  0.40580000  0.96605000  1.0
  H  H3  1  0.78763000  0.59420000  0.03395000  1.0
  H  H4  1  0.46017000  0.36111000  0.92739000  1.0
  H  H5  1  0.53983000  0.63889000  0.07261000  1.0
  H  H6  1  0.64195000  0.14005000  0.03623000  1.0
  H  H7  1  0.35805000  0.85995000  0.96377000  1.0
  H  H8  1  0.69310000  0.91433000  0.17362000  1.0
  H  H9  1  0.30690000  0.08567000  0.82638000  1.0
  H  H10  1  0.60947000  0.74934000  0.31211000  1.0
  H  H11  1  0.39053000  0.25066000  0.68789000  1.0
  H  H12  1  0.40916000  0.69393000  0.41316000  1.0
  H  H13  1  0.59084000  0.30607000  0.58684000  1.0
  H  H14  1  0.15116000  0.76937000  0.44668000  1.0
  H  H15  1  0.84884000  0.23063000  0.55333000  1.0
  H  H16  1  0.99321000  0.99980000  0.33202000  1.0
  H  H17  1  0.00679000  0.00020000  0.66798000  1.0
  H  H18  1  0.69820000  0.13333000  0.40458000  1.0
  H  H19  1  0.30180000  0.86667000  0.59542000  1.0
  H  H20  1  0.47307000  0.11664000  0.48772000  1.0
  H  H21  1  0.52693000  0.88336000  0.51228000  1.0
  H  H22  1  0.25068000  0.46347000  0.22178000  1.0
  H  H23  1  0.74932000  0.53653000  0.77822000  1.0
  H  H24  1  0.47458000  0.47742000  0.13912000  1.0
  H  H25  1  0.52542000  0.52259000  0.86089000  1.0
  H  H26  1  0.23189000  0.49764000  0.46894000  1.0
  H  H27  1  0.76812000  0.50236000  0.53106000  1.0
  H  H28  1  0.12961000  0.57267000  0.65711000  1.0
  H  H29  1  0.87039000  0.42733000  0.34289000  1.0
  H  H30  1  0.01353000  0.22174000  0.75770000  1.0
  H  H31  1  0.98647000  0.77827000  0.24229000  1.0
  H  H32  1  0.11376000  0.14772000  0.56700000  1.0
  H  H33  1  0.88624000  0.85228000  0.43300000  1.0
  C  C34  1  0.29073000  0.30932000  0.01033000  1.0
  C  C35  1  0.70927000  0.69068000  0.98967000  1.0
  C  C36  1  0.43239000  0.28344000  0.98903000  1.0
  C  C37  1  0.56761000  0.71656000  0.01097000  1.0
  C  C38  1  0.53105000  0.16298000  0.04797000  1.0
  C  C39  1  0.46895000  0.83702000  0.95203000  1.0
  C  C40  1  0.48659000  0.06764000  0.12771000  1.0
  C  C41  1  0.51341000  0.93236000  0.87229000  1.0
  C  C42  1  0.58244000  0.93889000  0.19036000  1.0
  C  C43  1  0.41756000  0.06111000  0.80964000  1.0
  C  C44  1  0.53610000  0.84839000  0.26600000  1.0
  C  C45  1  0.46390000  0.15161000  0.73400000  1.0
  C  C46  1  0.39032000  0.88131000  0.28641000  1.0
  C  C47  1  0.60968000  0.11869000  0.71359000  1.0
  C  C48  1  0.33706000  0.79286000  0.36566000  1.0
  C  C49  1  0.66294000  0.20714000  0.63434000  1.0
  C  C50  1  0.19500000  0.83382000  0.38395000  1.0
  C  C51  1  0.80500000  0.16618000  0.61605000  1.0
  C  C52  1  0.10611000  0.96217000  0.32067000  1.0
  C  C53  1  0.89389000  0.03783000  0.67933000  1.0
  C  C54  1  0.29223000  0.00882000  0.22588000  1.0
  C  C55  1  0.70777000  0.99118000  0.77412000  1.0
  C  C56  1  0.34128000  0.10231000  0.14369000  1.0
  C  C57  1  0.65872000  0.89769000  0.85631000  1.0
  C  C58  1  0.92661000  0.01017000  0.02685000  1.0
  C  C59  1  0.07339000  0.98983000  0.97316000  1.0
  C  C60  1  0.73447000  0.31323000  0.21796000  1.0
  C  C61  1  0.26553000  0.68677000  0.78204000  1.0
  C  C62  1  0.59972000  0.30846000  0.26885000  1.0
  C  C63  1  0.40029000  0.69154000  0.73115000  1.0
  C  C64  1  0.59943000  0.20568000  0.36631000  1.0
  C  C65  1  0.40057000  0.79432000  0.63369000  1.0
  C  C66  1  0.47534000  0.19580000  0.41195000  1.0
  C  C67  1  0.52466000  0.80420000  0.58805000  1.0
  C  C68  1  0.35085000  0.28961000  0.35961000  1.0
  C  C69  1  0.64915000  0.71039000  0.64039000  1.0
  C  C70  1  0.34845000  0.39227000  0.26223000  1.0
  C  C71  1  0.65155000  0.60773000  0.73777000  1.0
  C  C72  1  0.47376000  0.40049000  0.21703000  1.0
  C  C73  1  0.52624000  0.59951000  0.78297000  1.0
  C  C74  1  0.17733000  0.31860000  0.50846000  1.0
  C  C75  1  0.82267000  0.68140000  0.49154000  1.0
  C  C76  1  0.18409000  0.43774000  0.53271000  1.0
  C  C77  1  0.81591000  0.56226000  0.46729000  1.0
  C  C78  1  0.12708000  0.47924000  0.63713000  1.0
  C  C79  1  0.87291000  0.52076000  0.36287000  1.0
  C  C80  1  0.06513000  0.40169000  0.71859000  1.0
  C  C81  1  0.93487000  0.59832000  0.28140000  1.0
  C  C82  1  0.05980000  0.28231000  0.69313000  1.0
  C  C83  1  0.94019000  0.71769000  0.30687000  1.0
  C  C84  1  0.11500000  0.24094000  0.58829000  1.0
  C  C85  1  0.88500000  0.75906000  0.41171000  1.0
  C  C86  1  0.00941000  0.44450000  0.83214000  1.0
  C  C87  1  0.99058000  0.55551000  0.16786000  1.0
  N  N88  1  0.24540000  0.22177000  0.08490000  1.0
  N  N89  1  0.75460000  0.77823000  0.91510000  1.0
  N  N90  1  0.15254000  0.04667000  0.24311000  1.0
  N  N91  1  0.84746000  0.95333000  0.75689000  1.0
  O  O92  1  0.84620000  0.23741000  0.27438000  1.0
  O  O93  1  0.15380000  0.76259000  0.72562000  1.0
  O  O94  1  0.73823000  0.38751000  0.11755000  1.0
  O  O95  1  0.26177000  0.61249000  0.88246000  1.0
  O  O96  1  0.22790000  0.27510000  0.40452000  1.0
  O  O97  1  0.77210000  0.72489000  0.59548000  1.0
  O  O98  1  0.01126000  0.55690000  0.84824000  1.0
  O  O99  1  0.98874000  0.44310000  0.15176000  1.0
  O  O100  1  0.96350000  0.36655000  0.90852000  1.0
  O  O101  1  0.03650000  0.63345000  0.09148000  1.0
  O  O102  1  0.87422000  0.92956000  0.00898000  1.0
  O  O103  1  0.12579000  0.07044000  0.99102000  1.0
  O  O104  1  0.87052000  0.10656000  0.08456000  1.0
  O  O105  1  0.12948000  0.89344000  0.91545000  1.0
