# generated using pymatgen
data_MnH13C15NO5
_symmetry_space_group_name_H-M   'P 1'
_cell_length_a   7.41770000
_cell_length_b   10.27370000
_cell_length_c   10.71800000
_cell_angle_alpha   113.83300000
_cell_angle_beta   103.25200000
_cell_angle_gamma   97.88530000
_symmetry_Int_Tables_number   1
_chemical_formula_structural   MnH13C15NO5
_chemical_formula_sum   'Mn2 H26 C30 N2 O10'
_cell_volume   702.60043823
_cell_formula_units_Z   2
loop_
 _symmetry_equiv_pos_site_id
 _symmetry_equiv_pos_as_xyz
  1  'x, y, z'
loop_
 _atom_site_type_symbol
 _atom_site_label
 _atom_site_symmetry_multiplicity
 _atom_site_fract_x
 _atom_site_fract_y
 _atom_site_fract_z
 _atom_site_occupancy
  Mn  Mn0  1  0.50001000  0.50000000  0.50000000  1.0
  Mn  Mn1  1  0.00000000  0.50000000  0.50000000  1.0
  H  H2  1  0.64241000  0.72374000  0.36750000  1.0
  H  H3  1  0.35759000  0.27626000  0.63251000  1.0
  H  H4  1  0.90493000  0.18178000  0.67475000  1.0
  H  H5  1  0.09507000  0.81822000  0.32525000  1.0
  H  H6  1  0.98949000  0.81713000  0.76907000  1.0
  H  H7  1  0.01051000  0.18287000  0.23094000  1.0
  H  H8  1  0.70618000  0.13004000  0.44303000  1.0
  H  H9  1  0.29382000  0.86995000  0.55697000  1.0
  H  H10  1  0.50753000  0.97536000  0.37434000  1.0
  H  H11  1  0.49247000  0.02463000  0.62566000  1.0
  H  H12  1  0.69537000  0.95971000  0.29889000  1.0
  H  H13  1  0.30463000  0.04027000  0.70111000  1.0
  H  H14  1  0.08925000  0.23940000  0.91356000  1.0
  H  H15  1  0.91075000  0.76060000  0.08644000  1.0
  H  H16  1  0.23524000  0.11633000  0.91597000  1.0
  H  H17  1  0.76476000  0.88368000  0.08403000  1.0
  H  H18  1  0.03397000  0.10723000  0.97553000  1.0
  H  H19  1  0.96603000  0.89277000  0.02447000  1.0
  H  H20  1  0.81508000  0.48788000  0.16321000  1.0
  H  H21  1  0.18491000  0.51212000  0.83679000  1.0
  H  H22  1  0.35631000  0.56644000  0.09048000  1.0
  H  H23  1  0.64368000  0.43356000  0.90952000  1.0
  H  H24  1  0.65303000  0.96832000  0.81022000  1.0
  H  H25  1  0.34697000  0.03168000  0.18977000  1.0
  H  H26  1  0.23611000  0.79571000  0.96029000  1.0
  H  H27  1  0.76390000  0.20429000  0.03970000  1.0
  C  C28  1  0.73432000  0.81312000  0.46980000  1.0
  C  C29  1  0.26567000  0.18688000  0.53021000  1.0
  C  C30  1  0.76250000  0.96212000  0.50660000  1.0
  C  C31  1  0.23750000  0.03788000  0.49341000  1.0
  C  C32  1  0.87951000  0.06452000  0.64521000  1.0
  C  C33  1  0.12049000  0.93548000  0.35479000  1.0
  C  C34  1  0.96387000  0.01774000  0.74516000  1.0
  C  C35  1  0.03613000  0.98226000  0.25483000  1.0
  C  C36  1  0.93001000  0.86714000  0.70263000  1.0
  C  C37  1  0.06999000  0.13286000  0.29737000  1.0
  C  C38  1  0.66377000  0.00994000  0.40039000  1.0
  C  C39  1  0.33623000  0.99005000  0.59961000  1.0
  C  C40  1  0.08685000  0.12612000  0.89499000  1.0
  C  C41  1  0.91314000  0.87389000  0.10501000  1.0
  C  C42  1  0.19586000  0.56315000  0.29489000  1.0
  C  C43  1  0.80414000  0.43684000  0.70511000  1.0
  C  C44  1  0.09580000  0.53142000  0.14263000  1.0
  C  C45  1  0.90419000  0.46858000  0.85737000  1.0
  C  C46  1  0.89446000  0.49372000  0.09090000  1.0
  C  C47  1  0.10553000  0.50627000  0.90910000  1.0
  C  C48  1  0.20013000  0.53748000  0.05021000  1.0
  C  C49  1  0.79986000  0.46252000  0.94979000  1.0
  C  C50  1  0.36792000  0.73065000  0.73225000  1.0
  C  C51  1  0.63209000  0.26935000  0.26775000  1.0
  C  C52  1  0.43764000  0.86906000  0.87143000  1.0
  C  C53  1  0.56236000  0.13095000  0.12857000  1.0
  C  C54  1  0.58713000  0.98364000  0.89418000  1.0
  C  C55  1  0.41287000  0.01636000  0.10582000  1.0
  C  C56  1  0.35103000  0.88609000  0.97846000  1.0
  C  C57  1  0.64897000  0.11391000  0.02154000  1.0
  N  N58  1  0.81801000  0.76929000  0.56740000  1.0
  N  N59  1  0.18199000  0.23071000  0.43261000  1.0
  O  O60  1  0.78416000  0.62535000  0.52981000  1.0
  O  O61  1  0.21584000  0.37465000  0.47020000  1.0
  O  O62  1  0.10280000  0.60385000  0.38472000  1.0
  O  O63  1  0.89720000  0.39615000  0.61528000  1.0
  O  O64  1  0.36587000  0.54810000  0.32415000  1.0
  O  O65  1  0.63413000  0.45190000  0.67585000  1.0
  O  O66  1  0.19659000  0.65624000  0.69814000  1.0
  O  O67  1  0.80341000  0.34375000  0.30185000  1.0
  O  O68  1  0.48214000  0.69943000  0.65921000  1.0
  O  O69  1  0.51786000  0.30058000  0.34079000  1.0
