# generated using pymatgen
data_CdH19C25N5O4
_symmetry_space_group_name_H-M   'P 1'
_cell_length_a   13.47690000
_cell_length_b   14.60540000
_cell_length_c   14.60550000
_cell_angle_alpha   90.01280000
_cell_angle_beta   89.99970000
_cell_angle_gamma   89.99990000
_symmetry_Int_Tables_number   1
_chemical_formula_structural   CdH19C25N5O4
_chemical_formula_sum   'Cd4 H76 C100 N20 O16'
_cell_volume   2874.88104635
_cell_formula_units_Z   4
loop_
 _symmetry_equiv_pos_site_id
 _symmetry_equiv_pos_as_xyz
  1  'x, y, z'
loop_
 _atom_site_type_symbol
 _atom_site_label
 _atom_site_symmetry_multiplicity
 _atom_site_fract_x
 _atom_site_fract_y
 _atom_site_fract_z
 _atom_site_occupancy
  Cd  Cd0  1  0.50000000  0.26068000  0.26068000  1.0
  Cd  Cd1  1  0.00000000  0.73932000  0.73932000  1.0
  Cd  Cd2  1  0.75000000  0.76059000  0.23941000  1.0
  Cd  Cd3  1  0.25000000  0.23941000  0.76059000  1.0
  H  H4  1  0.56668000  0.03144000  0.31132000  1.0
  H  H5  1  0.06667000  0.96855000  0.68868000  1.0
  H  H6  1  0.68314000  0.53124000  0.18864000  1.0
  H  H7  1  0.18315000  0.46876000  0.81136000  1.0
  H  H8  1  0.93332000  0.68869000  0.96855000  1.0
  H  H9  1  0.43333000  0.31131000  0.03145000  1.0
  H  H10  1  0.81686000  0.81135000  0.46876000  1.0
  H  H11  1  0.31686000  0.18864000  0.53124000  1.0
  H  H12  1  0.73818000  0.98965000  0.40929000  1.0
  H  H13  1  0.23818000  0.01034000  0.59071000  1.0
  H  H14  1  0.51151000  0.48958000  0.09087000  1.0
  H  H15  1  0.01152000  0.51042000  0.90913000  1.0
  H  H16  1  0.76182000  0.59071000  0.01035000  1.0
  H  H17  1  0.26183000  0.40929000  0.98965000  1.0
  H  H18  1  0.98849000  0.90912000  0.51042000  1.0
  H  H19  1  0.48849000  0.09087000  0.48958000  1.0
  H  H20  1  0.70280000  0.27808000  0.39321000  1.0
  H  H21  1  0.20280000  0.72191000  0.60680000  1.0
  H  H22  1  0.54758000  0.77797000  0.10634000  1.0
  H  H23  1  0.04758000  0.22203000  0.89366000  1.0
  H  H24  1  0.79719000  0.60679000  0.72192000  1.0
  H  H25  1  0.29719000  0.39321000  0.27808000  1.0
  H  H26  1  0.95243000  0.89366000  0.22203000  1.0
  H  H27  1  0.45243000  0.10634000  0.77797000  1.0
  H  H28  1  0.79358000  0.04199000  0.56469000  1.0
  H  H29  1  0.29357000  0.95800000  0.43531000  1.0
  H  H30  1  0.45601000  0.54161000  0.93545000  1.0
  H  H31  1  0.95601000  0.45839000  0.06454000  1.0
  H  H32  1  0.70642000  0.43531000  0.95801000  1.0
  H  H33  1  0.20642000  0.56469000  0.04199000  1.0
  H  H34  1  0.04399000  0.06455000  0.45840000  1.0
  H  H35  1  0.54400000  0.93546000  0.54161000  1.0
  H  H36  1  0.93980000  0.06940000  0.66638000  1.0
  H  H37  1  0.43980000  0.93060000  0.33361000  1.0
  H  H38  1  0.30979000  0.56913000  0.83380000  1.0
  H  H39  1  0.80979000  0.43087000  0.16620000  1.0
  H  H40  1  0.56019000  0.33361000  0.93061000  1.0
  H  H41  1  0.06019000  0.66638000  0.06939000  1.0
  H  H42  1  0.19021000  0.16621000  0.43088000  1.0
  H  H43  1  0.69022000  0.83380000  0.56912000  1.0
  H  H44  1  0.03715000  0.28645000  0.49092000  1.0
  H  H45  1  0.53715000  0.71356000  0.50908000  1.0
  H  H46  1  0.21300000  0.78668000  0.00901000  1.0
  H  H47  1  0.71301000  0.21332000  0.99098000  1.0
  H  H48  1  0.46285000  0.50908000  0.71356000  1.0
  H  H49  1  0.96285000  0.49092000  0.28644000  1.0
  H  H50  1  0.28699000  0.99099000  0.21332000  1.0
  H  H51  1  0.78700000  0.00902000  0.78668000  1.0
  H  H52  1  0.88958000  0.26111000  0.38856000  1.0
  H  H53  1  0.38958000  0.73889000  0.61144000  1.0
  H  H54  1  0.36067000  0.76129000  0.11125000  1.0
  H  H55  1  0.86067000  0.23871000  0.88874000  1.0
  H  H56  1  0.61042000  0.61144000  0.73889000  1.0
  H  H57  1  0.11043000  0.38856000  0.26111000  1.0
  H  H58  1  0.13933000  0.88875000  0.23871000  1.0
  H  H59  1  0.63933000  0.11126000  0.76129000  1.0
  H  H60  1  0.57092000  0.47065000  0.29364000  1.0
  H  H61  1  0.07092000  0.52935000  0.70636000  1.0
  H  H62  1  0.67896000  0.97051000  0.20641000  1.0
  H  H63  1  0.17896000  0.02949000  0.79359000  1.0
  H  H64  1  0.92909000  0.70636000  0.52936000  1.0
  H  H65  1  0.42909000  0.29364000  0.47064000  1.0
  H  H66  1  0.82104000  0.79359000  0.02949000  1.0
  H  H67  1  0.32103000  0.20641000  0.97051000  1.0
  H  H68  1  0.57312000  0.59711000  0.40941000  1.0
  H  H69  1  0.07311000  0.40289000  0.59059000  1.0
  H  H70  1  0.67687000  0.09698000  0.09070000  1.0
  H  H71  1  0.17687000  0.90302000  0.90929000  1.0
  H  H72  1  0.92688000  0.59060000  0.40289000  1.0
  H  H73  1  0.42688000  0.40940000  0.59711000  1.0
  H  H74  1  0.82313000  0.90929000  0.90302000  1.0
  H  H75  1  0.32313000  0.09071000  0.09698000  1.0
  H  H76  1  0.50000000  0.56569000  0.56568000  1.0
  H  H77  1  0.00000000  0.43431000  0.43431000  1.0
  H  H78  1  0.75000000  0.06556000  0.93444000  1.0
  H  H79  1  0.25000000  0.93445000  0.06555000  1.0
  C  C80  1  0.61968000  0.07654000  0.34424000  1.0
  C  C81  1  0.11968000  0.92345000  0.65576000  1.0
  C  C82  1  0.63025000  0.57640000  0.15570000  1.0
  C  C83  1  0.13025000  0.42360000  0.84430000  1.0
  C  C84  1  0.88032000  0.65576000  0.92346000  1.0
  C  C85  1  0.38032000  0.34424000  0.07654000  1.0
  C  C86  1  0.86976000  0.84429000  0.42360000  1.0
  C  C87  1  0.36976000  0.15570000  0.57641000  1.0
  C  C88  1  0.70387000  0.05463000  0.39260000  1.0
  C  C89  1  0.20387000  0.94537000  0.60740000  1.0
  C  C90  1  0.54598000  0.55452000  0.10746000  1.0
  C  C91  1  0.04598000  0.44548000  0.89254000  1.0
  C  C92  1  0.79613000  0.60740000  0.94537000  1.0
  C  C93  1  0.29614000  0.39260000  0.05463000  1.0
  C  C94  1  0.95402000  0.89254000  0.44549000  1.0
  C  C95  1  0.45402000  0.10746000  0.55452000  1.0
  C  C96  1  0.68802000  0.20577000  0.38343000  1.0
  C  C97  1  0.18802000  0.79423000  0.61657000  1.0
  C  C98  1  0.56221000  0.70563000  0.11620000  1.0
  C  C99  1  0.06221000  0.29437000  0.88380000  1.0
  C  C100  1  0.81198000  0.61657000  0.79423000  1.0
  C  C101  1  0.31198000  0.38343000  0.20577000  1.0
  C  C102  1  0.93779000  0.88380000  0.29437000  1.0
  C  C103  1  0.43779000  0.11620000  0.70563000  1.0
  C  C104  1  0.83297000  0.15068000  0.47185000  1.0
  C  C105  1  0.33297000  0.84931000  0.52814000  1.0
  C  C106  1  0.41698000  0.65059000  0.02810000  1.0
  C  C107  1  0.91698000  0.34941000  0.97190000  1.0
  C  C108  1  0.66702000  0.52814000  0.84932000  1.0
  C  C109  1  0.16703000  0.47186000  0.15069000  1.0
  C  C110  1  0.08302000  0.97190000  0.34941000  1.0
  C  C111  1  0.58302000  0.02811000  0.65059000  1.0
  C  C112  1  0.84722000  0.09539000  0.54877000  1.0
  C  C113  1  0.34722000  0.90461000  0.45123000  1.0
  C  C114  1  0.40250000  0.59515000  0.95130000  1.0
  C  C115  1  0.90250000  0.40485000  0.04869000  1.0
  C  C116  1  0.65277000  0.45123000  0.90461000  1.0
  C  C117  1  0.15278000  0.54877000  0.09539000  1.0
  C  C118  1  0.09750000  0.04870000  0.40486000  1.0
  C  C119  1  0.59751000  0.95131000  0.59515000  1.0
  C  C120  1  0.92866000  0.11087000  0.60526000  1.0
  C  C121  1  0.42866000  0.88913000  0.39473000  1.0
  C  C122  1  0.32104000  0.61070000  0.89486000  1.0
  C  C123  1  0.82105000  0.38930000  0.10514000  1.0
  C  C124  1  0.57133000  0.39474000  0.88913000  1.0
  C  C125  1  0.07134000  0.60526000  0.11087000  1.0
  C  C126  1  0.17896000  0.10514000  0.38931000  1.0
  C  C127  1  0.67896000  0.89486000  0.61070000  1.0
  C  C128  1  0.99686000  0.18055000  0.58509000  1.0
  C  C129  1  0.49686000  0.81946000  0.41491000  1.0
  C  C130  1  0.25300000  0.68051000  0.91497000  1.0
  C  C131  1  0.75300000  0.31949000  0.08503000  1.0
  C  C132  1  0.50314000  0.41490000  0.81946000  1.0
  C  C133  1  0.00314000  0.58510000  0.18054000  1.0
  C  C134  1  0.24700000  0.08503000  0.31949000  1.0
  C  C135  1  0.74701000  0.91497000  0.68051000  1.0
  C  C136  1  0.98206000  0.23439000  0.50691000  1.0
  C  C137  1  0.48206000  0.76561000  0.49309000  1.0
  C  C138  1  0.26803000  0.73455000  0.99300000  1.0
  C  C139  1  0.76804000  0.26545000  0.00699000  1.0
  C  C140  1  0.51794000  0.49308000  0.76561000  1.0
  C  C141  1  0.01795000  0.50692000  0.23439000  1.0
  C  C142  1  0.23196000  0.00700000  0.26546000  1.0
  C  C143  1  0.73197000  0.99300000  0.73455000  1.0
  C  C144  1  0.90052000  0.22015000  0.45015000  1.0
  C  C145  1  0.40052000  0.77985000  0.54985000  1.0
  C  C146  1  0.34964000  0.72029000  0.04969000  1.0
  C  C147  1  0.84964000  0.27972000  0.95030000  1.0
  C  C148  1  0.59948000  0.54985000  0.77985000  1.0
  C  C149  1  0.09948000  0.45015000  0.22015000  1.0
  C  C150  1  0.15036000  0.95031000  0.27972000  1.0
  C  C151  1  0.65036000  0.04970000  0.72028000  1.0
  C  C152  1  0.08587000  0.19611000  0.64572000  1.0
  C  C153  1  0.58587000  0.80390000  0.35428000  1.0
  C  C154  1  0.16399000  0.69605000  0.85438000  1.0
  C  C155  1  0.66400000  0.30394000  0.14562000  1.0
  C  C156  1  0.41413000  0.35428000  0.80390000  1.0
  C  C157  1  0.91413000  0.64572000  0.19610000  1.0
  C  C158  1  0.33601000  0.14562000  0.30396000  1.0
  C  C159  1  0.83601000  0.85438000  0.69606000  1.0
  C  C160  1  0.53904000  0.46117000  0.36143000  1.0
  C  C161  1  0.03904000  0.53883000  0.63857000  1.0
  C  C162  1  0.71090000  0.96105000  0.13865000  1.0
  C  C163  1  0.21090000  0.03895000  0.86135000  1.0
  C  C164  1  0.96096000  0.63857000  0.53884000  1.0
  C  C165  1  0.46097000  0.36143000  0.46117000  1.0
  C  C166  1  0.78910000  0.86135000  0.03894000  1.0
  C  C167  1  0.28910000  0.13865000  0.96105000  1.0
  C  C168  1  0.54030000  0.53088000  0.42662000  1.0
  C  C169  1  0.04029000  0.46912000  0.57337000  1.0
  C  C170  1  0.70966000  0.03074000  0.07348000  1.0
  C  C171  1  0.20966000  0.96926000  0.92652000  1.0
  C  C172  1  0.95970000  0.57337000  0.46913000  1.0
  C  C173  1  0.45970000  0.42663000  0.53088000  1.0
  C  C174  1  0.79034000  0.92652000  0.96926000  1.0
  C  C175  1  0.29033000  0.07348000  0.03074000  1.0
  C  C176  1  0.50000000  0.51283000  0.51283000  1.0
  C  C177  1  0.00000000  0.48717000  0.48717000  1.0
  C  C178  1  0.75000000  0.01271000  0.98729000  1.0
  C  C179  1  0.25000000  0.98729000  0.01271000  1.0
  N  N180  1  0.61078000  0.17069000  0.33973000  1.0
  N  N181  1  0.11078000  0.82931000  0.66027000  1.0
  N  N182  1  0.63938000  0.67052000  0.15996000  1.0
  N  N183  1  0.13939000  0.32948000  0.84004000  1.0
  N  N184  1  0.88921000  0.66027000  0.82931000  1.0
  N  N185  1  0.38921000  0.33973000  0.17069000  1.0
  N  N186  1  0.86062000  0.84003000  0.32948000  1.0
  N  N187  1  0.36062000  0.15996000  0.67052000  1.0
  N  N188  1  0.74705000  0.13749000  0.41691000  1.0
  N  N189  1  0.24705000  0.86251000  0.58309000  1.0
  N  N190  1  0.50295000  0.63737000  0.08297000  1.0
  N  N191  1  0.00295000  0.36263000  0.91703000  1.0
  N  N192  1  0.75294000  0.58309000  0.86251000  1.0
  N  N193  1  0.25295000  0.41691000  0.13749000  1.0
  N  N194  1  0.99705000  0.91703000  0.36263000  1.0
  N  N195  1  0.49705000  0.08297000  0.63737000  1.0
  N  N196  1  0.50000000  0.37798000  0.37798000  1.0
  N  N197  1  0.00000000  0.62202000  0.62202000  1.0
  N  N198  1  0.75000000  0.87788000  0.12212000  1.0
  N  N199  1  0.25000000  0.12212000  0.87787000  1.0
  O  O200  1  0.09607000  0.14496000  0.71543000  1.0
  O  O201  1  0.59607000  0.85504000  0.28456000  1.0
  O  O202  1  0.15389000  0.64499000  0.78455000  1.0
  O  O203  1  0.65389000  0.35501000  0.21544000  1.0
  O  O204  1  0.40392000  0.28456000  0.85504000  1.0
  O  O205  1  0.90393000  0.71544000  0.14495000  1.0
  O  O206  1  0.34611000  0.21545000  0.35502000  1.0
  O  O207  1  0.84611000  0.78456000  0.64499000  1.0
  O  O208  1  0.14620000  0.25992000  0.62384000  1.0
  O  O209  1  0.64620000  0.74008000  0.37616000  1.0
  O  O210  1  0.10361000  0.75978000  0.87639000  1.0
  O  O211  1  0.60362000  0.24020000  0.12361000  1.0
  O  O212  1  0.35380000  0.37616000  0.74008000  1.0
  O  O213  1  0.85380000  0.62384000  0.25992000  1.0
  O  O214  1  0.39639000  0.12361000  0.24022000  1.0
  O  O215  1  0.89638000  0.87638000  0.75980000  1.0
