# generated using pymatgen
data_CdH17C20N5O4
_symmetry_space_group_name_H-M   'P 1'
_cell_length_a   8.18551000
_cell_length_b   9.21661000
_cell_length_c   13.88650000
_cell_angle_alpha   92.77850000
_cell_angle_beta   97.43760000
_cell_angle_gamma   105.91500000
_symmetry_Int_Tables_number   1
_chemical_formula_structural   CdH17C20N5O4
_chemical_formula_sum   'Cd2 H34 C40 N10 O8'
_cell_volume   995.12081499
_cell_formula_units_Z   2
loop_
 _symmetry_equiv_pos_site_id
 _symmetry_equiv_pos_as_xyz
  1  'x, y, z'
loop_
 _atom_site_type_symbol
 _atom_site_label
 _atom_site_symmetry_multiplicity
 _atom_site_fract_x
 _atom_site_fract_y
 _atom_site_fract_z
 _atom_site_occupancy
  Cd  Cd0  1  0.80078000  0.13340000  0.74626000  1.0
  Cd  Cd1  1  0.19921000  0.86660000  0.25374000  1.0
  H  H2  1  0.30248000  0.22658000  0.08220000  1.0
  H  H3  1  0.69753000  0.77341000  0.91781000  1.0
  H  H4  1  0.53658000  0.45562000  0.16027000  1.0
  H  H5  1  0.46342000  0.54438000  0.83974000  1.0
  H  H6  1  0.81780000  0.52928000  0.10221000  1.0
  H  H7  1  0.18220000  0.47072000  0.89780000  1.0
  H  H8  1  0.86966000  0.39284000  0.95290000  1.0
  H  H9  1  0.13035000  0.60716000  0.04711000  1.0
  H  H10  1  0.16247000  0.97947000  0.99108000  1.0
  H  H11  1  0.83753000  0.02054000  0.00891000  1.0
  H  H12  1  0.17739000  0.85560000  0.89249000  1.0
  H  H13  1  0.82262000  0.14440000  0.10750000  1.0
  H  H14  1  0.51017000  0.81577000  0.76147000  1.0
  H  H15  1  0.48984000  0.18423000  0.23853000  1.0
  H  H16  1  0.33289000  0.57971000  0.66025000  1.0
  H  H17  1  0.66711000  0.42028000  0.33975000  1.0
  H  H18  1  0.35409000  0.56246000  0.47833000  1.0
  H  H19  1  0.64591000  0.43753000  0.52168000  1.0
  H  H20  1  0.55029000  0.76763000  0.41236000  1.0
  H  H21  1  0.44970000  0.23237000  0.58764000  1.0
  H  H22  1  0.73598000  0.93536000  0.36572000  1.0
  H  H23  1  0.26401000  0.06465000  0.63427000  1.0
  H  H24  1  0.95428000  0.14867000  0.31921000  1.0
  H  H25  1  0.04570000  0.85134000  0.68079000  1.0
  H  H26  1  0.11127000  0.36731000  0.44356000  1.0
  H  H27  1  0.88872000  0.63269000  0.55644000  1.0
  H  H28  1  0.03962000  0.35198000  0.61562000  1.0
  H  H29  1  0.96037000  0.64802000  0.38438000  1.0
  H  H30  1  0.78238000  0.66967000  0.72541000  1.0
  H  H31  1  0.21763000  0.33032000  0.27459000  1.0
  H  H32  1  0.99670000  0.67096000  0.77745000  1.0
  H  H33  1  0.00330000  0.32904000  0.22255000  1.0
  H  H34  1  0.82978000  0.63601000  0.84928000  1.0
  H  H35  1  0.17023000  0.36400000  0.15072000  1.0
  C  C36  1  0.45677000  0.18958000  0.97233000  1.0
  C  C37  1  0.54323000  0.81042000  0.02768000  1.0
  C  C38  1  0.42386000  0.26588000  0.05408000  1.0
  C  C39  1  0.57615000  0.73411000  0.94592000  1.0
  C  C40  1  0.55603000  0.39007000  0.09732000  1.0
  C  C41  1  0.44397000  0.60992000  0.90268000  1.0
  C  C42  1  0.71624000  0.43494000  0.06239000  1.0
  C  C43  1  0.28376000  0.56506000  0.93761000  1.0
  C  C44  1  0.74748000  0.35951000  0.98079000  1.0
  C  C45  1  0.25252000  0.64049000  0.01921000  1.0
  C  C46  1  0.61329000  0.23580000  0.93455000  1.0
  C  C47  1  0.38671000  0.76420000  0.06545000  1.0
  C  C48  1  0.18849000  0.97401000  0.91547000  1.0
  C  C49  1  0.81151000  0.02600000  0.08452000  1.0
  C  C50  1  0.05576000  0.02772000  0.84938000  1.0
  C  C51  1  0.94425000  0.97228000  0.15061000  1.0
  C  C52  1  0.51802000  0.79983000  0.68417000  1.0
  C  C53  1  0.48198000  0.20017000  0.31583000  1.0
  C  C54  1  0.41824000  0.66936000  0.62701000  1.0
  C  C55  1  0.58177000  0.33063000  0.37299000  1.0
  C  C56  1  0.43072000  0.65913000  0.52801000  1.0
  C  C57  1  0.56927000  0.34087000  0.47200000  1.0
  C  C58  1  0.54414000  0.77646000  0.49008000  1.0
  C  C59  1  0.45586000  0.22354000  0.50992000  1.0
  C  C60  1  0.64292000  0.90265000  0.55229000  1.0
  C  C61  1  0.35708000  0.09735000  0.44771000  1.0
  C  C62  1  0.76998000  0.02960000  0.51695000  1.0
  C  C63  1  0.23001000  0.97040000  0.48305000  1.0
  C  C64  1  0.80258000  0.02866000  0.42030000  1.0
  C  C65  1  0.19741000  0.97134000  0.57971000  1.0
  C  C66  1  0.92629000  0.15021000  0.39359000  1.0
  C  C67  1  0.07369000  0.84978000  0.60641000  1.0
  C  C68  1  0.01394000  0.27058000  0.46255000  1.0
  C  C69  1  0.98604000  0.72943000  0.53745000  1.0
  C  C70  1  0.97503000  0.26313000  0.55726000  1.0
  C  C71  1  0.02496000  0.73686000  0.44274000  1.0
  C  C72  1  0.81712000  0.44823000  0.74967000  1.0
  C  C73  1  0.18289000  0.55177000  0.25033000  1.0
  C  C74  1  0.85903000  0.61716000  0.77550000  1.0
  C  C75  1  0.14098000  0.38284000  0.22450000  1.0
  N  N76  1  0.36303000  0.06321000  0.91314000  1.0
  N  N77  1  0.63697000  0.93679000  0.08686000  1.0
  N  N78  1  0.45078000  0.03410000  0.84268000  1.0
  N  N79  1  0.54922000  0.96590000  0.15732000  1.0
  N  N80  1  0.60105000  0.13591000  0.85487000  1.0
  N  N81  1  0.39895000  0.86409000  0.14513000  1.0
  N  N82  1  0.62691000  0.91316000  0.64787000  1.0
  N  N83  1  0.37309000  0.08683000  0.35213000  1.0
  N  N84  1  0.85673000  0.14587000  0.58312000  1.0
  N  N85  1  0.14326000  0.85413000  0.41688000  1.0
  O  O86  1  0.10384000  0.11552000  0.78525000  1.0
  O  O87  1  0.89618000  0.88449000  0.21475000  1.0
  O  O88  1  0.90032000  0.97636000  0.86416000  1.0
  O  O89  1  0.09969000  0.02364000  0.13583000  1.0
  O  O90  1  0.93056000  0.38446000  0.78595000  1.0
  O  O91  1  0.06944000  0.61554000  0.21406000  1.0
  O  O92  1  0.67725000  0.37775000  0.69776000  1.0
  O  O93  1  0.32276000  0.62224000  0.30224000  1.0
