# generated using pymatgen
data_ZnH16C23N5O7
_symmetry_space_group_name_H-M   'P 1'
_cell_length_a   15.89290000
_cell_length_b   17.09440000
_cell_length_c   19.37340000
_cell_angle_alpha   89.44160000
_cell_angle_beta   86.87930000
_cell_angle_gamma   86.75990000
_symmetry_Int_Tables_number   1
_chemical_formula_structural   ZnH16C23N5O7
_chemical_formula_sum   'Zn2 H32 C46 N10 O14'
_cell_volume   5247.03350275
_cell_formula_units_Z   2
loop_
 _symmetry_equiv_pos_site_id
 _symmetry_equiv_pos_as_xyz
  1  'x, y, z'
loop_
 _atom_site_type_symbol
 _atom_site_label
 _atom_site_symmetry_multiplicity
 _atom_site_fract_x
 _atom_site_fract_y
 _atom_site_fract_z
 _atom_site_occupancy
  Zn  Zn0  1  0.58934000  0.50650000  0.49680000  1.0
  Zn  Zn1  1  0.41153000  0.49448000  0.50307000  1.0
  H  H2  1  0.88371000  0.47782000  0.59426000  1.0
  H  H3  1  0.11723000  0.52244000  0.40592000  1.0
  H  H4  1  0.12331000  0.43730000  0.61629000  1.0
  H  H5  1  0.87798000  0.56245000  0.38374000  1.0
  H  H6  1  0.28289000  0.44204000  0.60520000  1.0
  H  H7  1  0.71840000  0.55796000  0.39472000  1.0
  H  H8  1  0.62254000  0.43144000  0.84511000  1.0
  H  H9  1  0.37524000  0.56556000  0.15570000  1.0
  H  H10  1  0.37636000  0.55185000  0.85360000  1.0
  H  H11  1  0.62269000  0.44753000  0.14599000  1.0
  H  H12  1  0.37543000  0.54590000  0.72440000  1.0
  H  H13  1  0.62614000  0.45682000  0.27488000  1.0
  H  H14  1  0.54994000  0.89495000  0.58345000  1.0
  H  H15  1  0.45001000  0.10587000  0.41646000  1.0
  H  H16  1  0.61020000  0.10835000  0.58881000  1.0
  H  H17  1  0.39010000  0.89242000  0.41082000  1.0
  H  H18  1  0.72503000  0.47976000  0.59748000  1.0
  H  H19  1  0.27584000  0.52080000  0.40260000  1.0
  H  H20  1  0.62056000  0.37457000  0.66397000  1.0
  H  H21  1  0.38023000  0.62633000  0.33593000  1.0
  H  H22  1  0.66129000  0.69771000  0.56484000  1.0
  H  H23  1  0.65257000  0.70901000  0.65715000  1.0
  H  H24  1  0.66194000  0.79369000  0.60251000  1.0
  H  H25  1  0.33808000  0.20651000  0.39756000  1.0
  H  H26  1  0.33827000  0.30245000  0.43536000  1.0
  H  H27  1  0.34687000  0.29134000  0.34302000  1.0
  H  H28  1  0.73956000  0.29963000  0.61078000  1.0
  H  H29  1  0.71870000  0.30347000  0.52033000  1.0
  H  H30  1  0.74589000  0.21098000  0.56150000  1.0
  H  H31  1  0.28138000  0.69749000  0.47913000  1.0
  H  H32  1  0.26087000  0.70109000  0.38864000  1.0
  H  H33  1  0.25446000  0.78988000  0.43771000  1.0
  C  C34  1  0.52805000  0.34980000  0.49008000  1.0
  C  C35  1  0.47188000  0.65105000  0.50973000  1.0
  C  C36  1  0.53586000  0.26201000  0.49112000  1.0
  C  C37  1  0.46423000  0.73882000  0.50866000  1.0
  C  C38  1  0.48997000  0.21948000  0.44516000  1.0
  C  C39  1  0.51003000  0.78133000  0.55468000  1.0
  C  C40  1  0.48538000  0.13883000  0.45170000  1.0
  C  C41  1  0.51471000  0.86197000  0.54811000  1.0
  C  C42  1  0.52791000  0.09916000  0.50457000  1.0
  C  C43  1  0.47232000  0.90162000  0.49515000  1.0
  C  C44  1  0.57733000  0.13996000  0.54826000  1.0
  C  C45  1  0.42296000  0.86083000  0.45139000  1.0
  C  C46  1  0.58144000  0.22097000  0.54150000  1.0
  C  C47  1  0.41883000  0.77984000  0.45818000  1.0
  C  C48  1  0.23931000  0.50362000  0.44896000  1.0
  C  C49  1  0.76167000  0.49684000  0.55115000  1.0
  C  C50  1  0.15192000  0.50437000  0.45082000  1.0
  C  C51  1  0.84908000  0.49586000  0.54932000  1.0
  C  C52  1  0.10932000  0.48132000  0.51236000  1.0
  C  C53  1  0.89181000  0.51872000  0.48778000  1.0
  C  C54  1  0.15573000  0.45653000  0.56869000  1.0
  C  C55  1  0.84548000  0.54343000  0.43139000  1.0
  C  C56  1  0.49647000  0.48700000  0.63573000  1.0
  C  C57  1  0.50483000  0.51436000  0.36414000  1.0
  C  C58  1  0.24311000  0.45858000  0.56272000  1.0
  C  C59  1  0.75809000  0.54153000  0.43730000  1.0
  C  C60  1  0.56751000  0.45307000  0.74713000  1.0
  C  C61  1  0.43250000  0.54702000  0.25314000  1.0
  C  C62  1  0.56836000  0.45699000  0.81908000  1.0
  C  C63  1  0.43031000  0.54141000  0.18139000  1.0
  C  C64  1  0.49912000  0.49193000  0.85767000  1.0
  C  C65  1  0.49890000  0.50566000  0.14258000  1.0
  C  C66  1  0.42946000  0.52431000  0.82326000  1.0
  C  C67  1  0.56992000  0.47545000  0.17648000  1.0
  C  C68  1  0.42871000  0.52059000  0.75172000  1.0
  C  C69  1  0.57205000  0.48095000  0.24786000  1.0
  C  C70  1  0.49715000  0.48511000  0.71309000  1.0
  C  C71  1  0.50366000  0.51610000  0.28679000  1.0
  C  C72  1  0.49737000  0.49994000  0.06700000  1.0
  C  C73  1  0.49806000  0.49364000  0.93358000  1.0
  C  C74  1  0.63871000  0.41024000  0.70782000  1.0
  C  C75  1  0.36166000  0.59002000  0.29269000  1.0
  C  C76  1  0.63583000  0.73549000  0.60765000  1.0
  C  C77  1  0.36385000  0.26487000  0.39246000  1.0
  C  C78  1  0.71271000  0.26896000  0.56839000  1.0
  C  C79  1  0.28760000  0.73187000  0.43101000  1.0
  N  N80  1  0.43075000  0.53067000  0.96778000  1.0
  N  N81  1  0.56222000  0.45898000  0.03310000  1.0
  N  N82  1  0.43038000  0.53395000  0.03557000  1.0
  N  N83  1  0.56265000  0.45579000  0.96529000  1.0
  N  N84  1  0.52501000  0.01790000  0.51809000  1.0
  N  N85  1  0.47520000  0.98288000  0.48164000  1.0
  N  N86  1  0.28381000  0.48201000  0.50408000  1.0
  N  N87  1  0.71723000  0.51840000  0.49598000  1.0
  N  N88  1  0.02039000  0.47964000  0.52190000  1.0
  N  N89  1  0.98074000  0.52034000  0.47827000  1.0
  O  O90  1  0.59494000  0.38714000  0.48523000  1.0
  O  O91  1  0.40492000  0.61382000  0.51445000  1.0
  O  O92  1  0.45282000  0.37956000  0.49620000  1.0
  O  O93  1  0.54710000  0.62119000  0.50376000  1.0
  O  O94  1  0.56793000  0.49167000  0.60298000  1.0
  O  O95  1  0.43348000  0.50941000  0.39703000  1.0
  O  O96  1  0.42519000  0.48554000  0.60940000  1.0
  O  O97  1  0.57618000  0.51594000  0.39033000  1.0
  O  O98  1  0.71256000  0.41072000  0.72342000  1.0
  O  O99  1  0.28752000  0.58900000  0.27787000  1.0
  O  O100  1  0.54535000  0.74054000  0.60867000  1.0
  O  O101  1  0.45432000  0.26028000  0.39134000  1.0
  O  O102  1  0.62502000  0.26100000  0.58860000  1.0
  O  O103  1  0.37537000  0.73978000  0.41102000  1.0
