# generated using pymatgen
data_MnH4CSeNO3
_symmetry_space_group_name_H-M   'P 1'
_cell_length_a   4.92816000
_cell_length_b   6.03035000
_cell_length_c   15.28530000
_cell_angle_alpha   90.00010000
_cell_angle_beta   90.00010000
_cell_angle_gamma   89.99990000
_symmetry_Int_Tables_number   1
_chemical_formula_structural   MnH4CSeNO3
_chemical_formula_sum   'Mn4 H16 C4 Se4 N4 O12'
_cell_volume   454.25664135
_cell_formula_units_Z   4
loop_
 _symmetry_equiv_pos_site_id
 _symmetry_equiv_pos_as_xyz
  1  'x, y, z'
loop_
 _atom_site_type_symbol
 _atom_site_label
 _atom_site_symmetry_multiplicity
 _atom_site_fract_x
 _atom_site_fract_y
 _atom_site_fract_z
 _atom_site_occupancy
  Mn  Mn0  1  0.83507000  0.00000000  0.23282000  1.0
  Mn  Mn1  1  0.16493000  0.00000000  0.76718000  1.0
  Mn  Mn2  1  0.33507000  0.50000000  0.26718000  1.0
  Mn  Mn3  1  0.66493000  0.50000000  0.73282000  1.0
  H  H4  1  0.41007000  0.13635000  0.13602000  1.0
  H  H5  1  0.58995000  0.13637000  0.86398000  1.0
  H  H6  1  0.91006000  0.36363000  0.36398000  1.0
  H  H7  1  0.08993000  0.36364000  0.63602000  1.0
  H  H8  1  0.58993000  0.86364000  0.86398000  1.0
  H  H9  1  0.41005000  0.86363000  0.13602000  1.0
  H  H10  1  0.08994000  0.63636000  0.63602000  1.0
  H  H11  1  0.91006000  0.63636000  0.36398000  1.0
  H  H12  1  0.74596000  0.14637000  0.02072000  1.0
  H  H13  1  0.25405000  0.14639000  0.97928000  1.0
  H  H14  1  0.24596000  0.35362000  0.47928000  1.0
  H  H15  1  0.75403000  0.35363000  0.52072000  1.0
  H  H16  1  0.25403000  0.85363000  0.97928000  1.0
  H  H17  1  0.74595000  0.85361000  0.02072000  1.0
  H  H18  1  0.75404000  0.64639000  0.52072000  1.0
  H  H19  1  0.24596000  0.64638000  0.47928000  1.0
  C  C20  1  0.61739000  0.99999000  0.03269000  1.0
  C  C21  1  0.38260000  0.00001000  0.96731000  1.0
  C  C22  1  0.11739000  0.50000000  0.46731000  1.0
  C  C23  1  0.88260000  0.50001000  0.53269000  1.0
  Se  Se24  1  0.40750000  0.00000000  0.37701000  1.0
  Se  Se25  1  0.59251000  0.00000000  0.62299000  1.0
  Se  Se26  1  0.90749000  0.50000000  0.12299000  1.0
  Se  Se27  1  0.09251000  0.50000000  0.87701000  1.0
  N  N28  1  0.53017000  0.00000000  0.12434000  1.0
  N  N29  1  0.46982000  0.00000000  0.87566000  1.0
  N  N30  1  0.03018000  0.50000000  0.37566000  1.0
  N  N31  1  0.96982000  0.50000000  0.62434000  1.0
  O  O32  1  0.07151000  0.00000000  0.35182000  1.0
  O  O33  1  0.92849000  0.00000000  0.64818000  1.0
  O  O34  1  0.57151000  0.50000000  0.14818000  1.0
  O  O35  1  0.42850000  0.50000000  0.85182000  1.0
  O  O36  1  0.54635000  0.21541000  0.31401000  1.0
  O  O37  1  0.45365000  0.21541000  0.68599000  1.0
  O  O38  1  0.04635000  0.28459000  0.18599000  1.0
  O  O39  1  0.95365000  0.28459000  0.81401000  1.0
  O  O40  1  0.45365000  0.78459000  0.68599000  1.0
  O  O41  1  0.54635000  0.78459000  0.31401000  1.0
  O  O42  1  0.95365000  0.71541000  0.81401000  1.0
  O  O43  1  0.04635000  0.71541000  0.18599000  1.0
