# generated using pymatgen
data_Zn2H24C50SN4O11
_symmetry_space_group_name_H-M   'P 1'
_cell_length_a   12.52370000
_cell_length_b   13.27360000
_cell_length_c   15.91650000
_cell_angle_alpha   81.30690000
_cell_angle_beta   80.85900000
_cell_angle_gamma   83.59510000
_symmetry_Int_Tables_number   1
_chemical_formula_structural   Zn2H24C50SN4O11
_chemical_formula_sum   'Zn2 H24 C50 S1 N4 O11'
_cell_volume   2571.85226962
_cell_formula_units_Z   1
loop_
 _symmetry_equiv_pos_site_id
 _symmetry_equiv_pos_as_xyz
  1  'x, y, z'
loop_
 _atom_site_type_symbol
 _atom_site_label
 _atom_site_symmetry_multiplicity
 _atom_site_fract_x
 _atom_site_fract_y
 _atom_site_fract_z
 _atom_site_occupancy
  Zn  Zn0  1  0.38909000  0.47598000  0.49228000  1.0
  Zn  Zn1  1  0.60196000  0.51670000  0.51981000  1.0
  H  H2  1  0.32886000  0.27254000  0.05670000  1.0
  H  H3  1  0.78551000  0.63668000  0.08818000  1.0
  H  H4  1  0.76760000  0.21794000  0.48462000  1.0
  H  H5  1  0.78927000  0.87197000  0.42189000  1.0
  H  H6  1  0.83147000  0.04126000  0.45058000  1.0
  H  H7  1  0.44366000  0.17355000  0.45448000  1.0
  H  H8  1  0.26625000  0.78641000  0.42490000  1.0
  H  H9  1  0.22945000  0.97109000  0.36510000  1.0
  H  H10  1  0.65099000  0.75257000  0.42877000  1.0
  H  H11  1  0.31778000  0.35439000  0.37383000  1.0
  H  H12  1  0.47457000  0.44016000  0.22715000  1.0
  H  H13  1  0.94040000  0.35052000  0.34892000  1.0
  H  H14  1  0.14410000  0.31985000  0.33132000  1.0
  H  H15  1  0.16185000  0.54522000  0.54656000  1.0
  H  H16  1  0.67169000  0.65052000  0.62162000  1.0
  H  H17  1  0.02047000  0.62379000  0.59718000  1.0
  H  H18  1  0.84126000  0.70149000  0.66092000  1.0
  H  H19  1  0.77015000  0.43054000  0.42133000  1.0
  H  H20  1  0.74953000  0.61344000  0.94473000  1.0
  H  H21  1  0.28500000  0.26329000  0.91397000  1.0
  H  H22  1  0.30844000  0.32307000  0.75564000  1.0
  H  H23  1  0.42006000  0.34948000  0.15274000  1.0
  H  H24  1  0.63376000  0.55587000  0.85477000  1.0
  H  H25  1  0.48571000  0.67479000  0.90011000  1.0
  C  C26  1  0.44679000  0.69058000  0.47432000  1.0
  C  C27  1  0.45138000  0.45542000  0.90635000  1.0
  C  C28  1  0.38747000  0.37160000  0.94106000  1.0
  C  C29  1  0.52072000  0.48669000  0.96046000  1.0
  C  C30  1  0.50458000  0.45383000  0.05030000  1.0
  C  C31  1  0.43062000  0.37836000  0.08440000  1.0
  C  C32  1  0.37882000  0.33554000  0.03087000  1.0
  C  C33  1  0.61267000  0.54212000  0.92424000  1.0
  C  C34  1  0.67846000  0.57360000  0.97441000  1.0
  C  C35  1  0.65532000  0.55446000  0.06556000  1.0
  C  C36  1  0.56767000  0.49448000  0.10404000  1.0
  C  C37  1  0.42197000  0.47516000  0.66871000  1.0
  C  C38  1  0.71737000  0.59297000  0.11814000  1.0
  C  C39  1  0.69199000  0.57815000  0.20725000  1.0
  C  C40  1  0.54320000  0.48118000  0.19430000  1.0
  C  C41  1  0.74669000  0.07107000  0.44969000  1.0
  C  C42  1  0.60087000  0.20420000  0.47192000  1.0
  C  C43  1  0.32789000  0.83989000  0.41852000  1.0
  C  C44  1  0.30626000  0.94309000  0.38798000  1.0
  C  C45  1  0.38387000  0.01180000  0.38646000  1.0
  C  C46  1  0.48621000  0.97695000  0.41424000  1.0
  C  C47  1  0.51418000  0.86904000  0.42905000  1.0
  C  C48  1  0.55953000  0.30595000  0.49965000  1.0
  C  C49  1  0.56243000  0.04475000  0.42902000  1.0
  C  C50  1  0.67274000  0.00583000  0.43321000  1.0
  C  C51  1  0.70356000  0.90016000  0.42587000  1.0
  C  C52  1  0.62698000  0.83364000  0.42907000  1.0
  C  C53  1  0.52862000  0.14376000  0.45000000  1.0
  C  C54  1  0.71179000  0.16861000  0.46884000  1.0
  C  C55  1  0.43021000  0.80194000  0.43879000  1.0
  C  C56  1  0.14351000  0.37110000  0.37889000  1.0
  C  C57  1  0.75107000  0.61935000  0.59314000  1.0
  C  C58  1  0.84673000  0.64698000  0.61536000  1.0
  C  C59  1  0.56270000  0.51211000  0.34044000  1.0
  C  C60  1  0.94580000  0.60355000  0.57953000  1.0
  C  C61  1  0.94942000  0.53387000  0.52016000  1.0
  C  C62  1  0.84903000  0.51134000  0.49927000  1.0
  C  C63  1  0.04908000  0.48440000  0.47936000  1.0
  C  C64  1  0.04504000  0.41804000  0.41752000  1.0
  C  C65  1  0.94234000  0.40045000  0.39709000  1.0
  C  C66  1  0.84807000  0.44470000  0.43670000  1.0
  C  C67  1  0.15186000  0.49739000  0.49885000  1.0
  C  C68  1  0.24022000  0.38941000  0.40198000  1.0
  C  C69  1  0.39950000  0.44798000  0.76513000  1.0
  C  C70  1  0.60098000  0.52312000  0.24567000  1.0
  C  C71  1  0.33354000  0.32684000  0.88640000  1.0
  C  C72  1  0.34422000  0.36077000  0.79930000  1.0
  C  C73  1  0.44421000  0.49932000  0.81982000  1.0
  C  C74  1  0.36078000  0.11388000  0.34640000  1.0
  C  C75  1  0.75917000  0.62116000  0.25493000  1.0
  S  S76  1  0.46336000  0.63273000  0.77973000  1.0
  N  N77  1  0.24354000  0.45153000  0.46175000  1.0
  N  N78  1  0.75205000  0.55312000  0.53768000  1.0
  N  N79  1  0.33944000  0.19386000  0.30768000  1.0
  N  N80  1  0.82119000  0.65926000  0.28505000  1.0
  O  O81  1  0.37779000  0.63260000  0.46194000  1.0
  O  O82  1  0.52668000  0.66284000  0.51518000  1.0
  O  O83  1  0.34671000  0.47602000  0.62401000  1.0
  O  O84  1  0.52177000  0.48670000  0.64196000  1.0
  O  O85  1  0.45721000  0.32753000  0.51297000  1.0
  O  O86  1  0.63100000  0.36441000  0.50694000  1.0
  O  O87  1  0.47461000  0.47127000  0.36725000  1.0
  O  O88  1  0.62178000  0.54578000  0.38615000  1.0
  O  O89  1  0.57494000  0.65241000  0.74879000  1.0
  O  O90  1  0.38043000  0.66884000  0.72718000  1.0
  O  O91  1  0.42545000  0.68553000  0.86587000  1.0
