# generated using pymatgen
data_CdH20C19N2O7
_symmetry_space_group_name_H-M   'P 1'
_cell_length_a   5.66619000
_cell_length_b   12.84450000
_cell_length_c   13.89270000
_cell_angle_alpha   114.61000000
_cell_angle_beta   95.03290000
_cell_angle_gamma   93.46560000
_symmetry_Int_Tables_number   1
_chemical_formula_structural   CdH20C19N2O7
_chemical_formula_sum   'Cd2 H40 C38 N4 O14'
_cell_volume   910.44733337
_cell_formula_units_Z   2
loop_
 _symmetry_equiv_pos_site_id
 _symmetry_equiv_pos_as_xyz
  1  'x, y, z'
loop_
 _atom_site_type_symbol
 _atom_site_label
 _atom_site_symmetry_multiplicity
 _atom_site_fract_x
 _atom_site_fract_y
 _atom_site_fract_z
 _atom_site_occupancy
  Cd  Cd0  1  0.83005000  0.26993000  0.27668000  1.0
  Cd  Cd1  1  0.16994000  0.73008000  0.72332000  1.0
  H  H2  1  0.24935000  0.75817000  0.35722000  1.0
  H  H3  1  0.75065000  0.24184000  0.64278000  1.0
  H  H4  1  0.37026000  0.87263000  0.25872000  1.0
  H  H5  1  0.62974000  0.12736000  0.74129000  1.0
  H  H6  1  0.66509000  0.79769000  0.08953000  1.0
  H  H7  1  0.33491000  0.20230000  0.91047000  1.0
  H  H8  1  0.54656000  0.68321000  0.18935000  1.0
  H  H9  1  0.45341000  0.31676000  0.81064000  1.0
  H  H10  1  0.06784000  0.85972000  0.02122000  1.0
  H  H11  1  0.93219000  0.14028000  0.97879000  1.0
  H  H12  1  0.29192000  0.94253000  0.12889000  1.0
  H  H13  1  0.70810000  0.05748000  0.87111000  1.0
  H  H14  1  0.25409000  0.42295000  0.23894000  1.0
  H  H15  1  0.74591000  0.57705000  0.76105000  1.0
  H  H16  1  0.33598000  0.52259000  0.12876000  1.0
  H  H17  1  0.66402000  0.47741000  0.87123000  1.0
  H  H18  1  0.61442000  0.40010000  0.96784000  1.0
  H  H19  1  0.38558000  0.59990000  0.03215000  1.0
  H  H20  1  0.56762000  0.30141000  0.08622000  1.0
  H  H21  1  0.43236000  0.69859000  0.91377000  1.0
  H  H22  1  0.98679000  0.06577000  0.33333333  1.0
  H  H23  1  0.01323000  0.93424000  0.66666667  1.0
  H  H24  1  0.85090000  0.94137000  0.41709000  1.0
  H  H25  1  0.14912000  0.05863000  0.58292000  1.0
  H  H26  1  0.26307000  0.15012000  0.50793000  1.0
  H  H27  1  0.73696000  0.84988000  0.49208000  1.0
  H  H28  1  0.41742000  0.25857000  0.41415000  1.0
  H  H29  1  0.58257000  0.74144000  0.58585000  1.0
  H  H30  1  0.12140000  0.36947000  0.48011000  1.0
  H  H31  1  0.87858000  0.63053000  0.51990000  1.0
  H  H32  1  0.29848000  0.39790000  0.40318000  1.0
  H  H33  1  0.70150000  0.60209000  0.59683000  1.0
  H  H34  1  0.61149000  0.48869000  0.35102000  1.0
  H  H35  1  0.38851000  0.51131000  0.64898000  1.0
  H  H36  1  0.70685000  0.46119000  0.44862000  1.0
  H  H37  1  0.29314000  0.53880000  0.55139000  1.0
  H  H38  1  0.33739000  0.15415000  0.17100000  1.0
  H  H39  1  0.66261000  0.84585000  0.82900000  1.0
  H  H40  1  0.56654000  0.10248000  0.11657000  1.0
  H  H41  1  0.43345000  0.89752000  0.88343000  1.0
  C  C42  1  0.81562000  0.64640000  0.34139000  1.0
  C  C43  1  0.18437000  0.35360000  0.65861000  1.0
  C  C44  1  0.88980000  0.71312000  0.27959000  1.0
  C  C45  1  0.11019000  0.28688000  0.72041000  1.0
  C  C46  1  0.12183000  0.76762000  0.29881000  1.0
  C  C47  1  0.87817000  0.23239000  0.70120000  1.0
  C  C48  1  0.18842000  0.83145000  0.24320000  1.0
  C  C49  1  0.81158000  0.16855000  0.75681000  1.0
  C  C50  1  0.02628000  0.84306000  0.16685000  1.0
  C  C51  1  0.97372000  0.15694000  0.83316000  1.0
  C  C52  1  0.79387000  0.78796000  0.14758000  1.0
  C  C53  1  0.20614000  0.21204000  0.85242000  1.0
  C  C54  1  0.72804000  0.72387000  0.20277000  1.0
  C  C55  1  0.27195000  0.27611000  0.79722000  1.0
  C  C56  1  0.10094000  0.91311000  0.10774000  1.0
  C  C57  1  0.89908000  0.08689000  0.89228000  1.0
  C  C58  1  0.95547000  0.01624000  0.13034000  1.0
  C  C59  1  0.04453000  0.98376000  0.86967000  1.0
  C  C60  1  0.11718000  0.41845000  0.17695000  1.0
  C  C61  1  0.88283000  0.58154000  0.82304000  1.0
  C  C62  1  0.16078000  0.47538000  0.11355000  1.0
  C  C63  1  0.83922000  0.52460000  0.88644000  1.0
  C  C64  1  0.98133000  0.47077000  0.03506000  1.0
  C  C65  1  0.01865000  0.52922000  0.96492000  1.0
  C  C66  1  0.76320000  0.40781000  0.02620000  1.0
  C  C67  1  0.23679000  0.59218000  0.97379000  1.0
  C  C68  1  0.73342000  0.35257000  0.09204000  1.0
  C  C69  1  0.26659000  0.64742000  0.90797000  1.0
  C  C70  1  0.82626000  0.08053000  0.37264000  1.0
  C  C71  1  0.17375000  0.91948000  0.62736000  1.0
  C  C72  1  0.74929000  0.01199000  0.42130000  1.0
  C  C73  1  0.25074000  0.98802000  0.57869000  1.0
  C  C74  1  0.54352000  0.03451000  0.47279000  1.0
  C  C75  1  0.45649000  0.96549000  0.52722000  1.0
  C  C76  1  0.42376000  0.12589000  0.47032000  1.0
  C  C77  1  0.57625000  0.87412000  0.52967000  1.0
  C  C78  1  0.51050000  0.18875000  0.41815000  1.0
  C  C79  1  0.48952000  0.81126000  0.58184000  1.0
  N  N80  1  0.70908000  0.16738000  0.37036000  1.0
  N  N81  1  0.29093000  0.83263000  0.62964000  1.0
  N  N82  1  0.90811000  0.35723000  0.16634000  1.0
  N  N83  1  0.09189000  0.64277000  0.83365000  1.0
  O  O84  1  0.93924000  0.67024000  0.43038000  1.0
  O  O85  1  0.06075000  0.32977000  0.56962000  1.0
  O  O86  1  0.63220000  0.57224000  0.30104000  1.0
  O  O87  1  0.36779000  0.42776000  0.69896000  1.0
  O  O88  1  0.06271000  0.11724000  0.19280000  1.0
  O  O89  1  0.93729000  0.88277000  0.80720000  1.0
  O  O90  1  0.74178000  0.99634000  0.08967000  1.0
  O  O91  1  0.25822000  0.00366000  0.91034000  1.0
  O  O92  1  0.13066000  0.39164000  0.41758000  1.0
  O  O93  1  0.86932000  0.60836000  0.58242000  1.0
  O  O94  1  0.59961000  0.42600000  0.38112000  1.0
  O  O95  1  0.40039000  0.57400000  0.61888000  1.0
  O  O96  1  0.49249000  0.17621000  0.15193000  1.0
  O  O97  1  0.50751000  0.82379000  0.84807000  1.0
