# generated using pymatgen
data_AlH3C10N2ClO9
_symmetry_space_group_name_H-M   'P 1'
_cell_length_a   6.64619000
_cell_length_b   11.05670000
_cell_length_c   11.12259813
_cell_angle_alpha   85.92914737
_cell_angle_beta   73.88282841
_cell_angle_gamma   73.73230000
_symmetry_Int_Tables_number   1
_chemical_formula_structural   AlH3C10N2ClO9
_chemical_formula_sum   'Al2 H6 C20 N4 Cl2 O18'
_cell_volume   753.76063182
_cell_formula_units_Z   2
loop_
 _symmetry_equiv_pos_site_id
 _symmetry_equiv_pos_as_xyz
  1  'x, y, z'
loop_
 _atom_site_type_symbol
 _atom_site_label
 _atom_site_symmetry_multiplicity
 _atom_site_fract_x
 _atom_site_fract_y
 _atom_site_fract_z
 _atom_site_occupancy
  Al  Al0  1  0.99332000  0.50202000  0.49418000  1.0
  Al  Al1  1  0.49560000  0.49970000  0.49230000  1.0
  H  H2  1  0.62975000  0.59954000  0.62792000  1.0
  H  H3  1  0.34585000  0.35107000  0.42803000  1.0
  H  H4  1  0.24417000  0.13384000  0.41724000  1.0
  H  H5  1  0.75118000  0.86430000  0.58205000  1.0
  H  H6  1  0.47769000  0.32419000  0.77261000  1.0
  H  H7  1  0.24100000  0.36032000  0.23692000  1.0
  C  C8  1  0.14111000  0.48680000  0.72020000  1.0
  C  C9  1  0.14910000  0.72621000  0.48914000  1.0
  C  C10  1  0.85289000  0.50896000  0.26805000  1.0
  C  C11  1  0.84295000  0.27261000  0.49971000  1.0
  C  C12  1  0.08024000  0.86673000  0.49273000  1.0
  C  C13  1  0.91361000  0.13234000  0.50469000  1.0
  C  C14  1  0.22126000  0.94437000  0.44873000  1.0
  C  C15  1  0.77446000  0.05452000  0.55344000  1.0
  C  C16  1  0.13540000  0.07467000  0.45411000  1.0
  C  C17  1  0.85878000  0.92428000  0.54557000  1.0
  C  C18  1  0.07341000  0.48474000  0.86101000  1.0
  C  C19  1  0.21298000  0.41316000  0.93249000  1.0
  C  C20  1  0.86794000  0.55575000  0.92339000  1.0
  C  C21  1  0.42229000  0.33394000  0.87390000  1.0
  C  C22  1  0.55583000  0.26762000  0.94431000  1.0
  C  C23  1  0.92897000  0.49718000  0.12751000  1.0
  C  C24  1  0.79415000  0.55974000  0.05475000  1.0
  C  C25  1  0.14091000  0.42054000  0.06663000  1.0
  C  C26  1  0.28471000  0.35096000  0.13592000  1.0
  C  C27  1  0.48772000  0.27796000  0.07646000  1.0
  N  N28  1  0.57276000  0.64178000  0.11253000  1.0
  N  N29  1  0.72681000  0.63733000  0.85022000  1.0
  N  N30  1  0.76149000  0.17757000  0.87849000  1.0
  N  N31  1  0.63958000  0.22677000  0.15366000  1.0
  Cl  Cl32  1  0.49779000  0.88892000  0.38584000  1.0
  Cl  Cl33  1  0.50015000  0.11052000  0.62750000  1.0
  O  O34  1  0.99903000  0.47780000  0.66783000  1.0
  O  O35  1  0.34857000  0.67001000  0.47654000  1.0
  O  O36  1  0.66448000  0.49599000  0.31933000  1.0
  O  O37  1  0.99155000  0.32956000  0.48116000  1.0
  O  O38  1  0.98554000  0.52806000  0.32199000  1.0
  O  O39  1  0.64307000  0.32640000  0.50953000  1.0
  O  O40  1  0.32907000  0.49974000  0.66832000  1.0
  O  O41  1  0.99964000  0.67125000  0.50185000  1.0
  O  O42  1  0.69327000  0.55239000  0.54976000  1.0
  O  O43  1  0.29558000  0.44193000  0.44086000  1.0
  O  O44  1  0.56250000  0.75140000  0.13497000  1.0
  O  O45  1  0.41955000  0.59487000  0.12962000  1.0
  O  O46  1  0.55915000  0.60967000  0.84968000  1.0
  O  O47  1  0.78900000  0.72678000  0.79570000  1.0
  O  O48  1  0.87950000  0.21725000  0.78684000  1.0
  O  O49  1  0.79482000  0.06854000  0.91794000  1.0
  O  O50  1  0.56353000  0.19804000  0.26318000  1.0
  O  O51  1  0.83364000  0.22165000  0.10461000  1.0
