# generated using pymatgen
data_ZnH14C18(NO)4
_symmetry_space_group_name_H-M   'P 1'
_cell_length_a   7.48163000
_cell_length_b   10.51880000
_cell_length_c   11.70010000
_cell_angle_alpha   70.34130000
_cell_angle_beta   85.72900000
_cell_angle_gamma   72.64550000
_symmetry_Int_Tables_number   1
_chemical_formula_structural   ZnH14C18(NO)4
_chemical_formula_sum   'Zn2 H28 C36 N8 O8'
_cell_volume   827.28736849
_cell_formula_units_Z   2
loop_
 _symmetry_equiv_pos_site_id
 _symmetry_equiv_pos_as_xyz
  1  'x, y, z'
loop_
 _atom_site_type_symbol
 _atom_site_label
 _atom_site_symmetry_multiplicity
 _atom_site_fract_x
 _atom_site_fract_y
 _atom_site_fract_z
 _atom_site_occupancy
  Zn  Zn0  1  0.18204000  0.47227000  0.37605000  1.0
  Zn  Zn1  1  0.81796000  0.52773000  0.62395000  1.0
  H  H2  1  0.99586000  0.49318000  0.14960000  1.0
  H  H3  1  0.00414000  0.50682000  0.85040000  1.0
  H  H4  1  0.80549000  0.67554000  0.96918000  1.0
  H  H5  1  0.19450000  0.32446000  0.03083000  1.0
  H  H6  1  0.86698000  0.99127000  0.11142000  1.0
  H  H7  1  0.13303000  0.00873000  0.88858000  1.0
  H  H8  1  0.05322000  0.79623000  0.28380000  1.0
  H  H9  1  0.94680000  0.20377000  0.71620000  1.0
  H  H10  1  0.69383000  0.07158000  0.93059000  1.0
  H  H11  1  0.30617000  0.92842000  0.06941000  1.0
  H  H12  1  0.64138000  0.85147000  0.82469000  1.0
  H  H13  1  0.35862000  0.14853000  0.17531000  1.0
  H  H14  1  0.56464000  0.24631000  0.78431000  1.0
  H  H15  1  0.43536000  0.75370000  0.21569000  1.0
  H  H16  1  0.38615000  0.43378000  0.61003000  1.0
  H  H17  1  0.61385000  0.56622000  0.38997000  1.0
  H  H18  1  0.26786000  0.14937000  0.47454000  1.0
  H  H19  1  0.73214000  0.85063000  0.52546000  1.0
  H  H20  1  0.45023000  0.94476000  0.64531000  1.0
  H  H21  1  0.54976000  0.05524000  0.35470000  1.0
  H  H22  1  0.62840000  0.51694000  0.08792000  1.0
  H  H23  1  0.37160000  0.48306000  0.91208000  1.0
  H  H24  1  0.76134000  0.37021000  0.20473000  1.0
  H  H25  1  0.23867000  0.62979000  0.79527000  1.0
  H  H26  1  0.80134000  0.13926000  0.55516000  1.0
  H  H27  1  0.19866000  0.86075000  0.44484000  1.0
  H  H28  1  0.64666000  0.26423000  0.43419000  1.0
  H  H29  1  0.35334000  0.73577000  0.56581000  1.0
  C  C30  1  0.96150000  0.60528000  0.13703000  1.0
  C  C31  1  0.03850000  0.39472000  0.86297000  1.0
  C  C32  1  0.85696000  0.70730000  0.03706000  1.0
  C  C33  1  0.14304000  0.29270000  0.96294000  1.0
  C  C34  1  0.81797000  0.85108000  0.02473000  1.0
  C  C35  1  0.18203000  0.14892000  0.97527000  1.0
  C  C36  1  0.89159000  0.88221000  0.11583000  1.0
  C  C37  1  0.10841000  0.11779000  0.88417000  1.0
  C  C38  1  0.99548000  0.77371000  0.21269000  1.0
  C  C39  1  0.00452000  0.22629000  0.78731000  1.0
  C  C40  1  0.70913000  0.96740000  0.92477000  1.0
  C  C41  1  0.29086000  0.03260000  0.07523000  1.0
  C  C42  1  0.62967000  0.95530000  0.83038000  1.0
  C  C43  1  0.37032000  0.04470000  0.16962000  1.0
  C  C44  1  0.52411000  0.07548000  0.73159000  1.0
  C  C45  1  0.47588000  0.92452000  0.26842000  1.0
  C  C46  1  0.50206000  0.21735000  0.71916000  1.0
  C  C47  1  0.49794000  0.78264000  0.28084000  1.0
  C  C48  1  0.39977000  0.32448000  0.62103000  1.0
  C  C49  1  0.60022000  0.67552000  0.37897000  1.0
  C  C50  1  0.33647000  0.16543000  0.54544000  1.0
  C  C51  1  0.66352000  0.83457000  0.45456000  1.0
  C  C52  1  0.43823000  0.05228000  0.64032000  1.0
  C  C53  1  0.56177000  0.94773000  0.35968000  1.0
  C  C54  1  0.45720000  0.40745000  0.21526000  1.0
  C  C55  1  0.54281000  0.59255000  0.78474000  1.0
  C  C56  1  0.63906000  0.40686000  0.14292000  1.0
  C  C57  1  0.36094000  0.59314000  0.85709000  1.0
  C  C58  1  0.66570000  0.32230000  0.06419000  1.0
  C  C59  1  0.33431000  0.67770000  0.93581000  1.0
  C  C60  1  0.88350000  0.32660000  0.45845000  1.0
  C  C61  1  0.11650000  0.67340000  0.54155000  1.0
  C  C62  1  0.79539000  0.21085000  0.46117000  1.0
  C  C63  1  0.20461000  0.78915000  0.53883000  1.0
  C  C64  1  0.88269000  0.12931000  0.38327000  1.0
  C  C65  1  0.11731000  0.87069000  0.61673000  1.0
  N  N66  1  0.02936000  0.63659000  0.22492000  1.0
  N  N67  1  0.97064000  0.36341000  0.77508000  1.0
  N  N68  1  0.31614000  0.30092000  0.53477000  1.0
  N  N69  1  0.68386000  0.69908000  0.46523000  1.0
  N  N70  1  0.67834000  0.25575000  0.00043000  1.0
  N  N71  1  0.32166000  0.74426000  0.99956000  1.0
  N  N72  1  0.95187000  0.06146000  0.32196000  1.0
  N  N73  1  0.04813000  0.93853000  0.67804000  1.0
  O  O74  1  0.44246000  0.46333000  0.29904000  1.0
  O  O75  1  0.55754000  0.53666000  0.70096000  1.0
  O  O76  1  0.33992000  0.35769000  0.18932000  1.0
  O  O77  1  0.66009000  0.64231000  0.81068000  1.0
  O  O78  1  0.99697000  0.35759000  0.37535000  1.0
  O  O79  1  0.00303000  0.64240000  0.62464000  1.0
  O  O80  1  0.82874000  0.38043000  0.54092000  1.0
  O  O81  1  0.17126000  0.61958000  0.45908000  1.0
