# generated using pymatgen
data_CuH14C20(N2O3)2
_symmetry_space_group_name_H-M   'P 1'
_cell_length_a   8.42558000
_cell_length_b   9.53278000
_cell_length_c   13.83801262
_cell_angle_alpha   69.93736058
_cell_angle_beta   84.65246368
_cell_angle_gamma   73.92400000
_symmetry_Int_Tables_number   1
_chemical_formula_structural   CuH14C20(N2O3)2
_chemical_formula_sum   'Cu2 H28 C40 N8 O12'
_cell_volume   1003.18489947
_cell_formula_units_Z   2
loop_
 _symmetry_equiv_pos_site_id
 _symmetry_equiv_pos_as_xyz
  1  'x, y, z'
loop_
 _atom_site_type_symbol
 _atom_site_label
 _atom_site_symmetry_multiplicity
 _atom_site_fract_x
 _atom_site_fract_y
 _atom_site_fract_z
 _atom_site_occupancy
  Cu  Cu0  1  0.99999000  0.50000000  0.50000000  1.0
  Cu  Cu1  1  0.50000000  0.00000000  0.50000000  1.0
  H  H2  1  0.90085000  0.21078000  0.60556000  1.0
  H  H3  1  0.59762000  0.18362000  0.60664000  1.0
  H  H4  1  0.09915000  0.78921000  0.39444000  1.0
  H  H5  1  0.40239000  0.81638000  0.39336000  1.0
  H  H6  1  0.90582000  0.02529000  0.78841000  1.0
  H  H7  1  0.59246000  0.18602000  0.78976000  1.0
  H  H8  1  0.09418000  0.97470000  0.21160000  1.0
  H  H9  1  0.40754000  0.81398000  0.21024000  1.0
  H  H10  1  0.03562000  0.06871000  0.92583000  1.0
  H  H11  1  0.46367000  0.00464000  0.92650000  1.0
  H  H12  1  0.96438000  0.93130000  0.07417000  1.0
  H  H13  1  0.53632000  0.99538000  0.07349000  1.0
  H  H14  1  0.14330000  0.47029000  0.69348000  1.0
  H  H15  1  0.35719000  0.83546000  0.69310000  1.0
  H  H16  1  0.85669000  0.52971000  0.30652000  1.0
  H  H17  1  0.64281000  0.16455000  0.30690000  1.0
  H  H18  1  0.25442000  0.37447000  0.86479000  1.0
  H  H19  1  0.24614000  0.75965000  0.86430000  1.0
  H  H20  1  0.74557000  0.62554000  0.13520000  1.0
  H  H21  1  0.75383000  0.24037000  0.13570000  1.0
  H  H22  1  0.14929000  0.21771000  0.19708000  1.0
  H  H23  1  0.35002000  0.58683000  0.19702000  1.0
  H  H24  1  0.85073000  0.78227000  0.80292000  1.0
  H  H25  1  0.64997000  0.41318000  0.80298000  1.0
  H  H26  1  0.24948000  0.35536000  0.29174000  1.0
  H  H27  1  0.75053000  0.64463000  0.70826000  1.0
  H  H28  1  0.25030000  0.54397000  0.91087000  1.0
  H  H29  1  0.74969000  0.45603000  0.08913000  1.0
  C  C30  1  0.95465000  0.22478000  0.66922000  1.0
  C  C31  1  0.54431000  0.10570000  0.67004000  1.0
  C  C32  1  0.04536000  0.77521000  0.33078000  1.0
  C  C33  1  0.45569000  0.89431000  0.32995000  1.0
  C  C34  1  0.95811000  0.12378000  0.76974000  1.0
  C  C35  1  0.54075000  0.10609000  0.77068000  1.0
  C  C36  1  0.04189000  0.87621000  0.23027000  1.0
  C  C37  1  0.45926000  0.89392000  0.22932000  1.0
  C  C38  1  0.03067000  0.14713000  0.84732000  1.0
  C  C39  1  0.46858000  0.00496000  0.84786000  1.0
  C  C40  1  0.96933000  0.85286000  0.15268000  1.0
  C  C41  1  0.53142000  0.99505000  0.15214000  1.0
  C  C42  1  0.09876000  0.27360000  0.82146000  1.0
  C  C43  1  0.40117000  0.90417000  0.82151000  1.0
  C  C44  1  0.90124000  0.72639000  0.17854000  1.0
  C  C45  1  0.59883000  0.09585000  0.17848000  1.0
  C  C46  1  0.09332000  0.36929000  0.71828000  1.0
  C  C47  1  0.40675000  0.91174000  0.71825000  1.0
  C  C48  1  0.90667000  0.63071000  0.28172000  1.0
  C  C49  1  0.59323000  0.08827000  0.28175000  1.0
  C  C50  1  0.13248000  0.28255000  0.99557000  1.0
  C  C51  1  0.36774000  0.72155000  0.99546000  1.0
  C  C52  1  0.86754000  0.71746000  0.00442000  1.0
  C  C53  1  0.63225000  0.27846000  0.00453000  1.0
  C  C54  1  0.19534000  0.37048000  0.04773000  1.0
  C  C55  1  0.30469000  0.58196000  0.04767000  1.0
  C  C56  1  0.80467000  0.62951000  0.95226000  1.0
  C  C57  1  0.69530000  0.41804000  0.95232000  1.0
  C  C58  1  0.19327000  0.31949000  0.15552000  1.0
  C  C59  1  0.30626000  0.52621000  0.15547000  1.0
  C  C60  1  0.80676000  0.68049000  0.84449000  1.0
  C  C61  1  0.69373000  0.47379000  0.84453000  1.0
  C  C62  1  0.24972000  0.39654000  0.20853000  1.0
  C  C63  1  0.75029000  0.60347000  0.79146000  1.0
  C  C64  1  0.25020000  0.50244000  0.99468000  1.0
  C  C65  1  0.74980000  0.49756000  0.00533000  1.0
  C  C66  1  0.30928000  0.31982000  0.46195000  1.0
  C  C67  1  0.19045000  0.21839000  0.46148000  1.0
  C  C68  1  0.69072000  0.68017000  0.53806000  1.0
  C  C69  1  0.80955000  0.78161000  0.53852000  1.0
  N  N70  1  0.02244000  0.34499000  0.64500000  1.0
  N  N71  1  0.47711000  0.00962000  0.64530000  1.0
  N  N72  1  0.97756000  0.65500000  0.35500000  1.0
  N  N73  1  0.52290000  0.99039000  0.35470000  1.0
  N  N74  1  0.17050000  0.31191000  0.89316000  1.0
  N  N75  1  0.32989000  0.79404000  0.89290000  1.0
  N  N76  1  0.82950000  0.68809000  0.10684000  1.0
  N  N77  1  0.67010000  0.20597000  0.10710000  1.0
  O  O78  1  0.04703000  0.19308000  0.04256000  1.0
  O  O79  1  0.45331000  0.76408000  0.04262000  1.0
  O  O80  1  0.95300000  0.80691000  0.95744000  1.0
  O  O81  1  0.54670000  0.23592000  0.95737000  1.0
  O  O82  1  0.24389000  0.44659000  0.48015000  1.0
  O  O83  1  0.25595000  0.07350000  0.47939000  1.0
  O  O84  1  0.75610000  0.55341000  0.51985000  1.0
  O  O85  1  0.74406000  0.92650000  0.52061000  1.0
  O  O86  1  0.45888000  0.27400000  0.44121000  1.0
  O  O87  1  0.04088000  0.28512000  0.44035000  1.0
  O  O88  1  0.54111000  0.72600000  0.55879000  1.0
  O  O89  1  0.95912000  0.71487000  0.55965000  1.0
