# generated using pymatgen
data_YH12(CO)9
_symmetry_space_group_name_H-M   'P 1'
_cell_length_a   6.63311000
_cell_length_b   11.29130000
_cell_length_c   19.65520000
_cell_angle_alpha   106.69100000
_cell_angle_beta   89.59700000
_cell_angle_gamma   89.99340000
_symmetry_Int_Tables_number   1
_chemical_formula_structural   YH12(CO)9
_chemical_formula_sum   'Y4 H48 C36 O36'
_cell_volume   1410.04276414
_cell_formula_units_Z   4
loop_
 _symmetry_equiv_pos_site_id
 _symmetry_equiv_pos_as_xyz
  1  'x, y, z'
loop_
 _atom_site_type_symbol
 _atom_site_label
 _atom_site_symmetry_multiplicity
 _atom_site_fract_x
 _atom_site_fract_y
 _atom_site_fract_z
 _atom_site_occupancy
  Y  Y0  1  0.19946000  0.58182000  0.74290000  1.0
  Y  Y1  1  0.30047000  0.83898000  0.25708000  1.0
  Y  Y2  1  0.80053000  0.41818000  0.25710000  1.0
  Y  Y3  1  0.69952000  0.16102000  0.74292000  1.0
  H  H4  1  0.17350000  0.50462000  0.47340000  1.0
  H  H5  1  0.32707000  0.03109000  0.52666000  1.0
  H  H6  1  0.82650000  0.49538000  0.52660000  1.0
  H  H7  1  0.67294000  0.96892000  0.47334000  1.0
  H  H8  1  0.38804000  0.25367000  0.45146000  1.0
  H  H9  1  0.11190000  0.80213000  0.54839000  1.0
  H  H10  1  0.61194000  0.74633000  0.54854000  1.0
  H  H11  1  0.88810000  0.19787000  0.45160000  1.0
  H  H12  1  0.36339000  0.49741000  0.57704000  1.0
  H  H13  1  0.13700000  0.92064000  0.42297000  1.0
  H  H14  1  0.63661000  0.50258000  0.42296000  1.0
  H  H15  1  0.86301000  0.07937000  0.57703000  1.0
  H  H16  1  0.53267000  0.23809000  0.56650000  1.0
  H  H17  1  0.96722000  0.67201000  0.43353000  1.0
  H  H18  1  0.46732000  0.76190000  0.43350000  1.0
  H  H19  1  0.03278000  0.32800000  0.56648000  1.0
  H  H20  1  0.52105000  0.68896000  0.97232000  1.0
  H  H21  1  0.97902000  0.71661000  0.02771000  1.0
  H  H22  1  0.47897000  0.31104000  0.02767000  1.0
  H  H23  1  0.02097000  0.28339000  0.97228000  1.0
  H  H24  1  0.40759000  0.41184000  0.93106000  1.0
  H  H25  1  0.09243000  0.48067000  0.06892000  1.0
  H  H26  1  0.59242000  0.58816000  0.06894000  1.0
  H  H27  1  0.90757000  0.51933000  0.93107000  1.0
  H  H28  1  0.06582000  0.85839000  0.80154000  1.0
  H  H29  1  0.43410000  0.05699000  0.19829000  1.0
  H  H30  1  0.93419000  0.14160000  0.19846000  1.0
  H  H31  1  0.56589000  0.94300000  0.80171000  1.0
  H  H32  1  0.90977000  0.77420000  0.74640000  1.0
  H  H33  1  0.59012000  0.02781000  0.25340000  1.0
  H  H34  1  0.09023000  0.22580000  0.25360000  1.0
  H  H35  1  0.40988000  0.97218000  0.74660000  1.0
  H  H36  1  0.31066000  0.79150000  0.67706000  1.0
  H  H37  1  0.18953000  0.11454000  0.32301000  1.0
  H  H38  1  0.68934000  0.20850000  0.32294000  1.0
  H  H39  1  0.81046000  0.88546000  0.67699000  1.0
  H  H40  1  0.51128000  0.71591000  0.67975000  1.0
  H  H41  1  0.98891000  0.03626000  0.32026000  1.0
  H  H42  1  0.48872000  0.28409000  0.32025000  1.0
  H  H43  1  0.01108000  0.96374000  0.67973000  1.0
  H  H44  1  0.75599000  0.54308000  0.76307000  1.0
  H  H45  1  0.74393000  0.77994000  0.23687000  1.0
  H  H46  1  0.24401000  0.45691000  0.23693000  1.0
  H  H47  1  0.25607000  0.22006000  0.76313000  1.0
  H  H48  1  0.86588000  0.46796000  0.80723000  1.0
  H  H49  1  0.63389000  0.66071000  0.19274000  1.0
  H  H50  1  0.13412000  0.53203000  0.19277000  1.0
  H  H51  1  0.36612000  0.33929000  0.80726000  1.0
  C  C52  1  0.15227000  0.36351000  0.37150000  1.0
  C  C53  1  0.34777000  0.99195000  0.62856000  1.0
  C  C54  1  0.84773000  0.63649000  0.62850000  1.0
  C  C55  1  0.65223000  0.00805000  0.37144000  1.0
  C  C56  1  0.22450000  0.41147000  0.44517000  1.0
  C  C57  1  0.27588000  0.96614000  0.55484000  1.0
  C  C58  1  0.77549000  0.58852000  0.55483000  1.0
  C  C59  1  0.72412000  0.03387000  0.44516000  1.0
  C  C60  1  0.34052000  0.34815000  0.47909000  1.0
  C  C61  1  0.15969000  0.86905000  0.52085000  1.0
  C  C62  1  0.65947000  0.65185000  0.52091000  1.0
  C  C63  1  0.84031000  0.13095000  0.47915000  1.0
  C  C64  1  0.40146000  0.40049000  0.55167000  1.0
  C  C65  1  0.09872000  0.84907000  0.44829000  1.0
  C  C66  1  0.59853000  0.59951000  0.44833000  1.0
  C  C67  1  0.90129000  0.15094000  0.55171000  1.0
  C  C68  1  0.49691000  0.33557000  0.58975000  1.0
  C  C69  1  0.00297000  0.74619000  0.41023000  1.0
  C  C70  1  0.50308000  0.66441000  0.41024000  1.0
  C  C71  1  0.99703000  0.25381000  0.58977000  1.0
  C  C72  1  0.55667000  0.38810000  0.66489000  1.0
  C  C73  1  0.94321000  0.72344000  0.33509000  1.0
  C  C74  1  0.44333000  0.61189000  0.33511000  1.0
  C  C75  1  0.05678000  0.27656000  0.66491000  1.0
  C  C76  1  0.37890000  0.59400000  0.87105000  1.0
  C  C77  1  0.12101000  0.72280000  0.12899000  1.0
  C  C78  1  0.62111000  0.40600000  0.12894000  1.0
  C  C79  1  0.87898000  0.27720000  0.87101000  1.0
  C  C80  1  0.46545000  0.59926000  0.94057000  1.0
  C  C81  1  0.03454000  0.65861000  0.05945000  1.0
  C  C82  1  0.53455000  0.40074000  0.05942000  1.0
  C  C83  1  0.96545000  0.34139000  0.94055000  1.0
  C  C84  1  0.46550000  0.49907000  0.96531000  1.0
  C  C85  1  0.03448000  0.53369000  0.03469000  1.0
  C  C86  1  0.53451000  0.50093000  0.03468000  1.0
  C  C87  1  0.96552000  0.46632000  0.96531000  1.0
  O  O88  1  0.23498000  0.26641000  0.32880000  1.0
  O  O89  1  0.26497000  0.93761000  0.67126000  1.0
  O  O90  1  0.76502000  0.73359000  0.67119000  1.0
  O  O91  1  0.73503000  0.06239000  0.32874000  1.0
  O  O92  1  0.00933000  0.42271000  0.35371000  1.0
  O  O93  1  0.49054000  0.06904000  0.64639000  1.0
  O  O94  1  0.99067000  0.57729000  0.64629000  1.0
  O  O95  1  0.50946000  0.93096000  0.35361000  1.0
  O  O96  1  0.51729000  0.50165000  0.69799000  1.0
  O  O97  1  0.98244000  0.80380000  0.30193000  1.0
  O  O98  1  0.48272000  0.49835000  0.30201000  1.0
  O  O99  1  0.01755000  0.19619000  0.69806000  1.0
  O  O100  1  0.15068000  0.37566000  0.69313000  1.0
  O  O101  1  0.34914000  0.68262000  0.30686000  1.0
  O  O102  1  0.84932000  0.62434000  0.30687000  1.0
  O  O103  1  0.65086000  0.31737000  0.69314000  1.0
  O  O104  1  0.30003000  0.49222000  0.83261000  1.0
  O  O105  1  0.20012000  0.65950000  0.16741000  1.0
  O  O106  1  0.69997000  0.50777000  0.16739000  1.0
  O  O107  1  0.79987000  0.34049000  0.83259000  1.0
  O  O108  1  0.37407000  0.69012000  0.84898000  1.0
  O  O109  1  0.12549000  0.84101000  0.15109000  1.0
  O  O110  1  0.62594000  0.30987000  0.15102000  1.0
  O  O111  1  0.87451000  0.15899000  0.84891000  1.0
  O  O112  1  0.36233000  0.71547000  0.68644000  1.0
  O  O113  1  0.13789000  0.02915000  0.31364000  1.0
  O  O114  1  0.63767000  0.28452000  0.31356000  1.0
  O  O115  1  0.86211000  0.97085000  0.68636000  1.0
  O  O116  1  0.01407000  0.77493000  0.78304000  1.0
  O  O117  1  0.48562000  0.99201000  0.21683000  1.0
  O  O118  1  0.98594000  0.22507000  0.21696000  1.0
  O  O119  1  0.51438000  0.00799000  0.78317000  1.0
  O  O120  1  0.88015000  0.54285000  0.79030000  1.0
  O  O121  1  0.61974000  0.75253000  0.20965000  1.0
  O  O122  1  0.11985000  0.45715000  0.20970000  1.0
  O  O123  1  0.38026000  0.24746000  0.79035000  1.0
