# generated using pymatgen
data_KH3C3(N2O3)2
_symmetry_space_group_name_H-M   'P 1'
_cell_length_a   6.93509000
_cell_length_b   9.19639000
_cell_length_c   12.38020000
_cell_angle_alpha   89.99950000
_cell_angle_beta   89.99990000
_cell_angle_gamma   84.08140000
_symmetry_Int_Tables_number   1
_chemical_formula_structural   KH3C3(N2O3)2
_chemical_formula_sum   'K4 H12 C12 N16 O24'
_cell_volume   785.37287572
_cell_formula_units_Z   4
loop_
 _symmetry_equiv_pos_site_id
 _symmetry_equiv_pos_as_xyz
  1  'x, y, z'
loop_
 _atom_site_type_symbol
 _atom_site_label
 _atom_site_symmetry_multiplicity
 _atom_site_fract_x
 _atom_site_fract_y
 _atom_site_fract_z
 _atom_site_occupancy
  K  K0  1  0.61550000  0.39920000  0.63536000  1.0
  K  K1  1  0.88450000  0.60078000  0.13536000  1.0
  K  K2  1  0.38448000  0.60079000  0.36465000  1.0
  K  K3  1  0.11550000  0.39920000  0.86465000  1.0
  H  H4  1  0.78981000  0.90754000  0.93331000  1.0
  H  H5  1  0.71018000  0.09246000  0.43330000  1.0
  H  H6  1  0.21020000  0.09246000  0.06669000  1.0
  H  H7  1  0.28982000  0.90754000  0.56670000  1.0
  H  H8  1  0.59160000  0.47315000  0.88116000  1.0
  H  H9  1  0.90838000  0.52685000  0.38116000  1.0
  H  H10  1  0.40840000  0.52685000  0.11885000  1.0
  H  H11  1  0.09162000  0.47315000  0.61884000  1.0
  H  H12  1  0.55966000  0.30774000  0.89225000  1.0
  H  H13  1  0.94034000  0.69226000  0.39225000  1.0
  H  H14  1  0.44035000  0.69226000  0.10775000  1.0
  H  H15  1  0.05966000  0.30774000  0.60775000  1.0
  C  C16  1  0.75519000  0.78894000  0.68265000  1.0
  C  C17  1  0.74481000  0.21106000  0.18265000  1.0
  C  C18  1  0.24481000  0.21106000  0.31735000  1.0
  C  C19  1  0.25519000  0.78894000  0.81735000  1.0
  C  C20  1  0.79538000  0.90669000  0.75020000  1.0
  C  C21  1  0.70461000  0.09332000  0.25019000  1.0
  C  C22  1  0.20462000  0.09332000  0.24980000  1.0
  C  C23  1  0.29538000  0.90668000  0.74981000  1.0
  C  C24  1  0.78127000  0.85426000  0.85565000  1.0
  C  C25  1  0.71873000  0.14574000  0.35564000  1.0
  C  C26  1  0.21874000  0.14574000  0.14435000  1.0
  C  C27  1  0.28128000  0.85426000  0.64436000  1.0
  N  N28  1  0.73936000  0.71317000  0.84600000  1.0
  N  N29  1  0.76064000  0.28684000  0.34600000  1.0
  N  N30  1  0.26065000  0.28684000  0.15400000  1.0
  N  N31  1  0.23937000  0.71316000  0.65400000  1.0
  N  N32  1  0.72079000  0.67199000  0.74181000  1.0
  N  N33  1  0.77920000  0.32802000  0.24180000  1.0
  N  N34  1  0.27920000  0.32801000  0.25819000  1.0
  N  N35  1  0.22080000  0.67198000  0.75819000  1.0
  N  N36  1  0.75648000  0.77249000  0.56826000  1.0
  N  N37  1  0.74353000  0.22752000  0.06826000  1.0
  N  N38  1  0.24352000  0.22751000  0.43174000  1.0
  N  N39  1  0.25648000  0.77248000  0.93174000  1.0
  N  N40  1  0.82688000  0.05331000  0.72542000  1.0
  N  N41  1  0.67311000  0.94669000  0.22542000  1.0
  N  N42  1  0.17311000  0.94669000  0.27458000  1.0
  N  N43  1  0.32688000  0.05331000  0.77457000  1.0
  O  O44  1  0.72136000  0.62188000  0.92358000  1.0
  O  O45  1  0.77864000  0.37812000  0.42358000  1.0
  O  O46  1  0.27865000  0.37812000  0.07642000  1.0
  O  O47  1  0.22138000  0.62187000  0.57642000  1.0
  O  O48  1  0.65667000  0.67902000  0.52947000  1.0
  O  O49  1  0.84333000  0.32099000  0.02947000  1.0
  O  O50  1  0.34332000  0.32098000  0.47053000  1.0
  O  O51  1  0.15668000  0.67901000  0.97053000  1.0
  O  O52  1  0.85957000  0.84724000  0.51314000  1.0
  O  O53  1  0.64044000  0.15276000  0.01312000  1.0
  O  O54  1  0.14044000  0.15275000  0.48687000  1.0
  O  O55  1  0.35956000  0.84725000  0.98687000  1.0
  O  O56  1  0.79037000  0.10157000  0.63277000  1.0
  O  O57  1  0.70965000  0.89843000  0.13276000  1.0
  O  O58  1  0.20963000  0.89842000  0.36723000  1.0
  O  O59  1  0.29034000  0.10157000  0.86724000  1.0
  O  O60  1  0.88682000  0.12729000  0.80070000  1.0
  O  O61  1  0.61318000  0.87271000  0.30069000  1.0
  O  O62  1  0.11318000  0.87271000  0.19930000  1.0
  O  O63  1  0.38681000  0.12729000  0.69931000  1.0
  O  O64  1  0.51934000  0.39540000  0.84992000  1.0
  O  O65  1  0.98065000  0.60460000  0.34992000  1.0
  O  O66  1  0.48066000  0.60460000  0.15009000  1.0
  O  O67  1  0.01935000  0.39540000  0.65008000  1.0
