# generated using pymatgen
data_ZnH14(C5N2)2
_symmetry_space_group_name_H-M   'P 1'
_cell_length_a   8.40337000
_cell_length_b   8.40337000
_cell_length_c   12.93250000
_cell_angle_alpha   89.99980000
_cell_angle_beta   89.99990000
_cell_angle_gamma   60.00000000
_symmetry_Int_Tables_number   1
_chemical_formula_structural   ZnH14(C5N2)2
_chemical_formula_sum   'Zn3 H42 C30 N12'
_cell_volume   790.89729582
_cell_formula_units_Z   3
loop_
 _symmetry_equiv_pos_site_id
 _symmetry_equiv_pos_as_xyz
  1  'x, y, z'
loop_
 _atom_site_type_symbol
 _atom_site_label
 _atom_site_symmetry_multiplicity
 _atom_site_fract_x
 _atom_site_fract_y
 _atom_site_fract_z
 _atom_site_occupancy
  Zn  Zn0  1  0.52590000  1.00000000  0.00000000  1.0
  Zn  Zn1  1  0.00000000  0.47409000  0.33333333  1.0
  Zn  Zn2  1  0.47409000  0.52591000  0.66666667  1.0
  H  H3  1  0.13955000  0.06785000  0.91827000  1.0
  H  H4  1  0.06785000  0.79259000  0.25160000  1.0
  H  H5  1  0.79260000  0.13955000  0.58493000  1.0
  H  H6  1  0.20740000  0.93215000  0.08173000  1.0
  H  H7  1  0.86044000  0.20741000  0.74840000  1.0
  H  H8  1  0.93215000  0.86045000  0.41506000  1.0
  H  H9  1  0.11538000  0.87460000  0.75160000  1.0
  H  H10  1  0.87459000  0.01002000  0.08494000  1.0
  H  H11  1  0.01002000  0.11538000  0.41827000  1.0
  H  H12  1  0.98998000  0.12540000  0.24840000  1.0
  H  H13  1  0.88461000  0.98999000  0.91507000  1.0
  H  H14  1  0.12540000  0.88462000  0.58173000  1.0
  H  H15  1  0.78689000  0.69803000  0.87661000  1.0
  H  H16  1  0.69803000  0.51507000  0.20995000  1.0
  H  H17  1  0.51508000  0.78689000  0.54328000  1.0
  H  H18  1  0.48492000  0.30197000  0.12339000  1.0
  H  H19  1  0.21310000  0.48492000  0.79005000  1.0
  H  H20  1  0.30197000  0.21311000  0.45672000  1.0
  H  H21  1  0.78617000  0.53142000  0.79413000  1.0
  H  H22  1  0.53143000  0.68240000  0.12746000  1.0
  H  H23  1  0.68241000  0.78617000  0.46080000  1.0
  H  H24  1  0.31760000  0.46857000  0.20587000  1.0
  H  H25  1  0.21383000  0.31759000  0.87254000  1.0
  H  H26  1  0.46858000  0.21383000  0.53920000  1.0
  H  H27  1  0.94293000  0.69440000  0.71502000  1.0
  H  H28  1  0.69440000  0.36267000  0.04835000  1.0
  H  H29  1  0.36267000  0.94294000  0.38169000  1.0
  H  H30  1  0.63734000  0.30559000  0.28498000  1.0
  H  H31  1  0.05707000  0.63733000  0.95165000  1.0
  H  H32  1  0.30560000  0.05707000  0.61831000  1.0
  H  H33  1  0.73030000  0.90406000  0.71827000  1.0
  H  H34  1  0.90406000  0.36565000  0.05160000  1.0
  H  H35  1  0.36564000  0.73030000  0.38493000  1.0
  H  H36  1  0.63436000  0.09594000  0.28173000  1.0
  H  H37  1  0.26971000  0.63435000  0.94840000  1.0
  H  H38  1  0.09594000  0.26970000  0.61507000  1.0
  H  H39  1  0.75783000  0.71900000  0.63882000  1.0
  H  H40  1  0.71901000  0.52317000  0.97215000  1.0
  H  H41  1  0.52317000  0.75783000  0.30549000  1.0
  H  H42  1  0.47683000  0.28100000  0.36118000  1.0
  H  H43  1  0.24218000  0.47683000  0.02785000  1.0
  H  H44  1  0.28100000  0.24217000  0.69451000  1.0
  C  C45  1  0.24713000  0.96256000  0.87089000  1.0
  C  C46  1  0.96258000  0.79029000  0.20423000  1.0
  C  C47  1  0.79029000  0.24713000  0.53756000  1.0
  C  C48  1  0.20970000  0.03743000  0.12911000  1.0
  C  C49  1  0.75287000  0.20972000  0.79577000  1.0
  C  C50  1  0.03743000  0.75287000  0.46244000  1.0
  C  C51  1  0.23516000  0.86882000  0.78693000  1.0
  C  C52  1  0.86880000  0.89605000  0.12026000  1.0
  C  C53  1  0.89603000  0.23515000  0.45359000  1.0
  C  C54  1  0.10398000  0.13118000  0.21307000  1.0
  C  C55  1  0.76485000  0.10396000  0.87974000  1.0
  C  C56  1  0.13118000  0.76484000  0.54640000  1.0
  C  C57  1  0.52594000  0.77387000  0.81567000  1.0
  C  C58  1  0.77386000  0.70019000  0.14901000  1.0
  C  C59  1  0.70019000  0.52594000  0.48234000  1.0
  C  C60  1  0.29981000  0.22613000  0.18433000  1.0
  C  C61  1  0.47405000  0.29981000  0.85099000  1.0
  C  C62  1  0.22613000  0.47406000  0.51766000  1.0
  C  C63  1  0.73003000  0.68035000  0.80374000  1.0
  C  C64  1  0.68035000  0.58961000  0.13708000  1.0
  C  C65  1  0.58962000  0.73003000  0.47041000  1.0
  C  C66  1  0.41038000  0.31965000  0.19626000  1.0
  C  C67  1  0.26996000  0.41039000  0.86292000  1.0
  C  C68  1  0.31965000  0.26997000  0.52959000  1.0
  C  C69  1  0.79319000  0.75410000  0.71360000  1.0
  C  C70  1  0.75411000  0.45271000  0.04693000  1.0
  C  C71  1  0.45271000  0.79319000  0.38027000  1.0
  C  C72  1  0.54729000  0.24589000  0.28640000  1.0
  C  C73  1  0.20682000  0.54729000  0.95307000  1.0
  C  C74  1  0.24590000  0.20681000  0.61973000  1.0
  N  N75  1  0.43106000  0.90071000  0.88946000  1.0
  N  N76  1  0.90069000  0.66824000  0.22279000  1.0
  N  N77  1  0.66823000  0.43107000  0.55612000  1.0
  N  N78  1  0.33176000  0.09930000  0.11054000  1.0
  N  N79  1  0.56893000  0.33176000  0.77721000  1.0
  N  N80  1  0.09930000  0.56894000  0.44388000  1.0
  N  N81  1  0.41134000  0.75002000  0.75202000  1.0
  N  N82  1  0.75002000  0.83863000  0.08536000  1.0
  N  N83  1  0.83864000  0.41134000  0.41869000  1.0
  N  N84  1  0.16136000  0.24998000  0.24798000  1.0
  N  N85  1  0.58866000  0.16136000  0.91464000  1.0
  N  N86  1  0.24998000  0.58866000  0.58131000  1.0
