# generated using pymatgen
data_CdH16C20N2O5
_symmetry_space_group_name_H-M   'P 1'
_cell_length_a   12.68460000
_cell_length_b   13.22930000
_cell_length_c   13.22930000
_cell_angle_alpha   83.98300000
_cell_angle_beta   81.88780000
_cell_angle_gamma   81.88840000
_symmetry_Int_Tables_number   1
_chemical_formula_structural   CdH16C20N2O5
_chemical_formula_sum   'Cd4 H64 C80 N8 O20'
_cell_volume   2167.60374518
_cell_formula_units_Z   4
loop_
 _symmetry_equiv_pos_site_id
 _symmetry_equiv_pos_as_xyz
  1  'x, y, z'
loop_
 _atom_site_type_symbol
 _atom_site_label
 _atom_site_symmetry_multiplicity
 _atom_site_fract_x
 _atom_site_fract_y
 _atom_site_fract_z
 _atom_site_occupancy
  Cd  Cd0  1  0.89130000  0.07159000  0.34626000  1.0
  Cd  Cd1  1  0.60871000  0.65375000  0.92841000  1.0
  Cd  Cd2  1  0.10870000  0.92841000  0.65375000  1.0
  Cd  Cd3  1  0.39130000  0.34626000  0.07159000  1.0
  H  H4  1  0.01970000  0.12401000  0.49380000  1.0
  H  H5  1  0.48030000  0.50621000  0.87600000  1.0
  H  H6  1  0.98030000  0.87599000  0.50620000  1.0
  H  H7  1  0.51970000  0.49380000  0.12402000  1.0
  H  H8  1  0.09356000  0.05020000  0.42378000  1.0
  H  H9  1  0.40643000  0.57623000  0.94980000  1.0
  H  H10  1  0.90643000  0.94979000  0.57623000  1.0
  H  H11  1  0.59357000  0.42378000  0.05021000  1.0
  H  H12  1  0.82396000  0.10825000  0.12779000  1.0
  H  H13  1  0.67606000  0.87222000  0.89175000  1.0
  H  H14  1  0.17604000  0.89175000  0.87221000  1.0
  H  H15  1  0.32396000  0.12779000  0.10825000  1.0
  H  H16  1  0.67226000  0.10312000  0.02592000  1.0
  H  H17  1  0.82776000  0.97409000  0.89689000  1.0
  H  H18  1  0.32773000  0.89688000  0.97409000  1.0
  H  H19  1  0.17226000  0.02591000  0.10313000  1.0
  H  H20  1  0.53019000  0.99148000  0.09776000  1.0
  H  H21  1  0.96983000  0.90224000  0.00854000  1.0
  H  H22  1  0.46981000  0.00853000  0.90224000  1.0
  H  H23  1  0.03019000  0.09776000  0.99148000  1.0
  H  H24  1  0.53818000  0.90082000  0.27189000  1.0
  H  H25  1  0.96183000  0.72811000  0.09918000  1.0
  H  H26  1  0.46182000  0.09918000  0.72812000  1.0
  H  H27  1  0.03819000  0.27188000  0.90082000  1.0
  H  H28  1  0.76601000  0.90928000  0.42478000  1.0
  H  H29  1  0.73399000  0.57523000  0.09071000  1.0
  H  H30  1  0.23399000  0.09071000  0.57522000  1.0
  H  H31  1  0.26601000  0.42477000  0.90928000  1.0
  H  H32  1  0.52216000  0.89997000  0.43875000  1.0
  H  H33  1  0.97783000  0.56125000  0.10003000  1.0
  H  H34  1  0.47783000  0.10002000  0.56124000  1.0
  H  H35  1  0.02217000  0.43874000  0.89994000  1.0
  H  H36  1  0.77943000  0.83002000  0.57150000  1.0
  H  H37  1  0.72056000  0.42849000  0.16998000  1.0
  H  H38  1  0.22056000  0.16998000  0.42849000  1.0
  H  H39  1  0.27944000  0.57151000  0.83002000  1.0
  H  H40  1  0.77105000  0.74529000  0.74699000  1.0
  H  H41  1  0.72895000  0.25300000  0.25472000  1.0
  H  H42  1  0.22895000  0.25472000  0.25299000  1.0
  H  H43  1  0.27105000  0.74701000  0.74530000  1.0
  H  H44  1  0.44090000  0.75754000  0.77821000  1.0
  H  H45  1  0.05911000  0.22180000  0.24243000  1.0
  H  H46  1  0.55911000  0.24244000  0.22180000  1.0
  H  H47  1  0.94090000  0.77819000  0.75754000  1.0
  H  H48  1  0.43278000  0.83712000  0.59973000  1.0
  H  H49  1  0.06721000  0.40028000  0.16285000  1.0
  H  H50  1  0.56721000  0.16285000  0.40027000  1.0
  H  H51  1  0.93280000  0.59970000  0.83711000  1.0
  H  H52  1  0.61044000  0.29791000  0.53924000  1.0
  H  H53  1  0.88955000  0.46077000  0.70207000  1.0
  H  H54  1  0.38954000  0.70208000  0.46077000  1.0
  H  H55  1  0.11045000  0.53924000  0.29793000  1.0
  H  H56  1  0.51289000  0.36663000  0.70233000  1.0
  H  H57  1  0.98711000  0.29768000  0.63336000  1.0
  H  H58  1  0.48711000  0.63337000  0.29768000  1.0
  H  H59  1  0.01289000  0.70233000  0.36664000  1.0
  H  H60  1  0.64215000  0.09579000  0.87429000  1.0
  H  H61  1  0.85785000  0.12573000  0.90421000  1.0
  H  H62  1  0.35786000  0.90422000  0.12572000  1.0
  H  H63  1  0.14215000  0.87427000  0.09578000  1.0
  H  H64  1  0.74259000  0.02880000  0.71242000  1.0
  H  H65  1  0.75740000  0.28759000  0.97119000  1.0
  H  H66  1  0.25741000  0.97120000  0.28759000  1.0
  H  H67  1  0.24259000  0.71241000  0.02881000  1.0
  C  C68  1  0.68126000  0.96266000  0.29486000  1.0
  C  C69  1  0.81875000  0.70514000  0.03734000  1.0
  C  C70  1  0.31873000  0.03734000  0.70515000  1.0
  C  C71  1  0.18127000  0.29485000  0.96266000  1.0
  C  C72  1  0.75746000  0.06494000  0.15787000  1.0
  C  C73  1  0.74256000  0.84214000  0.93506000  1.0
  C  C74  1  0.24254000  0.93506000  0.84214000  1.0
  C  C75  1  0.25746000  0.15787000  0.06494000  1.0
  C  C76  1  0.67512000  0.05976000  0.10018000  1.0
  C  C77  1  0.82490000  0.89983000  0.94025000  1.0
  C  C78  1  0.32488000  0.94025000  0.89982000  1.0
  C  C79  1  0.17512000  0.10018000  0.05976000  1.0
  C  C80  1  0.59475000  0.99972000  0.14141000  1.0
  C  C81  1  0.90527000  0.85859000  0.00029000  1.0
  C  C82  1  0.40525000  0.00029000  0.85860000  1.0
  C  C83  1  0.09475000  0.14140000  0.99972000  1.0
  C  C84  1  0.59852000  0.94983000  0.23874000  1.0
  C  C85  1  0.90149000  0.76126000  0.05017000  1.0
  C  C86  1  0.40148000  0.05017000  0.76127000  1.0
  C  C87  1  0.09852000  0.23873000  0.94983000  1.0
  C  C88  1  0.68681000  0.91690000  0.39941000  1.0
  C  C89  1  0.81319000  0.60060000  0.08310000  1.0
  C  C90  1  0.31319000  0.08310000  0.60059000  1.0
  C  C91  1  0.18681000  0.39940000  0.91689000  1.0
  C  C92  1  0.60176000  0.88805000  0.46398000  1.0
  C  C93  1  0.89823000  0.53602000  0.11194000  1.0
  C  C94  1  0.39823000  0.11194000  0.53602000  1.0
  C  C95  1  0.10178000  0.46397000  0.88804000  1.0
  C  C96  1  0.60573000  0.84214000  0.56859000  1.0
  C  C97  1  0.89426000  0.43141000  0.15785000  1.0
  C  C98  1  0.39425000  0.15785000  0.43141000  1.0
  C  C99  1  0.10575000  0.56858000  0.84213000  1.0
  C  C100  1  0.70167000  0.81603000  0.61298000  1.0
  C  C101  1  0.79832000  0.38701000  0.18397000  1.0
  C  C102  1  0.29832000  0.18397000  0.38701000  1.0
  C  C103  1  0.20169000  0.61298000  0.81603000  1.0
  C  C104  1  0.69784000  0.76980000  0.71207000  1.0
  C  C105  1  0.80216000  0.28792000  0.23020000  1.0
  C  C106  1  0.30215000  0.23020000  0.28792000  1.0
  C  C107  1  0.19785000  0.71208000  0.76981000  1.0
  C  C108  1  0.51345000  0.77564000  0.72905000  1.0
  C  C109  1  0.98655000  0.27095000  0.22434000  1.0
  C  C110  1  0.48654000  0.22434000  0.27095000  1.0
  C  C111  1  0.01346000  0.72904000  0.77564000  1.0
  C  C112  1  0.50994000  0.82064000  0.62960000  1.0
  C  C113  1  0.99005000  0.37040000  0.17934000  1.0
  C  C114  1  0.49005000  0.17934000  0.37040000  1.0
  C  C115  1  0.00996000  0.62958000  0.82063000  1.0
  C  C116  1  0.74614000  0.12473000  0.51985000  1.0
  C  C117  1  0.75386000  0.48016000  0.87526000  1.0
  C  C118  1  0.25385000  0.87526000  0.48016000  1.0
  C  C119  1  0.24614000  0.51984000  0.12475000  1.0
  C  C120  1  0.68241000  0.15992000  0.61661000  1.0
  C  C121  1  0.81758000  0.38341000  0.84008000  1.0
  C  C122  1  0.31757000  0.84009000  0.38340000  1.0
  C  C123  1  0.18242000  0.61660000  0.15992000  1.0
  C  C124  1  0.61666000  0.25456000  0.61336000  1.0
  C  C125  1  0.88333000  0.38665000  0.74543000  1.0
  C  C126  1  0.38332000  0.74544000  0.38664000  1.0
  C  C127  1  0.11667000  0.61336000  0.25457000  1.0
  C  C128  1  0.56296000  0.29256000  0.70342000  1.0
  C  C129  1  0.93703000  0.29659000  0.70743000  1.0
  C  C130  1  0.43703000  0.70744000  0.29658000  1.0
  C  C131  1  0.06297000  0.70342000  0.29257000  1.0
  C  C132  1  0.57309000  0.23580000  0.79795000  1.0
  C  C133  1  0.92690000  0.20206000  0.76420000  1.0
  C  C134  1  0.42691000  0.76421000  0.20205000  1.0
  C  C135  1  0.07310000  0.79795000  0.23580000  1.0
  C  C136  1  0.51645000  0.27713000  0.89517000  1.0
  C  C137  1  0.98355000  0.10484000  0.72287000  1.0
  C  C138  1  0.48355000  0.72288000  0.10484000  1.0
  C  C139  1  0.01645000  0.89517000  0.27712000  1.0
  C  C140  1  0.63625000  0.13978000  0.80051000  1.0
  C  C141  1  0.86375000  0.19950000  0.86022000  1.0
  C  C142  1  0.36375000  0.86023000  0.19949000  1.0
  C  C143  1  0.13625000  0.80051000  0.13978000  1.0
  C  C144  1  0.69117000  0.10217000  0.71083000  1.0
  C  C145  1  0.80881000  0.28918000  0.89782000  1.0
  C  C146  1  0.30881000  0.89783000  0.28918000  1.0
  C  C147  1  0.19118000  0.71082000  0.10217000  1.0
  N  N148  1  0.76069000  0.01888000  0.25291000  1.0
  N  N149  1  0.73932000  0.74710000  0.98112000  1.0
  N  N150  1  0.23930000  0.98112000  0.74709000  1.0
  N  N151  1  0.26069000  0.25291000  0.01887000  1.0
  N  N152  1  0.60557000  0.75003000  0.77024000  1.0
  N  N153  1  0.89443000  0.22976000  0.24997000  1.0
  N  N154  1  0.39442000  0.24997000  0.22976000  1.0
  N  N155  1  0.10558000  0.77023000  0.75004000  1.0
  O  O156  1  0.72768000  0.17335000  0.43509000  1.0
  O  O157  1  0.77232000  0.56491000  0.82665000  1.0
  O  O158  1  0.27231000  0.82665000  0.56491000  1.0
  O  O159  1  0.22768000  0.43509000  0.17336000  1.0
  O  O160  1  0.81979000  0.04781000  0.52548000  1.0
  O  O161  1  0.68021000  0.47453000  0.95219000  1.0
  O  O162  1  0.18021000  0.95219000  0.47453000  1.0
  O  O163  1  0.31979000  0.52547000  0.04782000  1.0
  O  O164  1  0.46502000  0.36784000  0.89048000  1.0
  O  O165  1  0.03497000  0.10953000  0.63216000  1.0
  O  O166  1  0.53498000  0.63217000  0.10952000  1.0
  O  O167  1  0.96502000  0.89048000  0.36784000  1.0
  O  O168  1  0.51977000  0.22011000  0.97865000  1.0
  O  O169  1  0.98024000  0.02136000  0.77990000  1.0
  O  O170  1  0.48024000  0.77991000  0.02136000  1.0
  O  O171  1  0.01977000  0.97865000  0.22010000  1.0
  O  O172  1  0.03993000  0.11251000  0.42050000  1.0
  O  O173  1  0.46007000  0.57950000  0.88749000  1.0
  O  O174  1  0.96007000  0.88749000  0.57950000  1.0
  O  O175  1  0.53994000  0.42051000  0.11252000  1.0
