# generated using pymatgen
data_CuH5C5N2ClO3
_symmetry_space_group_name_H-M   'P 1'
_cell_length_a   6.07795000
_cell_length_b   9.72143000
_cell_length_c   13.37840000
_cell_angle_alpha   104.90300000
_cell_angle_beta   90.00070000
_cell_angle_gamma   108.21000000
_symmetry_Int_Tables_number   1
_chemical_formula_structural   CuH5C5N2ClO3
_chemical_formula_sum   'Cu4 H20 C20 N8 Cl4 O12'
_cell_volume   722.84640637
_cell_formula_units_Z   4
loop_
 _symmetry_equiv_pos_site_id
 _symmetry_equiv_pos_as_xyz
  1  'x, y, z'
loop_
 _atom_site_type_symbol
 _atom_site_label
 _atom_site_symmetry_multiplicity
 _atom_site_fract_x
 _atom_site_fract_y
 _atom_site_fract_z
 _atom_site_occupancy
  Cu  Cu0  1  0.05637000  0.23311000  0.64611000  1.0
  Cu  Cu1  1  0.82412000  0.76665000  0.85389000  1.0
  Cu  Cu2  1  0.94353000  0.76698000  0.35395000  1.0
  Cu  Cu3  1  0.17607000  0.23345000  0.14618000  1.0
  H  H4  1  0.48695000  0.32810000  0.34223000  1.0
  H  H5  1  0.16012000  0.67260000  0.15831000  1.0
  H  H6  1  0.51309000  0.67252000  0.65809000  1.0
  H  H7  1  0.84048000  0.32797000  0.84199000  1.0
  H  H8  1  0.76910000  0.14378000  0.26442000  1.0
  H  H9  1  0.62547000  0.85583000  0.23553000  1.0
  H  H10  1  0.23095000  0.85599000  0.73557000  1.0
  H  H11  1  0.37413000  0.14382000  0.76447000  1.0
  H  H12  1  0.71186000  0.11213000  0.44628000  1.0
  H  H13  1  0.59996000  0.88731000  0.05341000  1.0
  H  H14  1  0.28813000  0.88777000  0.55360000  1.0
  H  H15  1  0.39992000  0.11246000  0.94643000  1.0
  H  H16  1  0.90010000  0.45501000  0.62990000  1.0
  H  H17  1  0.44578000  0.54479000  0.86996000  1.0
  H  H18  1  0.09973000  0.54497000  0.37003000  1.0
  H  H19  1  0.55435000  0.45514000  0.12997000  1.0
  H  H20  1  0.05401000  0.53625000  0.73982000  1.0
  H  H21  1  0.51789000  0.46356000  0.75995000  1.0
  H  H22  1  0.94576000  0.46373000  0.26012000  1.0
  H  H23  1  0.48235000  0.53640000  0.24001000  1.0
  C  C24  1  0.27832000  0.27465000  0.46690000  1.0
  C  C25  1  0.00464000  0.72531000  0.03320000  1.0
  C  C26  1  0.72151000  0.72533000  0.53312000  1.0
  C  C27  1  0.99547000  0.27461000  0.96683000  1.0
  C  C28  1  0.31294000  0.28159000  0.36509000  1.0
  C  C29  1  0.03256000  0.71880000  0.13509000  1.0
  C  C30  1  0.68695000  0.71867000  0.63498000  1.0
  C  C31  1  0.96778000  0.28143000  0.86499000  1.0
  C  C32  1  0.91636000  0.17679000  0.32211000  1.0
  C  C33  1  0.73974000  0.82300000  0.17779000  1.0
  C  C34  1  0.08382000  0.82314000  0.67785000  1.0
  C  C35  1  0.25996000  0.17686000  0.82217000  1.0
  C  C36  1  0.88318000  0.16325000  0.42265000  1.0
  C  C37  1  0.72025000  0.83643000  0.07726000  1.0
  C  C38  1  0.11687000  0.83672000  0.57735000  1.0
  C  C39  1  0.27956000  0.16343000  0.92274000  1.0
  C  C40  1  0.47012000  0.33836000  0.55331000  1.0
  C  C41  1  0.13258000  0.66151000  0.94680000  1.0
  C  C42  1  0.52986000  0.66163000  0.44667000  1.0
  C  C43  1  0.86741000  0.33841000  0.05319000  1.0
  N  N44  1  0.06449000  0.21402000  0.49409000  1.0
  N  N45  1  0.85094000  0.78555000  0.00588000  1.0
  N  N46  1  0.93545000  0.78584000  0.50592000  1.0
  N  N47  1  0.14886000  0.21418000  0.99412000  1.0
  N  N48  1  0.13114000  0.23409000  0.29389000  1.0
  N  N49  1  0.89778000  0.76620000  0.20616000  1.0
  N  N50  1  0.86898000  0.76600000  0.70611000  1.0
  N  N51  1  0.10225000  0.23392000  0.79386000  1.0
  Cl  Cl52  1  0.69183000  0.07370000  0.63366000  1.0
  Cl  Cl53  1  0.61853000  0.92584000  0.86638000  1.0
  Cl  Cl54  1  0.30809000  0.92627000  0.36631000  1.0
  Cl  Cl55  1  0.38152000  0.07418000  0.13361000  1.0
  O  O56  1  0.40429000  0.32337000  0.64273000  1.0
  O  O57  1  0.08194000  0.67650000  0.85734000  1.0
  O  O58  1  0.59569000  0.67672000  0.35727000  1.0
  O  O59  1  0.91823000  0.32360000  0.14267000  1.0
  O  O60  1  0.67241000  0.40254000  0.53514000  1.0
  O  O61  1  0.27058000  0.59720000  0.96490000  1.0
  O  O62  1  0.32752000  0.59741000  0.46476000  1.0
  O  O63  1  0.72939000  0.40265000  0.03501000  1.0
  O  O64  1  0.04309000  0.46478000  0.67107000  1.0
  O  O65  1  0.57873000  0.53499000  0.82868000  1.0
  O  O66  1  0.95671000  0.53522000  0.32888000  1.0
  O  O67  1  0.42145000  0.46496000  0.17128000  1.0
