# generated using pymatgen
data_ZnH12C18(NO3)2
_symmetry_space_group_name_H-M   'P 1'
_cell_length_a   8.16607000
_cell_length_b   9.36608000
_cell_length_c   12.65580000
_cell_angle_alpha   71.56490000
_cell_angle_beta   88.09980000
_cell_angle_gamma   67.80680000
_symmetry_Int_Tables_number   1
_chemical_formula_structural   ZnH12C18(NO3)2
_chemical_formula_sum   'Zn2 H24 C36 N4 O12'
_cell_volume   846.14930076
_cell_formula_units_Z   2
loop_
 _symmetry_equiv_pos_site_id
 _symmetry_equiv_pos_as_xyz
  1  'x, y, z'
loop_
 _atom_site_type_symbol
 _atom_site_label
 _atom_site_symmetry_multiplicity
 _atom_site_fract_x
 _atom_site_fract_y
 _atom_site_fract_z
 _atom_site_occupancy
  Zn  Zn0  1  0.53336000  0.07416000  0.30907000  1.0
  Zn  Zn1  1  0.46664000  0.92584000  0.69093000  1.0
  H  H2  1  0.69025000  0.38473000  0.53190000  1.0
  H  H3  1  0.30976000  0.61528000  0.46810000  1.0
  H  H4  1  0.18697000  0.19539000  0.85607000  1.0
  H  H5  1  0.81303000  0.80459000  0.14394000  1.0
  H  H6  1  0.99888000  0.15386000  0.50237000  1.0
  H  H7  1  0.00113000  0.84614000  0.49764000  1.0
  H  H8  1  0.84017000  0.44323000  0.93910000  1.0
  H  H9  1  0.15982000  0.55678000  0.06089000  1.0
  H  H10  1  0.23225000  0.97875000  0.21721000  1.0
  H  H11  1  0.76775000  0.02124000  0.78280000  1.0
  H  H12  1  0.82150000  0.22316000  0.29486000  1.0
  H  H13  1  0.17850000  0.77684000  0.70514000  1.0
  H  H14  1  0.08982000  0.03424000  0.02850000  1.0
  H  H15  1  0.91017000  0.96575000  0.97151000  1.0
  H  H16  1  0.63133000  0.42979000  0.80681000  1.0
  H  H17  1  0.36866000  0.57021000  0.19318000  1.0
  H  H18  1  0.95291000  0.37762000  0.14005000  1.0
  H  H19  1  0.04708000  0.62239000  0.85994000  1.0
  H  H20  1  0.38990000  0.34263000  0.77648000  1.0
  H  H21  1  0.61010000  0.65736000  0.22352000  1.0
  H  H22  1  0.59715000  0.16218000  0.47914000  1.0
  H  H23  1  0.40286000  0.83782000  0.52086000  1.0
  H  H24  1  0.70467000  0.97736000  0.50398000  1.0
  H  H25  1  0.29534000  0.02263000  0.49601000  1.0
  C  C26  1  0.79109000  0.40421000  0.47779000  1.0
  C  C27  1  0.20893000  0.59579000  0.52221000  1.0
  C  C28  1  0.03108000  0.36739000  0.38147000  1.0
  C  C29  1  0.96892000  0.63262000  0.61852000  1.0
  C  C30  1  0.78551000  0.55330000  0.40869000  1.0
  C  C31  1  0.21449000  0.44671000  0.59131000  1.0
  C  C32  1  0.58899000  0.23990000  0.08108000  1.0
  C  C33  1  0.41101000  0.76011000  0.91892000  1.0
  C  C34  1  0.19482000  0.31168000  0.32668000  1.0
  C  C35  1  0.80518000  0.68832000  0.67331000  1.0
  C  C36  1  0.45136000  0.18649000  0.06334000  1.0
  C  C37  1  0.54863000  0.81351000  0.93666000  1.0
  C  C38  1  0.65517000  0.72020000  0.39460000  1.0
  C  C39  1  0.34485000  0.27981000  0.60540000  1.0
  C  C40  1  0.24498000  0.16868000  0.94008000  1.0
  C  C41  1  0.75501000  0.83132000  0.05992000  1.0
  C  C42  1  0.94982000  0.28488000  0.46121000  1.0
  C  C43  1  0.05018000  0.71513000  0.53879000  1.0
  C  C44  1  0.78926000  0.37593000  0.00999000  1.0
  C  C45  1  0.21074000  0.62408000  0.99000000  1.0
  C  C46  1  0.27118000  0.04819000  0.14105000  1.0
  C  C47  1  0.72882000  0.95181000  0.85896000  1.0
  C  C48  1  0.37972000  0.22415000  0.95273000  1.0
  C  C49  1  0.62028000  0.77585000  0.04727000  1.0
  C  C50  1  0.65436000  0.32615000  0.98780000  1.0
  C  C51  1  0.34563000  0.67385000  0.01219000  1.0
  C  C52  1  0.77819000  0.25336000  0.20716000  1.0
  C  C53  1  0.22181000  0.74665000  0.79283000  1.0
  C  C54  1  0.19191000  0.08029000  0.03458000  1.0
  C  C55  1  0.80809000  0.91970000  0.96543000  1.0
  C  C56  1  0.58054000  0.36108000  0.87697000  1.0
  C  C57  1  0.41945000  0.63892000  0.12302000  1.0
  C  C58  1  0.85035000  0.33982000  0.11975000  1.0
  C  C59  1  0.14964000  0.66018000  0.88024000  1.0
  C  C60  1  0.44749000  0.31304000  0.86070000  1.0
  C  C61  1  0.55250000  0.68696000  0.13930000  1.0
  N  N62  1  0.39652000  0.10061000  0.15467000  1.0
  N  N63  1  0.60348000  0.89939000  0.84533000  1.0
  N  N64  1  0.65145000  0.20498000  0.18806000  1.0
  N  N65  1  0.34855000  0.79502000  0.81193000  1.0
  O  O66  1  0.93124000  0.53214000  0.34850000  1.0
  O  O67  1  0.06877000  0.46786000  0.65149000  1.0
  O  O68  1  0.67321000  0.08359000  0.44164000  1.0
  O  O69  1  0.32680000  0.91640000  0.55836000  1.0
  O  O70  1  0.29814000  0.15838000  0.37392000  1.0
  O  O71  1  0.70187000  0.84162000  0.62607000  1.0
  O  O72  1  0.69439000  0.83961000  0.33386000  1.0
  O  O73  1  0.30562000  0.16039000  0.66614000  1.0
  O  O74  1  0.51533000  0.73079000  0.44267000  1.0
  O  O75  1  0.48468000  0.26922000  0.55733000  1.0
  O  O76  1  0.22553000  0.40632000  0.24150000  1.0
  O  O77  1  0.77447000  0.59368000  0.75849000  1.0
