# generated using pymatgen
data_CuH6C6(N2O)3
_symmetry_space_group_name_H-M   'P 1'
_cell_length_a   6.82264000
_cell_length_b   9.35710000
_cell_length_c   14.41210000
_cell_angle_alpha   85.82850000
_cell_angle_beta   89.99950000
_cell_angle_gamma   89.99690000
_symmetry_Int_Tables_number   1
_chemical_formula_structural   CuH6C6(N2O)3
_chemical_formula_sum   'Cu4 H24 C24 N24 O12'
_cell_volume   917.63279552
_cell_formula_units_Z   4
loop_
 _symmetry_equiv_pos_site_id
 _symmetry_equiv_pos_as_xyz
  1  'x, y, z'
loop_
 _atom_site_type_symbol
 _atom_site_label
 _atom_site_symmetry_multiplicity
 _atom_site_fract_x
 _atom_site_fract_y
 _atom_site_fract_z
 _atom_site_occupancy
  Cu  Cu0  1  0.51311000  0.47073000  0.64009000  1.0
  Cu  Cu1  1  0.01310000  0.02927000  0.85991000  1.0
  Cu  Cu2  1  0.48688000  0.52927000  0.35991000  1.0
  Cu  Cu3  1  0.98689000  0.97073000  0.14009000  1.0
  H  H4  1  0.75512000  0.27050000  0.78074000  1.0
  H  H5  1  0.25513000  0.22951000  0.71925000  1.0
  H  H6  1  0.24488000  0.72950000  0.21926000  1.0
  H  H7  1  0.74487000  0.77049000  0.28075000  1.0
  H  H8  1  0.97020000  0.89471000  0.68259000  1.0
  H  H9  1  0.47020000  0.60528000  0.81741000  1.0
  H  H10  1  0.02980000  0.10529000  0.31741000  1.0
  H  H11  1  0.52980000  0.39472000  0.18259000  1.0
  H  H12  1  0.79663000  0.95207000  0.52940000  1.0
  H  H13  1  0.29663000  0.54792000  0.97059000  1.0
  H  H14  1  0.20338000  0.04793000  0.47060000  1.0
  H  H15  1  0.70337000  0.45208000  0.02940000  1.0
  H  H16  1  0.60158000  0.18369000  0.51169000  1.0
  H  H17  1  0.10158000  0.31632000  0.98830000  1.0
  H  H18  1  0.39844000  0.81631000  0.48831000  1.0
  H  H19  1  0.89841000  0.68368000  0.01169000  1.0
  H  H20  1  0.44654000  0.77876000  0.68103000  1.0
  H  H21  1  0.94654000  0.72124000  0.81898000  1.0
  H  H22  1  0.55346000  0.22124000  0.31898000  1.0
  H  H23  1  0.05346000  0.27877000  0.18102000  1.0
  H  H24  1  0.25206000  0.70835000  0.64979000  1.0
  H  H25  1  0.75206000  0.79165000  0.85021000  1.0
  H  H26  1  0.74794000  0.29165000  0.35021000  1.0
  H  H27  1  0.24794000  0.20835000  0.14979000  1.0
  C  C28  1  0.14938000  0.38830000  0.42693000  1.0
  C  C29  1  0.64938000  0.11171000  0.07307000  1.0
  C  C30  1  0.85061000  0.61170000  0.57308000  1.0
  C  C31  1  0.35061000  0.88829000  0.92693000  1.0
  C  C32  1  0.12039000  0.40081000  0.32477000  1.0
  C  C33  1  0.62036000  0.09920000  0.17524000  1.0
  C  C34  1  0.87961000  0.59919000  0.67524000  1.0
  C  C35  1  0.37964000  0.90080000  0.82476000  1.0
  C  C36  1  0.76191000  0.19874000  0.72481000  1.0
  C  C37  1  0.26191000  0.30126000  0.77519000  1.0
  C  C38  1  0.23809000  0.80126000  0.27520000  1.0
  C  C39  1  0.73809000  0.69873000  0.22481000  1.0
  C  C40  1  0.88033000  0.99030000  0.66978000  1.0
  C  C41  1  0.38032000  0.50969000  0.83022000  1.0
  C  C42  1  0.11968000  0.00969000  0.33022000  1.0
  C  C43  1  0.61968000  0.49030000  0.16978000  1.0
  C  C44  1  0.78390000  0.02238000  0.58606000  1.0
  C  C45  1  0.28389000  0.47762000  0.91394000  1.0
  C  C46  1  0.21611000  0.97762000  0.41394000  1.0
  C  C47  1  0.71611000  0.52238000  0.08606000  1.0
  C  C48  1  0.67529000  0.14870000  0.57687000  1.0
  C  C49  1  0.17529000  0.35130000  0.92313000  1.0
  C  C50  1  0.32473000  0.85129000  0.42314000  1.0
  C  C51  1  0.82471000  0.64870000  0.07687000  1.0
  N  N52  1  0.04480000  0.31855000  0.49476000  1.0
  N  N53  1  0.54478000  0.18146000  0.00524000  1.0
  N  N54  1  0.95520000  0.68145000  0.50524000  1.0
  N  N55  1  0.45522000  0.81854000  0.99476000  1.0
  N  N56  1  0.14254000  0.33789000  0.57331000  1.0
  N  N57  1  0.64252000  0.16212000  0.92669000  1.0
  N  N58  1  0.85747000  0.66212000  0.42669000  1.0
  N  N59  1  0.35748000  0.83788000  0.07331000  1.0
  N  N60  1  0.30198000  0.41653000  0.55288000  1.0
  N  N61  1  0.80198000  0.08347000  0.94712000  1.0
  N  N62  1  0.69802000  0.58347000  0.44713000  1.0
  N  N63  1  0.19802000  0.91653000  0.05287000  1.0
  N  N64  1  0.30890000  0.44923000  0.46151000  1.0
  N  N65  1  0.80890000  0.05077000  0.03849000  1.0
  N  N66  1  0.69110000  0.55077000  0.53849000  1.0
  N  N67  1  0.19109000  0.94923000  0.96151000  1.0
  N  N68  1  0.66384000  0.23587000  0.64675000  1.0
  N  N69  1  0.16384000  0.26414000  0.85324000  1.0
  N  N70  1  0.33617000  0.76413000  0.35325000  1.0
  N  N71  1  0.83615000  0.73586000  0.14675000  1.0
  N  N72  1  0.86851000  0.07881000  0.73938000  1.0
  N  N73  1  0.36852000  0.42119000  0.76062000  1.0
  N  N74  1  0.13148000  0.92120000  0.26062000  1.0
  N  N75  1  0.63148000  0.57881000  0.23938000  1.0
  O  O76  1  0.25942000  0.46670000  0.27915000  1.0
  O  O77  1  0.75944000  0.03330000  0.22085000  1.0
  O  O78  1  0.74057000  0.53329000  0.72085000  1.0
  O  O79  1  0.24056000  0.96671000  0.77914000  1.0
  O  O80  1  0.97307000  0.34644000  0.28839000  1.0
  O  O81  1  0.47309000  0.15355000  0.21162000  1.0
  O  O82  1  0.02690000  0.65354000  0.71162000  1.0
  O  O83  1  0.52690000  0.84646000  0.78838000  1.0
  O  O84  1  0.39055000  0.72332000  0.63148000  1.0
  O  O85  1  0.89056000  0.77668000  0.86852000  1.0
  O  O86  1  0.60946000  0.27667000  0.36853000  1.0
  O  O87  1  0.10945000  0.22334000  0.13148000  1.0
