# generated using pymatgen
data_CdH8C12S2(N2O)2
_symmetry_space_group_name_H-M   'P 1'
_cell_length_a   8.92573000
_cell_length_b   9.51606000
_cell_length_c   9.51608000
_cell_angle_alpha   96.21630000
_cell_angle_beta   109.09700000
_cell_angle_gamma   109.09700000
_symmetry_Int_Tables_number   1
_chemical_formula_structural   CdH8C12S2(N2O)2
_chemical_formula_sum   'Cd2 H16 C24 S4 N8 O4'
_cell_volume   700.46029666
_cell_formula_units_Z   2
loop_
 _symmetry_equiv_pos_site_id
 _symmetry_equiv_pos_as_xyz
  1  'x, y, z'
loop_
 _atom_site_type_symbol
 _atom_site_label
 _atom_site_symmetry_multiplicity
 _atom_site_fract_x
 _atom_site_fract_y
 _atom_site_fract_z
 _atom_site_occupancy
  Cd  Cd0  1  0.75000000  0.21905000  0.78095000  1.0
  Cd  Cd1  1  0.25000000  0.78095000  0.21905000  1.0
  H  H2  1  0.32927000  0.55858000  0.64653000  1.0
  H  H3  1  0.17074000  0.35347000  0.44142000  1.0
  H  H4  1  0.67073000  0.44142000  0.35347000  1.0
  H  H5  1  0.82926000  0.64653000  0.55858000  1.0
  H  H6  1  0.52740000  0.49536000  0.86569000  1.0
  H  H7  1  0.97260000  0.13431000  0.50464000  1.0
  H  H8  1  0.47260000  0.50464000  0.13430000  1.0
  H  H9  1  0.02739000  0.86570000  0.49536000  1.0
  H  H10  1  0.75838000  0.71257000  0.08276000  1.0
  H  H11  1  0.74161000  0.91724000  0.28742000  1.0
  H  H12  1  0.24162000  0.28743000  0.91723000  1.0
  H  H13  1  0.25839000  0.08276000  0.71257000  1.0
  H  H14  1  0.36691000  0.83465000  0.66100000  1.0
  H  H15  1  0.13309000  0.33899000  0.16535000  1.0
  H  H16  1  0.63309000  0.16535000  0.33900000  1.0
  H  H17  1  0.86691000  0.66101000  0.83465000  1.0
  C  C18  1  0.68383000  0.88374000  0.98856000  1.0
  C  C19  1  0.81617000  0.01144000  0.11626000  1.0
  C  C20  1  0.31617000  0.11626000  0.01144000  1.0
  C  C21  1  0.18383000  0.98856000  0.88374000  1.0
  C  C22  1  0.42981000  0.64751000  0.74502000  1.0
  C  C23  1  0.07019000  0.25498000  0.35249000  1.0
  C  C24  1  0.57019000  0.35249000  0.25498000  1.0
  C  C25  1  0.92981000  0.74502000  0.64751000  1.0
  C  C26  1  0.53869000  0.61288000  0.86637000  1.0
  C  C27  1  0.96131000  0.13363000  0.38712000  1.0
  C  C28  1  0.46131000  0.38712000  0.13363000  1.0
  C  C29  1  0.03869000  0.86637000  0.61288000  1.0
  C  C30  1  0.66611000  0.73274000  0.98779000  1.0
  C  C31  1  0.83388000  0.01221000  0.26726000  1.0
  C  C32  1  0.33389000  0.26726000  0.01221000  1.0
  C  C33  1  0.16611000  0.98779000  0.73274000  1.0
  C  C34  1  0.44700000  0.79764000  0.74941000  1.0
  C  C35  1  0.05300000  0.25059000  0.20236000  1.0
  C  C36  1  0.55300000  0.20236000  0.25059000  1.0
  C  C37  1  0.94700000  0.74941000  0.79764000  1.0
  C  C38  1  0.62092000  0.89046000  0.51198000  1.0
  C  C39  1  0.87910000  0.48803000  0.10955000  1.0
  C  C40  1  0.37909000  0.10955000  0.48803000  1.0
  C  C41  1  0.12091000  0.51197000  0.89045000  1.0
  S  S42  1  0.51067000  0.71815000  0.39966000  1.0
  S  S43  1  0.98933000  0.60034000  0.28184000  1.0
  S  S44  1  0.48933000  0.28184000  0.60034000  1.0
  S  S45  1  0.01067000  0.39966000  0.71816000  1.0
  N  N46  1  0.56941000  0.91352000  0.87075000  1.0
  N  N47  1  0.93060000  0.12925000  0.08648000  1.0
  N  N48  1  0.43060000  0.08648000  0.12925000  1.0
  N  N49  1  0.06940000  0.87075000  0.91352000  1.0
  N  N50  1  0.70387000  0.01532000  0.59187000  1.0
  N  N51  1  0.79612000  0.40812000  0.98467000  1.0
  N  N52  1  0.29612000  0.98467000  0.40813000  1.0
  N  N53  1  0.20388000  0.59187000  0.01533000  1.0
  O  O54  1  0.57268000  0.05292000  0.87695000  1.0
  O  O55  1  0.92732000  0.12304000  0.94708000  1.0
  O  O56  1  0.42732000  0.94708000  0.12304000  1.0
  O  O57  1  0.07268000  0.87696000  0.05292000  1.0
