# generated using pymatgen
data_CaH16C10O7
_symmetry_space_group_name_H-M   'P 1'
_cell_length_a   4.77933000
_cell_length_b   15.87510000
_cell_length_c   16.13600000
_cell_angle_alpha   90.00000000
_cell_angle_beta   90.00000000
_cell_angle_gamma   90.00000000
_symmetry_Int_Tables_number   1
_chemical_formula_structural   CaH16C10O7
_chemical_formula_sum   'Ca4 H64 C40 O28'
_cell_volume   1224.27610540
_cell_formula_units_Z   4
loop_
 _symmetry_equiv_pos_site_id
 _symmetry_equiv_pos_as_xyz
  1  'x, y, z'
loop_
 _atom_site_type_symbol
 _atom_site_label
 _atom_site_symmetry_multiplicity
 _atom_site_fract_x
 _atom_site_fract_y
 _atom_site_fract_z
 _atom_site_occupancy
  Ca  Ca0  1  0.99163000  0.32666000  0.36767000  1.0
  Ca  Ca1  1  0.50835000  0.67335000  0.86767000  1.0
  Ca  Ca2  1  0.49164000  0.17335000  0.63233000  1.0
  Ca  Ca3  1  0.00835000  0.82664000  0.13233000  1.0
  H  H4  1  0.90736000  0.32226000  0.55263000  1.0
  H  H5  1  0.59264000  0.67775000  0.05263000  1.0
  H  H6  1  0.40733000  0.17774000  0.44738000  1.0
  H  H7  1  0.09264000  0.82225000  0.94737000  1.0
  H  H8  1  0.24064000  0.31788000  0.54738000  1.0
  H  H9  1  0.25938000  0.68213000  0.04739000  1.0
  H  H10  1  0.74062000  0.18213000  0.45261000  1.0
  H  H11  1  0.75938000  0.81788000  0.95262000  1.0
  H  H12  1  0.45004000  0.26868000  0.25911000  1.0
  H  H13  1  0.04996000  0.73132000  0.75911000  1.0
  H  H14  1  0.95005000  0.23132000  0.74089000  1.0
  H  H15  1  0.54995000  0.76868000  0.24090000  1.0
  H  H16  1  0.43268000  0.36339000  0.24418000  1.0
  H  H17  1  0.06733000  0.63661000  0.74418000  1.0
  H  H18  1  0.93269000  0.13660000  0.75582000  1.0
  H  H19  1  0.56732000  0.86340000  0.25582000  1.0
  H  H20  1  0.46121000  0.42789000  0.40970000  1.0
  H  H21  1  0.03880000  0.57211000  0.90970000  1.0
  H  H22  1  0.96120000  0.07211000  0.59031000  1.0
  H  H23  1  0.53880000  0.92789000  0.09030000  1.0
  H  H24  1  0.56554000  0.37584000  0.48897000  1.0
  H  H25  1  0.93446000  0.62415000  0.98897000  1.0
  H  H26  1  0.06554000  0.12416000  0.51104000  1.0
  H  H27  1  0.43447000  0.87585000  0.01104000  1.0
  H  H28  1  0.46579000  0.08015000  0.10905000  1.0
  H  H29  1  0.03418000  0.91986000  0.60904000  1.0
  H  H30  1  0.96580000  0.41986000  0.89094000  1.0
  H  H31  1  0.53418000  0.58015000  0.39095000  1.0
  H  H32  1  0.37721000  0.16230000  0.17756000  1.0
  H  H33  1  0.12274000  0.83769000  0.67754000  1.0
  H  H34  1  0.87725000  0.33770000  0.82244000  1.0
  H  H35  1  0.62275000  0.66231000  0.32246000  1.0
  H  H36  1  0.54839000  0.96565000  0.36051000  1.0
  H  H37  1  0.95164000  0.03436000  0.86050000  1.0
  H  H38  1  0.04838000  0.53436000  0.63950000  1.0
  H  H39  1  0.45164000  0.46565000  0.13950000  1.0
  H  H40  1  0.46242000  0.04569000  0.43181000  1.0
  H  H41  1  0.03756000  0.95432000  0.93182000  1.0
  H  H42  1  0.96249000  0.45432000  0.56818000  1.0
  H  H43  1  0.53758000  0.54568000  0.06816000  1.0
  H  H44  1  0.53549000  0.22250000  0.04250000  1.0
  H  H45  1  0.96447000  0.77751000  0.54249000  1.0
  H  H46  1  0.03548000  0.27751000  0.95750000  1.0
  H  H47  1  0.46452000  0.72248000  0.45751000  1.0
  H  H48  1  0.85914000  0.16798000  0.05095000  1.0
  H  H49  1  0.64084000  0.83202000  0.55094000  1.0
  H  H50  1  0.35914000  0.33203000  0.94906000  1.0
  H  H51  1  0.14087000  0.66798000  0.44907000  1.0
  H  H52  1  0.77742000  0.24967000  0.12177000  1.0
  H  H53  1  0.72253000  0.75033000  0.62174000  1.0
  H  H54  1  0.27746000  0.25033000  0.87824000  1.0
  H  H55  1  0.22255000  0.74967000  0.37827000  1.0
  H  H56  1  0.34372000  0.90481000  0.49129000  1.0
  H  H57  1  0.15630000  0.09520000  0.99128000  1.0
  H  H58  1  0.84371000  0.59518000  0.50871000  1.0
  H  H59  1  0.65633000  0.40480000  0.00872000  1.0
  H  H60  1  0.12586000  0.88244000  0.40469000  1.0
  H  H61  1  0.37412000  0.11755000  0.90468000  1.0
  H  H62  1  0.62585000  0.61755000  0.59531000  1.0
  H  H63  1  0.87413000  0.38245000  0.09532000  1.0
  H  H64  1  0.03133000  0.96320000  0.47500000  1.0
  H  H65  1  0.46865000  0.03680000  0.97500000  1.0
  H  H66  1  0.53135000  0.53679000  0.52499000  1.0
  H  H67  1  0.96868000  0.46318000  0.02500000  1.0
  C  C68  1  0.04990000  0.11312000  0.33889000  1.0
  C  C69  1  0.45015000  0.88688000  0.83889000  1.0
  C  C70  1  0.54988000  0.38688000  0.66111000  1.0
  C  C71  1  0.95013000  0.61312000  0.16111000  1.0
  C  C72  1  0.83832000  0.14570000  0.27600000  1.0
  C  C73  1  0.66166000  0.85429000  0.77599000  1.0
  C  C74  1  0.33830000  0.35430000  0.72401000  1.0
  C  C75  1  0.16166000  0.64570000  0.22401000  1.0
  C  C76  1  0.75946000  0.09799000  0.20640000  1.0
  C  C77  1  0.74047000  0.90200000  0.70639000  1.0
  C  C78  1  0.25949000  0.40201000  0.79360000  1.0
  C  C79  1  0.24049000  0.59799000  0.29361000  1.0
  C  C80  1  0.10832000  0.52015000  0.30600000  1.0
  C  C81  1  0.39168000  0.47984000  0.80598000  1.0
  C  C82  1  0.60832000  0.97985000  0.69400000  1.0
  C  C83  1  0.89168000  0.02016000  0.19402000  1.0
  C  C84  1  0.88492000  0.48918000  0.24466000  1.0
  C  C85  1  0.61511000  0.51081000  0.74465000  1.0
  C  C86  1  0.38491000  0.01082000  0.75535000  1.0
  C  C87  1  0.11511000  0.98919000  0.25535000  1.0
  C  C88  1  0.18410000  0.03643000  0.32747000  1.0
  C  C89  1  0.31593000  0.96357000  0.82746000  1.0
  C  C90  1  0.68412000  0.46358000  0.67253000  1.0
  C  C91  1  0.81592000  0.53644000  0.17254000  1.0
  C  C92  1  0.55336000  0.13254000  0.14496000  1.0
  C  C93  1  0.94662000  0.86747000  0.64496000  1.0
  C  C94  1  0.05337000  0.36746000  0.85503000  1.0
  C  C95  1  0.44661000  0.63254000  0.35503000  1.0
  C  C96  1  0.37218000  0.99726000  0.39137000  1.0
  C  C97  1  0.12783000  0.00273000  0.89136000  1.0
  C  C98  1  0.87219000  0.50273000  0.60863000  1.0
  C  C99  1  0.62784000  0.49727000  0.10864000  1.0
  C  C100  1  0.68847000  0.19693000  0.08654000  1.0
  C  C101  1  0.81153000  0.80308000  0.58654000  1.0
  C  C102  1  0.18847000  0.30308000  0.91346000  1.0
  C  C103  1  0.31154000  0.69692000  0.41347000  1.0
  C  C104  1  0.20952000  0.93316000  0.44368000  1.0
  C  C105  1  0.29045000  0.06684000  0.94367000  1.0
  C  C106  1  0.70954000  0.56684000  0.55632000  1.0
  C  C107  1  0.79047000  0.43315000  0.05633000  1.0
  O  O108  1  0.06782000  0.31344000  0.51441000  1.0
  O  O109  1  0.43217000  0.68655000  0.01441000  1.0
  O  O110  1  0.56781000  0.18655000  0.48559000  1.0
  O  O111  1  0.93218000  0.81346000  0.98559000  1.0
  O  O112  1  0.30872000  0.31472000  0.25388000  1.0
  O  O113  1  0.19128000  0.68529000  0.75388000  1.0
  O  O114  1  0.80872000  0.18527000  0.74611000  1.0
  O  O115  1  0.69128000  0.81472000  0.24612000  1.0
  O  O116  1  0.56875000  0.37774000  0.42790000  1.0
  O  O117  1  0.93124000  0.62226000  0.92790000  1.0
  O  O118  1  0.06874000  0.12227000  0.57210000  1.0
  O  O119  1  0.43124000  0.87774000  0.07210000  1.0
  O  O120  1  0.08529000  0.16258000  0.40268000  1.0
  O  O121  1  0.41473000  0.83742000  0.90267000  1.0
  O  O122  1  0.58526000  0.33743000  0.59733000  1.0
  O  O123  1  0.91470000  0.66257000  0.09733000  1.0
  O  O124  1  0.73691000  0.21840000  0.29249000  1.0
  O  O125  1  0.76314000  0.78160000  0.79249000  1.0
  O  O126  1  0.23686000  0.28159000  0.70751000  1.0
  O  O127  1  0.26308000  0.71840000  0.20751000  1.0
  O  O128  1  0.15909000  0.47049000  0.36661000  1.0
  O  O129  1  0.34093000  0.52950000  0.86660000  1.0
  O  O130  1  0.65906000  0.02951000  0.63339000  1.0
  O  O131  1  0.84094000  0.97050000  0.13340000  1.0
  O  O132  1  0.77394000  0.41882000  0.26136000  1.0
  O  O133  1  0.72611000  0.58116000  0.76136000  1.0
  O  O134  1  0.27394000  0.08117000  0.73864000  1.0
  O  O135  1  0.22611000  0.91885000  0.23865000  1.0
