# generated using pymatgen
data_Yb2PH13C11NO16
_symmetry_space_group_name_H-M   'P 1'
_cell_length_a   9.70281000
_cell_length_b   10.24260000
_cell_length_c   11.05120000
_cell_angle_alpha   96.08180000
_cell_angle_beta   91.59850000
_cell_angle_gamma   107.34800000
_symmetry_Int_Tables_number   1
_chemical_formula_structural   Yb2PH13C11NO16
_chemical_formula_sum   'Yb4 P2 H26 C22 N2 O32'
_cell_volume   1040.38086565
_cell_formula_units_Z   2
loop_
 _symmetry_equiv_pos_site_id
 _symmetry_equiv_pos_as_xyz
  1  'x, y, z'
loop_
 _atom_site_type_symbol
 _atom_site_label
 _atom_site_symmetry_multiplicity
 _atom_site_fract_x
 _atom_site_fract_y
 _atom_site_fract_z
 _atom_site_occupancy
  Yb  Yb0  1  0.17538000  0.37894000  0.05137000  1.0
  Yb  Yb1  1  0.82462000  0.62105000  0.94862000  1.0
  Yb  Yb2  1  0.37811000  0.93627000  0.24325000  1.0
  Yb  Yb3  1  0.62190000  0.06372000  0.75675000  1.0
  P  P4  1  0.06488000  0.63567000  0.20949000  1.0
  P  P5  1  0.93512000  0.36433000  0.79051000  1.0
  H  H6  1  0.90993000  0.20180000  0.16720000  1.0
  H  H7  1  0.09007000  0.79821000  0.83280000  1.0
  H  H8  1  0.87959000  0.14835000  0.02482000  1.0
  H  H9  1  0.12042000  0.85164000  0.97518000  1.0
  H  H10  1  0.15692000  0.64270000  0.94247000  1.0
  H  H11  1  0.84309000  0.35731000  0.05754000  1.0
  H  H12  1  0.31243000  0.67792000  0.00171000  1.0
  H  H13  1  0.68757000  0.32207000  0.99830000  1.0
  H  H14  1  0.46222000  0.68296000  0.23296000  1.0
  H  H15  1  0.53777000  0.31704000  0.76705000  1.0
  H  H16  1  0.60725000  0.79896000  0.26133000  1.0
  H  H17  1  0.39274000  0.20104000  0.73867000  1.0
  H  H18  1  0.78380000  0.48899000  0.20717000  1.0
  H  H19  1  0.21619000  0.51102000  0.79283000  1.0
  H  H20  1  0.57080000  0.32804000  0.23748000  1.0
  H  H21  1  0.42918000  0.67197000  0.76252000  1.0
  H  H22  1  0.48922000  0.30149000  0.45001000  1.0
  H  H23  1  0.51077000  0.69851000  0.54999000  1.0
  H  H24  1  0.65735000  0.44967000  0.62605000  1.0
  H  H25  1  0.34265000  0.55033000  0.37395000  1.0
  H  H26  1  0.88926000  0.61229000  0.58309000  1.0
  H  H27  1  0.11074000  0.38770000  0.41691000  1.0
  H  H28  1  0.07705000  0.67610000  0.42961000  1.0
  H  H29  1  0.92295000  0.32391000  0.57039000  1.0
  H  H30  1  0.97618000  0.76608000  0.35910000  1.0
  H  H31  1  0.02381000  0.23391000  0.64089000  1.0
  C  C32  1  0.63318000  0.39050000  0.31788000  1.0
  C  C33  1  0.36681000  0.60950000  0.68212000  1.0
  C  C34  1  0.59195000  0.37616000  0.43568000  1.0
  C  C35  1  0.40805000  0.62384000  0.56432000  1.0
  C  C36  1  0.68532000  0.45726000  0.53186000  1.0
  C  C37  1  0.31467000  0.54274000  0.46814000  1.0
  C  C38  1  0.81677000  0.54935000  0.50787000  1.0
  C  C39  1  0.18322000  0.45065000  0.49213000  1.0
  C  C40  1  0.85490000  0.56310000  0.38809000  1.0
  C  C41  1  0.14510000  0.43690000  0.61191000  1.0
  C  C42  1  0.99214000  0.66369000  0.35770000  1.0
  C  C43  1  0.00786000  0.33631000  0.64230000  1.0
  C  C44  1  0.24837000  0.17652000  0.21881000  1.0
  C  C45  1  0.75164000  0.82347000  0.78119000  1.0
  C  C46  1  0.20667000  0.09105000  0.09170000  1.0
  C  C47  1  0.79333000  0.90895000  0.90829000  1.0
  C  C48  1  0.48424000  0.45569000  0.93728000  1.0
  C  C49  1  0.51576000  0.54431000  0.06272000  1.0
  C  C50  1  0.47601000  0.92232000  0.97640000  1.0
  C  C51  1  0.52401000  0.07768000  0.02361000  1.0
  C  C52  1  0.57451000  0.04149000  0.47839000  1.0
  C  C53  1  0.42552000  0.95851000  0.52161000  1.0
  N  N54  1  0.76023000  0.48250000  0.29775000  1.0
  N  N55  1  0.23976000  0.51750000  0.70224000  1.0
  O  O56  1  0.07798000  0.48931000  0.18969000  1.0
  O  O57  1  0.92203000  0.51070000  0.81030000  1.0
  O  O58  1  0.21118000  0.74474000  0.21760000  1.0
  O  O59  1  0.78882000  0.25526000  0.78240000  1.0
  O  O60  1  0.95547000  0.65590000  0.11640000  1.0
  O  O61  1  0.04453000  0.34410000  0.88360000  1.0
  O  O62  1  0.17193000  0.14958000  0.00647000  1.0
  O  O63  1  0.82808000  0.85042000  0.99352000  1.0
  O  O64  1  0.23071000  0.29466000  0.22812000  1.0
  O  O65  1  0.76929000  0.70533000  0.77187000  1.0
  O  O66  1  0.21349000  0.96820000  0.08487000  1.0
  O  O67  1  0.78652000  0.03179000  0.91512000  1.0
  O  O68  1  0.29693000  0.12269000  0.30170000  1.0
  O  O69  1  0.70306000  0.87730000  0.69830000  1.0
  O  O70  1  0.35751000  0.37623000  0.91245000  1.0
  O  O71  1  0.64249000  0.62377000  0.08756000  1.0
  O  O72  1  0.59046000  0.47047000  0.86914000  1.0
  O  O73  1  0.40954000  0.52953000  0.13087000  1.0
  O  O74  1  0.43363000  0.83999000  0.05541000  1.0
  O  O75  1  0.56639000  0.16001000  0.94460000  1.0
  O  O76  1  0.48291000  0.88930000  0.86421000  1.0
  O  O77  1  0.51710000  0.11070000  0.13580000  1.0
  O  O78  1  0.58141000  0.05207000  0.36532000  1.0
  O  O79  1  0.41861000  0.94793000  0.63468000  1.0
  O  O80  1  0.67635000  0.09291000  0.55932000  1.0
  O  O81  1  0.32368000  0.90710000  0.44068000  1.0
  O  O82  1  0.92982000  0.23018000  0.08666000  1.0
  O  O83  1  0.07018000  0.76981000  0.91334000  1.0
  O  O84  1  0.23159000  0.59828000  0.96229000  1.0
  O  O85  1  0.76841000  0.40172000  0.03771000  1.0
  O  O86  1  0.50699000  0.77324000  0.28357000  1.0
  O  O87  1  0.49301000  0.22675000  0.71644000  1.0
