# generated using pymatgen
data_LaH6C5O9
_symmetry_space_group_name_H-M   'P 1'
_cell_length_a   6.18913000
_cell_length_b   7.39370000
_cell_length_c   22.96680000
_cell_angle_alpha   90.00000000
_cell_angle_beta   91.10960000
_cell_angle_gamma   89.99970000
_symmetry_Int_Tables_number   1
_chemical_formula_structural   LaH6C5O9
_chemical_formula_sum   'La4 H24 C20 O36'
_cell_volume   1050.77679309
_cell_formula_units_Z   4
loop_
 _symmetry_equiv_pos_site_id
 _symmetry_equiv_pos_as_xyz
  1  'x, y, z'
loop_
 _atom_site_type_symbol
 _atom_site_label
 _atom_site_symmetry_multiplicity
 _atom_site_fract_x
 _atom_site_fract_y
 _atom_site_fract_z
 _atom_site_occupancy
  La  La0  1  0.56331000  0.48680000  0.86000000  1.0
  La  La1  1  0.43669000  0.98680000  0.64000000  1.0
  La  La2  1  0.43668000  0.51321000  0.14000000  1.0
  La  La3  1  0.56332000  0.01319000  0.36000000  1.0
  H  H4  1  0.68777000  0.24502000  0.75493000  1.0
  H  H5  1  0.51789000  0.42761000  0.62580000  1.0
  H  H6  1  0.00974000  0.35872000  0.86609000  1.0
  H  H7  1  0.96260000  0.29350000  0.92824000  1.0
  H  H8  1  0.95721000  0.53978000  0.71950000  1.0
  H  H9  1  0.88834000  0.45753000  0.62413000  1.0
  H  H10  1  0.31223000  0.74501000  0.74508000  1.0
  H  H11  1  0.48211000  0.92761000  0.87420000  1.0
  H  H12  1  0.99027000  0.85872000  0.63392000  1.0
  H  H13  1  0.03739000  0.79351000  0.57177000  1.0
  H  H14  1  0.04278000  0.03977000  0.78050000  1.0
  H  H15  1  0.11166000  0.95753000  0.87588000  1.0
  H  H16  1  0.31223000  0.75498000  0.24507000  1.0
  H  H17  1  0.48213000  0.57239000  0.37420000  1.0
  H  H18  1  0.99025000  0.64129000  0.13391000  1.0
  H  H19  1  0.03738000  0.70652000  0.07176000  1.0
  H  H20  1  0.04279000  0.46022000  0.28050000  1.0
  H  H21  1  0.11168000  0.54246000  0.37588000  1.0
  H  H22  1  0.68778000  0.25499000  0.25492000  1.0
  H  H23  1  0.51788000  0.07240000  0.12580000  1.0
  H  H24  1  0.00975000  0.14128000  0.36609000  1.0
  H  H25  1  0.96259000  0.20650000  0.42824000  1.0
  H  H26  1  0.95721000  0.96023000  0.21950000  1.0
  H  H27  1  0.88833000  0.04248000  0.12412000  1.0
  C  C28  1  0.61817000  0.59413000  0.71344000  1.0
  C  C29  1  0.80712000  0.46049000  0.71494000  1.0
  C  C30  1  0.81132000  0.36462000  0.65484000  1.0
  C  C31  1  0.94248000  0.19039000  0.65831000  1.0
  C  C32  1  0.40194000  0.43348000  0.99733000  1.0
  C  C33  1  0.38182000  0.09413000  0.78656000  1.0
  C  C34  1  0.19288000  0.96049000  0.78506000  1.0
  C  C35  1  0.18868000  0.86462000  0.84516000  1.0
  C  C36  1  0.05752000  0.69039000  0.84169000  1.0
  C  C37  1  0.59806000  0.93347000  0.50268000  1.0
  C  C38  1  0.38183000  0.40586000  0.28655000  1.0
  C  C39  1  0.19289000  0.53950000  0.28506000  1.0
  C  C40  1  0.18869000  0.63538000  0.34516000  1.0
  C  C41  1  0.05753000  0.80960000  0.34169000  1.0
  C  C42  1  0.59806000  0.56653000  0.00268000  1.0
  C  C43  1  0.61817000  0.90586000  0.21344000  1.0
  C  C44  1  0.80711000  0.03951000  0.21493000  1.0
  C  C45  1  0.81131000  0.13539000  0.15484000  1.0
  C  C46  1  0.94247000  0.30962000  0.15831000  1.0
  C  C47  1  0.40194000  0.06652000  0.49733000  1.0
  O  O48  1  0.49522000  0.59894000  0.75715000  1.0
  O  O49  1  0.59028000  0.68838000  0.66787000  1.0
  O  O50  1  0.79660000  0.34392000  0.76401000  1.0
  O  O51  1  0.59896000  0.31624000  0.63334000  1.0
  O  O52  1  0.83827000  0.04161000  0.65712000  1.0
  O  O53  1  0.14504000  0.20602000  0.66239000  1.0
  O  O54  1  0.35643000  0.37372000  0.94686000  1.0
  O  O55  1  0.30386000  0.39631000  0.04368000  1.0
  O  O56  1  0.89991000  0.29071000  0.88890000  1.0
  O  O57  1  0.50476000  0.09897000  0.74285000  1.0
  O  O58  1  0.40971000  0.18838000  0.83213000  1.0
  O  O59  1  0.20341000  0.84392000  0.73599000  1.0
  O  O60  1  0.40104000  0.81625000  0.86666000  1.0
  O  O61  1  0.16173000  0.54160000  0.84289000  1.0
  O  O62  1  0.85496000  0.70602000  0.83760000  1.0
  O  O63  1  0.64358000  0.87373000  0.55313000  1.0
  O  O64  1  0.69615000  0.89629000  0.45631000  1.0
  O  O65  1  0.10009000  0.79071000  0.61110000  1.0
  O  O66  1  0.50478000  0.40105000  0.24285000  1.0
  O  O67  1  0.40972000  0.31160000  0.33213000  1.0
  O  O68  1  0.20341000  0.65608000  0.23599000  1.0
  O  O69  1  0.40106000  0.68375000  0.36666000  1.0
  O  O70  1  0.16174000  0.95839000  0.34289000  1.0
  O  O71  1  0.85497000  0.79398000  0.33761000  1.0
  O  O72  1  0.64358000  0.62627000  0.05313000  1.0
  O  O73  1  0.69615000  0.60370000  0.95631000  1.0
  O  O74  1  0.10008000  0.70930000  0.11110000  1.0
  O  O75  1  0.49524000  0.90103000  0.25715000  1.0
  O  O76  1  0.59027000  0.81163000  0.16786000  1.0
  O  O77  1  0.79659000  0.15608000  0.26401000  1.0
  O  O78  1  0.59894000  0.18376000  0.13334000  1.0
  O  O79  1  0.83826000  0.45841000  0.15711000  1.0
  O  O80  1  0.14503000  0.29399000  0.16239000  1.0
  O  O81  1  0.35643000  0.12627000  0.44686000  1.0
  O  O82  1  0.30387000  0.10369000  0.54368000  1.0
  O  O83  1  0.89991000  0.20929000  0.38890000  1.0
