# generated using pymatgen
data_MnH12C16(N5O)2
_symmetry_space_group_name_H-M   'P 1'
_cell_length_a   6.85443000
_cell_length_b   7.07172000
_cell_length_c   9.43877000
_cell_angle_alpha   107.50400000
_cell_angle_beta   100.64700000
_cell_angle_gamma   93.34950000
_symmetry_Int_Tables_number   1
_chemical_formula_structural   MnH12C16(N5O)2
_chemical_formula_sum   'Mn1 H12 C16 N10 O2'
_cell_volume   425.64123364
_cell_formula_units_Z   1
loop_
 _symmetry_equiv_pos_site_id
 _symmetry_equiv_pos_as_xyz
  1  'x, y, z'
loop_
 _atom_site_type_symbol
 _atom_site_label
 _atom_site_symmetry_multiplicity
 _atom_site_fract_x
 _atom_site_fract_y
 _atom_site_fract_z
 _atom_site_occupancy
  Mn  Mn0  1  0.98936000  0.99497000  0.98984000  1.0
  H  H1  1  0.53100000  0.42750000  0.76254000  1.0
  H  H2  1  0.47124000  0.57345000  0.23950000  1.0
  H  H3  1  0.78919000  0.48163000  0.82727000  1.0
  H  H4  1  0.21283000  0.52179000  0.17501000  1.0
  H  H5  1  0.44995000  0.98996000  0.09281000  1.0
  H  H6  1  0.55100000  0.00716000  0.91015000  1.0
  H  H7  1  0.73114000  0.11571000  0.32097000  1.0
  H  H8  1  0.27276000  0.88554000  0.68226000  1.0
  H  H9  1  0.28782000  0.31861000  0.58658000  1.0
  H  H10  1  0.71696000  0.68598000  0.41672000  1.0
  H  H11  1  0.03248000  0.18958000  0.35296000  1.0
  H  H12  1  0.97096000  0.81384000  0.64925000  1.0
  C  C13  1  0.79304000  0.37587000  0.11129000  1.0
  C  C14  1  0.20153000  0.62066000  0.88385000  1.0
  C  C15  1  0.78518000  0.68900000  0.10827000  1.0
  C  C16  1  0.20825000  0.30730000  0.88606000  1.0
  C  C17  1  0.42238000  0.06536000  0.20467000  1.0
  C  C18  1  0.57989000  0.93397000  0.79851000  1.0
  C  C19  1  0.57772000  0.13469000  0.33134000  1.0
  C  C20  1  0.42592000  0.86621000  0.67140000  1.0
  C  C21  1  0.53603000  0.23147000  0.47321000  1.0
  C  C22  1  0.46713000  0.77034000  0.52915000  1.0
  C  C23  1  0.33575000  0.24818000  0.48126000  1.0
  C  C24  1  0.66788000  0.75465000  0.52190000  1.0
  C  C25  1  0.18824000  0.17444000  0.34856000  1.0
  C  C26  1  0.81530000  0.82762000  0.65429000  1.0
  C  C27  1  0.71178000  0.31545000  0.60510000  1.0
  C  C28  1  0.29138000  0.68716000  0.39747000  1.0
  N  N29  1  0.71263000  0.54156000  0.14781000  1.0
  N  N30  1  0.28792000  0.45806000  0.85375000  1.0
  N  N31  1  0.85949000  0.22225000  0.07787000  1.0
  N  N32  1  0.12946000  0.77153000  0.91142000  1.0
  N  N33  1  0.84414000  0.82216000  0.07047000  1.0
  N  N34  1  0.14253000  0.17087000  0.91710000  1.0
  N  N35  1  0.23054000  0.08715000  0.21215000  1.0
  N  N36  1  0.77356000  0.91282000  0.79235000  1.0
  N  N37  1  0.67113000  0.41107000  0.74148000  1.0
  N  N38  1  0.33135000  0.59073000  0.26088000  1.0
  O  O39  1  0.88524000  0.29928000  0.58565000  1.0
  O  O40  1  0.11796000  0.70442000  0.41690000  1.0
