# generated using pymatgen
data_ZnH10C14O5
_symmetry_space_group_name_H-M   'P 1'
_cell_length_a   5.52759000
_cell_length_b   13.59040000
_cell_length_c   15.99000000
_cell_angle_alpha   89.99980000
_cell_angle_beta   89.99980000
_cell_angle_gamma   81.83590000
_symmetry_Int_Tables_number   1
_chemical_formula_structural   ZnH10C14O5
_chemical_formula_sum   'Zn4 H40 C56 O20'
_cell_volume   1189.02961426
_cell_formula_units_Z   4
loop_
 _symmetry_equiv_pos_site_id
 _symmetry_equiv_pos_as_xyz
  1  'x, y, z'
loop_
 _atom_site_type_symbol
 _atom_site_label
 _atom_site_symmetry_multiplicity
 _atom_site_fract_x
 _atom_site_fract_y
 _atom_site_fract_z
 _atom_site_occupancy
  Zn  Zn0  1  0.93490000  0.88812000  0.07987000  1.0
  Zn  Zn1  1  0.56512000  0.11187000  0.57988000  1.0
  Zn  Zn2  1  0.06510000  0.11189000  0.92012000  1.0
  Zn  Zn3  1  0.43491000  0.88813000  0.42012000  1.0
  H  H4  1  0.32838000  0.86538000  0.16703000  1.0
  H  H5  1  0.17163000  0.13461000  0.66704000  1.0
  H  H6  1  0.67161000  0.13462000  0.83297000  1.0
  H  H7  1  0.82839000  0.86538000  0.33296000  1.0
  H  H8  1  0.11677000  0.86797000  0.23169000  1.0
  H  H9  1  0.38323000  0.13202000  0.73170000  1.0
  H  H10  1  0.88322000  0.13202000  0.76830000  1.0
  H  H11  1  0.61678000  0.86798000  0.26830000  1.0
  H  H12  1  0.30468000  0.67746000  0.20403000  1.0
  H  H13  1  0.19533000  0.32252000  0.70403000  1.0
  H  H14  1  0.69534000  0.32254000  0.79597000  1.0
  H  H15  1  0.80468000  0.67747000  0.29597000  1.0
  H  H16  1  0.17417000  0.51272000  0.20577000  1.0
  H  H17  1  0.32582000  0.48727000  0.70578000  1.0
  H  H18  1  0.82584000  0.48728000  0.79423000  1.0
  H  H19  1  0.67418000  0.51273000  0.29423000  1.0
  H  H20  1  0.77844000  0.40323000  0.04336000  1.0
  H  H21  1  0.72156000  0.59677000  0.54336000  1.0
  H  H22  1  0.22155000  0.59677000  0.95664000  1.0
  H  H23  1  0.27846000  0.40323000  0.45664000  1.0
  H  H24  1  0.90666000  0.56909000  0.04346000  1.0
  H  H25  1  0.59335000  0.43090000  0.54346000  1.0
  H  H26  1  0.09334000  0.43091000  0.95654000  1.0
  H  H27  1  0.40667000  0.56910000  0.45654000  1.0
  H  H28  1  0.05309000  0.38152000  0.19568000  1.0
  H  H29  1  0.44691000  0.61847000  0.69569000  1.0
  H  H30  1  0.94689000  0.61849000  0.80432000  1.0
  H  H31  1  0.55308000  0.38153000  0.30432000  1.0
  H  H32  1  0.95958000  0.21144000  0.20623000  1.0
  H  H33  1  0.54044000  0.78854000  0.70623000  1.0
  H  H34  1  0.04041000  0.78856000  0.79376000  1.0
  H  H35  1  0.45956000  0.21145000  0.29378000  1.0
  H  H36  1  0.24521000  0.06904000  0.14775000  1.0
  H  H37  1  0.25482000  0.93095000  0.64774000  1.0
  H  H38  1  0.75478000  0.93097000  0.85224000  1.0
  H  H39  1  0.74519000  0.06904000  0.35226000  1.0
  H  H40  1  0.70852000  0.27235000  0.05699000  1.0
  H  H41  1  0.79148000  0.72764000  0.55700000  1.0
  H  H42  1  0.29147000  0.72766000  0.94300000  1.0
  H  H43  1  0.20851000  0.27235000  0.44301000  1.0
  C  C44  1  0.69726000  0.73404000  0.12474000  1.0
  C  C45  1  0.80277000  0.26594000  0.62474000  1.0
  C  C46  1  0.30274000  0.26597000  0.87526000  1.0
  C  C47  1  0.19725000  0.73405000  0.37526000  1.0
  C  C48  1  0.61579000  0.63442000  0.12399000  1.0
  C  C49  1  0.88423000  0.36557000  0.62399000  1.0
  C  C50  1  0.38421000  0.36559000  0.87601000  1.0
  C  C51  1  0.11579000  0.63442000  0.37601000  1.0
  C  C52  1  0.40824000  0.61696000  0.16891000  1.0
  C  C53  1  0.09177000  0.38303000  0.66891000  1.0
  C  C54  1  0.59176000  0.38304000  0.83109000  1.0
  C  C55  1  0.90824000  0.61696000  0.33110000  1.0
  C  C56  1  0.33492000  0.52316000  0.16936000  1.0
  C  C57  1  0.16508000  0.47683000  0.66936000  1.0
  C  C58  1  0.66507000  0.47684000  0.83064000  1.0
  C  C59  1  0.83493000  0.52317000  0.33065000  1.0
  C  C60  1  0.46582000  0.44316000  0.12499000  1.0
  C  C61  1  0.03419000  0.55682000  0.62499000  1.0
  C  C62  1  0.53417000  0.55684000  0.87501000  1.0
  C  C63  1  0.96582000  0.44317000  0.37501000  1.0
  C  C64  1  0.67329000  0.46216000  0.07972000  1.0
  C  C65  1  0.82672000  0.53783000  0.57973000  1.0
  C  C66  1  0.32669000  0.53784000  0.92027000  1.0
  C  C67  1  0.17331000  0.46216000  0.42028000  1.0
  C  C68  1  0.74667000  0.55565000  0.07901000  1.0
  C  C69  1  0.75334000  0.44434000  0.57902000  1.0
  C  C70  1  0.25332000  0.44435000  0.92099000  1.0
  C  C71  1  0.24668000  0.55565000  0.42099000  1.0
  C  C72  1  0.39281000  0.34239000  0.12689000  1.0
  C  C73  1  0.10720000  0.65760000  0.62690000  1.0
  C  C74  1  0.60717000  0.65762000  0.87310000  1.0
  C  C75  1  0.89281000  0.34239000  0.37311000  1.0
  C  C76  1  0.17905000  0.32185000  0.16745000  1.0
  C  C77  1  0.32097000  0.67814000  0.66745000  1.0
  C  C78  1  0.82093000  0.67816000  0.83255000  1.0
  C  C79  1  0.67904000  0.32186000  0.33256000  1.0
  C  C80  1  0.12458000  0.22489000  0.17349000  1.0
  C  C81  1  0.37544000  0.77509000  0.67349000  1.0
  C  C82  1  0.87541000  0.77511000  0.82650000  1.0
  C  C83  1  0.62456000  0.22491000  0.32652000  1.0
  C  C84  1  0.28176000  0.14522000  0.14010000  1.0
  C  C85  1  0.21826000  0.85477000  0.64010000  1.0
  C  C86  1  0.71823000  0.85478000  0.85989000  1.0
  C  C87  1  0.78174000  0.14523000  0.35991000  1.0
  C  C88  1  0.49059000  0.16473000  0.09714000  1.0
  C  C89  1  0.00941000  0.83526000  0.59714000  1.0
  C  C90  1  0.50939000  0.83528000  0.90285000  1.0
  C  C91  1  0.99058000  0.16473000  0.40286000  1.0
  C  C92  1  0.54231000  0.26202000  0.09012000  1.0
  C  C93  1  0.95770000  0.73797000  0.59012000  1.0
  C  C94  1  0.45767000  0.73799000  0.90987000  1.0
  C  C95  1  0.04230000  0.26203000  0.40989000  1.0
  C  C96  1  0.67150000  0.08361000  0.06147000  1.0
  C  C97  1  0.82849000  0.91638000  0.56147000  1.0
  C  C98  1  0.32847000  0.91640000  0.93853000  1.0
  C  C99  1  0.17151000  0.08361000  0.43854000  1.0
  O  O100  1  0.86790000  0.74928000  0.07375000  1.0
  O  O101  1  0.63212000  0.25072000  0.57375000  1.0
  O  O102  1  0.13210000  0.25073000  0.92624000  1.0
  O  O103  1  0.36790000  0.74928000  0.42625000  1.0
  O  O104  1  0.59900000  0.80083000  0.17513000  1.0
  O  O105  1  0.90101000  0.19915000  0.67513000  1.0
  O  O106  1  0.40101000  0.19917000  0.82487000  1.0
  O  O107  1  0.09900000  0.80084000  0.32487000  1.0
  O  O108  1  0.82716000  0.10813000  0.01040000  1.0
  O  O109  1  0.67285000  0.89186000  0.51039000  1.0
  O  O110  1  0.17284000  0.89188000  0.98960000  1.0
  O  O111  1  0.32710000  0.10813000  0.48962000  1.0
  O  O112  1  0.66156000  0.99496000  0.08736000  1.0
  O  O113  1  0.83843000  0.00502000  0.58737000  1.0
  O  O114  1  0.33840000  0.00504000  0.91261000  1.0
  O  O115  1  0.16160000  0.99497000  0.41261000  1.0
  O  O116  1  0.15788000  0.89911000  0.17844000  1.0
  O  O117  1  0.34214000  0.10088000  0.67845000  1.0
  O  O118  1  0.84211000  0.10089000  0.82156000  1.0
  O  O119  1  0.65788000  0.89911000  0.32156000  1.0
