# generated using pymatgen
data_AgH4C7NO4
_symmetry_space_group_name_H-M   'P 1'
_cell_length_a   3.60648000
_cell_length_b   8.42255000
_cell_length_c   23.53550000
_cell_angle_alpha   89.99990000
_cell_angle_beta   90.00050000
_cell_angle_gamma   89.99990000
_symmetry_Int_Tables_number   1
_chemical_formula_structural   AgH4C7NO4
_chemical_formula_sum   'Ag4 H16 C28 N4 O16'
_cell_volume   714.90865530
_cell_formula_units_Z   4
loop_
 _symmetry_equiv_pos_site_id
 _symmetry_equiv_pos_as_xyz
  1  'x, y, z'
loop_
 _atom_site_type_symbol
 _atom_site_label
 _atom_site_symmetry_multiplicity
 _atom_site_fract_x
 _atom_site_fract_y
 _atom_site_fract_z
 _atom_site_occupancy
  Ag  Ag0  1  0.11204000  0.85003000  0.77720000  1.0
  Ag  Ag1  1  0.38797000  0.14997000  0.27719000  1.0
  Ag  Ag2  1  0.88795000  0.35003000  0.72281000  1.0
  Ag  Ag3  1  0.61203000  0.64997000  0.22281000  1.0
  H  H4  1  0.61821000  0.30229000  0.91396000  1.0
  H  H5  1  0.88179000  0.69771000  0.41396000  1.0
  H  H6  1  0.38177000  0.80229000  0.58605000  1.0
  H  H7  1  0.11821000  0.19771000  0.08604000  1.0
  H  H8  1  0.81302000  0.12652000  0.99649000  1.0
  H  H9  1  0.68698000  0.87348000  0.49649000  1.0
  H  H10  1  0.18696000  0.62652000  0.50351000  1.0
  H  H11  1  0.31302000  0.37348000  0.00351000  1.0
  H  H12  1  0.75832000  0.83400000  0.98572000  1.0
  H  H13  1  0.74171000  0.16600000  0.48572000  1.0
  H  H14  1  0.24168000  0.33400000  0.51428000  1.0
  H  H15  1  0.25829000  0.66601000  0.01428000  1.0
  H  H16  1  0.37474000  0.50774000  0.83915000  1.0
  H  H17  1  0.12529000  0.49226000  0.33915000  1.0
  H  H18  1  0.62527000  0.00774000  0.66085000  1.0
  H  H19  1  0.87470000  0.99226000  0.16085000  1.0
  C  C20  1  0.30951000  0.20270000  0.81482000  1.0
  C  C21  1  0.19047000  0.79730000  0.31482000  1.0
  C  C22  1  0.69048000  0.70270000  0.68518000  1.0
  C  C23  1  0.80952000  0.29730000  0.18518000  1.0
  C  C24  1  0.43771000  0.10163000  0.86401000  1.0
  C  C25  1  0.06229000  0.89837000  0.36401000  1.0
  C  C26  1  0.56229000  0.60163000  0.63599000  1.0
  C  C27  1  0.93770000  0.39837000  0.13599000  1.0
  C  C28  1  0.58946000  0.17328000  0.91251000  1.0
  C  C29  1  0.91054000  0.82672000  0.41251000  1.0
  C  C30  1  0.41053000  0.67328000  0.58749000  1.0
  C  C31  1  0.08946000  0.32672000  0.08749000  1.0
  C  C32  1  0.69850000  0.07684000  0.95755000  1.0
  C  C33  1  0.80150000  0.92316000  0.45755000  1.0
  C  C34  1  0.30148000  0.57684000  0.54245000  1.0
  C  C35  1  0.19851000  0.42316000  0.04245000  1.0
  C  C36  1  0.66654000  0.91281000  0.95204000  1.0
  C  C37  1  0.83348000  0.08719000  0.45204000  1.0
  C  C38  1  0.33346000  0.41281000  0.54796000  1.0
  C  C39  1  0.16652000  0.58719000  0.04796000  1.0
  C  C40  1  0.52035000  0.85023000  0.90189000  1.0
  C  C41  1  0.97967000  0.14977000  0.40189000  1.0
  C  C42  1  0.47966000  0.35023000  0.59810000  1.0
  C  C43  1  0.02032000  0.64977000  0.09811000  1.0
  C  C44  1  0.50918000  0.67251000  0.89468000  1.0
  C  C45  1  0.99090000  0.32749000  0.39468000  1.0
  C  C46  1  0.49087000  0.17251000  0.60532000  1.0
  C  C47  1  0.00910000  0.82749000  0.10532000  1.0
  N  N48  1  0.40114000  0.94344000  0.85907000  1.0
  N  N49  1  0.09886000  0.05656000  0.35907000  1.0
  N  N50  1  0.59887000  0.44344000  0.64093000  1.0
  N  N51  1  0.90112000  0.55656000  0.14093000  1.0
  O  O52  1  0.41975000  0.34573000  0.81309000  1.0
  O  O53  1  0.08022000  0.65426000  0.31309000  1.0
  O  O54  1  0.58025000  0.84574000  0.68691000  1.0
  O  O55  1  0.91977000  0.15427000  0.18691000  1.0
  O  O56  1  0.34922000  0.62713000  0.84684000  1.0
  O  O57  1  0.15081000  0.37287000  0.34683000  1.0
  O  O58  1  0.65079000  0.12713000  0.65317000  1.0
  O  O59  1  0.84917000  0.87287000  0.15317000  1.0
  O  O60  1  0.64393000  0.58259000  0.93049000  1.0
  O  O61  1  0.85621000  0.41741000  0.43049000  1.0
  O  O62  1  0.35618000  0.08259000  0.56951000  1.0
  O  O63  1  0.14379000  0.91742000  0.06951000  1.0
  O  O64  1  0.10142000  0.14060000  0.77737000  1.0
  O  O65  1  0.39857000  0.85939000  0.27737000  1.0
  O  O66  1  0.89858000  0.64060000  0.72263000  1.0
  O  O67  1  0.60142000  0.35940000  0.22263000  1.0
