# generated using pymatgen
data_AlH13C18N2O7F2
_symmetry_space_group_name_H-M   'P 1'
_cell_length_a   6.66157000
_cell_length_b   23.17910000
_cell_length_c   26.10550000
_cell_angle_alpha   79.26400000
_cell_angle_beta   89.97830000
_cell_angle_gamma   89.85790000
_symmetry_Int_Tables_number   1
_chemical_formula_structural   AlH13C18N2O7F2
_chemical_formula_sum   'Al4 H52 C72 N8 O28 F8'
_cell_volume   3960.35949405
_cell_formula_units_Z   4
loop_
 _symmetry_equiv_pos_site_id
 _symmetry_equiv_pos_as_xyz
  1  'x, y, z'
loop_
 _atom_site_type_symbol
 _atom_site_label
 _atom_site_symmetry_multiplicity
 _atom_site_fract_x
 _atom_site_fract_y
 _atom_site_fract_z
 _atom_site_occupancy
  Al  Al0  1  0.23592000  0.75097000  0.74900000  1.0
  Al  Al1  1  0.75073000  0.24957000  0.24973000  1.0
  Al  Al2  1  0.73547000  0.74884000  0.75021000  1.0
  Al  Al3  1  0.25107000  0.25118000  0.24900000  1.0
  H  H4  1  0.32012000  0.05145000  0.47538000  1.0
  H  H5  1  0.67096000  0.94883000  0.52432000  1.0
  H  H6  1  0.82125000  0.47861000  0.04621000  1.0
  H  H7  1  0.16820000  0.52084000  0.95276000  1.0
  H  H8  1  0.80352000  0.13559000  0.02742000  1.0
  H  H9  1  0.29010000  0.89206000  0.94820000  1.0
  H  H10  1  0.29825000  0.36635000  0.47064000  1.0
  H  H11  1  0.79118000  0.60589000  0.55335000  1.0
  H  H12  1  0.19565000  0.97940000  0.62793000  1.0
  H  H13  1  0.38044000  0.03376000  0.60405000  1.0
  H  H14  1  0.65122000  0.95647000  0.62550000  1.0
  H  H15  1  0.50721000  0.96190000  0.68168000  1.0
  H  H16  1  0.46542000  0.90259000  0.64845000  1.0
  H  H17  1  0.61211000  0.96607000  0.39569000  1.0
  H  H18  1  0.79540000  0.02072000  0.37162000  1.0
  H  H19  1  0.52270000  0.09698000  0.35316000  1.0
  H  H20  1  0.48485000  0.03880000  0.31787000  1.0
  H  H21  1  0.33872000  0.04213000  0.37423000  1.0
  H  H22  1  0.89080000  0.62321000  0.01147000  1.0
  H  H23  1  0.69352000  0.64208000  0.96478000  1.0
  H  H24  1  0.94437000  0.65631000  0.89183000  1.0
  H  H25  1  0.99973000  0.70228000  0.93760000  1.0
  H  H26  1  0.14334000  0.63771000  0.93761000  1.0
  H  H27  1  0.29485000  0.35753000  0.03308000  1.0
  H  H28  1  0.09631000  0.37709000  0.98690000  1.0
  H  H29  1  0.84638000  0.36219000  0.06136000  1.0
  H  H30  1  0.98754000  0.29751000  0.06038000  1.0
  H  H31  1  0.04661000  0.34262000  0.10655000  1.0
  H  H32  1  0.54492000  0.06044000  0.13454000  1.0
  H  H33  1  0.49617000  0.05214000  0.06866000  1.0
  H  H34  1  0.54317000  0.94407000  0.09319000  1.0
  H  H35  1  0.76113000  0.98103000  0.11028000  1.0
  H  H36  1  0.58760000  0.95013000  0.15952000  1.0
  H  H37  1  0.59771000  0.99191000  0.82382000  1.0
  H  H38  1  0.74879000  0.03518000  0.85943000  1.0
  H  H39  1  0.44984000  0.04893000  0.91460000  1.0
  H  H40  1  0.40526000  0.07800000  0.84737000  1.0
  H  H41  1  0.29769000  0.00947000  0.87654000  1.0
  H  H42  1  0.04527000  0.44046000  0.36481000  1.0
  H  H43  1  0.99720000  0.44822000  0.43091000  1.0
  H  H44  1  0.04330000  0.55633000  0.40691000  1.0
  H  H45  1  0.26120000  0.51941000  0.38931000  1.0
  H  H46  1  0.08667000  0.55068000  0.34044000  1.0
  H  H47  1  0.09628000  0.50793000  0.67639000  1.0
  H  H48  1  0.24885000  0.46470000  0.64086000  1.0
  H  H49  1  0.95091000  0.45096000  0.58552000  1.0
  H  H50  1  0.90619000  0.42176000  0.65272000  1.0
  H  H51  1  0.79737000  0.49026000  0.62361000  1.0
  H  H52  1  0.48844000  0.81720000  0.76946000  1.0
  H  H53  1  0.49744000  0.17521000  0.27384000  1.0
  H  H54  1  0.98908000  0.67946000  0.73508000  1.0
  H  H55  1  0.99664000  0.32541000  0.25297000  1.0
  C  C56  1  0.48231000  0.69109000  0.68260000  1.0
  C  C57  1  0.50274000  0.31441000  0.31318000  1.0
  C  C58  1  0.98725000  0.80860000  0.81729000  1.0
  C  C59  1  0.99906000  0.18774000  0.18538000  1.0
  C  C60  1  0.48649000  0.66908000  0.82310000  1.0
  C  C61  1  0.50102000  0.32786000  0.17393000  1.0
  C  C62  1  0.97888000  0.82897000  0.67504000  1.0
  C  C63  1  0.00580000  0.17296000  0.32610000  1.0
  C  C64  1  0.17797000  0.02939000  0.48622000  1.0
  C  C65  1  0.81313000  0.97087000  0.51352000  1.0
  C  C66  1  0.67833000  0.48796000  0.02608000  1.0
  C  C67  1  0.31114000  0.51147000  0.97290000  1.0
  C  C68  1  0.00513000  0.04496000  0.45549000  1.0
  C  C69  1  0.98578000  0.95539000  0.54431000  1.0
  C  C70  1  0.50553000  0.45542000  0.04419000  1.0
  C  C71  1  0.48397000  0.54395000  0.95472000  1.0
  C  C72  1  0.82172000  0.01478000  0.46939000  1.0
  C  C73  1  0.16946000  0.98542000  0.53034000  1.0
  C  C74  1  0.32086000  0.46743000  0.01691000  1.0
  C  C75  1  0.66859000  0.53205000  0.98207000  1.0
  C  C76  1  0.01034000  0.09080000  0.41161000  1.0
  C  C77  1  0.97927000  0.90994000  0.58851000  1.0
  C  C78  1  0.51075000  0.41186000  0.08977000  1.0
  C  C79  1  0.47803000  0.58697000  0.90876000  1.0
  C  C80  1  0.97883000  0.87169000  0.62745000  1.0
  C  C81  1  0.00748000  0.12965000  0.37309000  1.0
  C  C82  1  0.48065000  0.62419000  0.86911000  1.0
  C  C83  1  0.50569000  0.37370000  0.12875000  1.0
  C  C84  1  0.88439000  0.15917000  0.10032000  1.0
  C  C85  1  0.14827000  0.85012000  0.89133000  1.0
  C  C86  1  0.38152000  0.34310000  0.39765000  1.0
  C  C87  1  0.64819000  0.64817000  0.61004000  1.0
  C  C88  1  0.89679000  0.12533000  0.06213000  1.0
  C  C89  1  0.15592000  0.88947000  0.92499000  1.0
  C  C90  1  0.39308000  0.37645000  0.43621000  1.0
  C  C91  1  0.65635000  0.60896000  0.57624000  1.0
  C  C92  1  0.03337000  0.07809000  0.06751000  1.0
  C  C93  1  0.99458000  0.92814000  0.92752000  1.0
  C  C94  1  0.53124000  0.42305000  0.43158000  1.0
  C  C95  1  0.49389000  0.57103000  0.57320000  1.0
  C  C96  1  0.15419000  0.06509000  0.11276000  1.0
  C  C97  1  0.82141000  0.92435000  0.89711000  1.0
  C  C98  1  0.65447000  0.43601000  0.38676000  1.0
  C  C99  1  0.31984000  0.57520000  0.60330000  1.0
  C  C100  1  0.13666000  0.10135000  0.15008000  1.0
  C  C101  1  0.82294000  0.88438000  0.86272000  1.0
  C  C102  1  0.63914000  0.39983000  0.34941000  1.0
  C  C103  1  0.32078000  0.61514000  0.63768000  1.0
  C  C104  1  0.00506000  0.14916000  0.14521000  1.0
  C  C105  1  0.98494000  0.84693000  0.85758000  1.0
  C  C106  1  0.50582000  0.35279000  0.35348000  1.0
  C  C107  1  0.48296000  0.65205000  0.64297000  1.0
  C  C108  1  0.01704000  0.97285000  0.96024000  1.0
  C  C109  1  0.04335000  0.04358000  0.02583000  1.0
  C  C110  1  0.51610000  0.52662000  0.54016000  1.0
  C  C111  1  0.54112000  0.45688000  0.47373000  1.0
  C  C112  1  0.34525000  0.98643000  0.60996000  1.0
  C  C113  1  0.50156000  0.94953000  0.64304000  1.0
  C  C114  1  0.64628000  0.01342000  0.38981000  1.0
  C  C115  1  0.48855000  0.05002000  0.35697000  1.0
  C  C116  1  0.84529000  0.62314000  0.97081000  1.0
  C  C117  1  0.99182000  0.65645000  0.93208000  1.0
  C  C118  1  0.14320000  0.37664000  0.02755000  1.0
  C  C119  1  0.99752000  0.34311000  0.06632000  1.0
  C  C120  1  0.48821000  0.03030000  0.10986000  1.0
  C  C121  1  0.60112000  0.97275000  0.11881000  1.0
  C  C122  1  0.61615000  0.00664000  0.86129000  1.0
  C  C123  1  0.43061000  0.03745000  0.87596000  1.0
  C  C124  1  0.98865000  0.47035000  0.38980000  1.0
  C  C125  1  0.10100000  0.52780000  0.38105000  1.0
  C  C126  1  0.11552000  0.49318000  0.63895000  1.0
  C  C127  1  0.93089000  0.46234000  0.62418000  1.0
  N  N128  1  0.90610000  0.05525000  0.98707000  1.0
  N  N129  1  0.18002000  0.96917000  0.99153000  1.0
  N  N130  1  0.40295000  0.44526000  0.51223000  1.0
  N  N131  1  0.67992000  0.52995000  0.50915000  1.0
  N  N132  1  0.89861000  0.02144000  0.95189000  1.0
  N  N133  1  0.20089000  0.00702000  0.02289000  1.0
  N  N134  1  0.39612000  0.47853000  0.54785000  1.0
  N  N135  1  0.69987000  0.49255000  0.47733000  1.0
  O  O136  1  0.66007000  0.68825000  0.80801000  1.0
  O  O137  1  0.32864000  0.30865000  0.19009000  1.0
  O  O138  1  0.14987000  0.81572000  0.69604000  1.0
  O  O139  1  0.83418000  0.18782000  0.30596000  1.0
  O  O140  1  0.31417000  0.71109000  0.69399000  1.0
  O  O141  1  0.67298000  0.29692000  0.30052000  1.0
  O  O142  1  0.81896000  0.79494000  0.80036000  1.0
  O  O143  1  0.16802000  0.20171000  0.20153000  1.0
  O  O144  1  0.31846000  0.68507000  0.80157000  1.0
  O  O145  1  0.66972000  0.31059000  0.19421000  1.0
  O  O146  1  0.80831000  0.80950000  0.69223000  1.0
  O  O147  1  0.17617000  0.19194000  0.30810000  1.0
  O  O148  1  0.15811000  0.79400000  0.80227000  1.0
  O  O149  1  0.82735000  0.20225000  0.19959000  1.0
  O  O150  1  0.65056000  0.69996000  0.70259000  1.0
  O  O151  1  0.33233000  0.30354000  0.29553000  1.0
  O  O152  1  0.48643000  0.78535000  0.75004000  1.0
  O  O153  1  0.50014000  0.21483000  0.25369000  1.0
  O  O154  1  0.98728000  0.71490000  0.74981000  1.0
  O  O155  1  0.99978000  0.28524000  0.24740000  1.0
  O  O156  1  0.34056000  0.96984000  0.55883000  1.0
  O  O157  1  0.65064000  0.03023000  0.44080000  1.0
  O  O158  1  0.83926000  0.56212000  0.96410000  1.0
  O  O159  1  0.15030000  0.43738000  0.03494000  1.0
  O  O160  1  0.27799000  0.01740000  0.12283000  1.0
  O  O161  1  0.65077000  0.95551000  0.90219000  1.0
  O  O162  1  0.77821000  0.48353000  0.37721000  1.0
  O  O163  1  0.14926000  0.54434000  0.59807000  1.0
  F  F164  1  0.75437000  0.20512000  0.09291000  1.0
  F  F165  1  0.30670000  0.81343000  0.89145000  1.0
  F  F166  1  0.24973000  0.29780000  0.40393000  1.0
  F  F167  1  0.80677000  0.68433000  0.61088000  1.0
  F  F168  1  0.25094000  0.08731000  0.19344000  1.0
  F  F169  1  0.65740000  0.88460000  0.83267000  1.0
  F  F170  1  0.75749000  0.41306000  0.30663000  1.0
  F  F171  1  0.15550000  0.61561000  0.66775000  1.0
