# generated using pymatgen
data_Ag3H13C17(NO)6
_symmetry_space_group_name_H-M   'P 1'
_cell_length_a   7.29421000
_cell_length_b   9.76886000
_cell_length_c   13.40760000
_cell_angle_alpha   96.98430000
_cell_angle_beta   98.23700000
_cell_angle_gamma   94.13870000
_symmetry_Int_Tables_number   1
_chemical_formula_structural   Ag3H13C17(NO)6
_chemical_formula_sum   'Ag6 H26 C34 N12 O12'
_cell_volume   934.59023154
_cell_formula_units_Z   2
loop_
 _symmetry_equiv_pos_site_id
 _symmetry_equiv_pos_as_xyz
  1  'x, y, z'
loop_
 _atom_site_type_symbol
 _atom_site_label
 _atom_site_symmetry_multiplicity
 _atom_site_fract_x
 _atom_site_fract_y
 _atom_site_fract_z
 _atom_site_occupancy
  Ag  Ag0  1  0.84704000  0.95253000  0.92611000  1.0
  Ag  Ag1  1  0.15297000  0.04747000  0.07389000  1.0
  Ag  Ag2  1  0.42037000  0.06464000  0.92079000  1.0
  Ag  Ag3  1  0.57964000  0.93537000  0.07922000  1.0
  Ag  Ag4  1  0.64407000  0.51550000  0.42167000  1.0
  Ag  Ag5  1  0.35592000  0.48450000  0.57833000  1.0
  H  H6  1  0.69512000  0.06751000  0.73503000  1.0
  H  H7  1  0.30488000  0.93248000  0.26497000  1.0
  H  H8  1  0.90822000  0.02977000  0.58177000  1.0
  H  H9  1  0.09178000  0.97023000  0.41823000  1.0
  H  H10  1  0.46815000  0.02046000  0.57054000  1.0
  H  H11  1  0.53185000  0.97953000  0.42946000  1.0
  H  H12  1  0.06956000  0.71325000  0.74292000  1.0
  H  H13  1  0.93044000  0.28675000  0.25709000  1.0
  H  H14  1  0.86648000  0.29164000  0.74859000  1.0
  H  H15  1  0.13353000  0.70836000  0.25141000  1.0
  H  H16  1  0.26129000  0.50404000  0.99772000  1.0
  H  H17  1  0.73871000  0.49597000  0.00228000  1.0
  H  H18  1  0.05359000  0.23475000  0.50931000  1.0
  H  H19  1  0.94641000  0.76525000  0.49069000  1.0
  H  H20  1  0.07043000  0.97771000  0.75185000  1.0
  H  H21  1  0.92957000  0.02229000  0.24815000  1.0
  H  H22  1  0.33548000  0.76904000  0.51429000  1.0
  H  H23  1  0.66452000  0.23095000  0.48571000  1.0
  H  H24  1  0.67038000  0.67157000  0.87227000  1.0
  H  H25  1  0.32962000  0.32842000  0.12773000  1.0
  H  H26  1  0.51860000  0.55020000  0.78471000  1.0
  H  H27  1  0.48140000  0.44980000  0.21529000  1.0
  H  H28  1  0.57229000  0.28641000  0.83114000  1.0
  H  H29  1  0.42772000  0.71359000  0.16886000  1.0
  H  H30  1  0.59218000  0.35379000  0.71564000  1.0
  H  H31  1  0.40782000  0.64621000  0.28436000  1.0
  C  C32  1  0.62130000  0.96551000  0.70805000  1.0
  C  C33  1  0.37870000  0.03448000  0.29195000  1.0
  C  C34  1  0.03405000  0.09069000  0.62112000  1.0
  C  C35  1  0.96595000  0.90931000  0.37888000  1.0
  C  C36  1  0.50015000  0.93888000  0.61664000  1.0
  C  C37  1  0.49985000  0.06111000  0.38336000  1.0
  C  C38  1  0.04803000  0.25479000  0.92808000  1.0
  C  C39  1  0.95197000  0.74522000  0.07192000  1.0
  C  C40  1  0.17658000  0.62184000  0.87564000  1.0
  C  C41  1  0.82342000  0.37816000  0.12436000  1.0
  C  C42  1  0.06795000  0.62073000  0.78046000  1.0
  C  C43  1  0.93205000  0.37927000  0.21954000  1.0
  C  C44  1  0.95256000  0.38497000  0.78412000  1.0
  C  C45  1  0.04744000  0.61503000  0.21588000  1.0
  C  C46  1  0.17526000  0.50278000  0.92420000  1.0
  C  C47  1  0.82474000  0.49722000  0.07580000  1.0
  C  C48  1  0.11334000  0.20182000  0.58106000  1.0
  C  C49  1  0.88665000  0.79818000  0.41894000  1.0
  C  C50  1  0.06117000  0.38380000  0.87864000  1.0
  C  C51  1  0.93883000  0.61621000  0.12136000  1.0
  C  C52  1  0.29044000  0.75272000  0.92505000  1.0
  C  C53  1  0.70956000  0.24729000  0.07495000  1.0
  C  C54  1  0.56522000  0.73993000  0.73870000  1.0
  C  C55  1  0.43478000  0.26007000  0.26130000  1.0
  C  C56  1  0.12253000  0.06236000  0.71441000  1.0
  C  C57  1  0.87747000  0.93764000  0.28559000  1.0
  C  C58  1  0.83019000  0.50049000  0.63437000  1.0
  C  C59  1  0.16981000  0.49951000  0.36563000  1.0
  C  C60  1  0.34925000  0.24068000  0.71883000  1.0
  C  C61  1  0.65076000  0.75932000  0.28117000  1.0
  C  C62  1  0.42251000  0.80306000  0.58771000  1.0
  C  C63  1  0.57749000  0.19694000  0.41229000  1.0
  C  C64  1  0.95481000  0.50226000  0.73429000  1.0
  C  C65  1  0.04519000  0.49774000  0.26571000  1.0
  N  N66  1  0.58828000  0.64600000  0.80288000  1.0
  N  N67  1  0.41172000  0.35399000  0.19712000  1.0
  N  N68  1  0.26861000  0.27722000  0.62898000  1.0
  N  N69  1  0.73139000  0.72277000  0.37102000  1.0
  N  N70  1  0.65565000  0.86858000  0.76866000  1.0
  N  N71  1  0.34435000  0.13142000  0.23134000  1.0
  N  N72  1  0.50934000  0.31479000  0.76473000  1.0
  N  N73  1  0.49066000  0.68521000  0.23526000  1.0
  N  N74  1  0.45429000  0.70310000  0.64664000  1.0
  N  N75  1  0.54570000  0.29689000  0.35336000  1.0
  N  N76  1  0.27843000  0.13585000  0.76342000  1.0
  N  N77  1  0.72158000  0.86414000  0.23658000  1.0
  O  O78  1  0.26902000  0.85809000  0.87836000  1.0
  O  O79  1  0.73098000  0.14191000  0.12164000  1.0
  O  O80  1  0.92656000  0.15858000  0.88328000  1.0
  O  O81  1  0.07344000  0.84142000  0.11672000  1.0
  O  O82  1  0.15829000  0.24963000  0.01038000  1.0
  O  O83  1  0.84171000  0.75038000  0.98962000  1.0
  O  O84  1  0.69860000  0.40194000  0.61154000  1.0
  O  O85  1  0.30140000  0.59806000  0.38846000  1.0
  O  O86  1  0.85913000  0.59455000  0.58013000  1.0
  O  O87  1  0.14086000  0.40546000  0.41988000  1.0
  O  O88  1  0.39751000  0.74845000  0.00830000  1.0
  O  O89  1  0.60249000  0.25155000  0.99170000  1.0
