# generated using pymatgen
data_AlH7C15NCl2O5
_symmetry_space_group_name_H-M   'P 1'
_cell_length_a   6.64485000
_cell_length_b   20.36070000
_cell_length_c   22.08190000
_cell_angle_alpha   89.99910000
_cell_angle_beta   89.99050000
_cell_angle_gamma   95.65340000
_symmetry_Int_Tables_number   1
_chemical_formula_structural   AlH7C15NCl2O5
_chemical_formula_sum   'Al4 H28 C60 N4 Cl8 O20'
_cell_volume   2973.01270728
_cell_formula_units_Z   4
loop_
 _symmetry_equiv_pos_site_id
 _symmetry_equiv_pos_as_xyz
  1  'x, y, z'
loop_
 _atom_site_type_symbol
 _atom_site_label
 _atom_site_symmetry_multiplicity
 _atom_site_fract_x
 _atom_site_fract_y
 _atom_site_fract_z
 _atom_site_occupancy
  Al  Al0  1  0.00420000  0.31410000  0.49757000  1.0
  Al  Al1  1  0.99573000  0.68591000  0.99757000  1.0
  Al  Al2  1  0.50453000  0.31102000  0.49865000  1.0
  Al  Al3  1  0.49539000  0.68897000  0.99866000  1.0
  H  H4  1  0.02196000  0.47656000  0.05426000  1.0
  H  H5  1  0.97749000  0.52348000  0.55420000  1.0
  H  H6  1  0.05178000  0.33969000  0.22667000  1.0
  H  H7  1  0.94795000  0.66035000  0.72663000  1.0
  H  H8  1  0.99402000  0.38354000  0.12878000  1.0
  H  H9  1  0.00560000  0.61651000  0.62873000  1.0
  H  H10  1  0.35754000  0.59944000  0.18417000  1.0
  H  H11  1  0.64245000  0.40056000  0.68424000  1.0
  H  H12  1  0.42591000  0.63048000  0.39407000  1.0
  H  H13  1  0.57491000  0.36948000  0.89413000  1.0
  H  H14  1  0.16858000  0.35345000  0.33180000  1.0
  H  H15  1  0.83133000  0.64657000  0.83180000  1.0
  H  H16  1  0.51148000  0.19040000  0.35607000  1.0
  H  H17  1  0.48856000  0.80955000  0.85609000  1.0
  H  H18  1  0.57719000  0.81540000  0.13961000  1.0
  H  H19  1  0.42264000  0.18459000  0.63963000  1.0
  H  H20  1  0.02937000  0.96259000  0.16375000  1.0
  H  H21  1  0.97046000  0.03740000  0.66372000  1.0
  H  H22  1  0.89683000  0.03476000  0.32858000  1.0
  H  H23  1  0.10309000  0.96525000  0.82853000  1.0
  H  H24  1  0.51372000  0.09824000  0.28078000  1.0
  H  H25  1  0.48619000  0.90170000  0.78079000  1.0
  H  H26  1  0.61399000  0.90727000  0.21605000  1.0
  H  H27  1  0.38580000  0.09270000  0.71604000  1.0
  H  H28  1  0.75890000  0.34475000  0.42540000  1.0
  H  H29  1  0.24107000  0.65527000  0.92540000  1.0
  H  H30  1  0.26446000  0.34147000  0.57166000  1.0
  H  H31  1  0.73542000  0.65855000  0.07167000  1.0
  C  C32  1  0.78490000  0.40129000  0.57235000  1.0
  C  C33  1  0.21483000  0.59872000  0.07234000  1.0
  C  C34  1  0.72672000  0.22104000  0.56742000  1.0
  C  C35  1  0.27317000  0.77896000  0.06742000  1.0
  C  C36  1  0.22092000  0.22294000  0.42644000  1.0
  C  C37  1  0.77911000  0.77706000  0.92644000  1.0
  C  C38  1  0.28860000  0.40480000  0.42681000  1.0
  C  C39  1  0.71139000  0.59521000  0.92683000  1.0
  C  C40  1  0.06653000  0.43205000  0.14133000  1.0
  C  C41  1  0.93318000  0.56797000  0.64128000  1.0
  C  C42  1  0.19415000  0.54285000  0.11632000  1.0
  C  C43  1  0.80559000  0.45716000  0.61632000  1.0
  C  C44  1  0.37392000  0.52580000  0.41067000  1.0
  C  C45  1  0.62661000  0.47416000  0.91071000  1.0
  C  C46  1  0.38488000  0.58213000  0.37417000  1.0
  C  C47  1  0.61576000  0.41783000  0.87423000  1.0
  C  C48  1  0.33858000  0.57701000  0.31295000  1.0
  C  C49  1  0.66199000  0.42296000  0.81300000  1.0
  C  C50  1  0.28026000  0.51520000  0.28430000  1.0
  C  C51  1  0.72005000  0.48479000  0.78434000  1.0
  C  C52  1  0.25933000  0.45884000  0.32412000  1.0
  C  C53  1  0.74086000  0.54115000  0.82416000  1.0
  C  C54  1  0.23114000  0.50473000  0.22033000  1.0
  C  C55  1  0.76897000  0.49528000  0.72035000  1.0
  C  C56  1  0.13730000  0.44162000  0.20138000  1.0
  C  C57  1  0.86265000  0.55840000  0.70138000  1.0
  C  C58  1  0.11772000  0.38771000  0.24286000  1.0
  C  C59  1  0.88222000  0.61231000  0.74286000  1.0
  C  C60  1  0.18215000  0.39545000  0.30108000  1.0
  C  C61  1  0.81781000  0.60456000  0.80108000  1.0
  C  C62  1  0.27052000  0.55280000  0.17447000  1.0
  C  C63  1  0.72935000  0.44722000  0.67450000  1.0
  C  C64  1  0.08515000  0.48273000  0.09969000  1.0
  C  C65  1  0.91450000  0.51729000  0.59965000  1.0
  C  C66  1  0.30933000  0.46452000  0.38655000  1.0
  C  C67  1  0.69089000  0.53547000  0.88659000  1.0
  C  C68  1  0.28370000  0.83638000  0.10984000  1.0
  C  C69  1  0.71615000  0.16361000  0.60983000  1.0
  C  C70  1  0.12966000  0.87921000  0.11617000  1.0
  C  C71  1  0.87019000  0.12078000  0.61614000  1.0
  C  C72  1  0.14770000  0.92955000  0.15897000  1.0
  C  C73  1  0.85210000  0.07043000  0.65894000  1.0
  C  C74  1  0.32046000  0.93860000  0.19572000  1.0
  C  C75  1  0.67937000  0.06138000  0.69571000  1.0
  C  C76  1  0.47848000  0.89848000  0.18823000  1.0
  C  C77  1  0.52134000  0.10149000  0.68821000  1.0
  C  C78  1  0.45753000  0.84763000  0.14609000  1.0
  C  C79  1  0.54229000  0.15234000  0.64608000  1.0
  C  C80  1  0.37979000  0.10489000  0.30764000  1.0
  C  C81  1  0.62015000  0.89507000  0.80764000  1.0
  C  C82  1  0.37766000  0.15583000  0.34911000  1.0
  C  C83  1  0.62235000  0.84414000  0.84912000  1.0
  C  C84  1  0.20400000  0.06125000  0.30027000  1.0
  C  C85  1  0.79589000  0.93873000  0.80025000  1.0
  C  C86  1  0.20594000  0.16507000  0.38445000  1.0
  C  C87  1  0.79407000  0.83492000  0.88445000  1.0
  C  C88  1  0.03210000  0.11991000  0.37734000  1.0
  C  C89  1  0.96789000  0.88011000  0.87732000  1.0
  C  C90  1  0.03118000  0.06930000  0.33474000  1.0
  C  C91  1  0.96875000  0.93071000  0.83469000  1.0
  N  N92  1  0.34691000  0.98871000  0.24023000  1.0
  N  N93  1  0.65291000  0.01126000  0.74022000  1.0
  N  N94  1  0.18267000  0.00853000  0.25850000  1.0
  N  N95  1  0.81717000  0.99146000  0.75847000  1.0
  Cl  Cl96  1  0.81574000  0.12195000  0.42028000  1.0
  Cl  Cl97  1  0.18426000  0.87810000  0.92025000  1.0
  Cl  Cl98  1  0.91761000  0.87408000  0.07043000  1.0
  Cl  Cl99  1  0.08228000  0.12592000  0.57040000  1.0
  Cl  Cl100  1  0.43050000  0.53497000  0.48690000  1.0
  Cl  Cl101  1  0.57001000  0.46500000  0.98694000  1.0
  Cl  Cl102  1  0.34514000  0.65337000  0.27700000  1.0
  Cl  Cl103  1  0.65582000  0.34660000  0.77705000  1.0
  O  O104  1  0.55888000  0.23795000  0.54802000  1.0
  O  O105  1  0.44102000  0.76207000  0.04799000  1.0
  O  O106  1  0.95052000  0.38620000  0.54959000  1.0
  O  O107  1  0.04924000  0.61379000  0.04958000  1.0
  O  O108  1  0.10977000  0.38021000  0.43884000  1.0
  O  O109  1  0.89016000  0.61985000  0.93881000  1.0
  O  O110  1  0.89953000  0.25041000  0.55554000  1.0
  O  O111  1  0.10039000  0.74957000  0.05555000  1.0
  O  O112  1  0.05858000  0.24475000  0.44424000  1.0
  O  O113  1  0.94148000  0.75531000  0.94428000  1.0
  O  O114  1  0.60906000  0.37269000  0.56183000  1.0
  O  O115  1  0.39066000  0.62736000  0.06184000  1.0
  O  O116  1  0.75400000  0.31586000  0.46042000  1.0
  O  O117  1  0.24593000  0.68415000  0.96043000  1.0
  O  O118  1  0.39869000  0.24773000  0.43999000  1.0
  O  O119  1  0.60136000  0.75223000  0.93998000  1.0
  O  O120  1  0.45223000  0.38397000  0.44485000  1.0
  O  O121  1  0.54770000  0.61599000  0.94489000  1.0
  O  O122  1  0.25479000  0.31495000  0.53507000  1.0
  O  O123  1  0.74509000  0.68507000  0.03508000  1.0
