# generated using pymatgen
data_ZnH12C8S2N4(OF)6
_symmetry_space_group_name_H-M   'P 1'
_cell_length_a   9.19280000
_cell_length_b   9.60799000
_cell_length_c   11.02800000
_cell_angle_alpha   98.11010000
_cell_angle_beta   112.12400000
_cell_angle_gamma   92.85040000
_symmetry_Int_Tables_number   1
_chemical_formula_structural   ZnH12C8S2N4(OF)6
_chemical_formula_sum   'Zn2 H24 C16 S4 N8 O12 F12'
_cell_volume   887.66252490
_cell_formula_units_Z   2
loop_
 _symmetry_equiv_pos_site_id
 _symmetry_equiv_pos_as_xyz
  1  'x, y, z'
loop_
 _atom_site_type_symbol
 _atom_site_label
 _atom_site_symmetry_multiplicity
 _atom_site_fract_x
 _atom_site_fract_y
 _atom_site_fract_z
 _atom_site_occupancy
  Zn  Zn0  1  0.50000000  0.50000000  0.50000000  1.0
  Zn  Zn1  1  0.49999000  0.00000000  0.50000000  1.0
  H  H2  1  0.13178000  0.88105000  0.43614000  1.0
  H  H3  1  0.86822000  0.11895000  0.56386000  1.0
  H  H4  1  0.93497000  0.84468000  0.42941000  1.0
  H  H5  1  0.06504000  0.15532000  0.57059000  1.0
  H  H6  1  0.97130000  0.82742000  0.27918000  1.0
  H  H7  1  0.02870000  0.17258000  0.72083000  1.0
  H  H8  1  0.81583000  0.13452000  0.15441000  1.0
  H  H9  1  0.18418000  0.86548000  0.84559000  1.0
  H  H10  1  0.63607000  0.06482000  0.01648000  1.0
  H  H11  1  0.36393000  0.93517000  0.98352000  1.0
  H  H12  1  0.71093000  0.97083000  0.15262000  1.0
  H  H13  1  0.28907000  0.02917000  0.84738000  1.0
  H  H14  1  0.85452000  0.56335000  0.21770000  1.0
  H  H15  1  0.14548000  0.43666000  0.78230000  1.0
  H  H16  1  0.81307000  0.58675000  0.36517000  1.0
  H  H17  1  0.18693000  0.41326000  0.63483000  1.0
  H  H18  1  0.93708000  0.45525000  0.34126000  1.0
  H  H19  1  0.06292000  0.54475000  0.65874000  1.0
  H  H20  1  0.48264000  0.32908000  0.20214000  1.0
  H  H21  1  0.51737000  0.67092000  0.79786000  1.0
  H  H22  1  0.47837000  0.26398000  0.03958000  1.0
  H  H23  1  0.52164000  0.73602000  0.96043000  1.0
  H  H24  1  0.65254000  0.36307000  0.16490000  1.0
  H  H25  1  0.34746000  0.63693000  0.83511000  1.0
  C  C26  1  0.18151000  0.62469000  0.44337000  1.0
  C  C27  1  0.81849000  0.37531000  0.55663000  1.0
  C  C28  1  0.60087000  0.11852000  0.29641000  1.0
  C  C29  1  0.39913000  0.88149000  0.70359000  1.0
  C  C30  1  0.01912000  0.81454000  0.38399000  1.0
  C  C31  1  0.98089000  0.18546000  0.61602000  1.0
  C  C32  1  0.69903000  0.07575000  0.12431000  1.0
  C  C33  1  0.30097000  0.92425000  0.87569000  1.0
  C  C34  1  0.90271000  0.56065000  0.32493000  1.0
  C  C35  1  0.09729000  0.43935000  0.67507000  1.0
  C  C36  1  0.55124000  0.28587000  0.14648000  1.0
  C  C37  1  0.44876000  0.71413000  0.85352000  1.0
  C  C38  1  0.27194000  0.61822000  0.11929000  1.0
  C  C39  1  0.72806000  0.38178000  0.88071000  1.0
  C  C40  1  0.15365000  0.12004000  0.17253000  1.0
  C  C41  1  0.84635000  0.87995000  0.82747000  1.0
  S  S42  1  0.45186000  0.71315000  0.26083000  1.0
  S  S43  1  0.54814000  0.28684000  0.73917000  1.0
  S  S44  1  0.22373000  0.21430000  0.34778000  1.0
  S  S45  1  0.77627000  0.78570000  0.65221000  1.0
  N  N46  1  0.30546000  0.58519000  0.49490000  1.0
  N  N47  1  0.69454000  0.41481000  0.50510000  1.0
  N  N48  1  0.59775000  0.08721000  0.39450000  1.0
  N  N49  1  0.40225000  0.91279000  0.60550000  1.0
  N  N50  1  0.04220000  0.66561000  0.39161000  1.0
  N  N51  1  0.95780000  0.33439000  0.60840000  1.0
  N  N52  1  0.60700000  0.15342000  0.18905000  1.0
  N  N53  1  0.39301000  0.84658000  0.81096000  1.0
  O  O54  1  0.51972000  0.59985000  0.33403000  1.0
  O  O55  1  0.48027000  0.40015000  0.66597000  1.0
  O  O56  1  0.34905000  0.31834000  0.35258000  1.0
  O  O57  1  0.65095000  0.68166000  0.64742000  1.0
  O  O58  1  0.38406000  0.81540000  0.33048000  1.0
  O  O59  1  0.61594000  0.18459000  0.66952000  1.0
  O  O60  1  0.28121000  0.10330000  0.42732000  1.0
  O  O61  1  0.71878000  0.89670000  0.57268000  1.0
  O  O62  1  0.54712000  0.77148000  0.19707000  1.0
  O  O63  1  0.45288000  0.22852000  0.80293000  1.0
  O  O64  1  0.08454000  0.26907000  0.35894000  1.0
  O  O65  1  0.91546000  0.73093000  0.64104000  1.0
  F  F66  1  0.16631000  0.56052000  0.16195000  1.0
  F  F67  1  0.83369000  0.43948000  0.83805000  1.0
  F  F68  1  0.27125000  0.05955000  0.14686000  1.0
  F  F69  1  0.72875000  0.94044000  0.85314000  1.0
  F  F70  1  0.19938000  0.70837000  0.03744000  1.0
  F  F71  1  0.80061000  0.29163000  0.96256000  1.0
  F  F72  1  0.03591000  0.01594000  0.14859000  1.0
  F  F73  1  0.96409000  0.98406000  0.85141000  1.0
  F  F74  1  0.31303000  0.51224000  0.04687000  1.0
  F  F75  1  0.68696000  0.48776000  0.95313000  1.0
  F  F76  1  0.09833000  0.21169000  0.08766000  1.0
  F  F77  1  0.90168000  0.78831000  0.91234000  1.0
