# generated using pymatgen
data_CuH9C4N11
_symmetry_space_group_name_H-M   'P 1'
_cell_length_a   8.37413000
_cell_length_b   9.84194000
_cell_length_c   11.52490000
_cell_angle_alpha   90.00040000
_cell_angle_beta   90.00040000
_cell_angle_gamma   83.99380000
_symmetry_Int_Tables_number   1
_chemical_formula_structural   CuH9C4N11
_chemical_formula_sum   'Cu4 H36 C16 N44'
_cell_volume   944.64142030
_cell_formula_units_Z   4
loop_
 _symmetry_equiv_pos_site_id
 _symmetry_equiv_pos_as_xyz
  1  'x, y, z'
loop_
 _atom_site_type_symbol
 _atom_site_label
 _atom_site_symmetry_multiplicity
 _atom_site_fract_x
 _atom_site_fract_y
 _atom_site_fract_z
 _atom_site_occupancy
  Cu  Cu0  1  0.05205000  0.28021000  0.40173000  1.0
  Cu  Cu1  1  0.94795000  0.21979000  0.90173000  1.0
  Cu  Cu2  1  0.94795000  0.71978000  0.59827000  1.0
  Cu  Cu3  1  0.05205000  0.78022000  0.09827000  1.0
  H  H4  1  0.59769000  0.06169000  0.08448000  1.0
  H  H5  1  0.40230000  0.43831000  0.58448000  1.0
  H  H6  1  0.40231000  0.93830000  0.91552000  1.0
  H  H7  1  0.59769000  0.56169000  0.41552000  1.0
  H  H8  1  0.29659000  0.30694000  0.26540000  1.0
  H  H9  1  0.70340000  0.19306000  0.76539000  1.0
  H  H10  1  0.70341000  0.69306000  0.73460000  1.0
  H  H11  1  0.29659000  0.80694000  0.23460000  1.0
  H  H12  1  0.32573000  0.37099000  0.39549000  1.0
  H  H13  1  0.67426000  0.12901000  0.89549000  1.0
  H  H14  1  0.67428000  0.62901000  0.60451000  1.0
  H  H15  1  0.32573000  0.87099000  0.10451000  1.0
  H  H16  1  0.12230000  0.02954000  0.46880000  1.0
  H  H17  1  0.87769000  0.47047000  0.96880000  1.0
  H  H18  1  0.87770000  0.97046000  0.53120000  1.0
  H  H19  1  0.12230000  0.52954000  0.03120000  1.0
  H  H20  1  0.09985000  0.13101000  0.58479000  1.0
  H  H21  1  0.90015000  0.36899000  0.08479000  1.0
  H  H22  1  0.90015000  0.86899000  0.41521000  1.0
  H  H23  1  0.09985000  0.63101000  0.91521000  1.0
  H  H24  1  0.35166000  0.08276000  0.32296000  1.0
  H  H25  1  0.64834000  0.41725000  0.82296000  1.0
  H  H26  1  0.64834000  0.91724000  0.67703000  1.0
  H  H27  1  0.35166000  0.58276000  0.17704000  1.0
  H  H28  1  0.50879000  0.16932000  0.38348000  1.0
  H  H29  1  0.49120000  0.33068000  0.88348000  1.0
  H  H30  1  0.49121000  0.83067000  0.61652000  1.0
  H  H31  1  0.50879000  0.66932000  0.11652000  1.0
  H  H32  1  0.35430000  0.19535000  0.57213000  1.0
  H  H33  1  0.64570000  0.30465000  0.07214000  1.0
  H  H34  1  0.64570000  0.80465000  0.42787000  1.0
  H  H35  1  0.35430000  0.69534000  0.92787000  1.0
  H  H36  1  0.38211000  0.02064000  0.53228000  1.0
  H  H37  1  0.61789000  0.47937000  0.03228000  1.0
  H  H38  1  0.61790000  0.97936000  0.46772000  1.0
  H  H39  1  0.38211000  0.52064000  0.96772000  1.0
  C  C40  1  0.71772000  0.88410000  0.01929000  1.0
  C  C41  1  0.28228000  0.61590000  0.51930000  1.0
  C  C42  1  0.28229000  0.11589000  0.98070000  1.0
  C  C43  1  0.71772000  0.38410000  0.48070000  1.0
  C  C44  1  0.83338000  0.03759000  0.15013000  1.0
  C  C45  1  0.16660000  0.46241000  0.65013000  1.0
  C  C46  1  0.16662000  0.96241000  0.84987000  1.0
  C  C47  1  0.83339000  0.53759000  0.34987000  1.0
  C  C48  1  0.37901000  0.16034000  0.38649000  1.0
  C  C49  1  0.62098000  0.33967000  0.88649000  1.0
  C  C50  1  0.62099000  0.83966000  0.61351000  1.0
  C  C51  1  0.37902000  0.66034000  0.11351000  1.0
  C  C52  1  0.32466000  0.12132000  0.50665000  1.0
  C  C53  1  0.67533000  0.37869000  0.00664000  1.0
  C  C54  1  0.67535000  0.87868000  0.49335000  1.0
  C  C55  1  0.32466000  0.62132000  0.99335000  1.0
  N  N56  1  0.97750000  0.14877000  0.25891000  1.0
  N  N57  1  0.02250000  0.35123000  0.75891000  1.0
  N  N58  1  0.02251000  0.85123000  0.74109000  1.0
  N  N59  1  0.97750000  0.64877000  0.24109000  1.0
  N  N60  1  0.82841000  0.15354000  0.21189000  1.0
  N  N61  1  0.17158000  0.34646000  0.71189000  1.0
  N  N62  1  0.17159000  0.84646000  0.78811000  1.0
  N  N63  1  0.82841000  0.65354000  0.28811000  1.0
  N  N64  1  0.70768000  0.00039000  0.08501000  1.0
  N  N65  1  0.29233000  0.49961000  0.58502000  1.0
  N  N66  1  0.29232000  0.99962000  0.91499000  1.0
  N  N67  1  0.70768000  0.50039000  0.41499000  1.0
  N  N68  1  0.65980000  0.72863000  0.90068000  1.0
  N  N69  1  0.34019000  0.77138000  0.40069000  1.0
  N  N70  1  0.34020000  0.27137000  0.09932000  1.0
  N  N71  1  0.65980000  0.22863000  0.59931000  1.0
  N  N72  1  0.84327000  0.78670000  0.01719000  1.0
  N  N73  1  0.15673000  0.71329000  0.51720000  1.0
  N  N74  1  0.15674000  0.21330000  0.98280000  1.0
  N  N75  1  0.84327000  0.28670000  0.48280000  1.0
  N  N76  1  0.28495000  0.29001000  0.35320000  1.0
  N  N77  1  0.71506000  0.20999000  0.85320000  1.0
  N  N78  1  0.71504000  0.71000000  0.64680000  1.0
  N  N79  1  0.28495000  0.79001000  0.14680000  1.0
  N  N80  1  0.14852000  0.12102000  0.50346000  1.0
  N  N81  1  0.85149000  0.37898000  0.00345000  1.0
  N  N82  1  0.85147000  0.87898000  0.49654000  1.0
  N  N83  1  0.14852000  0.62102000  0.99654000  1.0
  N  N84  1  0.97870000  0.96413000  0.15935000  1.0
  N  N85  1  0.02130000  0.53587000  0.65935000  1.0
  N  N86  1  0.02130000  0.03587000  0.84065000  1.0
  N  N87  1  0.97870000  0.46413000  0.34065000  1.0
  N  N88  1  0.60168000  0.85122000  0.94672000  1.0
  N  N89  1  0.39832000  0.64878000  0.44672000  1.0
  N  N90  1  0.39833000  0.14877000  0.05328000  1.0
  N  N91  1  0.60167000  0.35123000  0.55328000  1.0
  N  N92  1  0.80277000  0.69042000  0.94204000  1.0
  N  N93  1  0.19723000  0.80958000  0.44204000  1.0
  N  N94  1  0.19724000  0.30958000  0.05796000  1.0
  N  N95  1  0.80277000  0.19042000  0.55796000  1.0
  N  N96  1  0.06747000  0.03760000  0.22881000  1.0
  N  N97  1  0.93253000  0.46241000  0.72881000  1.0
  N  N98  1  0.93253000  0.96240000  0.77119000  1.0
  N  N99  1  0.06747000  0.53760000  0.27119000  1.0
