# generated using pymatgen
data_MnH6(C2O3)2
_symmetry_space_group_name_H-M   'P 1'
_cell_length_a   9.68799000
_cell_length_b   9.68808000
_cell_length_c   9.77380000
_cell_angle_alpha   96.31960000
_cell_angle_beta   96.31970000
_cell_angle_gamma   96.25040000
_symmetry_Int_Tables_number   1
_chemical_formula_structural   MnH6(C2O3)2
_chemical_formula_sum   'Mn6 H36 C24 O36'
_cell_volume   899.41200638
_cell_formula_units_Z   6
loop_
 _symmetry_equiv_pos_site_id
 _symmetry_equiv_pos_as_xyz
  1  'x, y, z'
loop_
 _atom_site_type_symbol
 _atom_site_label
 _atom_site_symmetry_multiplicity
 _atom_site_fract_x
 _atom_site_fract_y
 _atom_site_fract_z
 _atom_site_occupancy
  Mn  Mn0  1  0.83728000  0.20943000  0.62255000  1.0
  Mn  Mn1  1  0.21007000  0.62235000  0.83712000  1.0
  Mn  Mn2  1  0.62336000  0.83612000  0.20969000  1.0
  Mn  Mn3  1  0.16272000  0.79057000  0.37745000  1.0
  Mn  Mn4  1  0.78992000  0.37765000  0.16288000  1.0
  Mn  Mn5  1  0.37665000  0.16388000  0.79031000  1.0
  H  H6  1  0.02063000  0.30466000  0.83829000  1.0
  H  H7  1  0.30463000  0.83837000  0.02035000  1.0
  H  H8  1  0.83842000  0.02190000  0.30464000  1.0
  H  H9  1  0.97937000  0.69534000  0.16171000  1.0
  H  H10  1  0.69537000  0.16163000  0.97965000  1.0
  H  H11  1  0.16158000  0.97810000  0.69537000  1.0
  H  H12  1  0.05712000  0.14548000  0.81973000  1.0
  H  H13  1  0.14578000  0.82014000  0.05710000  1.0
  H  H14  1  0.81999000  0.05716000  0.14649000  1.0
  H  H15  1  0.94288000  0.85451000  0.18027000  1.0
  H  H16  1  0.85422000  0.17986000  0.94290000  1.0
  H  H17  1  0.18002000  0.94284000  0.85351000  1.0
  H  H18  1  0.61788000  0.17498000  0.41397000  1.0
  H  H19  1  0.17510000  0.41372000  0.61670000  1.0
  H  H20  1  0.41360000  0.61722000  0.17517000  1.0
  H  H21  1  0.38212000  0.82502000  0.58603000  1.0
  H  H22  1  0.82490000  0.58628000  0.38330000  1.0
  H  H23  1  0.58640000  0.38278000  0.82483000  1.0
  H  H24  1  0.67973000  0.33434000  0.43513000  1.0
  H  H25  1  0.33455000  0.43475000  0.67859000  1.0
  H  H26  1  0.43517000  0.67911000  0.33333333  1.0
  H  H27  1  0.32026000  0.66566000  0.56487000  1.0
  H  H28  1  0.66544000  0.56525000  0.32141000  1.0
  H  H29  1  0.56483000  0.32089000  0.66666667  1.0
  H  H30  1  0.22864000  0.36817000  0.41647000  1.0
  H  H31  1  0.36741000  0.41707000  0.22786000  1.0
  H  H32  1  0.41813000  0.22859000  0.36600000  1.0
  H  H33  1  0.77136000  0.63183000  0.58353000  1.0
  H  H34  1  0.63259000  0.58293000  0.77214000  1.0
  H  H35  1  0.58187000  0.77141000  0.63400000  1.0
  H  H36  1  0.12505000  0.07071000  0.27605000  1.0
  H  H37  1  0.07021000  0.27432000  0.12637000  1.0
  H  H38  1  0.27412000  0.12398000  0.07204000  1.0
  H  H39  1  0.87495000  0.92929000  0.72395000  1.0
  H  H40  1  0.92979000  0.72568000  0.87363000  1.0
  H  H41  1  0.72588000  0.87602000  0.92796000  1.0
  C  C42  1  0.15189000  0.29483000  0.34495000  1.0
  C  C43  1  0.29411000  0.34476000  0.15191000  1.0
  C  C44  1  0.34542000  0.15158000  0.29418000  1.0
  C  C45  1  0.84811000  0.70517000  0.65505000  1.0
  C  C46  1  0.70589000  0.65525000  0.84809000  1.0
  C  C47  1  0.65458000  0.84842000  0.70582000  1.0
  C  C48  1  0.20050000  0.14803000  0.34473000  1.0
  C  C49  1  0.14761000  0.34425000  0.20049000  1.0
  C  C50  1  0.34410000  0.19931000  0.14821000  1.0
  C  C51  1  0.79950000  0.85197000  0.65527000  1.0
  C  C52  1  0.85239000  0.65575000  0.79951000  1.0
  C  C53  1  0.65590000  0.80069000  0.85179000  1.0
  C  C54  1  0.01087000  0.29332000  0.40099000  1.0
  C  C55  1  0.29254000  0.40130000  0.01215000  1.0
  C  C56  1  0.40190000  0.01068000  0.29272000  1.0
  C  C57  1  0.98914000  0.70668000  0.59900000  1.0
  C  C58  1  0.70746000  0.59871000  0.98785000  1.0
  C  C59  1  0.59810000  0.98932000  0.70728000  1.0
  C  C60  1  0.21372000  0.10389000  0.49111000  1.0
  C  C61  1  0.10315000  0.49149000  0.21314000  1.0
  C  C62  1  0.49115000  0.21238000  0.10323000  1.0
  C  C63  1  0.78628000  0.89611000  0.50890000  1.0
  C  C64  1  0.89685000  0.50852000  0.78686000  1.0
  C  C65  1  0.50885000  0.78762000  0.89677000  1.0
  O  O66  1  0.97901000  0.20429000  0.82237000  1.0
  O  O67  1  0.20418000  0.82329000  0.97940000  1.0
  O  O68  1  0.82306000  0.97966000  0.20543000  1.0
  O  O69  1  0.02099000  0.79571000  0.17763000  1.0
  O  O70  1  0.79582000  0.17671000  0.02060000  1.0
  O  O71  1  0.17694000  0.02034000  0.79458000  1.0
  O  O72  1  0.65217000  0.25583000  0.48636000  1.0
  O  O73  1  0.25565000  0.48651000  0.65261000  1.0
  O  O74  1  0.48668000  0.65165000  0.25533000  1.0
  O  O75  1  0.34783000  0.74417000  0.51364000  1.0
  O  O76  1  0.74435000  0.51349000  0.34739000  1.0
  O  O77  1  0.51332000  0.34835000  0.74467000  1.0
  O  O78  1  0.01362000  0.30824000  0.53333000  1.0
  O  O79  1  0.30757000  0.53475000  0.01498000  1.0
  O  O80  1  0.53536000  0.01344000  0.30720000  1.0
  O  O81  1  0.98638000  0.69176000  0.46666000  1.0
  O  O82  1  0.69243000  0.46525000  0.98502000  1.0
  O  O83  1  0.46464000  0.98656000  0.69281000  1.0
  O  O84  1  0.89914000  0.27091000  0.31723000  1.0
  O  O85  1  0.27039000  0.31707000  0.90117000  1.0
  O  O86  1  0.31767000  0.89887000  0.27098000  1.0
  O  O87  1  0.10086000  0.72909000  0.68277000  1.0
  O  O88  1  0.72961000  0.68293000  0.09882000  1.0
  O  O89  1  0.68232000  0.10114000  0.72902000  1.0
  O  O90  1  0.28333000  0.19043000  0.58669000  1.0
  O  O91  1  0.18953000  0.58761000  0.28274000  1.0
  O  O92  1  0.58764000  0.28184000  0.18917000  1.0
  O  O93  1  0.71667000  0.80957000  0.41331000  1.0
  O  O94  1  0.81047000  0.41239000  0.71726000  1.0
  O  O95  1  0.41236000  0.71815000  0.81083000  1.0
  O  O96  1  0.15855000  0.98179000  0.50946000  1.0
  O  O97  1  0.98123000  0.51026000  0.15798000  1.0
  O  O98  1  0.50927000  0.15833000  0.98163000  1.0
  O  O99  1  0.84145000  0.01821000  0.49054000  1.0
  O  O100  1  0.01877000  0.48974000  0.84202000  1.0
  O  O101  1  0.49073000  0.84166000  0.01837000  1.0
