# generated using pymatgen
data_Zn2H14C21I4N8O
_symmetry_space_group_name_H-M   'P 1'
_cell_length_a   14.79574345
_cell_length_b   14.84540000
_cell_length_c   14.88200000
_cell_angle_alpha   63.91800000
_cell_angle_beta   69.70005089
_cell_angle_gamma   101.91851384
_symmetry_Int_Tables_number   1
_chemical_formula_structural   Zn2H14C21I4N8O
_chemical_formula_sum   'Zn4 H28 C42 I8 N16 O2'
_cell_volume   2490.92344007
_cell_formula_units_Z   2
loop_
 _symmetry_equiv_pos_site_id
 _symmetry_equiv_pos_as_xyz
  1  'x, y, z'
loop_
 _atom_site_type_symbol
 _atom_site_label
 _atom_site_symmetry_multiplicity
 _atom_site_fract_x
 _atom_site_fract_y
 _atom_site_fract_z
 _atom_site_occupancy
  Zn  Zn0  1  0.14370000  0.48163000  0.37871000  1.0
  Zn  Zn1  1  0.85940000  0.52219000  0.62200000  1.0
  Zn  Zn2  1  0.97410000  0.34594000  0.65616000  1.0
  Zn  Zn3  1  0.00179000  0.63052000  0.34413000  1.0
  H  H4  1  0.12191000  0.68416000  0.76459000  1.0
  H  H5  1  0.79632000  0.89566000  0.55520000  1.0
  H  H6  1  0.45022000  0.35124000  0.44501000  1.0
  H  H7  1  0.29442000  0.16996000  0.70211000  1.0
  H  H8  1  0.87233000  0.99616000  0.29775000  1.0
  H  H9  1  0.62191000  0.41766000  0.38381000  1.0
  H  H10  1  0.80202000  0.00641000  0.61624000  1.0
  H  H11  1  0.44923000  0.88649000  0.23508000  1.0
  H  H12  1  0.63195000  0.35111000  0.88306000  1.0
  H  H13  1  0.23402000  0.51485000  0.11756000  1.0
  H  H14  1  0.85290000  0.45274000  0.31837000  1.0
  H  H15  1  0.77129000  0.17136000  0.68140000  1.0
  H  H16  1  0.09695000  0.19437000  0.75920000  1.0
  H  H17  1  0.95364000  0.85614000  0.24077000  1.0
  H  H18  1  0.78873000  0.72482000  0.60549000  1.0
  H  H19  1  0.32993000  0.39433000  0.39469000  1.0
  H  H20  1  0.14125000  0.83993000  0.32251000  1.0
  H  H21  1  0.16255000  0.46399000  0.67762000  1.0
  H  H22  1  0.25984000  0.55485000  0.76649000  1.0
  H  H23  1  0.32132000  0.02577000  0.23364000  1.0
  H  H24  1  0.68084000  0.98865000  0.06778000  1.0
  H  H25  1  0.78964000  0.08499000  0.05417000  1.0
  H  H26  1  0.81002000  0.98968000  0.01396000  1.0
  H  H27  1  0.05643000  0.74901000  0.93160000  1.0
  H  H28  1  0.13901000  0.84331000  0.94622000  1.0
  H  H29  1  0.29776000  0.65169000  0.86928000  1.0
  H  H30  1  0.00349000  0.82398000  0.98568000  1.0
  H  H31  1  0.52025000  0.16597000  0.13157000  1.0
  C  C32  1  0.98077000  0.27168000  0.43369000  1.0
  C  C33  1  0.11525000  0.59751000  0.68352000  1.0
  C  C34  1  0.28148000  0.79903000  0.31606000  1.0
  C  C35  1  0.24473000  0.27175000  0.58810000  1.0
  C  C36  1  0.85993000  0.83296000  0.41195000  1.0
  C  C37  1  0.21638000  0.59971000  0.78944000  1.0
  C  C38  1  0.38923000  0.00532000  0.21051000  1.0
  C  C39  1  0.70552000  0.41452000  0.56619000  1.0
  C  C40  1  0.15516000  0.63202000  0.74396000  1.0
  C  C41  1  0.37631000  0.89908000  0.25565000  1.0
  C  C42  1  0.22014000  0.61734000  0.87711000  1.0
  C  C43  1  0.49426000  0.09664000  0.12313000  1.0
  C  C44  1  0.13567000  0.59265000  0.97220000  1.0
  C  C45  1  0.56479000  0.10791000  0.02758000  1.0
  C  C46  1  0.61438000  0.36184000  0.46735000  1.0
  C  C47  1  0.82980000  0.08194000  0.53243000  1.0
  C  C48  1  0.51499000  0.27838000  0.54890000  1.0
  C  C49  1  0.82764000  0.06375000  0.45088000  1.0
  C  C50  1  0.32089000  0.23375000  0.61283000  1.0
  C  C51  1  0.84685000  0.93366000  0.38716000  1.0
  C  C52  1  0.76602000  0.20197000  0.87912000  1.0
  C  C53  1  0.08104000  0.64525000  0.12091000  1.0
  C  C54  1  0.42554000  0.28409000  0.53253000  1.0
  C  C55  1  0.17764000  0.78213000  0.33493000  1.0
  C  C56  1  0.81689000  0.95819000  0.46742000  1.0
  C  C57  1  0.68711000  0.31388000  0.87120000  1.0
  C  C58  1  0.18500000  0.55822000  0.12935000  1.0
  C  C59  1  0.81485000  0.44501000  0.39999000  1.0
  C  C60  1  0.84506000  0.21486000  0.59977000  1.0
  C  C61  1  0.11696000  0.51255000  0.66503000  1.0
  C  C62  1  0.87747000  0.18510000  0.52011000  1.0
  C  C63  1  0.70547000  0.39743000  0.47964000  1.0
  C  C64  1  0.66723000  0.20164000  0.93687000  1.0
  C  C65  1  0.13852000  0.60433000  0.06320000  1.0
  C  C66  1  0.28034000  0.69390000  0.34623000  1.0
  C  C67  1  0.03989000  0.62632000  0.65341000  1.0
  C  C68  1  0.14285000  0.25064000  0.66580000  1.0
  C  C69  1  0.91633000  0.80866000  0.33424000  1.0
  C  C70  1  0.83254000  0.74206000  0.52003000  1.0
  C  C71  1  0.26184000  0.35276000  0.48013000  1.0
  C  C72  1  0.76703000  0.04117000  0.01648000  1.0
  C  C73  1  0.05756000  0.78351000  0.98334000  1.0
  I  I74  1  0.10222000  0.26850000  0.31317000  1.0
  I  I75  1  0.85214000  0.19256000  0.29282000  1.0
  I  I76  1  0.48683000  0.14559000  0.70677000  1.0
  I  I77  1  0.40541000  0.65059000  0.34408000  1.0
  I  I78  1  0.99461000  0.74905000  0.65563000  1.0
  I  I79  1  0.58161000  0.41539000  0.68651000  1.0
  I  I80  1  0.97437000  0.50669000  0.01645000  1.0
  I  I81  1  0.52363000  0.99141000  0.98268000  1.0
  N  N82  1  0.00413000  0.34737000  0.45813000  1.0
  N  N83  1  0.15617000  0.56838000  0.21926000  1.0
  N  N84  1  0.78711000  0.37482000  0.78154000  1.0
  N  N85  1  0.87344000  0.48350000  0.43822000  1.0
  N  N86  1  0.92125000  0.31159000  0.56163000  1.0
  N  N87  1  0.18547000  0.62224000  0.37768000  1.0
  N  N88  1  0.99915000  0.56268000  0.62239000  1.0
  N  N89  1  0.80565000  0.46278000  0.54177000  1.0
  N  N90  1  0.10401000  0.31492000  0.60848000  1.0
  N  N91  1  0.92269000  0.71236000  0.39172000  1.0
  N  N92  1  0.87063000  0.67171000  0.50731000  1.0
  N  N93  1  0.17883000  0.37851000  0.49301000  1.0
  N  N94  1  0.12223000  0.67752000  0.37088000  1.0
  N  N95  1  0.04771000  0.49278000  0.62934000  1.0
  N  N96  1  0.83662000  0.30470000  0.78778000  1.0
  N  N97  1  0.09233000  0.62421000  0.21272000  1.0
  O  O98  1  0.79872000  0.11975000  0.89783000  1.0
  O  O99  1  0.01750000  0.69674000  0.10195000  1.0
