# generated using pymatgen
data_Ni4H27C36(N4O)3
_symmetry_space_group_name_H-M   'P 1'
_cell_length_a   17.87360000
_cell_length_b   17.87266812
_cell_length_c   17.87319637
_cell_angle_alpha   60.00492858
_cell_angle_beta   60.00555913
_cell_angle_gamma   60.00542636
_symmetry_Int_Tables_number   1
_chemical_formula_structural   Ni4H27C36(N4O)3
_chemical_formula_sum   'Ni8 H54 C72 N24 O6'
_cell_volume   4037.76354088
_cell_formula_units_Z   2
loop_
 _symmetry_equiv_pos_site_id
 _symmetry_equiv_pos_as_xyz
  1  'x, y, z'
loop_
 _atom_site_type_symbol
 _atom_site_label
 _atom_site_symmetry_multiplicity
 _atom_site_fract_x
 _atom_site_fract_y
 _atom_site_fract_z
 _atom_site_occupancy
  Ni  Ni0  1  0.94089000  0.94094000  0.94095000  1.0
  Ni  Ni1  1  0.94085000  0.94092000  0.17725000  1.0
  Ni  Ni2  1  0.17731000  0.94088000  0.94088000  1.0
  Ni  Ni3  1  0.94086000  0.17727000  0.94091000  1.0
  Ni  Ni4  1  0.05915000  0.05908000  0.82275000  1.0
  Ni  Ni5  1  0.05911000  0.05906000  0.05905000  1.0
  Ni  Ni6  1  0.82270000  0.05912000  0.05912000  1.0
  Ni  Ni7  1  0.05914000  0.82273000  0.05909000  1.0
  H  H8  1  0.88172000  0.11825000  0.88169000  1.0
  H  H9  1  0.11828000  0.88175000  0.11831000  1.0
  H  H10  1  0.11818000  0.88164000  0.88176000  1.0
  H  H11  1  0.88182000  0.11836000  0.11824000  1.0
  H  H12  1  0.88178000  0.88162000  0.11820000  1.0
  H  H13  1  0.11822000  0.11838000  0.88180000  1.0
  H  H14  1  0.08536000  0.08536000  0.34643000  1.0
  H  H15  1  0.08565000  0.08574000  0.21666000  1.0
  H  H16  1  0.08531000  0.08532000  0.48302000  1.0
  H  H17  1  0.08560000  0.08566000  0.61206000  1.0
  H  H18  1  0.48300000  0.34637000  0.08531000  1.0
  H  H19  1  0.61210000  0.21665000  0.08559000  1.0
  H  H20  1  0.34643000  0.48287000  0.08534000  1.0
  H  H21  1  0.21661000  0.61202000  0.08563000  1.0
  H  H22  1  0.08534000  0.34640000  0.08534000  1.0
  H  H23  1  0.08567000  0.21672000  0.08567000  1.0
  H  H24  1  0.08532000  0.48298000  0.08533000  1.0
  H  H25  1  0.08565000  0.61198000  0.08566000  1.0
  H  H26  1  0.34641000  0.08534000  0.48291000  1.0
  H  H27  1  0.21661000  0.08564000  0.61208000  1.0
  H  H28  1  0.48295000  0.08533000  0.34639000  1.0
  H  H29  1  0.61209000  0.08563000  0.21661000  1.0
  H  H30  1  0.34645000  0.08536000  0.08535000  1.0
  H  H31  1  0.21666000  0.08573000  0.08565000  1.0
  H  H32  1  0.48304000  0.08531000  0.08531000  1.0
  H  H33  1  0.61209000  0.08564000  0.08560000  1.0
  H  H34  1  0.08534000  0.48288000  0.34642000  1.0
  H  H35  1  0.08561000  0.61201000  0.21663000  1.0
  H  H36  1  0.08532000  0.34637000  0.48298000  1.0
  H  H37  1  0.08560000  0.21665000  0.61207000  1.0
  H  H38  1  0.91470000  0.91469000  0.51697000  1.0
  H  H39  1  0.91440000  0.91435000  0.38794000  1.0
  H  H40  1  0.91465000  0.91465000  0.65356000  1.0
  H  H41  1  0.91435000  0.91426000  0.78334000  1.0
  H  H42  1  0.51700000  0.65362000  0.91469000  1.0
  H  H43  1  0.38790000  0.78334000  0.91442000  1.0
  H  H44  1  0.65357000  0.51712000  0.91466000  1.0
  H  H45  1  0.78337000  0.38798000  0.91438000  1.0
  H  H46  1  0.91469000  0.65362000  0.51701000  1.0
  H  H47  1  0.91440000  0.78334000  0.38793000  1.0
  H  H48  1  0.91467000  0.51711000  0.65357000  1.0
  H  H49  1  0.91439000  0.38799000  0.78336000  1.0
  H  H50  1  0.65355000  0.91465000  0.91466000  1.0
  H  H51  1  0.78334000  0.91427000  0.91435000  1.0
  H  H52  1  0.51696000  0.91470000  0.91470000  1.0
  H  H53  1  0.38792000  0.91437000  0.91440000  1.0
  H  H54  1  0.65358000  0.91467000  0.51708000  1.0
  H  H55  1  0.78339000  0.91436000  0.38791000  1.0
  H  H56  1  0.51705000  0.91468000  0.65359000  1.0
  H  H57  1  0.38791000  0.91437000  0.78338000  1.0
  H  H58  1  0.91469000  0.51701000  0.91468000  1.0
  H  H59  1  0.91436000  0.38801000  0.91435000  1.0
  H  H60  1  0.91467000  0.65359000  0.91467000  1.0
  H  H61  1  0.91434000  0.78327000  0.91434000  1.0
  C  C62  1  0.00002000  0.00003000  0.42004000  1.0
  C  C63  1  0.00003000  0.00005000  0.33838000  1.0
  C  C64  1  0.99999000  0.99998000  0.57995000  1.0
  C  C65  1  0.99998000  0.99996000  0.66161000  1.0
  C  C66  1  0.57999000  0.42004000  0.99999000  1.0
  C  C67  1  0.66164000  0.33840000  0.99999000  1.0
  C  C68  1  0.42001000  0.57995000  0.00002000  1.0
  C  C69  1  0.33835000  0.66159000  0.00002000  1.0
  C  C70  1  0.00001000  0.42006000  0.00001000  1.0
  C  C71  1  0.00002000  0.33843000  0.00001000  1.0
  C  C72  1  0.99999000  0.57993000  0.00000000  1.0
  C  C73  1  0.99999000  0.66156000  0.00000000  1.0
  C  C74  1  0.42002000  0.00001000  0.57996000  1.0
  C  C75  1  0.33835000  0.00001000  0.66163000  1.0
  C  C76  1  0.57998000  1.00000000  0.42002000  1.0
  C  C77  1  0.66164000  1.00000000  0.33836000  1.0
  C  C78  1  0.42003000  0.00003000  0.00002000  1.0
  C  C79  1  0.33836000  0.00005000  0.00003000  1.0
  C  C80  1  0.57996000  0.99998000  0.99999000  1.0
  C  C81  1  0.66163000  0.99996000  0.99998000  1.0
  C  C82  1  0.00001000  0.57994000  0.42003000  1.0
  C  C83  1  0.00002000  0.66158000  0.33837000  1.0
  C  C84  1  0.99999000  0.42006000  0.57996000  1.0
  C  C85  1  0.99999000  0.33842000  0.66162000  1.0
  C  C86  1  0.04753000  0.04754000  0.41364000  1.0
  C  C87  1  0.04377000  0.04381000  0.24581000  1.0
  C  C88  1  0.04751000  0.04751000  0.49138000  1.0
  C  C89  1  0.04374333  0.04373000  0.66666667  1.0
  C  C90  1  0.49138000  0.41361000  0.04750000  1.0
  C  C91  1  0.66672000  0.24582000  0.04372000  1.0
  C  C92  1  0.41364000  0.49131000  0.04752000  1.0
  C  C93  1  0.24577333  0.66666667  0.04375000  1.0
  C  C94  1  0.04752000  0.41363000  0.04753000  1.0
  C  C95  1  0.04377000  0.24586000  0.04376000  1.0
  C  C96  1  0.04752000  0.49135000  0.04752000  1.0
  C  C97  1  0.04371333  0.66666667  0.04375000  1.0
  C  C98  1  0.41362000  0.04752000  0.49134000  1.0
  C  C99  1  0.24577000  0.04375000  0.66672000  1.0
  C  C100  1  0.49136000  0.04751000  0.41362000  1.0
  C  C101  1  0.66672000  0.04375000  0.24577000  1.0
  C  C102  1  0.41364000  0.04754000  0.04753000  1.0
  C  C103  1  0.24580000  0.04381000  0.04376000  1.0
  C  C104  1  0.49138000  0.04751000  0.04751000  1.0
  C  C105  1  0.66671000  0.04373000  0.04371000  1.0
  C  C106  1  0.04751000  0.49132000  0.41364000  1.0
  C  C107  1  0.04372333  0.66666667  0.24580000  1.0
  C  C108  1  0.04751000  0.41361000  0.49137000  1.0
  C  C109  1  0.04375333  0.24584000  0.66666667  1.0
  C  C110  1  0.95250000  0.95250000  0.50861000  1.0
  C  C111  1  0.95625667  0.95628000  0.33333333  1.0
  C  C112  1  0.95247000  0.95248000  0.58635000  1.0
  C  C113  1  0.95629667  0.95619000  0.75418000  1.0
  C  C114  1  0.50862000  0.58638000  0.95250000  1.0
  C  C115  1  0.33327000  0.75417000  0.95629000  1.0
  C  C116  1  0.58635000  0.50868000  0.95249000  1.0
  C  C117  1  0.75420667  0.33333333  0.95626000  1.0
  C  C118  1  0.95250000  0.58638000  0.50862000  1.0
  C  C119  1  0.95624667  0.75415000  0.33333333  1.0
  C  C120  1  0.95249000  0.50868000  0.58635000  1.0
  C  C121  1  0.95627667  0.33333333  0.75419000  1.0
  C  C122  1  0.58634000  0.95248000  0.95248000  1.0
  C  C123  1  0.75422667  0.95619000  0.95625000  1.0
  C  C124  1  0.50861000  0.95250000  0.95250000  1.0
  C  C125  1  0.33329000  0.95628000  0.95629000  1.0
  C  C126  1  0.58636000  0.95250000  0.50865000  1.0
  C  C127  1  0.75416667  0.95625000  0.33333333  1.0
  C  C128  1  0.50864000  0.95250000  0.58636000  1.0
  C  C129  1  0.33328000  0.95626000  0.75421000  1.0
  C  C130  1  0.95249000  0.50864000  0.95249000  1.0
  C  C131  1  0.95628667  0.33333333  0.95626000  1.0
  C  C132  1  0.95249000  0.58636000  0.95248000  1.0
  C  C133  1  0.95628667  0.75413000  0.95625000  1.0
  N  N134  1  0.02673000  0.02676000  0.19152000  1.0
  N  N135  1  0.02668000  0.02669000  0.75506000  1.0
  N  N136  1  0.75508000  0.19153000  0.02669000  1.0
  N  N137  1  0.19150000  0.75504000  0.02671000  1.0
  N  N138  1  0.02672000  0.19156000  0.02672000  1.0
  N  N139  1  0.02670000  0.75501000  0.02672000  1.0
  N  N140  1  0.19150000  0.02671000  0.75509000  1.0
  N  N141  1  0.75508000  0.02671000  0.19149000  1.0
  N  N142  1  0.19151000  0.02676000  0.02672000  1.0
  N  N143  1  0.75507000  0.02669000  0.02669000  1.0
  N  N144  1  0.02672000  0.75502000  0.19151000  1.0
  N  N145  1  0.02669000  0.19155000  0.75507000  1.0
  N  N146  1  0.97331000  0.97332000  0.24494000  1.0
  N  N147  1  0.97327000  0.97325000  0.80848000  1.0
  N  N148  1  0.24492000  0.80846000  0.97332000  1.0
  N  N149  1  0.80850000  0.24495000  0.97329000  1.0
  N  N150  1  0.97331000  0.80845000  0.24493000  1.0
  N  N151  1  0.97328000  0.24498000  0.80849000  1.0
  N  N152  1  0.80848000  0.97325000  0.97329000  1.0
  N  N153  1  0.24493000  0.97331000  0.97332000  1.0
  N  N154  1  0.80850000  0.97330000  0.24490000  1.0
  N  N155  1  0.24492000  0.97329000  0.80850000  1.0
  N  N156  1  0.97330000  0.24498000  0.97329000  1.0
  N  N157  1  0.97328000  0.80843000  0.97329000  1.0
  O  O158  1  0.92029000  0.07971000  0.92041000  1.0
  O  O159  1  0.07970000  0.92029000  0.07960000  1.0
  O  O160  1  0.07976000  0.92032000  0.92036000  1.0
  O  O161  1  0.92024000  0.07968000  0.07964000  1.0
  O  O162  1  0.92030000  0.92038000  0.07970000  1.0
  O  O163  1  0.07969000  0.07963000  0.92030000  1.0
