# generated using pymatgen
data_CdH16C17O7
_symmetry_space_group_name_H-M   'P 1'
_cell_length_a   6.05861000
_cell_length_b   9.46235000
_cell_length_c   15.22170000
_cell_angle_alpha   97.36870000
_cell_angle_beta   90.08190000
_cell_angle_gamma   108.62800000
_symmetry_Int_Tables_number   1
_chemical_formula_structural   CdH16C17O7
_chemical_formula_sum   'Cd2 H32 C34 O14'
_cell_volume   819.26038811
_cell_formula_units_Z   2
loop_
 _symmetry_equiv_pos_site_id
 _symmetry_equiv_pos_as_xyz
  1  'x, y, z'
loop_
 _atom_site_type_symbol
 _atom_site_label
 _atom_site_symmetry_multiplicity
 _atom_site_fract_x
 _atom_site_fract_y
 _atom_site_fract_z
 _atom_site_occupancy
  Cd  Cd0  1  0.50548000  0.55221000  0.93709000  1.0
  Cd  Cd1  1  0.95380000  0.44768000  0.06308000  1.0
  H  H2  1  0.89738000  0.92779000  0.23060000  1.0
  H  H3  1  0.96974000  0.07203000  0.76897000  1.0
  H  H4  1  0.02469000  0.14423000  0.35174000  1.0
  H  H5  1  0.88157000  0.85566000  0.64777000  1.0
  H  H6  1  0.63603000  0.02585000  0.40647000  1.0
  H  H7  1  0.61129000  0.97478000  0.59410000  1.0
  H  H8  1  0.50434000  0.80791000  0.28587000  1.0
  H  H9  1  0.69653000  0.19269000  0.71465000  1.0
  H  H10  1  0.54256000  0.21319000  0.50564000  1.0
  H  H11  1  0.33155000  0.78762000  0.49451000  1.0
  H  H12  1  0.52593000  0.33415000  0.42672000  1.0
  H  H13  1  0.19508000  0.66639000  0.57334000  1.0
  H  H14  1  0.91699000  0.30357000  0.60150000  1.0
  H  H15  1  0.61540000  0.69611000  0.39811000  1.0
  H  H16  1  0.97441000  0.47924000  0.74173000  1.0
  H  H17  1  0.49700000  0.52020000  0.25798000  1.0
  H  H18  1  0.71354000  0.63407000  0.70399000  1.0
  H  H19  1  0.08297000  0.36644000  0.29582000  1.0
  H  H20  1  0.65723000  0.45813000  0.56407000  1.0
  H  H21  1  0.20271000  0.54265000  0.43568000  1.0
  H  H22  1  0.15028000  0.76018000  0.77991000  1.0
  H  H23  1  0.39236000  0.23956000  0.22021000  1.0
  H  H24  1  0.51621000  0.96129000  0.84314000  1.0
  H  H25  1  0.55614000  0.03811000  0.15694000  1.0
  H  H26  1  0.48366000  0.88486000  0.94535000  1.0
  H  H27  1  0.59943000  0.11445000  0.05471000  1.0
  H  H28  1  0.27560000  0.96558000  0.90946000  1.0
  H  H29  1  0.31099000  0.03419000  0.09065000  1.0
  H  H30  1  0.45922000  0.71372000  0.09643000  1.0
  H  H31  1  0.74565000  0.28627000  0.90371000  1.0
  H  H32  1  0.72595000  0.74885000  0.08428000  1.0
  H  H33  1  0.97724000  0.25095000  0.91592000  1.0
  C  C34  1  0.11639000  0.72224000  0.18010000  1.0
  C  C35  1  0.39373000  0.27778000  0.82003000  1.0
  C  C36  1  0.19274000  0.85396000  0.25125000  1.0
  C  C37  1  0.33881000  0.14623000  0.74878000  1.0
  C  C38  1  0.05807000  0.94919000  0.26987000  1.0
  C  C39  1  0.10918000  0.05083000  0.72987000  1.0
  C  C40  1  0.13029000  0.07078000  0.33717000  1.0
  C  C41  1  0.06039000  0.92929000  0.66254000  1.0
  C  C42  1  0.33899000  0.09983000  0.38670000  1.0
  C  C43  1  0.24038000  0.90048000  0.61331000  1.0
  C  C44  1  0.47363000  0.00455000  0.36795000  1.0
  C  C45  1  0.47000000  0.99600000  0.63235000  1.0
  C  C46  1  0.40114000  0.88274000  0.30085000  1.0
  C  C47  1  0.51871000  0.11775000  0.69944000  1.0
  C  C48  1  0.42566000  0.23388000  0.45684000  1.0
  C  C49  1  0.19398000  0.76650000  0.54318000  1.0
  C  C50  1  0.28088000  0.36783000  0.57403000  1.0
  C  C51  1  0.91559000  0.63213000  0.42574000  1.0
  C  C52  1  0.09089000  0.37848000  0.62376000  1.0
  C  C53  1  0.71462000  0.62128000  0.37594000  1.0
  C  C54  1  0.12397000  0.47857000  0.70202000  1.0
  C  C55  1  0.64750000  0.52105000  0.29773000  1.0
  C  C56  1  0.35044000  0.57051000  0.73002000  1.0
  C  C57  1  0.78226000  0.42922000  0.26984000  1.0
  C  C58  1  0.53933000  0.56252000  0.67986000  1.0
  C  C59  1  0.97986000  0.43771000  0.31996000  1.0
  C  C60  1  0.50647000  0.46185000  0.60185000  1.0
  C  C61  1  0.04775000  0.53853000  0.39792000  1.0
  C  C62  1  0.24455000  0.74762000  0.83851000  1.0
  C  C63  1  0.49858000  0.25202000  0.16155000  1.0
  C  C64  1  0.38973000  0.89958000  0.88737000  1.0
  C  C65  1  0.49125000  0.09993000  0.11270000  1.0
  C  C66  1  0.06626000  0.66288000  0.90075000  1.0
  C  C67  1  0.40435000  0.33690000  0.09939000  1.0
  O  O68  1  0.92552000  0.69348000  0.13591000  1.0
  O  O69  1  0.23160000  0.30621000  0.86416000  1.0
  O  O70  1  0.24484000  0.63749000  0.16587000  1.0
  O  O71  1  0.60674000  0.36270000  0.83442000  1.0
  O  O72  1  0.23038000  0.26120000  0.50036000  1.0
  O  O73  1  0.97127000  0.73863000  0.49948000  1.0
  O  O74  1  0.40548000  0.66781000  0.80940000  1.0
  O  O75  1  0.73946000  0.33160000  0.19057000  1.0
  O  O76  1  0.87385000  0.68660000  0.90147000  1.0
  O  O77  1  0.18836000  0.31332000  0.09876000  1.0
  O  O78  1  0.13183000  0.58096000  0.94915000  1.0
  O  O79  1  0.55131000  0.41887000  0.05100000  1.0
  O  O80  1  0.58189000  0.75047000  0.05373000  1.0
  O  O81  1  0.83177000  0.24942000  0.94643000  1.0
