# generated using pymatgen
data_Zr6H36C55O42
_symmetry_space_group_name_H-M   'P 1'
_cell_length_a   14.62304158
_cell_length_b   14.73891459
_cell_length_c   14.77600000
_cell_angle_alpha   119.85465828
_cell_angle_beta   90.12105262
_cell_angle_gamma   119.65214907
_symmetry_Int_Tables_number   1
_chemical_formula_structural   Zr6H36C55O42
_chemical_formula_sum   'Zr6 H36 C55 O42'
_cell_volume   2266.21793446
_cell_formula_units_Z   1
loop_
 _symmetry_equiv_pos_site_id
 _symmetry_equiv_pos_as_xyz
  1  'x, y, z'
loop_
 _atom_site_type_symbol
 _atom_site_label
 _atom_site_symmetry_multiplicity
 _atom_site_fract_x
 _atom_site_fract_y
 _atom_site_fract_z
 _atom_site_occupancy
  Zr  Zr0  1  0.87884000  0.49574000  0.37848000  1.0
  Zr  Zr1  1  0.11950000  0.49293000  0.61716000  1.0
  Zr  Zr2  1  0.87709000  0.49412000  0.61667000  1.0
  Zr  Zr3  1  0.11986000  0.49427000  0.37829000  1.0
  Zr  Zr4  1  0.87959000  0.25594000  0.37861000  1.0
  Zr  Zr5  1  0.11887000  0.73283000  0.61688000  1.0
  H  H6  1  0.71488000  0.30884000  0.40469000  1.0
  H  H7  1  0.09466000  0.30583000  0.40437000  1.0
  H  H8  1  0.09271000  0.68132000  0.77941000  1.0
  H  H9  1  0.09399000  0.68343000  0.40445000  1.0
  H  H10  1  0.59083000  0.22197000  0.06731000  1.0
  H  H11  1  0.59460000  0.94013000  0.08284000  1.0
  H  H12  1  0.42162000  0.04715000  0.89677000  1.0
  H  H13  1  0.84946000  0.76595000  0.35589000  1.0
  H  H14  1  0.12302000  0.05072000  0.66254000  1.0
  H  H15  1  0.84959000  0.93787000  0.35924000  1.0
  H  H16  1  0.84035000  0.93507000  0.07051000  1.0
  H  H17  1  0.13979000  0.22531000  0.07829000  1.0
  H  H18  1  0.84068000  0.76677000  0.89948000  1.0
  H  H19  1  0.43077000  0.05296000  0.65954000  1.0
  H  H20  1  0.41995000  0.76339000  0.35821000  1.0
  H  H21  1  0.60040000  0.22153000  0.65825000  1.0
  H  H22  1  0.31913000  0.30071000  0.40890000  1.0
  H  H23  1  0.37124000  0.38237000  0.55424000  1.0
  H  H24  1  0.51624000  0.35634000  0.52504000  1.0
  H  H25  1  0.47869000  0.30564000  0.38578000  1.0
  H  H26  1  0.62073000  0.59133000  0.67780000  1.0
  H  H27  1  0.68845000  0.70640000  0.64852000  1.0
  H  H28  1  0.47769000  0.62141000  0.68247000  1.0
  H  H29  1  0.53328000  0.71096000  0.62626000  1.0
  H  H30  1  0.39584000  0.43544000  0.32991000  1.0
  H  H31  1  0.46695000  0.60178000  0.41845000  1.0
  H  H32  1  0.63966000  0.63127000  0.44608000  1.0
  H  H33  1  0.57046000  0.46887000  0.33888000  1.0
  H  H34  1  0.14383000  0.49128000  0.07937000  1.0
  H  H35  1  0.84241000  0.47574000  0.07543000  1.0
  H  H36  1  0.13891000  0.48711000  0.90822000  1.0
  H  H37  1  0.29738000  0.70961000  0.95934000  1.0
  H  H38  1  0.25293000  0.28856000  0.63001000  1.0
  H  H39  1  0.25134000  0.05634000  0.97999000  1.0
  H  H40  1  0.52957000  0.94845000  0.25397000  1.0
  H  H41  1  0.89758000  0.64236000  0.94382000  1.0
  C  C42  1  0.69912000  0.19287000  0.18991000  1.0
  C  C43  1  0.99239000  0.18990000  0.50428000  1.0
  C  C44  1  0.30867000  0.79644000  0.79729000  1.0
  C  C45  1  0.99322000  0.79815000  0.50282000  1.0
  C  C46  1  0.69787000  0.50593000  0.50245000  1.0
  C  C47  1  0.99618000  0.48880000  0.19085000  1.0
  C  C48  1  0.30987000  0.50239000  0.50157000  1.0
  C  C49  1  0.99415000  0.48757000  0.79864000  1.0
  C  C50  1  0.69901000  0.19036000  0.50293000  1.0
  C  C51  1  0.99374000  0.79879000  0.79765000  1.0
  C  C52  1  0.30990000  0.79752000  0.50382000  1.0
  C  C53  1  0.99469000  0.19085000  0.18925000  1.0
  C  C54  1  0.41146000  0.89665000  0.89675000  1.0
  C  C55  1  0.60069000  0.09072000  0.08613000  1.0
  C  C56  1  0.46031000  0.86492000  0.94827000  1.0
  C  C57  1  0.55341000  0.12206000  0.03358000  1.0
  C  C58  1  0.55522000  0.96281000  0.04238000  1.0
  C  C59  1  0.45975000  0.02528000  0.93931000  1.0
  C  C60  1  0.98948000  0.09008000  0.50941000  1.0
  C  C61  1  0.98941000  0.89921000  0.50660000  1.0
  C  C62  1  0.06571000  0.12305000  0.59719000  1.0
  C  C63  1  0.91018000  0.86612000  0.42214000  1.0
  C  C64  1  0.06561000  0.02701000  0.59473000  1.0
  C  C65  1  0.91067000  0.96136000  0.42367000  1.0
  C  C66  1  0.99269000  0.90145000  0.89593000  1.0
  C  C67  1  0.99161000  0.08960000  0.08526000  1.0
  C  C68  1  0.07729000  0.03135000  0.94512000  1.0
  C  C69  1  0.90614000  0.96063000  0.03483000  1.0
  C  C70  1  0.07561000  0.12442000  0.03935000  1.0
  C  C71  1  0.90676000  0.86757000  0.94049000  1.0
  C  C72  1  0.60202000  0.08736000  0.50478000  1.0
  C  C73  1  0.41416000  0.89880000  0.50715000  1.0
  C  C74  1  0.55308000  0.95747000  0.42044000  1.0
  C  C75  1  0.46530000  0.02758000  0.59290000  1.0
  C  C76  1  0.45933000  0.86419000  0.42264000  1.0
  C  C77  1  0.55882000  0.12105000  0.59155000  1.0
  C  C78  1  0.39220000  0.38398000  0.48343000  1.0
  C  C79  1  0.49520000  0.37946000  0.47151000  1.0
  C  C80  1  0.59626000  0.51047000  0.50327000  1.0
  C  C81  1  0.61114000  0.61405000  0.61954000  1.0
  C  C82  1  0.50937000  0.62177000  0.61540000  1.0
  C  C83  1  0.41668000  0.50828000  0.50245000  1.0
  C  C84  1  0.45870000  0.51996000  0.41102000  1.0
  C  C85  1  0.57127000  0.53496000  0.41962000  1.0
  C  C86  1  0.99188000  0.48687000  0.89933000  1.0
  C  C87  1  0.99470000  0.48691000  0.08876000  1.0
  C  C88  1  0.90609000  0.48162000  0.94513000  1.0
  C  C89  1  0.07860000  0.49011000  0.04207000  1.0
  C  C90  1  0.90842000  0.48131000  0.03951000  1.0
  C  C91  1  0.07672000  0.48971000  0.94785000  1.0
  C  C92  1  0.42243000  0.73137000  0.90759000  1.0
  C  C93  1  0.14226000  0.25620000  0.70091000  1.0
  C  C94  1  0.16962000  0.07912000  0.90045000  1.0
  C  C95  1  0.59678000  0.90879000  0.32772000  1.0
  C  C96  1  0.80534000  0.46781000  0.89652000  1.0
  O  O97  1  0.73583000  0.30829000  0.22966000  1.0
  O  O98  1  0.07128000  0.30605000  0.57898000  1.0
  O  O99  1  0.26871000  0.68045000  0.75900000  1.0
  O  O100  1  0.91847000  0.68247000  0.42372000  1.0
  O  O101  1  0.73550000  0.50207000  0.57787000  1.0
  O  O102  1  0.07498000  0.49069000  0.23118000  1.0
  O  O103  1  0.26648000  0.49917000  0.42390000  1.0
  O  O104  1  0.91653000  0.48744000  0.75819000  1.0
  O  O105  1  0.73707000  0.15408000  0.42385000  1.0
  O  O106  1  0.07276000  0.83528000  0.75954000  1.0
  O  O107  1  0.26828000  0.83446000  0.57909000  1.0
  O  O108  1  0.91916000  0.15347000  0.23046000  1.0
  O  O109  1  0.91828000  0.68350000  0.76126000  1.0
  O  O110  1  0.26868000  0.68194000  0.42471000  1.0
  O  O111  1  0.07375000  0.30649000  0.23000000  1.0
  O  O112  1  0.73496000  0.30553000  0.57728000  1.0
  O  O113  1  0.73730000  0.50191000  0.42449000  1.0
  O  O114  1  0.07389000  0.49164000  0.76194000  1.0
  O  O115  1  0.26812000  0.49725000  0.57624000  1.0
  O  O116  1  0.91937000  0.49041000  0.23124000  1.0
  O  O117  1  0.07212000  0.83430000  0.57752000  1.0
  O  O118  1  0.73720000  0.15587000  0.23203000  1.0
  O  O119  1  0.91878000  0.15326000  0.42449000  1.0
  O  O120  1  0.26704000  0.83416000  0.75987000  1.0
  O  O121  1  0.06715000  0.62944000  0.43082000  1.0
  O  O122  1  0.06601000  0.62832000  0.69939000  1.0
  O  O123  1  0.06672000  0.35870000  0.43045000  1.0
  O  O124  1  0.79563000  0.36049000  0.43074000  1.0
  O  O125  1  0.94897000  0.39531000  0.54772000  1.0
  O  O126  1  0.94945000  0.39571000  0.34911000  1.0
  O  O127  1  0.14863000  0.59257000  0.54750000  1.0
  O  O128  1  0.94863000  0.59403000  0.54768000  1.0
  O  O129  1  0.33546000  0.66718000  0.93439000  1.0
  O  O130  1  0.47402000  0.68759000  0.86374000  1.0
  O  O131  1  0.24771000  0.32919000  0.70401000  1.0
  O  O132  1  0.11480000  0.29355000  0.78237000  1.0
  O  O133  1  0.26493000  0.09462000  0.93905000  1.0
  O  O134  1  0.16660000  0.11487000  0.84301000  1.0
  O  O135  1  0.56312000  0.90113000  0.23637000  1.0
  O  O136  1  0.64892000  0.86516000  0.32698000  1.0
  O  O137  1  0.81832000  0.57546000  0.91779000  1.0
  O  O138  1  0.71305000  0.36845000  0.85034000  1.0
