# generated using pymatgen
data_Cd2H25C16N11O2
_symmetry_space_group_name_H-M   'P 1'
_cell_length_a   10.34510000
_cell_length_b   11.58840000
_cell_length_c   11.96500000
_cell_angle_alpha   61.26070000
_cell_angle_beta   75.86240000
_cell_angle_gamma   66.39940000
_symmetry_Int_Tables_number   1
_chemical_formula_structural   Cd2H25C16N11O2
_chemical_formula_sum   'Cd4 H50 C32 N22 O4'
_cell_volume   1150.11803949
_cell_formula_units_Z   2
loop_
 _symmetry_equiv_pos_site_id
 _symmetry_equiv_pos_as_xyz
  1  'x, y, z'
loop_
 _atom_site_type_symbol
 _atom_site_label
 _atom_site_symmetry_multiplicity
 _atom_site_fract_x
 _atom_site_fract_y
 _atom_site_fract_z
 _atom_site_occupancy
  Cd  Cd0  1  0.56650000  0.14349000  0.35598000  1.0
  Cd  Cd1  1  0.43350000  0.85652000  0.64402000  1.0
  Cd  Cd2  1  0.42533000  0.41083000  0.46077000  1.0
  Cd  Cd3  1  0.57466000  0.58918000  0.53923000  1.0
  H  H4  1  0.94475000  0.64375000  0.26580000  1.0
  H  H5  1  0.05525000  0.35625000  0.73420000  1.0
  H  H6  1  0.90207000  0.55050000  0.13667000  1.0
  H  H7  1  0.09793000  0.44949000  0.86333000  1.0
  H  H8  1  0.09876000  0.36733000  0.08420000  1.0
  H  H9  1  0.90124000  0.63267000  0.91580000  1.0
  H  H10  1  0.31912000  0.23657000  0.07705000  1.0
  H  H11  1  0.68088000  0.76343000  0.92295000  1.0
  H  H12  1  0.50340000  0.07540000  0.06896000  1.0
  H  H13  1  0.49660000  0.92460000  0.93104000  1.0
  H  H14  1  0.59189000  0.96583000  0.21294000  1.0
  H  H15  1  0.40811000  0.03417000  0.78706000  1.0
  H  H16  1  0.83915000  0.96526000  0.21707000  1.0
  H  H17  1  0.16085000  0.03474000  0.78293000  1.0
  H  H18  1  0.90769000  0.08811000  0.08405000  1.0
  H  H19  1  0.09231000  0.91189000  0.91596000  1.0
  H  H20  1  0.04768000  0.75957000  0.31579000  1.0
  H  H21  1  0.95232000  0.24043000  0.68421000  1.0
  H  H22  1  0.99148000  0.61970000  0.43921000  1.0
  H  H23  1  0.00852000  0.38030000  0.56079000  1.0
  H  H24  1  0.15747000  0.57479000  0.58609000  1.0
  H  H25  1  0.84253000  0.42521000  0.41391000  1.0
  H  H26  1  0.04627000  0.75094000  0.52785000  1.0
  H  H27  1  0.95372000  0.24907000  0.47215000  1.0
  H  H28  1  0.22379000  0.70820000  0.46291000  1.0
  H  H29  1  0.77621000  0.29180000  0.53709000  1.0
  H  H30  1  0.71062000  0.99384000  0.94768000  1.0
  H  H31  1  0.28939000  0.00616000  0.05232000  1.0
  H  H32  1  0.79935000  0.87889000  0.09174000  1.0
  H  H33  1  0.20065000  0.12111000  0.90826000  1.0
  H  H34  1  0.87703000  0.99551000  0.95848000  1.0
  H  H35  1  0.12297000  0.00449000  0.04152000  1.0
  H  H36  1  0.59372000  0.32594000  0.96576000  1.0
  H  H37  1  0.40628000  0.67406000  0.03424000  1.0
  H  H38  1  0.62679000  0.23614000  0.87169000  1.0
  H  H39  1  0.37321000  0.76386000  0.12831000  1.0
  H  H40  1  0.76733000  0.26714000  0.90051000  1.0
  H  H41  1  0.23267000  0.73286000  0.09949000  1.0
  H  H42  1  0.99714000  0.09965000  0.24567000  1.0
  H  H43  1  0.00286000  0.90035000  0.75433000  1.0
  H  H44  1  0.90558000  0.98772000  0.36829000  1.0
  H  H45  1  0.09442000  0.01228000  0.63171000  1.0
  H  H46  1  0.87290000  0.15515000  0.35848000  1.0
  H  H47  1  0.12710000  0.84484000  0.64152000  1.0
  H  H48  1  0.75196000  0.35635000  0.19918000  1.0
  H  H49  1  0.24804000  0.64365000  0.80082000  1.0
  H  H50  1  0.66109000  0.35929000  0.08939000  1.0
  H  H51  1  0.33892000  0.64071000  0.91061000  1.0
  H  H52  1  0.84859000  0.32086000  0.06692000  1.0
  H  H53  1  0.15141000  0.67914000  0.93308000  1.0
  C  C54  1  0.28072000  0.41150000  0.25763000  1.0
  C  C55  1  0.71928000  0.58850000  0.74237000  1.0
  C  C56  1  0.16475000  0.51557000  0.28631000  1.0
  C  C57  1  0.83524000  0.48443000  0.71369000  1.0
  C  C58  1  0.03174000  0.56482000  0.24263000  1.0
  C  C59  1  0.96825000  0.43518000  0.75737000  1.0
  C  C60  1  0.00741000  0.51165000  0.16892000  1.0
  C  C61  1  0.99259000  0.48834000  0.83108000  1.0
  C  C62  1  0.11637000  0.41009000  0.14069000  1.0
  C  C63  1  0.88363000  0.58991000  0.85931000  1.0
  C  C64  1  0.25300000  0.35732000  0.18436000  1.0
  C  C65  1  0.74699000  0.64268000  0.81564000  1.0
  C  C66  1  0.35489000  0.25034000  0.14787000  1.0
  C  C67  1  0.64511000  0.74966000  0.85213000  1.0
  C  C68  1  0.56500000  0.07205000  0.13461000  1.0
  C  C69  1  0.43500000  0.92795000  0.86539000  1.0
  C  C70  1  0.70332000  0.09840000  0.06097000  1.0
  C  C71  1  0.29669000  0.90160000  0.93903000  1.0
  C  C72  1  0.81082000  0.07522000  0.14620000  1.0
  C  C73  1  0.18918000  0.92478000  0.85380000  1.0
  C  C74  1  0.08108000  0.65915000  0.40052000  1.0
  C  C75  1  0.91891000  0.34085000  0.59948000  1.0
  C  C76  1  0.13150000  0.67355000  0.49970000  1.0
  C  C77  1  0.86850000  0.32645000  0.50030000  1.0
  C  C78  1  0.77700000  0.98422000  0.01269000  1.0
  C  C79  1  0.22300000  0.01578000  0.98731000  1.0
  C  C80  1  0.67069000  0.24042000  0.94379000  1.0
  C  C81  1  0.32931000  0.75958000  0.05621000  1.0
  C  C82  1  0.89572000  0.09658000  0.30224000  1.0
  C  C83  1  0.10428000  0.90342000  0.69776000  1.0
  C  C84  1  0.75897000  0.30673000  0.13858000  1.0
  C  C85  1  0.24103000  0.69327000  0.86142000  1.0
  N  N86  1  0.47980000  0.17093000  0.18788000  1.0
  N  N87  1  0.52020000  0.82907000  0.81212000  1.0
  N  N88  1  0.77761000  0.15759000  0.22009000  1.0
  N  N89  1  0.22239000  0.84241000  0.77991000  1.0
  N  N90  1  0.66083000  0.90464000  0.47969000  1.0
  N  N91  1  0.33917000  0.09536000  0.52031000  1.0
  N  N92  1  0.69535000  0.81959000  0.43944000  1.0
  N  N93  1  0.30465000  0.18041000  0.56056000  1.0
  N  N94  1  0.72803000  0.73186000  0.40410000  1.0
  N  N95  1  0.27197000  0.26814000  0.59590000  1.0
  N  N96  1  0.61238000  0.20034000  0.49518000  1.0
  N  N97  1  0.38762000  0.79967000  0.50482000  1.0
  N  N98  1  0.66323000  0.11869000  0.59734000  1.0
  N  N99  1  0.33677000  0.88131000  0.40266000  1.0
  N  N100  1  0.71487000  0.04353000  0.69443000  1.0
  N  N101  1  0.28513000  0.95648000  0.30557000  1.0
  N  N102  1  0.54078000  0.57251000  0.36692000  1.0
  N  N103  1  0.45922000  0.42749000  0.63307000  1.0
  N  N104  1  0.60097000  0.61622000  0.26277000  1.0
  N  N105  1  0.39903000  0.38378000  0.73723000  1.0
  N  N106  1  0.65797000  0.65965000  0.16264000  1.0
  N  N107  1  0.34203000  0.34035000  0.83736000  1.0
  O  O108  1  0.40651000  0.37195000  0.29750000  1.0
  O  O109  1  0.59349000  0.62805000  0.70250000  1.0
  O  O110  1  0.19671000  0.56247000  0.35936000  1.0
  O  O111  1  0.80329000  0.43753000  0.64064000  1.0
