# generated using pymatgen
data_MnH22C29(N3O2)2
_symmetry_space_group_name_H-M   'P 1'
_cell_length_a   8.53456000
_cell_length_b   12.49760000
_cell_length_c   13.03207121
_cell_angle_alpha   105.37438058
_cell_angle_beta   107.75771789
_cell_angle_gamma   97.18940000
_symmetry_Int_Tables_number   1
_chemical_formula_structural   MnH22C29(N3O2)2
_chemical_formula_sum   'Mn2 H44 C58 N12 O8'
_cell_volume   1243.88296941
_cell_formula_units_Z   2
loop_
 _symmetry_equiv_pos_site_id
 _symmetry_equiv_pos_as_xyz
  1  'x, y, z'
loop_
 _atom_site_type_symbol
 _atom_site_label
 _atom_site_symmetry_multiplicity
 _atom_site_fract_x
 _atom_site_fract_y
 _atom_site_fract_z
 _atom_site_occupancy
  Mn  Mn0  1  0.76232000  0.88805000  0.90425000  1.0
  Mn  Mn1  1  0.23767000  0.11194000  0.09575000  1.0
  H  H2  1  0.50155000  0.50750000  0.79607000  1.0
  H  H3  1  0.49827000  0.49236000  0.20377000  1.0
  H  H4  1  0.25897000  0.33898000  0.68170000  1.0
  H  H5  1  0.74073000  0.66098000  0.31815000  1.0
  H  H6  1  0.97741000  0.36952000  0.58843000  1.0
  H  H7  1  0.02234000  0.63060000  0.41150000  1.0
  H  H8  1  0.93287000  0.56537000  0.60679000  1.0
  H  H9  1  0.06707000  0.43480000  0.39328000  1.0
  H  H10  1  0.17653000  0.73308000  0.71808000  1.0
  H  H11  1  0.82354000  0.26700000  0.28200000  1.0
  H  H12  1  0.85658000  0.72962000  0.73554000  1.0
  H  H13  1  0.14335000  0.27035000  0.26447000  1.0
  H  H14  1  0.89859000  0.71824000  0.55200000  1.0
  H  H15  1  0.10140000  0.28171000  0.44802000  1.0
  H  H16  1  0.70944000  0.02503000  0.56227000  1.0
  H  H17  1  0.29064000  0.97494000  0.43772000  1.0
  H  H18  1  0.67259000  0.02314000  0.74193000  1.0
  H  H19  1  0.32743000  0.97687000  0.25805000  1.0
  H  H20  1  0.92466000  0.78524000  0.26922000  1.0
  H  H21  1  0.07532000  0.21467000  0.73075000  1.0
  H  H22  1  0.89762000  0.76952000  0.06981000  1.0
  H  H23  1  0.10234000  0.23040000  0.93015000  1.0
  H  H24  1  0.65083000  0.03711000  0.07495000  1.0
  H  H25  1  0.34928000  0.96290000  0.92510000  1.0
  H  H26  1  0.66407000  0.06189000  0.27016000  1.0
  H  H27  1  0.33611000  0.93813000  0.72991000  1.0
  H  H28  1  0.45675000  0.83236000  0.12078000  1.0
  H  H29  1  0.54325000  0.16770000  0.87922000  1.0
  H  H30  1  0.54418000  0.65000000  0.12045000  1.0
  H  H31  1  0.45589000  0.35007000  0.87956000  1.0
  H  H32  1  0.33656000  0.46504000  0.00608000  1.0
  H  H33  1  0.66354000  0.53502000  0.99393000  1.0
  H  H34  1  0.04406000  0.46432000  0.89172000  1.0
  H  H35  1  0.95602000  0.53570000  0.10830000  1.0
  H  H36  1  0.95677000  0.64777000  0.89366000  1.0
  H  H37  1  0.04326000  0.35223000  0.10635000  1.0
  H  H38  1  0.80829000  0.33255000  0.79575000  1.0
  H  H39  1  0.19178000  0.66747000  0.20427000  1.0
  H  H40  1  0.71726000  0.50400000  0.74988000  1.0
  H  H41  1  0.28276000  0.49601000  0.25015000  1.0
  H  H42  1  0.53194000  0.30273000  0.39576000  1.0
  H  H43  1  0.46802000  0.69728000  0.60426000  1.0
  H  H44  1  0.64976000  0.14440000  0.45500000  1.0
  H  H45  1  0.35022000  0.85561000  0.54501000  1.0
  C  C46  1  0.49764000  0.73022000  0.82076000  1.0
  C  C47  1  0.50238000  0.26972000  0.17922000  1.0
  C  C48  1  0.35393000  0.62984000  0.76253000  1.0
  C  C49  1  0.64605000  0.37013000  0.23744000  1.0
  C  C50  1  0.37683000  0.51932000  0.75415000  1.0
  C  C51  1  0.62302000  0.48061000  0.24575000  1.0
  C  C52  1  0.24180000  0.42584000  0.69179000  1.0
  C  C53  1  0.75795000  0.57414000  0.30810000  1.0
  C  C54  1  0.08250000  0.44281000  0.63834000  1.0
  C  C55  1  0.91729000  0.55727000  0.36162000  1.0
  C  C56  1  0.05784000  0.55310000  0.64844000  1.0
  C  C57  1  0.94206000  0.44701000  0.35158000  1.0
  C  C58  1  0.19280000  0.64649000  0.71025000  1.0
  C  C59  1  0.80719000  0.35357000  0.28978000  1.0
  C  C60  1  0.82635000  0.79289000  0.69386000  1.0
  C  C61  1  0.17363000  0.20708000  0.30616000  1.0
  C  C62  1  0.85001000  0.78748000  0.59280000  1.0
  C  C63  1  0.15002000  0.21249000  0.40723000  1.0
  C  C64  1  0.80855000  0.87076000  0.54024000  1.0
  C  C65  1  0.19151000  0.12922000  0.45978000  1.0
  C  C66  1  0.74220000  0.95722000  0.59643000  1.0
  C  C67  1  0.25786000  0.04276000  0.40357000  1.0
  C  C68  1  0.72218000  0.95713000  0.69719000  1.0
  C  C69  1  0.27784000  0.04287000  0.30280000  1.0
  C  C70  1  0.79103000  0.92359000  0.28753000  1.0
  C  C71  1  0.20905000  0.07635000  0.71248000  1.0
  C  C72  1  0.86117000  0.84119000  0.22817000  1.0
  C  C73  1  0.13883000  0.15875000  0.77180000  1.0
  C  C74  1  0.84888000  0.83333000  0.11839000  1.0
  C  C75  1  0.15111000  0.16660000  0.88158000  1.0
  C  C76  1  0.71186000  0.98361000  0.12029000  1.0
  C  C77  1  0.28822000  0.01638000  0.87973000  1.0
  C  C78  1  0.71957000  0.99684000  0.23000000  1.0
  C  C79  1  0.28055000  0.00314000  0.77004000  1.0
  C  C80  1  0.14676000  0.85949000  0.00565000  1.0
  C  C81  1  0.85321000  0.14052000  0.99434000  1.0
  C  C82  1  0.20127000  0.75113000  0.00752000  1.0
  C  C83  1  0.79873000  0.24889000  0.99248000  1.0
  C  C84  1  0.36691000  0.75153000  0.07124000  1.0
  C  C85  1  0.63310000  0.24852000  0.92877000  1.0
  C  C86  1  0.41532000  0.64893000  0.07051000  1.0
  C  C87  1  0.58473000  0.35113000  0.92950000  1.0
  C  C88  1  0.29905000  0.54543000  0.00640000  1.0
  C  C89  1  0.70103000  0.45462000  0.99361000  1.0
  C  C90  1  0.13416000  0.54481000  0.94256000  1.0
  C  C91  1  0.86590000  0.45522000  0.05745000  1.0
  C  C92  1  0.08507000  0.64704000  0.94301000  1.0
  C  C93  1  0.91497000  0.35297000  0.05700000  1.0
  C  C94  1  0.74913000  0.32942000  0.70763000  1.0
  C  C95  1  0.25091000  0.67059000  0.29239000  1.0
  C  C96  1  0.69645000  0.42397000  0.68325000  1.0
  C  C97  1  0.30356000  0.57604000  0.31677000  1.0
  C  C98  1  0.61236000  0.41391000  0.56944000  1.0
  C  C99  1  0.38764000  0.58610000  0.43058000  1.0
  C  C100  1  0.59352000  0.31174000  0.48481000  1.0
  C  C101  1  0.40647000  0.68827000  0.51522000  1.0
  C  C102  1  0.65777000  0.22438000  0.51833000  1.0
  C  C103  1  0.34222000  0.77562000  0.48168000  1.0
  N  N104  1  0.76403000  0.87701000  0.74764000  1.0
  N  N105  1  0.23595000  0.12298000  0.25236000  1.0
  N  N106  1  0.83083000  0.85957000  0.43794000  1.0
  N  N107  1  0.16924000  0.14039000  0.56207000  1.0
  N  N108  1  0.77968000  0.93671000  0.39264000  1.0
  N  N109  1  0.22042000  0.06324000  0.60738000  1.0
  N  N110  1  0.77491000  0.90269000  0.06294000  1.0
  N  N111  1  0.22512000  0.09728000  0.93705000  1.0
  N  N112  1  0.73232000  0.23125000  0.62770000  1.0
  N  N113  1  0.26772000  0.76877000  0.37232000  1.0
  N  N114  1  0.55680000  0.51084000  0.54815000  1.0
  N  N115  1  0.44318000  0.48917000  0.45188000  1.0
  O  O116  1  0.65244000  0.71728000  0.85245000  1.0
  O  O117  1  0.34757000  0.28265000  0.14752000  1.0
  O  O118  1  0.47229000  0.82997000  0.83582000  1.0
  O  O119  1  0.52778000  0.16999000  0.16421000  1.0
  O  O120  1  0.00295000  0.85596000  0.93803000  1.0
  O  O121  1  0.99703000  0.14405000  0.06195000  1.0
  O  O122  1  0.25317000  0.95282000  0.07334000  1.0
  O  O123  1  0.74678000  0.04719000  0.92666000  1.0
