# generated using pymatgen
data_FeH14C27(N6O5)2
_symmetry_space_group_name_H-M   'P 1'
_cell_length_a   9.28407000
_cell_length_b   16.67140000
_cell_length_c   16.67009909
_cell_angle_alpha   116.59099177
_cell_angle_beta   100.72876036
_cell_angle_gamma   100.71200000
_symmetry_Int_Tables_number   1
_chemical_formula_structural   FeH14C27(N6O5)2
_chemical_formula_sum   'Fe3 H42 C81 N36 O30'
_cell_volume   2157.88884061
_cell_formula_units_Z   3
loop_
 _symmetry_equiv_pos_site_id
 _symmetry_equiv_pos_as_xyz
  1  'x, y, z'
loop_
 _atom_site_type_symbol
 _atom_site_label
 _atom_site_symmetry_multiplicity
 _atom_site_fract_x
 _atom_site_fract_y
 _atom_site_fract_z
 _atom_site_occupancy
  Fe  Fe0  1  0.50001000  0.00000000  0.50000000  1.0
  Fe  Fe1  1  0.50000000  0.50000000  0.00000000  1.0
  Fe  Fe2  1  0.00000000  0.50000000  0.50000000  1.0
  H  H3  1  0.71266000  0.84581000  0.23723000  1.0
  H  H4  1  0.86721000  0.39087000  0.15377000  1.0
  H  H5  1  0.47573000  0.76332000  0.60896000  1.0
  H  H6  1  0.28734000  0.15418000  0.76277000  1.0
  H  H7  1  0.13279000  0.60914000  0.84623000  1.0
  H  H8  1  0.52428000  0.23668000  0.39104000  1.0
  H  H9  1  0.52770000  0.04863000  0.21868000  1.0
  H  H10  1  0.47872000  0.16998000  0.95107000  1.0
  H  H11  1  0.30840000  0.78134000  0.82983000  1.0
  H  H12  1  0.47231000  0.95136000  0.78131000  1.0
  H  H13  1  0.52130000  0.83001000  0.04892000  1.0
  H  H14  1  0.69161000  0.21866000  0.17017000  1.0
  H  H15  1  0.45373000  0.08220000  0.36568000  1.0
  H  H16  1  0.37128000  0.28361000  0.91771000  1.0
  H  H17  1  0.08798000  0.63397000  0.71632000  1.0
  H  H18  1  0.54628000  0.91781000  0.63432000  1.0
  H  H19  1  0.62874000  0.71640000  0.08229000  1.0
  H  H20  1  0.91203000  0.36604000  0.28369000  1.0
  H  H21  1  0.75333000  0.64522000  0.32571000  1.0
  H  H22  1  0.10867000  0.68051000  0.35512000  1.0
  H  H23  1  0.42852000  0.67457000  0.31950000  1.0
  H  H24  1  0.24667000  0.35479000  0.67429000  1.0
  H  H25  1  0.89135000  0.31950000  0.64488000  1.0
  H  H26  1  0.57149000  0.32543000  0.68050000  1.0
  H  H27  1  0.87046000  0.53105000  0.34450000  1.0
  H  H28  1  0.33965000  0.81369000  0.46940000  1.0
  H  H29  1  0.52653000  0.65557000  0.18645000  1.0
  H  H30  1  0.12955000  0.46896000  0.65550000  1.0
  H  H31  1  0.66036000  0.18631000  0.53059000  1.0
  H  H32  1  0.47347000  0.34443000  0.81354000  1.0
  H  H33  1  0.85987000  0.63835000  0.62112000  1.0
  H  H34  1  0.22100000  0.98242000  0.36134000  1.0
  H  H35  1  0.23855000  0.37901000  0.01767000  1.0
  H  H36  1  0.14012000  0.36165000  0.37887000  1.0
  H  H37  1  0.77900000  0.01758000  0.63866000  1.0
  H  H38  1  0.76145000  0.62100000  0.98233000  1.0
  H  H39  1  0.74037000  0.75618000  0.61210000  1.0
  H  H40  1  0.98406000  0.85529000  0.24326000  1.0
  H  H41  1  0.12867000  0.38820000  0.14474000  1.0
  H  H42  1  0.25963000  0.24382000  0.38790000  1.0
  H  H43  1  0.01595000  0.14473000  0.75675000  1.0
  H  H44  1  0.87133000  0.61180000  0.85526000  1.0
  C  C45  1  0.61446000  0.91703000  0.34627000  1.0
  C  C46  1  0.69763000  0.42896000  0.08278000  1.0
  C  C47  1  0.26852000  0.65395000  0.57090000  1.0
  C  C48  1  0.38555000  0.08297000  0.65373000  1.0
  C  C49  1  0.30237000  0.57104000  0.91722000  1.0
  C  C50  1  0.73149000  0.34605000  0.42910000  1.0
  C  C51  1  0.65518000  0.89936000  0.26483000  1.0
  C  C52  1  0.75603000  0.36508000  0.10033000  1.0
  C  C53  1  0.39048000  0.73555000  0.63474000  1.0
  C  C54  1  0.34483000  0.10064000  0.73517000  1.0
  C  C55  1  0.24398000  0.63492000  0.89967000  1.0
  C  C56  1  0.60953000  0.26445000  0.36526000  1.0
  C  C57  1  0.55216000  0.00945000  0.25451000  1.0
  C  C58  1  0.54250000  0.24494000  0.99027000  1.0
  C  C59  1  0.29729000  0.74554000  0.75490000  1.0
  C  C60  1  0.44785000  0.99054000  0.74548000  1.0
  C  C61  1  0.45751000  0.75507000  0.00973000  1.0
  C  C62  1  0.70271000  0.25446000  0.24510000  1.0
  C  C63  1  0.51165000  0.02935000  0.33642000  1.0
  C  C64  1  0.48214000  0.30706000  0.97052000  1.0
  C  C65  1  0.17517000  0.66344000  0.69284000  1.0
  C  C66  1  0.48836000  0.97066000  0.66358000  1.0
  C  C67  1  0.51787000  0.69293000  0.02947000  1.0
  C  C68  1  0.82483000  0.33656000  0.30716000  1.0
  C  C69  1  0.63933000  0.86953000  0.39868000  1.0
  C  C70  1  0.77008000  0.52883000  0.13036000  1.0
  C  C71  1  0.24108000  0.60160000  0.47106000  1.0
  C  C72  1  0.36068000  0.13048000  0.60132000  1.0
  C  C73  1  0.22992000  0.47117000  0.86963000  1.0
  C  C74  1  0.75892000  0.39840000  0.52894000  1.0
  C  C75  1  0.68776000  0.78554000  0.45683000  1.0
  C  C76  1  0.90262000  0.67090000  0.21435000  1.0
  C  C77  1  0.23161000  0.54352000  0.32905000  1.0
  C  C78  1  0.31225000  0.21446000  0.54317000  1.0
  C  C79  1  0.09738000  0.32912000  0.78566000  1.0
  C  C80  1  0.76841000  0.45649000  0.67095000  1.0
  C  C81  1  0.74054000  0.71311000  0.46791000  1.0
  C  C82  1  0.02783000  0.75444000  0.28673000  1.0
  C  C83  1  0.27337000  0.53237000  0.24553000  1.0
  C  C84  1  0.25944000  0.28688000  0.53208000  1.0
  C  C85  1  0.97216000  0.24556000  0.71327000  1.0
  C  C86  1  0.72665000  0.46764000  0.75447000  1.0
  C  C87  1  0.77475000  0.64558000  0.39217000  1.0
  C  C88  1  0.12954000  0.74648000  0.35456000  1.0
  C  C89  1  0.38331000  0.60805000  0.25353000  1.0
  C  C90  1  0.22524000  0.35442000  0.60782000  1.0
  C  C91  1  0.87047000  0.25353000  0.64544000  1.0
  C  C92  1  0.61670000  0.39196000  0.74647000  1.0
  C  C93  1  0.84050000  0.58162000  0.40261000  1.0
  C  C94  1  0.25902000  0.82103000  0.41861000  1.0
  C  C95  1  0.43839000  0.59751000  0.17905000  1.0
  C  C96  1  0.15950000  0.41838000  0.59739000  1.0
  C  C97  1  0.74099000  0.17897000  0.58138000  1.0
  C  C98  1  0.56160000  0.40249000  0.82094000  1.0
  C  C99  1  0.83478000  0.64183000  0.55648000  1.0
  C  C100  1  0.19270000  0.91436000  0.35795000  1.0
  C  C101  1  0.27846000  0.44370000  0.08571000  1.0
  C  C102  1  0.16522000  0.35818000  0.44352000  1.0
  C  C103  1  0.80731000  0.08565000  0.64206000  1.0
  C  C104  1  0.72155000  0.55631000  0.91429000  1.0
  C  C105  1  0.76664000  0.70745000  0.55078000  1.0
  C  C106  1  0.05917000  0.84288000  0.29219000  1.0
  C  C107  1  0.21629000  0.44947000  0.15714000  1.0
  C  C108  1  0.23335000  0.29255000  0.44921000  1.0
  C  C109  1  0.94082000  0.15713000  0.70781000  1.0
  C  C110  1  0.78371000  0.55054000  0.84286000  1.0
  C  C111  1  0.10919000  0.84166000  0.95392000  1.0
  C  C112  1  0.26654000  0.11206000  0.15832000  1.0
  C  C113  1  0.15486000  0.04586000  0.88755000  1.0
  C  C114  1  0.89081000  0.15834000  0.04609000  1.0
  C  C115  1  0.73346000  0.88793000  0.84169000  1.0
  C  C116  1  0.84513000  0.95412000  0.11244000  1.0
  C  C117  1  0.50001000  0.49999000  0.50002000  1.0
  C  C118  1  0.00002000  0.99998000  0.50002000  1.0
  C  C119  1  0.00000000  0.50001000  0.00001000  1.0
  C  C120  1  0.58670000  0.64694000  0.76740000  1.0
  C  C121  1  0.94136000  0.11989000  0.35315000  1.0
  C  C122  1  0.82033000  0.23328000  0.87986000  1.0
  C  C123  1  0.41324000  0.35304000  0.23261000  1.0
  C  C124  1  0.05863000  0.88010000  0.64685000  1.0
  C  C125  1  0.17966000  0.76672000  0.12013000  1.0
  N  N126  1  0.54461000  0.98445000  0.38415000  1.0
  N  N127  1  0.56017000  0.39962000  0.01545000  1.0
  N  N128  1  0.16066000  0.61585000  0.60031000  1.0
  N  N129  1  0.45540000  0.01555000  0.61585000  1.0
  N  N130  1  0.43983000  0.60039000  0.98455000  1.0
  N  N131  1  0.83934000  0.38416000  0.39969000  1.0
  N  N132  1  0.62611000  0.94588000  0.21894000  1.0
  N  N133  1  0.68019000  0.27276000  0.05378000  1.0
  N  N134  1  0.40690000  0.78138000  0.72706000  1.0
  N  N135  1  0.37390000  0.05412000  0.78106000  1.0
  N  N136  1  0.31983000  0.72725000  0.94622000  1.0
  N  N137  1  0.59310000  0.21862000  0.27294000  1.0
  N  N138  1  0.59488000  0.89963000  0.47787000  1.0
  N  N139  1  0.69541000  0.57795000  0.10027000  1.0
  N  N140  1  0.11729000  0.52242000  0.42194000  1.0
  N  N141  1  0.40512000  0.10038000  0.52213000  1.0
  N  N142  1  0.30459000  0.42206000  0.89973000  1.0
  N  N143  1  0.88272000  0.47758000  0.57806000  1.0
  N  N144  1  0.62626000  0.84616000  0.51622000  1.0
  N  N145  1  0.78034000  0.66970000  0.15373000  1.0
  N  N146  1  0.11048000  0.48414000  0.33019000  1.0
  N  N147  1  0.37373000  0.15383000  0.48377000  1.0
  N  N148  1  0.21965000  0.33029000  0.84626000  1.0
  N  N149  1  0.88953000  0.51587000  0.66981000  1.0
  N  N150  1  0.69792000  0.79824000  0.38260000  1.0
  N  N151  1  0.90012000  0.58400000  0.20166000  1.0
  N  N152  1  0.31600000  0.61770000  0.41592000  1.0
  N  N153  1  0.30209000  0.20177000  0.61740000  1.0
  N  N154  1  0.09988000  0.41600000  0.79834000  1.0
  N  N155  1  0.68402000  0.38231000  0.58409000  1.0
  N  N156  1  0.87586000  0.58069000  0.48467000  1.0
  N  N157  1  0.29507000  0.90393000  0.41935000  1.0
  N  N158  1  0.39140000  0.51545000  0.09618000  1.0
  N  N159  1  0.12415000  0.41932000  0.51533000  1.0
  N  N160  1  0.70495000  0.09608000  0.58065000  1.0
  N  N161  1  0.60861000  0.48456000  0.90382000  1.0
  O  O162  1  0.02687000  0.77887000  0.88063000  1.0
  O  O163  1  0.24697000  0.10157000  0.22112000  1.0
  O  O164  1  0.14568000  0.11915000  0.89814000  1.0
  O  O165  1  0.97313000  0.22113000  0.11938000  1.0
  O  O166  1  0.75304000  0.89843000  0.77889000  1.0
  O  O167  1  0.85433000  0.88085000  0.10186000  1.0
  O  O168  1  0.18822000  0.90594000  0.02728000  1.0
  O  O169  1  0.28137000  0.12116000  0.09404000  1.0
  O  O170  1  0.16068000  0.97248000  0.87835000  1.0
  O  O171  1  0.81179000  0.09406000  0.97272000  1.0
  O  O172  1  0.71861000  0.87883000  0.90596000  1.0
  O  O173  1  0.83931000  0.02751000  0.12164000  1.0
  O  O174  1  0.48512000  0.52744000  0.57533000  1.0
  O  O175  1  0.95768000  0.04814000  0.47294000  1.0
  O  O176  1  0.90973000  0.42474000  0.95174000  1.0
  O  O177  1  0.51489000  0.47256000  0.42471000  1.0
  O  O178  1  0.04232000  0.95183000  0.52710000  1.0
  O  O179  1  0.09026000  0.57527000  0.04827000  1.0
  O  O180  1  0.48055000  0.60986000  0.78073000  1.0
  O  O181  1  0.87211000  0.17020000  0.39002000  1.0
  O  O182  1  0.70072000  0.22005000  0.82960000  1.0
  O  O183  1  0.51938000  0.39011000  0.21926000  1.0
  O  O184  1  0.12788000  0.82979000  0.60997000  1.0
  O  O185  1  0.29926000  0.77995000  0.17040000  1.0
  O  O186  1  0.69276000  0.68438000  0.75426000  1.0
  O  O187  1  0.01011000  0.06939000  0.31588000  1.0
  O  O188  1  0.93961000  0.24629000  0.93031000  1.0
  O  O189  1  0.30720000  0.31560000  0.24576000  1.0
  O  O190  1  0.98988000  0.93060000  0.68413000  1.0
  O  O191  1  0.06040000  0.75371000  0.06966000  1.0
