# generated using pymatgen
data_ZnH28C26(NO)4
_symmetry_space_group_name_H-M   'P 1'
_cell_length_a   9.82530000
_cell_length_b   10.13720000
_cell_length_c   12.53840000
_cell_angle_alpha   80.51670000
_cell_angle_beta   68.22770000
_cell_angle_gamma   83.91080000
_symmetry_Int_Tables_number   1
_chemical_formula_structural   ZnH28C26(NO)4
_chemical_formula_sum   'Zn2 H56 C52 N8 O8'
_cell_volume   1142.52344048
_cell_formula_units_Z   2
loop_
 _symmetry_equiv_pos_site_id
 _symmetry_equiv_pos_as_xyz
  1  'x, y, z'
loop_
 _atom_site_type_symbol
 _atom_site_label
 _atom_site_symmetry_multiplicity
 _atom_site_fract_x
 _atom_site_fract_y
 _atom_site_fract_z
 _atom_site_occupancy
  Zn  Zn0  1  0.31391000  0.12024000  0.05799000  1.0
  Zn  Zn1  1  0.68609000  0.87976000  0.94201000  1.0
  H  H2  1  0.91545000  0.41777000  0.04581000  1.0
  H  H3  1  0.08455000  0.58223000  0.95419000  1.0
  H  H4  1  0.98376000  0.47500000  0.14249000  1.0
  H  H5  1  0.01624000  0.52500000  0.85751000  1.0
  H  H6  1  0.42151000  0.20133000  0.39161000  1.0
  H  H7  1  0.57849000  0.79866000  0.60838000  1.0
  H  H8  1  0.48037000  0.27377000  0.24547000  1.0
  H  H9  1  0.51962000  0.72623000  0.75453000  1.0
  H  H10  1  0.75074000  0.22796000  0.11106000  1.0
  H  H11  1  0.24926000  0.77204000  0.88894000  1.0
  H  H12  1  0.86830000  0.12196000  0.16830000  1.0
  H  H13  1  0.13170000  0.87804000  0.83169000  1.0
  H  H14  1  0.18887000  0.03688000  0.31604000  1.0
  H  H15  1  0.81114000  0.96311000  0.68396000  1.0
  H  H16  1  0.10026000  0.91417000  0.05073000  1.0
  H  H17  1  0.89974000  0.08583000  0.94927000  1.0
  H  H18  1  0.93790000  0.73933000  0.18386000  1.0
  H  H19  1  0.06210000  0.26066000  0.81614000  1.0
  H  H20  1  0.66699000  0.45729000  0.17220000  1.0
  H  H21  1  0.33301000  0.54272000  0.82780000  1.0
  H  H22  1  0.73005000  0.51565000  0.27011000  1.0
  H  H23  1  0.26995000  0.48435000  0.72989000  1.0
  H  H24  1  0.52820000  0.31470000  0.06421000  1.0
  H  H25  1  0.47179000  0.68530000  0.93579000  1.0
  H  H26  1  0.69375000  0.93803000  0.24331000  1.0
  H  H27  1  0.30626000  0.06197000  0.75669000  1.0
  H  H28  1  0.50735000  0.96932000  0.33539000  1.0
  H  H29  1  0.49266000  0.03067000  0.66460000  1.0
  H  H30  1  0.76464000  0.18828000  0.50849000  1.0
  H  H31  1  0.23536000  0.81172000  0.49151000  1.0
  H  H32  1  0.62887000  0.35370000  0.64713000  1.0
  H  H33  1  0.37113000  0.64631000  0.35287000  1.0
  H  H34  1  0.82651000  0.61602000  0.38653000  1.0
  H  H35  1  0.17348000  0.38398000  0.61348000  1.0
  H  H36  1  0.90187000  0.36612000  0.35417000  1.0
  H  H37  1  0.09813000  0.63388000  0.64583000  1.0
  H  H38  1  0.96099000  0.20616000  0.31200000  1.0
  H  H39  1  0.03900000  0.79384000  0.68800000  1.0
  H  H40  1  0.82466000  0.60221000  0.73210000  1.0
  H  H41  1  0.17534000  0.39779000  0.26790000  1.0
  H  H42  1  0.59516000  0.05159000  0.47026000  1.0
  H  H43  1  0.40484000  0.94841000  0.52974000  1.0
  H  H44  1  0.77900000  0.02031000  0.37899000  1.0
  H  H45  1  0.22100000  0.97969000  0.62101000  1.0
  H  H46  1  0.02721000  0.86483000  0.46478000  1.0
  H  H47  1  0.97279000  0.13517000  0.53522000  1.0
  H  H48  1  0.51111000  0.28469000  0.53211000  1.0
  H  H49  1  0.48889000  0.71531000  0.46789000  1.0
  H  H50  1  0.63961000  0.41300000  0.48253000  1.0
  H  H51  1  0.36038000  0.58700000  0.51747000  1.0
  H  H52  1  0.47287000  0.44174000  0.37102000  1.0
  H  H53  1  0.52713000  0.55826000  0.62898000  1.0
  H  H54  1  0.70775000  0.48211000  0.92934000  1.0
  H  H55  1  0.29224000  0.51789000  0.07066000  1.0
  H  H56  1  0.43975000  0.20611000  0.79402000  1.0
  H  H57  1  0.56025000  0.79389000  0.20598000  1.0
  C  C58  1  0.95467000  0.38557000  0.11781000  1.0
  C  C59  1  0.04534000  0.61443000  0.88219000  1.0
  C  C60  1  0.51691000  0.24434000  0.31938000  1.0
  C  C61  1  0.48309000  0.75565000  0.68062000  1.0
  C  C62  1  0.77754000  0.19841000  0.18992000  1.0
  C  C63  1  0.22246000  0.80159000  0.81007000  1.0
  C  C64  1  0.13043000  0.96812000  0.29208000  1.0
  C  C65  1  0.86958000  0.03188000  0.70792000  1.0
  C  C66  1  0.64437000  0.13780000  0.29033000  1.0
  C  C67  1  0.35564000  0.86220000  0.70966000  1.0
  C  C68  1  0.68265000  0.43142000  0.77657000  1.0
  C  C69  1  0.31734000  0.56859000  0.22343000  1.0
  C  C70  1  0.08192000  0.89971000  0.14296000  1.0
  C  C71  1  0.91808000  0.10028000  0.85704000  1.0
  C  C72  1  0.82692000  0.32116000  0.22136000  1.0
  C  C73  1  0.17308000  0.67884000  0.77864000  1.0
  C  C74  1  0.55300000  0.03628000  0.15548000  1.0
  C  C75  1  0.44701000  0.96372000  0.84451000  1.0
  C  C76  1  0.09093000  0.29389000  0.07620000  1.0
  C  C77  1  0.90908000  0.70611000  0.92380000  1.0
  C  C78  1  0.99123000  0.80114000  0.21893000  1.0
  C  C79  1  0.00878000  0.19886000  0.78107000  1.0
  C  C80  1  0.69666000  0.42526000  0.24958000  1.0
  C  C81  1  0.30334000  0.57475000  0.75041000  1.0
  C  C82  1  0.55287000  0.32775000  0.97103000  1.0
  C  C83  1  0.44712000  0.67226000  0.02897000  1.0
  C  C84  1  0.59990000  0.01145000  0.26021000  1.0
  C  C85  1  0.40010000  0.98855000  0.73979000  1.0
  C  C86  1  0.73448000  0.21934000  0.43141000  1.0
  C  C87  1  0.26552000  0.78066000  0.56859000  1.0
  C  C88  1  0.97293000  0.78448000  0.33674000  1.0
  C  C89  1  0.02707000  0.21552000  0.66326000  1.0
  C  C90  1  0.60852000  0.34866000  0.73888000  1.0
  C  C91  1  0.39148000  0.65134000  0.26112000  1.0
  C  C92  1  0.88635000  0.67731000  0.41765000  1.0
  C  C93  1  0.11364000  0.32269000  0.58235000  1.0
  C  C94  1  0.86683000  0.27904000  0.33039000  1.0
  C  C95  1  0.13317000  0.72096000  0.66961000  1.0
  C  C96  1  0.77816000  0.53382000  0.69635000  1.0
  C  C97  1  0.22184000  0.46618000  0.30365000  1.0
  C  C98  1  0.68835000  0.09720000  0.39766000  1.0
  C  C99  1  0.31165000  0.90280000  0.60234000  1.0
  C  C100  1  0.04228000  0.87292000  0.37347000  1.0
  C  C101  1  0.95772000  0.12708000  0.62653000  1.0
  C  C102  1  0.60687000  0.32495000  0.45840000  1.0
  C  C103  1  0.39313000  0.67505000  0.54160000  1.0
  C  C104  1  0.56467000  0.36662000  0.35130000  1.0
  C  C105  1  0.43533000  0.63338000  0.64870000  1.0
  C  C106  1  0.65391000  0.41885000  0.89605000  1.0
  C  C107  1  0.34608000  0.58116000  0.10395000  1.0
  C  C108  1  0.50551000  0.26494000  0.82010000  1.0
  C  C109  1  0.49449000  0.73506000  0.17990000  1.0
  N  N110  1  0.47773000  0.25321000  0.93462000  1.0
  N  N111  1  0.52226000  0.74679000  0.06538000  1.0
  N  N112  1  0.15254000  0.98020000  0.17807000  1.0
  N  N113  1  0.84747000  0.01980000  0.82193000  1.0
  N  N114  1  0.88262000  0.65326000  0.52335000  1.0
  N  N115  1  0.11738000  0.34674000  0.47665000  1.0
  N  N116  1  0.79744000  0.54682000  0.58706000  1.0
  N  N117  1  0.20256000  0.45318000  0.41295000  1.0
  O  O118  1  0.18023000  0.28199000  0.13176000  1.0
  O  O119  1  0.81977000  0.71802000  0.86824000  1.0
  O  O120  1  0.11277000  0.22939000  0.99284000  1.0
  O  O121  1  0.88724000  0.77061000  0.00717000  1.0
  O  O122  1  0.64657000  0.01323000  0.05783000  1.0
  O  O123  1  0.35343000  0.98677000  0.94217000  1.0
  O  O124  1  0.42143000  0.08146000  0.17320000  1.0
  O  O125  1  0.57858000  0.91854000  0.82680000  1.0
