# generated using pymatgen
data_NaH7C8SO8
_symmetry_space_group_name_H-M   'P 1'
_cell_length_a   5.29408000
_cell_length_b   5.55763000
_cell_length_c   9.26237000
_cell_angle_alpha   104.27800000
_cell_angle_beta   90.49690000
_cell_angle_gamma   105.20300000
_symmetry_Int_Tables_number   1
_chemical_formula_structural   NaH7C8SO8
_chemical_formula_sum   'Na1 H7 C8 S1 O8'
_cell_volume   254.07634802
_cell_formula_units_Z   1
loop_
 _symmetry_equiv_pos_site_id
 _symmetry_equiv_pos_as_xyz
  1  'x, y, z'
loop_
 _atom_site_type_symbol
 _atom_site_label
 _atom_site_symmetry_multiplicity
 _atom_site_fract_x
 _atom_site_fract_y
 _atom_site_fract_z
 _atom_site_occupancy
  Na  Na0  1  0.28307000  0.84753000  0.89693000  1.0
  H  H1  1  0.10213000  0.29413000  0.23739000  1.0
  H  H2  1  0.78567000  0.88459000  0.50494000  1.0
  H  H3  1  0.56337000  0.59657000  0.03330000  1.0
  H  H4  1  0.43049000  0.50323000  0.63683000  1.0
  H  H5  1  0.37293000  0.20240000  0.41833000  1.0
  H  H6  1  0.58633000  0.40282000  0.77488000  1.0
  H  H7  1  0.76106000  0.63077000  0.70230000  1.0
  C  C8  1  0.83928000  0.43434000  0.12169000  1.0
  C  C9  1  0.97896000  0.42619000  0.24803000  1.0
  C  C10  1  0.95479000  0.58612000  0.38725000  1.0
  C  C11  1  0.79769000  0.75586000  0.39730000  1.0
  C  C12  1  0.65868000  0.76155000  0.26968000  1.0
  C  C13  1  0.67727000  0.59741000  0.13155000  1.0
  C  C14  1  0.09865000  0.58501000  0.52669000  1.0
  C  C15  1  0.49136000  0.94051000  0.27628000  1.0
  S  S16  1  0.88138000  0.24561000  0.94253000  1.0
  O  O17  1  0.10049000  0.40856000  0.88553000  1.0
  O  O18  1  0.92851000  0.01045000  0.96564000  1.0
  O  O19  1  0.62894000  0.19073000  0.85152000  1.0
  O  O20  1  0.04937000  0.70928000  0.65185000  1.0
  O  O21  1  0.27390000  0.45863000  0.51219000  1.0
  O  O22  1  0.37755000  0.96340000  0.16578000  1.0
  O  O23  1  0.47867000  0.07603000  0.41568000  1.0
  O  O24  1  0.57841000  0.55543000  0.73324000  1.0
