# generated using pymatgen
data_DyH15C12S2O15
_symmetry_space_group_name_H-M   'P 1'
_cell_length_a   6.94129000
_cell_length_b   10.73360000
_cell_length_c   12.06170000
_cell_angle_alpha   84.01510000
_cell_angle_beta   76.76200000
_cell_angle_gamma   89.84600000
_symmetry_Int_Tables_number   1
_chemical_formula_structural   DyH15C12S2O15
_chemical_formula_sum   'Dy2 H30 C24 S4 O30'
_cell_volume   869.80106386
_cell_formula_units_Z   2
loop_
 _symmetry_equiv_pos_site_id
 _symmetry_equiv_pos_as_xyz
  1  'x, y, z'
loop_
 _atom_site_type_symbol
 _atom_site_label
 _atom_site_symmetry_multiplicity
 _atom_site_fract_x
 _atom_site_fract_y
 _atom_site_fract_z
 _atom_site_occupancy
  Dy  Dy0  1  0.71344000  0.59683000  0.21389000  1.0
  Dy  Dy1  1  0.28656000  0.40317000  0.78611000  1.0
  H  H2  1  0.45873000  0.22138000  0.26662000  1.0
  H  H3  1  0.54128000  0.77862000  0.73338000  1.0
  H  H4  1  0.48803000  0.83924000  0.26733000  1.0
  H  H5  1  0.51197000  0.16076000  0.73267000  1.0
  H  H6  1  0.34441000  0.72253000  0.32545000  1.0
  H  H7  1  0.65559000  0.27747000  0.67454000  1.0
  H  H8  1  0.28569000  0.58568000  0.16704000  1.0
  H  H9  1  0.71431000  0.41432000  0.83295000  1.0
  H  H10  1  0.37744000  0.44845000  0.16745000  1.0
  H  H11  1  0.62256000  0.55155000  0.83255000  1.0
  H  H12  1  0.98417000  0.42781000  0.33972000  1.0
  H  H13  1  0.01582000  0.57219000  0.66028000  1.0
  H  H14  1  0.92696000  0.35264000  0.24744000  1.0
  H  H15  1  0.07304000  0.64736000  0.75255000  1.0
  H  H16  1  0.85222000  0.35683000  0.09915000  1.0
  H  H17  1  0.14778000  0.64317000  0.90085000  1.0
  H  H18  1  0.76525000  0.44700000  0.01282000  1.0
  H  H19  1  0.23474000  0.55301000  0.98718000  1.0
  H  H20  1  0.37138000  0.44750000  0.38930000  1.0
  H  H21  1  0.62862000  0.55251000  0.61070000  1.0
  H  H22  1  0.57214000  0.43910000  0.43053000  1.0
  H  H23  1  0.42786000  0.56090000  0.56946000  1.0
  H  H24  1  0.59419000  0.25512000  0.98204000  1.0
  H  H25  1  0.40581000  0.74489000  0.01796000  1.0
  H  H26  1  0.01028000  0.98106000  0.84906000  1.0
  H  H27  1  0.98971000  0.01895000  0.15094000  1.0
  H  H28  1  0.81400000  0.21296000  0.42347000  1.0
  H  H29  1  0.18599000  0.78705000  0.57653000  1.0
  H  H30  1  0.66905000  0.83845000  0.37116000  1.0
  H  H31  1  0.33094000  0.16155000  0.62884000  1.0
  C  C32  1  0.62683000  0.15801000  0.96869000  1.0
  C  C33  1  0.37317000  0.84199000  0.03131000  1.0
  C  C34  1  0.81414000  0.12845000  0.91102000  1.0
  C  C35  1  0.18586000  0.87155000  0.08898000  1.0
  C  C36  1  0.86146000  0.00276000  0.89349000  1.0
  C  C37  1  0.13854000  0.99724000  0.10651000  1.0
  C  C38  1  0.71919000  0.90970000  0.93219000  1.0
  C  C39  1  0.28081000  0.09031000  0.06781000  1.0
  C  C40  1  0.52241000  0.93593000  0.99064000  1.0
  C  C41  1  0.47758000  0.06407000  0.00936000  1.0
  C  C42  1  0.97017000  0.22748000  0.86585000  1.0
  C  C43  1  0.02984000  0.77252000  0.13415000  1.0
  C  C44  1  0.83814000  0.11280000  0.43458000  1.0
  C  C45  1  0.16187000  0.88720000  0.56542000  1.0
  C  C46  1  0.72686000  0.03154000  0.39118000  1.0
  C  C47  1  0.27314000  0.96846000  0.60883000  1.0
  C  C48  1  0.75704000  0.90143000  0.40522000  1.0
  C  C49  1  0.24297000  0.09857000  0.59479000  1.0
  C  C50  1  0.89997000  0.85388000  0.45867000  1.0
  C  C51  1  0.10004000  0.14611000  0.54133000  1.0
  C  C52  1  0.01733000  0.93348000  0.50640000  1.0
  C  C53  1  0.98268000  0.06652000  0.49360000  1.0
  C  C54  1  0.57741000  0.07489000  0.32531000  1.0
  C  C55  1  0.42259000  0.92510000  0.67469000  1.0
  S  S56  1  0.78678000  0.75430000  0.90460000  1.0
  S  S57  1  0.21322000  0.24570000  0.09540000  1.0
  S  S58  1  0.93190000  0.68822000  0.46157000  1.0
  S  S59  1  0.06810000  0.31177000  0.53843000  1.0
  O  O60  1  0.92895000  0.34474000  0.86582000  1.0
  O  O61  1  0.07105000  0.65526000  0.13418000  1.0
  O  O62  1  0.14649000  0.19445000  0.82780000  1.0
  O  O63  1  0.85351000  0.80556000  0.17221000  1.0
  O  O64  1  0.73463000  0.67250000  0.01284000  1.0
  O  O65  1  0.26538000  0.32750000  0.98716000  1.0
  O  O66  1  0.67322000  0.71596000  0.82380000  1.0
  O  O67  1  0.32678000  0.28403000  0.17621000  1.0
  O  O68  1  0.00194000  0.76037000  0.85451000  1.0
  O  O69  1  0.99806000  0.23963000  0.14548000  1.0
  O  O70  1  0.55514000  0.19846000  0.31582000  1.0
  O  O71  1  0.44485000  0.80155000  0.68419000  1.0
  O  O72  1  0.48362000  0.00270000  0.28252000  1.0
  O  O73  1  0.51640000  0.99730000  0.71748000  1.0
  O  O74  1  0.81534000  0.64684000  0.38441000  1.0
  O  O75  1  0.18465000  0.35315000  0.61560000  1.0
  O  O76  1  0.84999000  0.63434000  0.58104000  1.0
  O  O77  1  0.15001000  0.36566000  0.41896000  1.0
  O  O78  1  0.14410000  0.66685000  0.42568000  1.0
  O  O79  1  0.85590000  0.33312000  0.57432000  1.0
  O  O80  1  0.47201000  0.74709000  0.27115000  1.0
  O  O81  1  0.52800000  0.25291000  0.72886000  1.0
  O  O82  1  0.40856000  0.53824000  0.16670000  1.0
  O  O83  1  0.59144000  0.46176000  0.83331000  1.0
  O  O84  1  0.89468000  0.42861000  0.28659000  1.0
  O  O85  1  0.10530000  0.57138000  0.71341000  1.0
  O  O86  1  0.76663000  0.42992000  0.09354000  1.0
  O  O87  1  0.23336000  0.57008000  0.90646000  1.0
  O  O88  1  0.50408000  0.48754000  0.37880000  1.0
  O  O89  1  0.49591000  0.51246000  0.62119000  1.0
