# generated using pymatgen
data_ZnH11C11N3O5
_symmetry_space_group_name_H-M   'P 1'
_cell_length_a   7.37265000
_cell_length_b   10.79340000
_cell_length_c   16.08970000
_cell_angle_alpha   89.99800000
_cell_angle_beta   81.03310000
_cell_angle_gamma   89.99780000
_symmetry_Int_Tables_number   1
_chemical_formula_structural   ZnH11C11N3O5
_chemical_formula_sum   'Zn4 H44 C44 N12 O20'
_cell_volume   1264.70555431
_cell_formula_units_Z   4
loop_
 _symmetry_equiv_pos_site_id
 _symmetry_equiv_pos_as_xyz
  1  'x, y, z'
loop_
 _atom_site_type_symbol
 _atom_site_label
 _atom_site_symmetry_multiplicity
 _atom_site_fract_x
 _atom_site_fract_y
 _atom_site_fract_z
 _atom_site_occupancy
  Zn  Zn0  1  0.08990000  0.80171000  0.89817000  1.0
  Zn  Zn1  1  0.91005000  0.30172000  0.60184000  1.0
  Zn  Zn2  1  0.91009000  0.19829000  0.10183000  1.0
  Zn  Zn3  1  0.08995000  0.69829000  0.39817000  1.0
  H  H4  1  0.63729000  0.74706000  0.01803000  1.0
  H  H5  1  0.36265000  0.24709000  0.48198000  1.0
  H  H6  1  0.36271000  0.25290000  0.98197000  1.0
  H  H7  1  0.63735000  0.75293000  0.51803000  1.0
  H  H8  1  0.58690000  0.59144000  0.05018000  1.0
  H  H9  1  0.41306000  0.09147000  0.44983000  1.0
  H  H10  1  0.41312000  0.40852000  0.94981000  1.0
  H  H11  1  0.58695000  0.90855000  0.55018000  1.0
  H  H12  1  0.69014000  0.62396000  0.94493000  1.0
  H  H13  1  0.30981000  0.12400000  0.55507000  1.0
  H  H14  1  0.30989000  0.37601000  0.05506000  1.0
  H  H15  1  0.69019000  0.87601000  0.44493000  1.0
  H  H16  1  0.36612000  0.94466000  0.92554000  1.0
  H  H17  1  0.63384000  0.44466000  0.57446000  1.0
  H  H18  1  0.63386000  0.05535000  0.07447000  1.0
  H  H19  1  0.36616000  0.55535000  0.42554000  1.0
  H  H20  1  0.19861000  0.98598000  0.99878000  1.0
  H  H21  1  0.80137000  0.48599000  0.50123000  1.0
  H  H22  1  0.80137000  0.01402000  0.00123000  1.0
  H  H23  1  0.19863000  0.51403000  0.49878000  1.0
  H  H24  1  0.13804000  0.64781000  0.73367000  1.0
  H  H25  1  0.86190000  0.14780000  0.76633000  1.0
  H  H26  1  0.86196000  0.35222000  0.26634000  1.0
  H  H27  1  0.13809000  0.85220000  0.23367000  1.0
  H  H28  1  0.92024000  0.56203000  0.64108000  1.0
  H  H29  1  0.07970000  0.06201000  0.85891000  1.0
  H  H30  1  0.07977000  0.43799000  0.35892000  1.0
  H  H31  1  0.92029000  0.93797000  0.14108000  1.0
  H  H32  1  0.59131000  0.62380000  0.67020000  1.0
  H  H33  1  0.40863000  0.12377000  0.82981000  1.0
  H  H34  1  0.40869000  0.37622000  0.32980000  1.0
  H  H35  1  0.59137000  0.87619000  0.17019000  1.0
  H  H36  1  0.80400000  0.52639000  0.14418000  1.0
  H  H37  1  0.19598000  0.02646000  0.35581000  1.0
  H  H38  1  0.19604000  0.47356000  0.85581000  1.0
  H  H39  1  0.80404000  0.97357000  0.64419000  1.0
  H  H40  1  0.29905000  0.69612000  0.03465000  1.0
  H  H41  1  0.70090000  0.19615000  0.46534000  1.0
  H  H42  1  0.70096000  0.30386000  0.96534000  1.0
  H  H43  1  0.29911000  0.80387000  0.53466000  1.0
  H  H44  1  0.14075000  0.55281000  0.16915000  1.0
  H  H45  1  0.85923000  0.05287000  0.33084000  1.0
  H  H46  1  0.85928000  0.44715000  0.83084000  1.0
  H  H47  1  0.14079000  0.94716000  0.66916000  1.0
  C  C48  1  0.68621000  0.65082000  0.01095000  1.0
  C  C49  1  0.31374000  0.15086000  0.48905000  1.0
  C  C50  1  0.31381000  0.34914000  0.98904000  1.0
  C  C51  1  0.68627000  0.84916000  0.51095000  1.0
  C  C52  1  0.43330000  0.79120000  0.78323000  1.0
  C  C53  1  0.56664000  0.29119000  0.71678000  1.0
  C  C54  1  0.56669000  0.20881000  0.21677000  1.0
  C  C55  1  0.43335000  0.70880000  0.28322000  1.0
  C  C56  1  0.76476000  0.80013000  0.81401000  1.0
  C  C57  1  0.23519000  0.30012000  0.68599000  1.0
  C  C58  1  0.23524000  0.19989000  0.18600000  1.0
  C  C59  1  0.76480000  0.69988000  0.31401000  1.0
  C  C60  1  0.63309000  0.75349000  0.76804000  1.0
  C  C61  1  0.36686000  0.25348000  0.73196000  1.0
  C  C62  1  0.36691000  0.24652000  0.23196000  1.0
  C  C63  1  0.63313000  0.74650000  0.26803000  1.0
  C  C64  1  0.72742000  0.90301000  0.87802000  1.0
  C  C65  1  0.27255000  0.40301000  0.62198000  1.0
  C  C66  1  0.27257000  0.09700000  0.12199000  1.0
  C  C67  1  0.72745000  0.59699000  0.37802000  1.0
  C  C68  1  0.99394000  0.67494000  0.74143000  1.0
  C  C69  1  0.00600000  0.17493000  0.75856000  1.0
  C  C70  1  0.00606000  0.32508000  0.25857000  1.0
  C  C71  1  0.99399000  0.82506000  0.24143000  1.0
  C  C72  1  0.87319000  0.62790000  0.69081000  1.0
  C  C73  1  0.12675000  0.12788000  0.80918000  1.0
  C  C74  1  0.12682000  0.37212000  0.30919000  1.0
  C  C75  1  0.87324000  0.87210000  0.19081000  1.0
  C  C76  1  0.86962000  0.63964000  0.03733000  1.0
  C  C77  1  0.13033000  0.13967000  0.46267000  1.0
  C  C78  1  0.13039000  0.36033000  0.96266000  1.0
  C  C79  1  0.86968000  0.86035000  0.53733000  1.0
  C  C80  1  0.15989000  0.66201000  0.05017000  1.0
  C  C81  1  0.84007000  0.16205000  0.44982000  1.0
  C  C82  1  0.84013000  0.33797000  0.94982000  1.0
  C  C83  1  0.15994000  0.83797000  0.55018000  1.0
  C  C84  1  0.69036000  0.66454000  0.70600000  1.0
  C  C85  1  0.30959000  0.16452000  0.79400000  1.0
  C  C86  1  0.30965000  0.33548000  0.29400000  1.0
  C  C87  1  0.69041000  0.83546000  0.20599000  1.0
  C  C88  1  0.08295000  0.58971000  0.11637000  1.0
  C  C89  1  0.91702000  0.08976000  0.38362000  1.0
  C  C90  1  0.91708000  0.41026000  0.88362000  1.0
  C  C91  1  0.08299000  0.91026000  0.61638000  1.0
  N  N92  1  0.93900000  0.75694000  0.80261000  1.0
  N  N93  1  0.06095000  0.25694000  0.69739000  1.0
  N  N94  1  0.06100000  0.24307000  0.19739000  1.0
  N  N95  1  0.93904000  0.74306000  0.30262000  1.0
  N  N96  1  0.02720000  0.69191000  0.00135000  1.0
  N  N97  1  0.97274000  0.19193000  0.49865000  1.0
  N  N98  1  0.97281000  0.30808000  0.99865000  1.0
  N  N99  1  0.02726000  0.80809000  0.50135000  1.0
  N  N100  1  0.90113000  0.57640000  0.10670000  1.0
  N  N101  1  0.09885000  0.07645000  0.39330000  1.0
  N  N102  1  0.09890000  0.42357000  0.89329000  1.0
  N  N103  1  0.90117000  0.92358000  0.60670000  1.0
  O  O104  1  0.33619000  0.72903000  0.84325000  1.0
  O  O105  1  0.66376000  0.22904000  0.65676000  1.0
  O  O106  1  0.66381000  0.27098000  0.15676000  1.0
  O  O107  1  0.33624000  0.77097000  0.34324000  1.0
  O  O108  1  0.23137000  0.94024000  0.94411000  1.0
  O  O109  1  0.76859000  0.44025000  0.55590000  1.0
  O  O110  1  0.76861000  0.05977000  0.05590000  1.0
  O  O111  1  0.23141000  0.55976000  0.44410000  1.0
  O  O112  1  0.37825000  0.86996000  0.73646000  1.0
  O  O113  1  0.62168000  0.36995000  0.76356000  1.0
  O  O114  1  0.62174000  0.13004000  0.26355000  1.0
  O  O115  1  0.37829000  0.63004000  0.23645000  1.0
  O  O116  1  0.85672000  0.92403000  0.92155000  1.0
  O  O117  1  0.14325000  0.42405000  0.57846000  1.0
  O  O118  1  0.14326000  0.07596000  0.07847000  1.0
  O  O119  1  0.85674000  0.57596000  0.42155000  1.0
  O  O120  1  0.58143000  0.96367000  0.88388000  1.0
  O  O121  1  0.41853000  0.46366000  0.61614000  1.0
  O  O122  1  0.41855000  0.03634000  0.11613000  1.0
  O  O123  1  0.58147000  0.53634000  0.38387000  1.0
