# generated using pymatgen
data_CuH13C13N2O5
_symmetry_space_group_name_H-M   'P 1'
_cell_length_a   8.42005000
_cell_length_b   12.81770000
_cell_length_c   17.86180000
_cell_angle_alpha   110.99500000
_cell_angle_beta   94.22850000
_cell_angle_gamma   90.00250000
_symmetry_Int_Tables_number   1
_chemical_formula_structural   CuH13C13N2O5
_chemical_formula_sum   'Cu4 H52 C52 N8 O20'
_cell_volume   1794.14284191
_cell_formula_units_Z   4
loop_
 _symmetry_equiv_pos_site_id
 _symmetry_equiv_pos_as_xyz
  1  'x, y, z'
loop_
 _atom_site_type_symbol
 _atom_site_label
 _atom_site_symmetry_multiplicity
 _atom_site_fract_x
 _atom_site_fract_y
 _atom_site_fract_z
 _atom_site_occupancy
  Cu  Cu0  1  0.58306000  0.06470000  0.56335000  1.0
  Cu  Cu1  1  0.91709000  0.50162000  0.43673000  1.0
  Cu  Cu2  1  0.41694000  0.93530000  0.43667000  1.0
  Cu  Cu3  1  0.08290000  0.49839000  0.56327000  1.0
  H  H4  1  0.41257000  0.69428000  0.57137000  1.0
  H  H5  1  0.08598000  0.12277000  0.42852000  1.0
  H  H6  1  0.58748000  0.30570000  0.42863000  1.0
  H  H7  1  0.91400000  0.87723000  0.57149000  1.0
  H  H8  1  0.62331000  0.70453000  0.57338000  1.0
  H  H9  1  0.87527000  0.13100000  0.42660000  1.0
  H  H10  1  0.37674000  0.29548000  0.42662000  1.0
  H  H11  1  0.12472000  0.86901000  0.57342000  1.0
  H  H12  1  0.52616000  0.78625000  0.65980000  1.0
  H  H13  1  0.97229000  0.12662000  0.34019000  1.0
  H  H14  1  0.47388000  0.21372000  0.34020000  1.0
  H  H15  1  0.02769000  0.87337000  0.65982000  1.0
  H  H16  1  0.99708000  0.06136000  0.58237000  1.0
  H  H17  1  0.50288000  0.47860000  0.41754000  1.0
  H  H18  1  0.00292000  0.93863000  0.41765000  1.0
  H  H19  1  0.49709000  0.52135000  0.58243000  1.0
  H  H20  1  0.11254000  0.14863000  0.67288000  1.0
  H  H21  1  0.38750000  0.47525000  0.32694000  1.0
  H  H22  1  0.88746000  0.85138000  0.32713000  1.0
  H  H23  1  0.61246000  0.52471000  0.67303000  1.0
  H  H24  1  0.06522000  0.19555000  0.59149000  1.0
  H  H25  1  0.43452000  0.60354000  0.40824000  1.0
  H  H26  1  0.93477000  0.80444000  0.40851000  1.0
  H  H27  1  0.56546000  0.39641000  0.59172000  1.0
  H  H28  1  0.74198000  0.05961000  0.72715000  1.0
  H  H29  1  0.75832000  0.33323000  0.27309000  1.0
  H  H30  1  0.25803000  0.94040000  0.27286000  1.0
  H  H31  1  0.24168000  0.66677000  0.72690000  1.0
  H  H32  1  0.94296000  0.17446000  0.83857000  1.0
  H  H33  1  0.55730000  0.33714000  0.16177000  1.0
  H  H34  1  0.05706000  0.82557000  0.16145000  1.0
  H  H35  1  0.44272000  0.66287000  0.83822000  1.0
  H  H36  1  0.92354000  0.42445000  0.72718000  1.0
  H  H37  1  0.57777000  0.69832000  0.27317000  1.0
  H  H38  1  0.07645000  0.57555000  0.27282000  1.0
  H  H39  1  0.42220000  0.30167000  0.72683000  1.0
  H  H40  1  0.73936000  0.29525000  0.61898000  1.0
  H  H41  1  0.76171000  0.67688000  0.38136000  1.0
  H  H42  1  0.26065000  0.70474000  0.38103000  1.0
  H  H43  1  0.23826000  0.32311000  0.61864000  1.0
  H  H44  1  0.93201000  0.51110000  0.87514000  1.0
  H  H45  1  0.56877000  0.63669000  0.12467000  1.0
  H  H46  1  0.06798000  0.48891000  0.12486000  1.0
  H  H47  1  0.43123000  0.36332000  0.87533000  1.0
  H  H48  1  0.25072000  0.45741000  0.00018000  1.0
  H  H49  1  0.74927000  0.54259000  0.99981000  1.0
  H  H50  1  0.24962000  0.84437000  0.99945000  1.0
  H  H51  1  0.75041000  0.15564000  0.00055000  1.0
  H  H52  1  0.06020000  0.69956000  0.90425000  1.0
  H  H53  1  0.43943000  0.79585000  0.09509000  1.0
  H  H54  1  0.93981000  0.30046000  0.09575000  1.0
  H  H55  1  0.56059000  0.20415000  0.90491000  1.0
  C  C56  1  0.50707000  0.84467000  0.56054000  1.0
  C  C57  1  0.99173000  0.28407000  0.43952000  1.0
  C  C58  1  0.49296000  0.15533000  0.43948000  1.0
  C  C59  1  0.00826000  0.71593000  0.56048000  1.0
  C  C60  1  0.51590000  0.75180000  0.59392000  1.0
  C  C61  1  0.98263000  0.15786000  0.40606000  1.0
  C  C62  1  0.48414000  0.24819000  0.40608000  1.0
  C  C63  1  0.01736000  0.84214000  0.59395000  1.0
  C  C64  1  0.24763000  0.07701000  0.57022000  1.0
  C  C65  1  0.25227000  0.50625000  0.42956000  1.0
  C  C66  1  0.75237000  0.92299000  0.42979000  1.0
  C  C67  1  0.74770000  0.49374000  0.57042000  1.0
  C  C68  1  0.09580000  0.12224000  0.60732000  1.0
  C  C69  1  0.40415000  0.51442000  0.39249000  1.0
  C  C70  1  0.90420000  0.87776000  0.39269000  1.0
  C  C71  1  0.59583000  0.48554000  0.60748000  1.0
  C  C72  1  0.78671000  0.14116000  0.73035000  1.0
  C  C73  1  0.71370000  0.41166000  0.26991000  1.0
  C  C74  1  0.21330000  0.85885000  0.26966000  1.0
  C  C75  1  0.28630000  0.58834000  0.73008000  1.0
  C  C76  1  0.89652000  0.20492000  0.79185000  1.0
  C  C77  1  0.60390000  0.41420000  0.20846000  1.0
  C  C78  1  0.10349000  0.79510000  0.20816000  1.0
  C  C79  1  0.39610000  0.58580000  0.79153000  1.0
  C  C80  1  0.94706000  0.30941000  0.79269000  1.0
  C  C81  1  0.55356000  0.51791000  0.20769000  1.0
  C  C82  1  0.05294000  0.69061000  0.20731000  1.0
  C  C83  1  0.44644000  0.48208000  0.79230000  1.0
  C  C84  1  0.88677000  0.34521000  0.73118000  1.0
  C  C85  1  0.61420000  0.61505000  0.26915000  1.0
  C  C86  1  0.11322000  0.65480000  0.26881000  1.0
  C  C87  1  0.38578000  0.38495000  0.73085000  1.0
  C  C88  1  0.78228000  0.27371000  0.67042000  1.0
  C  C89  1  0.71856000  0.60407000  0.32991000  1.0
  C  C90  1  0.21772000  0.72630000  0.32959000  1.0
  C  C91  1  0.28141000  0.39592000  0.67009000  1.0
  C  C92  1  0.07416000  0.37616000  0.85448000  1.0
  C  C93  1  0.42631000  0.52305000  0.14602000  1.0
  C  C94  1  0.92584000  0.62385000  0.14553000  1.0
  C  C95  1  0.57369000  0.47695000  0.85398000  1.0
  C  C96  1  0.14634000  0.56914000  0.94560000  1.0
  C  C97  1  0.35416000  0.62397000  0.05430000  1.0
  C  C98  1  0.85366000  0.43088000  0.05439000  1.0
  C  C99  1  0.64585000  0.37605000  0.94569000  1.0
  C  C100  1  0.25043000  0.54183000  0.00005000  1.0
  C  C101  1  0.74957000  0.45818000  0.99995000  1.0
  C  C102  1  0.14306000  0.67891000  0.94641000  1.0
  C  C103  1  0.35682000  0.73274000  0.05311000  1.0
  C  C104  1  0.85695000  0.32111000  0.05359000  1.0
  C  C105  1  0.64319000  0.26727000  0.94689000  1.0
  C  C106  1  0.24982000  0.75939000  0.99963000  1.0
  C  C107  1  0.75019000  0.24062000  0.00037000  1.0
  N  N108  1  0.73173000  0.17415000  0.66993000  1.0
  N  N109  1  0.76883000  0.50493000  0.33033000  1.0
  N  N110  1  0.26828000  0.82587000  0.33008000  1.0
  N  N111  1  0.23116000  0.49506000  0.66965000  1.0
  N  N112  1  0.04337000  0.48685000  0.88896000  1.0
  N  N113  1  0.45725000  0.59886000  0.11118000  1.0
  N  N114  1  0.95664000  0.51317000  0.11104000  1.0
  N  N115  1  0.54275000  0.40114000  0.88882000  1.0
  O  O116  1  0.57758000  0.93719000  0.60317000  1.0
  O  O117  1  0.92147000  0.33419000  0.39692000  1.0
  O  O118  1  0.42249000  0.06279000  0.39683000  1.0
  O  O119  1  0.07856000  0.66581000  0.60307000  1.0
  O  O120  1  0.43240000  0.82255000  0.49149000  1.0
  O  O121  1  0.06617000  0.33078000  0.50863000  1.0
  O  O122  1  0.56754000  0.17747000  0.50855000  1.0
  O  O123  1  0.93381000  0.66923000  0.49138000  1.0
  O  O124  1  0.37831000  0.11700000  0.61144000  1.0
  O  O125  1  0.12165000  0.50519000  0.38835000  1.0
  O  O126  1  0.62169000  0.88296000  0.38859000  1.0
  O  O127  1  0.87832000  0.49483000  0.61165000  1.0
  O  O128  1  0.23335000  0.00335000  0.49932000  1.0
  O  O129  1  0.26645000  0.50314000  0.50040000  1.0
  O  O130  1  0.76665000  0.99669000  0.50067000  1.0
  O  O131  1  0.73354000  0.49684000  0.49958000  1.0
  O  O132  1  0.19739000  0.33053000  0.86877000  1.0
  O  O133  1  0.30277000  0.46354000  0.13214000  1.0
  O  O134  1  0.80262000  0.66948000  0.13123000  1.0
  O  O135  1  0.69722000  0.53646000  0.86785000  1.0
