# generated using pymatgen
data_SrH6C6(NO3)2
_symmetry_space_group_name_H-M   'P 1'
_cell_length_a   6.94458000
_cell_length_b   10.79270000
_cell_length_c   12.33600000
_cell_angle_alpha   97.88690000
_cell_angle_beta   90.00000000
_cell_angle_gamma   89.99920000
_symmetry_Int_Tables_number   1
_chemical_formula_structural   SrH6C6(NO3)2
_chemical_formula_sum   'Sr4 H24 C24 N8 O24'
_cell_volume   915.84683156
_cell_formula_units_Z   4
loop_
 _symmetry_equiv_pos_site_id
 _symmetry_equiv_pos_as_xyz
  1  'x, y, z'
loop_
 _atom_site_type_symbol
 _atom_site_label
 _atom_site_symmetry_multiplicity
 _atom_site_fract_x
 _atom_site_fract_y
 _atom_site_fract_z
 _atom_site_occupancy
  Sr  Sr0  1  0.82248000  0.55644000  0.36918000  1.0
  Sr  Sr1  1  0.32248000  0.94356000  0.13082000  1.0
  Sr  Sr2  1  0.17752000  0.44356000  0.63082000  1.0
  Sr  Sr3  1  0.67753000  0.05644000  0.86917000  1.0
  H  H4  1  0.69323000  0.38734000  0.90090000  1.0
  H  H5  1  0.19321000  0.11265000  0.59909000  1.0
  H  H6  1  0.30676000  0.61267000  0.09911000  1.0
  H  H7  1  0.80675000  0.88735000  0.40089000  1.0
  H  H8  1  0.73569000  0.36566000  0.10079000  1.0
  H  H9  1  0.23570000  0.13434000  0.39920000  1.0
  H  H10  1  0.26433000  0.63435000  0.89921000  1.0
  H  H11  1  0.76431000  0.86567000  0.60079000  1.0
  H  H12  1  0.17460000  0.42057000  0.20997000  1.0
  H  H13  1  0.67460000  0.07943000  0.29003000  1.0
  H  H14  1  0.82538000  0.57941000  0.79003000  1.0
  H  H15  1  0.32539000  0.92059000  0.70997000  1.0
  H  H16  1  0.06512000  0.30541000  0.23094000  1.0
  H  H17  1  0.56512000  0.19459000  0.26906000  1.0
  H  H18  1  0.93485000  0.69457000  0.76907000  1.0
  H  H19  1  0.43486000  0.80542000  0.73092000  1.0
  H  H20  1  0.57791000  0.65702000  0.57831000  1.0
  H  H21  1  0.07791000  0.84298000  0.92169000  1.0
  H  H22  1  0.42209000  0.34299000  0.42169000  1.0
  H  H23  1  0.92210000  0.15701000  0.07830000  1.0
  H  H24  1  0.78589000  0.63140000  0.62127000  1.0
  H  H25  1  0.28588000  0.86860000  0.87873000  1.0
  H  H26  1  0.21409000  0.36859000  0.37874000  1.0
  H  H27  1  0.71412000  0.13140000  0.12126000  1.0
  C  C28  1  0.81697000  0.66716000  0.10946000  1.0
  C  C29  1  0.31696000  0.83283000  0.39054000  1.0
  C  C30  1  0.18305000  0.33284000  0.89054000  1.0
  C  C31  1  0.68304000  0.16718000  0.60946000  1.0
  C  C32  1  0.76883000  0.68113000  0.00096000  1.0
  C  C33  1  0.26882000  0.81886000  0.49904000  1.0
  C  C34  1  0.23118000  0.31886000  0.99904000  1.0
  C  C35  1  0.73117000  0.18115000  0.50096000  1.0
  C  C36  1  0.72470000  0.46800000  0.96205000  1.0
  C  C37  1  0.22470000  0.03200000  0.53796000  1.0
  C  C38  1  0.27529000  0.53200000  0.03796000  1.0
  C  C39  1  0.77529000  0.96801000  0.46204000  1.0
  C  C40  1  0.75022000  0.45655000  0.07230000  1.0
  C  C41  1  0.25022000  0.04345000  0.42770000  1.0
  C  C42  1  0.24980000  0.54346000  0.92771000  1.0
  C  C43  1  0.74978000  0.95656000  0.57228000  1.0
  C  C44  1  0.90891000  0.77028000  0.18933000  1.0
  C  C45  1  0.40890000  0.72970000  0.31067000  1.0
  C  C46  1  0.09111000  0.22972000  0.81067000  1.0
  C  C47  1  0.59111000  0.27030000  0.68933000  1.0
  C  C48  1  0.74269000  0.80684000  0.96162000  1.0
  C  C49  1  0.24268000  0.69315000  0.53838000  1.0
  C  C50  1  0.25732000  0.19315000  0.03838000  1.0
  C  C51  1  0.75730000  0.30686000  0.46162000  1.0
  N  N52  1  0.80079000  0.55521000  0.14444000  1.0
  N  N53  1  0.30078000  0.94479000  0.35556000  1.0
  N  N54  1  0.19924000  0.44479000  0.85557000  1.0
  N  N55  1  0.69922000  0.05522000  0.64444000  1.0
  N  N56  1  0.73161000  0.58020000  0.92706000  1.0
  N  N57  1  0.23159000  0.91979000  0.57294000  1.0
  N  N58  1  0.26840000  0.41980000  0.07295000  1.0
  N  N59  1  0.76839000  0.08021000  0.42705000  1.0
  O  O60  1  0.83908000  0.83082000  0.87826000  1.0
  O  O61  1  0.33907000  0.66917000  0.62174000  1.0
  O  O62  1  0.16094000  0.16917000  0.12173000  1.0
  O  O63  1  0.66092000  0.33083000  0.37827000  1.0
  O  O64  1  0.61727000  0.87949000  0.00909000  1.0
  O  O65  1  0.11724000  0.62050000  0.49092000  1.0
  O  O66  1  0.38276000  0.12050000  0.99091000  1.0
  O  O67  1  0.88274000  0.37950000  0.50908000  1.0
  O  O68  1  0.91494000  0.75169000  0.28862000  1.0
  O  O69  1  0.41495000  0.74829000  0.21137000  1.0
  O  O70  1  0.08508000  0.24831000  0.71139000  1.0
  O  O71  1  0.58506000  0.25170000  0.78863000  1.0
  O  O72  1  0.98000000  0.86189000  0.14920000  1.0
  O  O73  1  0.47998000  0.63808000  0.35079000  1.0
  O  O74  1  0.02002000  0.13810000  0.85080000  1.0
  O  O75  1  0.52003000  0.36192000  0.64922000  1.0
  O  O76  1  0.08531000  0.39238000  0.26559000  1.0
  O  O77  1  0.58531000  0.10762000  0.23440000  1.0
  O  O78  1  0.91467000  0.60761000  0.73441000  1.0
  O  O79  1  0.41468000  0.89239000  0.76559000  1.0
  O  O80  1  0.71526000  0.65610000  0.55740000  1.0
  O  O81  1  0.21526000  0.84390000  0.94260000  1.0
  O  O82  1  0.28474000  0.34390000  0.44261000  1.0
  O  O83  1  0.78475000  0.15610000  0.05739000  1.0
