# generated using pymatgen
data_GdH19C27(N2O5)4
_symmetry_space_group_name_H-M   'P 1'
_cell_length_a   15.33430000
_cell_length_b   18.66740000
_cell_length_c   18.66740000
_cell_angle_alpha   107.49000000
_cell_angle_beta   95.94160000
_cell_angle_gamma   95.94160000
_symmetry_Int_Tables_number   1
_chemical_formula_structural   GdH19C27(N2O5)4
_chemical_formula_sum   'Gd4 H76 C108 N32 O80'
_cell_volume   5017.85197179
_cell_formula_units_Z   4
loop_
 _symmetry_equiv_pos_site_id
 _symmetry_equiv_pos_as_xyz
  1  'x, y, z'
loop_
 _atom_site_type_symbol
 _atom_site_label
 _atom_site_symmetry_multiplicity
 _atom_site_fract_x
 _atom_site_fract_y
 _atom_site_fract_z
 _atom_site_occupancy
  Gd  Gd0  1  0.62611000  0.56098000  0.01928000  1.0
  Gd  Gd1  1  0.87389000  0.98072000  0.43901000  1.0
  Gd  Gd2  1  0.37389000  0.43901000  0.98071000  1.0
  Gd  Gd3  1  0.12612000  0.01929000  0.56099000  1.0
  H  H4  1  0.47041000  0.30153000  0.11513000  1.0
  H  H5  1  0.72371000  0.44102000  0.17268000  1.0
  H  H6  1  0.70683000  0.19100000  0.42048000  1.0
  H  H7  1  0.78844000  0.05718000  0.21364000  1.0
  H  H8  1  0.48144000  0.77183000  0.15860000  1.0
  H  H9  1  0.33575000  0.55768000  0.14853000  1.0
  H  H10  1  0.82535000  0.51335000  0.94384000  1.0
  H  H11  1  0.90324000  0.34952000  0.02696000  1.0
  H  H12  1  0.93443000  0.43449000  0.10611000  1.0
  H  H13  1  0.82025000  0.40073000  0.07037000  1.0
  H  H14  1  0.95322000  0.47367000  0.91711000  1.0
  H  H15  1  0.00296000  0.41450000  0.96279000  1.0
  H  H16  1  0.77643000  0.53916000  0.16674000  1.0
  H  H17  1  0.93220000  0.73580000  0.21694000  1.0
  H  H18  1  0.81700000  0.73934000  0.19526000  1.0
  H  H19  1  0.86644000  0.75927000  0.29191000  1.0
  H  H20  1  0.97040000  0.62292000  0.26784000  1.0
  H  H21  1  0.89370000  0.64423000  0.33449000  1.0
  H  H22  1  0.87837000  0.55368000  0.26271000  1.0
  H  H23  1  0.02959000  0.88487000  0.69846000  1.0
  H  H24  1  0.77630000  0.82732000  0.55897000  1.0
  H  H25  1  0.79317000  0.57952000  0.80900000  1.0
  H  H26  1  0.71156000  0.78636000  0.94281000  1.0
  H  H27  1  0.01857000  0.84141000  0.22816000  1.0
  H  H28  1  0.16424000  0.85147000  0.44232000  1.0
  H  H29  1  0.67465000  0.05615000  0.48666000  1.0
  H  H30  1  0.59675000  0.97305000  0.65049000  1.0
  H  H31  1  0.56556000  0.89389000  0.56552000  1.0
  H  H32  1  0.67974000  0.92963000  0.59929000  1.0
  H  H33  1  0.54678000  0.08289000  0.52633000  1.0
  H  H34  1  0.49704000  0.03721000  0.58550000  1.0
  H  H35  1  0.72357000  0.83326000  0.46084000  1.0
  H  H36  1  0.56780000  0.78306000  0.26421000  1.0
  H  H37  1  0.68300000  0.80473000  0.26066000  1.0
  H  H38  1  0.63355000  0.70809000  0.24073000  1.0
  H  H39  1  0.52959000  0.73216000  0.37709000  1.0
  H  H40  1  0.60629000  0.66551000  0.35578000  1.0
  H  H41  1  0.62163000  0.73729000  0.44633000  1.0
  H  H42  1  0.52958000  0.69847000  0.88486000  1.0
  H  H43  1  0.27628000  0.55898000  0.82733000  1.0
  H  H44  1  0.29316000  0.80900000  0.57951000  1.0
  H  H45  1  0.21156000  0.94282000  0.78636000  1.0
  H  H46  1  0.51857000  0.22817000  0.84141000  1.0
  H  H47  1  0.66424000  0.44232000  0.85146000  1.0
  H  H48  1  0.17464000  0.48665000  0.05615000  1.0
  H  H49  1  0.09675000  0.65048000  0.97305000  1.0
  H  H50  1  0.06555000  0.56552000  0.89389000  1.0
  H  H51  1  0.17974000  0.59928000  0.92963000  1.0
  H  H52  1  0.04677000  0.52632000  0.08290000  1.0
  H  H53  1  0.99703000  0.58550000  0.03721000  1.0
  H  H54  1  0.22356000  0.46084000  0.83325000  1.0
  H  H55  1  0.06781000  0.26420000  0.78306000  1.0
  H  H56  1  0.18301000  0.26066000  0.80473000  1.0
  H  H57  1  0.13355000  0.24073000  0.70809000  1.0
  H  H58  1  0.02959000  0.37708000  0.73215000  1.0
  H  H59  1  0.10629000  0.35577000  0.66550000  1.0
  H  H60  1  0.12162000  0.44632000  0.73728000  1.0
  H  H61  1  0.97042000  0.11512000  0.30153000  1.0
  H  H62  1  0.22371000  0.17268000  0.44102000  1.0
  H  H63  1  0.20684000  0.42048000  0.19100000  1.0
  H  H64  1  0.28844000  0.21364000  0.05718000  1.0
  H  H65  1  0.98144000  0.15859000  0.77184000  1.0
  H  H66  1  0.83576000  0.14853000  0.55768000  1.0
  H  H67  1  0.32535000  0.94385000  0.51334000  1.0
  H  H68  1  0.40326000  0.02696000  0.34952000  1.0
  H  H69  1  0.43445000  0.10612000  0.43450000  1.0
  H  H70  1  0.32027000  0.07038000  0.40073000  1.0
  H  H71  1  0.45322000  0.91711000  0.47368000  1.0
  H  H72  1  0.50297000  0.96279000  0.41451000  1.0
  H  H73  1  0.27643000  0.16676000  0.53916000  1.0
  H  H74  1  0.43220000  0.21692000  0.73579000  1.0
  H  H75  1  0.31701000  0.19526000  0.73934000  1.0
  H  H76  1  0.36646000  0.29190000  0.75928000  1.0
  H  H77  1  0.47041000  0.26785000  0.62292000  1.0
  H  H78  1  0.39371000  0.33450000  0.64424000  1.0
  H  H79  1  0.37837000  0.26273000  0.55368000  1.0
  C  C80  1  0.55717000  0.42946000  0.09938000  1.0
  C  C81  1  0.59316000  0.37730000  0.13934000  1.0
  C  C82  1  0.53940000  0.31323000  0.14115000  1.0
  C  C83  1  0.57474000  0.26373000  0.17519000  1.0
  C  C84  1  0.66349000  0.27504000  0.20908000  1.0
  C  C85  1  0.71506000  0.34141000  0.20731000  1.0
  C  C86  1  0.68121000  0.39102000  0.17317000  1.0
  C  C87  1  0.69692000  0.22216000  0.24806000  1.0
  C  C88  1  0.68567000  0.23003000  0.32377000  1.0
  C  C89  1  0.71437000  0.18062000  0.36104000  1.0
  C  C90  1  0.75337000  0.11896000  0.32213000  1.0
  C  C91  1  0.76092000  0.10651000  0.24560000  1.0
  C  C92  1  0.73397000  0.15773000  0.21032000  1.0
  C  C93  1  0.78730000  0.06628000  0.36162000  1.0
  C  C94  1  0.47973000  0.62027000  0.10114000  1.0
  C  C95  1  0.41411000  0.66048000  0.14606000  1.0
  C  C96  1  0.42440000  0.73960000  0.17033000  1.0
  C  C97  1  0.36117000  0.77677000  0.20886000  1.0
  C  C98  1  0.28432000  0.73777000  0.22236000  1.0
  C  C99  1  0.27984000  0.65854000  0.20118000  1.0
  C  C100  1  0.34314000  0.61946000  0.16412000  1.0
  C  C101  1  0.81631000  0.48144000  0.98440000  1.0
  C  C102  1  0.88675000  0.40622000  0.05462000  1.0
  C  C103  1  0.96938000  0.46520000  0.97246000  1.0
  C  C104  1  0.78532000  0.59914000  0.16902000  1.0
  C  C105  1  0.86649000  0.72457000  0.23296000  1.0
  C  C106  1  0.90018000  0.61451000  0.27517000  1.0
  C  C107  1  0.94283000  0.90061000  0.57054000  1.0
  C  C108  1  0.90685000  0.86066000  0.62270000  1.0
  C  C109  1  0.96061000  0.85885000  0.68677000  1.0
  C  C110  1  0.92526000  0.82481000  0.73627000  1.0
  C  C111  1  0.83651000  0.79091000  0.72495000  1.0
  C  C112  1  0.78495000  0.79269000  0.65858000  1.0
  C  C113  1  0.81880000  0.82683000  0.60897000  1.0
  C  C114  1  0.80308000  0.75194000  0.77784000  1.0
  C  C115  1  0.81433000  0.67623000  0.76997000  1.0
  C  C116  1  0.78563000  0.63896000  0.81938000  1.0
  C  C117  1  0.74663000  0.67787000  0.88104000  1.0
  C  C118  1  0.73907000  0.75439000  0.89349000  1.0
  C  C119  1  0.76603000  0.78967000  0.84226000  1.0
  C  C120  1  0.71269000  0.63838000  0.93372000  1.0
  C  C121  1  0.02026000  0.89887000  0.37972000  1.0
  C  C122  1  0.08589000  0.85394000  0.33952000  1.0
  C  C123  1  0.07561000  0.82968000  0.26040000  1.0
  C  C124  1  0.13884000  0.79116000  0.22323000  1.0
  C  C125  1  0.21568000  0.77764000  0.26224000  1.0
  C  C126  1  0.22015000  0.79882000  0.34146000  1.0
  C  C127  1  0.15684000  0.83587000  0.38054000  1.0
  C  C128  1  0.68369000  0.01560000  0.51857000  1.0
  C  C129  1  0.61325000  0.94539000  0.59380000  1.0
  C  C130  1  0.53062000  0.02755000  0.53481000  1.0
  C  C131  1  0.71468000  0.83098000  0.40086000  1.0
  C  C132  1  0.63351000  0.76704000  0.27544000  1.0
  C  C133  1  0.59982000  0.72484000  0.38549000  1.0
  C  C134  1  0.44282000  0.57054000  0.90062000  1.0
  C  C135  1  0.40684000  0.62270000  0.86066000  1.0
  C  C136  1  0.46059000  0.68677000  0.85885000  1.0
  C  C137  1  0.42525000  0.73628000  0.82481000  1.0
  C  C138  1  0.33650000  0.72496000  0.79091000  1.0
  C  C139  1  0.28494000  0.65859000  0.79269000  1.0
  C  C140  1  0.31879000  0.60898000  0.82683000  1.0
  C  C141  1  0.30307000  0.77784000  0.75194000  1.0
  C  C142  1  0.31432000  0.76996000  0.67623000  1.0
  C  C143  1  0.28562000  0.81937000  0.63896000  1.0
  C  C144  1  0.24663000  0.88104000  0.67787000  1.0
  C  C145  1  0.23907000  0.89349000  0.75439000  1.0
  C  C146  1  0.26602000  0.84227000  0.78967000  1.0
  C  C147  1  0.21269000  0.93372000  0.63838000  1.0
  C  C148  1  0.52026000  0.37973000  0.89886000  1.0
  C  C149  1  0.58589000  0.33953000  0.85394000  1.0
  C  C150  1  0.57561000  0.26040000  0.82968000  1.0
  C  C151  1  0.63884000  0.22324000  0.79115000  1.0
  C  C152  1  0.71569000  0.26224000  0.77764000  1.0
  C  C153  1  0.72016000  0.34146000  0.79882000  1.0
  C  C154  1  0.65685000  0.38054000  0.83588000  1.0
  C  C155  1  0.18368000  0.51856000  0.01560000  1.0
  C  C156  1  0.11324000  0.59379000  0.94539000  1.0
  C  C157  1  0.03061000  0.53480000  0.02754000  1.0
  C  C158  1  0.21468000  0.40086000  0.83097000  1.0
  C  C159  1  0.13352000  0.27543000  0.76704000  1.0
  C  C160  1  0.09981000  0.38548000  0.72483000  1.0
  C  C161  1  0.05717000  0.09938000  0.42946000  1.0
  C  C162  1  0.09316000  0.13933000  0.37730000  1.0
  C  C163  1  0.03940000  0.14114000  0.31323000  1.0
  C  C164  1  0.07475000  0.17518000  0.26372000  1.0
  C  C165  1  0.16350000  0.20908000  0.27504000  1.0
  C  C166  1  0.21506000  0.20731000  0.34141000  1.0
  C  C167  1  0.18121000  0.17317000  0.39102000  1.0
  C  C168  1  0.19693000  0.24806000  0.22215000  1.0
  C  C169  1  0.18567000  0.32376000  0.23003000  1.0
  C  C170  1  0.21437000  0.36103000  0.18063000  1.0
  C  C171  1  0.25337000  0.32212000  0.11896000  1.0
  C  C172  1  0.26093000  0.24560000  0.10650000  1.0
  C  C173  1  0.23397000  0.21032000  0.15772000  1.0
  C  C174  1  0.28730000  0.36162000  0.06628000  1.0
  C  C175  1  0.97974000  0.10113000  0.62028000  1.0
  C  C176  1  0.91411000  0.14606000  0.66048000  1.0
  C  C177  1  0.92440000  0.17032000  0.73961000  1.0
  C  C178  1  0.86117000  0.20885000  0.77677000  1.0
  C  C179  1  0.78433000  0.22236000  0.73777000  1.0
  C  C180  1  0.77985000  0.20119000  0.65855000  1.0
  C  C181  1  0.84315000  0.16412000  0.61946000  1.0
  C  C182  1  0.31631000  0.98440000  0.48144000  1.0
  C  C183  1  0.38676000  0.05462000  0.40622000  1.0
  C  C184  1  0.46939000  0.97246000  0.46520000  1.0
  C  C185  1  0.28532000  0.16903000  0.59914000  1.0
  C  C186  1  0.36650000  0.23295000  0.72457000  1.0
  C  C187  1  0.40018000  0.27517000  0.61452000  1.0
  N  N188  1  0.51321000  0.19708000  0.17450000  1.0
  N  N189  1  0.80860000  0.36074000  0.24212000  1.0
  N  N190  1  0.64351000  0.29328000  0.36853000  1.0
  N  N191  1  0.74454000  0.14158000  0.12941000  1.0
  N  N192  1  0.37901000  0.86011000  0.23938000  1.0
  N  N193  1  0.20466000  0.61190000  0.21631000  1.0
  N  N194  1  0.88731000  0.45034000  0.00193000  1.0
  N  N195  1  0.84671000  0.64425000  0.22457000  1.0
  N  N196  1  0.98679000  0.82550000  0.80292000  1.0
  N  N197  1  0.69140000  0.75787000  0.63926000  1.0
  N  N198  1  0.85649000  0.63146000  0.70672000  1.0
  N  N199  1  0.75546000  0.87059000  0.85841000  1.0
  N  N200  1  0.12101000  0.76064000  0.13990000  1.0
  N  N201  1  0.29532000  0.78368000  0.38810000  1.0
  N  N202  1  0.61269000  0.99807000  0.54966000  1.0
  N  N203  1  0.65329000  0.77542000  0.35576000  1.0
  N  N204  1  0.48678000  0.80292000  0.82550000  1.0
  N  N205  1  0.19139000  0.63926000  0.75788000  1.0
  N  N206  1  0.35648000  0.70671000  0.63146000  1.0
  N  N207  1  0.25546000  0.85842000  0.87059000  1.0
  N  N208  1  0.62101000  0.13990000  0.76064000  1.0
  N  N209  1  0.79533000  0.38811000  0.78368000  1.0
  N  N210  1  0.11268000  0.54966000  0.99807000  1.0
  N  N211  1  0.15329000  0.35575000  0.77542000  1.0
  N  N212  1  0.01322000  0.17449000  0.19707000  1.0
  N  N213  1  0.30860000  0.24212000  0.36074000  1.0
  N  N214  1  0.14352000  0.36853000  0.29329000  1.0
  N  N215  1  0.24454000  0.12941000  0.14158000  1.0
  N  N216  1  0.87901000  0.23937000  0.86011000  1.0
  N  N217  1  0.70468000  0.21632000  0.61190000  1.0
  N  N218  1  0.38732000  0.00193000  0.45035000  1.0
  N  N219  1  0.34671000  0.22458000  0.64425000  1.0
  O  O220  1  0.60802000  0.48948000  0.10414000  1.0
  O  O221  1  0.47958000  0.40736000  0.06359000  1.0
  O  O222  1  0.79505000  0.08663000  0.43449000  1.0
  O  O223  1  0.80865000  0.00408000  0.32286000  1.0
  O  O224  1  0.43511000  0.20659000  0.17979000  1.0
  O  O225  1  0.54287000  0.13655000  0.16809000  1.0
  O  O226  1  0.85255000  0.41636000  0.23286000  1.0
  O  O227  1  0.83860000  0.32098000  0.27843000  1.0
  O  O228  1  0.60565000  0.28265000  0.42058000  1.0
  O  O229  1  0.64943000  0.35293000  0.35170000  1.0
  O  O230  1  0.73754000  0.19364000  0.10132000  1.0
  O  O231  1  0.75982000  0.07773000  0.09487000  1.0
  O  O232  1  0.45468000  0.55211000  0.05906000  1.0
  O  O233  1  0.55648000  0.65498000  0.10612000  1.0
  O  O234  1  0.45779000  0.88941000  0.25314000  1.0
  O  O235  1  0.31528000  0.89568000  0.25116000  1.0
  O  O236  1  0.12916000  0.62858000  0.20401000  1.0
  O  O237  1  0.22145000  0.55814000  0.23833000  1.0
  O  O238  1  0.74476000  0.47614000  0.01029000  1.0
  O  O239  1  0.74052000  0.62192000  0.12237000  1.0
  O  O240  1  0.89198000  0.89586000  0.51051000  1.0
  O  O241  1  0.02041000  0.93641000  0.59263000  1.0
  O  O242  1  0.70494000  0.56551000  0.91337000  1.0
  O  O243  1  0.69134000  0.67715000  0.99592000  1.0
  O  O244  1  0.06489000  0.82019000  0.79341000  1.0
  O  O245  1  0.95713000  0.83192000  0.86346000  1.0
  O  O246  1  0.64745000  0.76714000  0.58365000  1.0
  O  O247  1  0.66141000  0.72155000  0.67901000  1.0
  O  O248  1  0.89435000  0.57942000  0.71736000  1.0
  O  O249  1  0.85059000  0.64830000  0.64707000  1.0
  O  O250  1  0.76246000  0.89868000  0.80635000  1.0
  O  O251  1  0.74017000  0.90512000  0.92226000  1.0
  O  O252  1  0.04532000  0.94095000  0.44789000  1.0
  O  O253  1  0.94352000  0.89388000  0.34502000  1.0
  O  O254  1  0.04223000  0.74687000  0.11059000  1.0
  O  O255  1  0.18475000  0.74886000  0.10433000  1.0
  O  O256  1  0.37083000  0.79597000  0.37143000  1.0
  O  O257  1  0.27852000  0.76164000  0.44185000  1.0
  O  O258  1  0.75524000  0.98970000  0.52387000  1.0
  O  O259  1  0.75948000  0.87763000  0.37808000  1.0
  O  O260  1  0.39197000  0.51052000  0.89586000  1.0
  O  O261  1  0.52041000  0.59264000  0.93640000  1.0
  O  O262  1  0.20494000  0.91337000  0.56551000  1.0
  O  O263  1  0.19135000  0.99592000  0.67715000  1.0
  O  O264  1  0.56489000  0.79341000  0.82019000  1.0
  O  O265  1  0.45712000  0.86346000  0.83191000  1.0
  O  O266  1  0.14744000  0.58366000  0.76715000  1.0
  O  O267  1  0.16140000  0.67902000  0.72156000  1.0
  O  O268  1  0.39433000  0.71734000  0.57941000  1.0
  O  O269  1  0.35057000  0.64706000  0.64830000  1.0
  O  O270  1  0.26246000  0.80636000  0.89868000  1.0
  O  O271  1  0.24017000  0.92227000  0.90512000  1.0
  O  O272  1  0.54531000  0.44790000  0.94094000  1.0
  O  O273  1  0.44352000  0.34502000  0.89388000  1.0
  O  O274  1  0.54223000  0.11059000  0.74688000  1.0
  O  O275  1  0.68474000  0.10433000  0.74885000  1.0
  O  O276  1  0.87083000  0.37142000  0.79598000  1.0
  O  O277  1  0.77853000  0.44186000  0.76166000  1.0
  O  O278  1  0.25523000  0.52386000  0.98970000  1.0
  O  O279  1  0.25948000  0.37808000  0.87762000  1.0
  O  O280  1  0.10802000  0.10414000  0.48948000  1.0
  O  O281  1  0.97959000  0.06360000  0.40736000  1.0
  O  O282  1  0.29506000  0.43449000  0.08663000  1.0
  O  O283  1  0.30865000  0.32285000  0.00408000  1.0
  O  O284  1  0.93511000  0.17979000  0.20658000  1.0
  O  O285  1  0.04288000  0.16807000  0.13653000  1.0
  O  O286  1  0.35255000  0.23287000  0.41636000  1.0
  O  O287  1  0.33860000  0.27843000  0.32097000  1.0
  O  O288  1  0.10566000  0.42057000  0.28266000  1.0
  O  O289  1  0.14943000  0.35170000  0.35294000  1.0
  O  O290  1  0.23754000  0.10131000  0.19363000  1.0
  O  O291  1  0.25983000  0.09487000  0.07772000  1.0
  O  O292  1  0.95468000  0.05905000  0.55211000  1.0
  O  O293  1  0.05648000  0.10612000  0.65498000  1.0
  O  O294  1  0.95779000  0.25313000  0.88941000  1.0
  O  O295  1  0.81528000  0.25116000  0.89568000  1.0
  O  O296  1  0.62917000  0.20402000  0.62858000  1.0
  O  O297  1  0.72147000  0.23835000  0.55815000  1.0
  O  O298  1  0.24477000  0.01030000  0.47614000  1.0
  O  O299  1  0.24052000  0.12238000  0.62192000  1.0
