# generated using pymatgen
data_CuH8C10SBrN2
_symmetry_space_group_name_H-M   'P 1'
_cell_length_a   7.55709000
_cell_length_b   8.66978000
_cell_length_c   9.39518000
_cell_angle_alpha   71.31860000
_cell_angle_beta   72.19910000
_cell_angle_gamma   66.49080000
_symmetry_Int_Tables_number   1
_chemical_formula_structural   CuH8C10SBrN2
_chemical_formula_sum   'Cu2 H16 C20 S2 Br2 N4'
_cell_volume   523.38495383
_cell_formula_units_Z   2
loop_
 _symmetry_equiv_pos_site_id
 _symmetry_equiv_pos_as_xyz
  1  'x, y, z'
loop_
 _atom_site_type_symbol
 _atom_site_label
 _atom_site_symmetry_multiplicity
 _atom_site_fract_x
 _atom_site_fract_y
 _atom_site_fract_z
 _atom_site_occupancy
  Cu  Cu0  1  0.99143000  0.02302000  0.67418000  1.0
  Cu  Cu1  1  0.00857000  0.97698000  0.32582000  1.0
  H  H2  1  0.11498000  0.45520000  0.12161000  1.0
  H  H3  1  0.88502000  0.54480000  0.87840000  1.0
  H  H4  1  0.84683000  0.36210000  0.32172000  1.0
  H  H5  1  0.15317000  0.63789000  0.67828000  1.0
  H  H6  1  0.63969000  0.54697000  0.51412000  1.0
  H  H7  1  0.36031000  0.45303000  0.48588000  1.0
  H  H8  1  0.72740000  0.79740000  0.50958000  1.0
  H  H9  1  0.27260000  0.20260000  0.49042000  1.0
  H  H10  1  0.35359000  0.89844000  0.73195000  1.0
  H  H11  1  0.64642000  0.10155000  0.26805000  1.0
  H  H12  1  0.64434000  0.86444000  0.82212000  1.0
  H  H13  1  0.35566000  0.13556000  0.17788000  1.0
  H  H14  1  0.65741000  0.73898000  0.10422000  1.0
  H  H15  1  0.34259000  0.26102000  0.89579000  1.0
  H  H16  1  0.37099000  0.65111000  0.28001000  1.0
  H  H17  1  0.62901000  0.34889000  0.71999000  1.0
  C  C18  1  0.06129000  0.66934000  0.21641000  1.0
  C  C19  1  0.93871000  0.33066000  0.78359000  1.0
  C  C20  1  0.02666000  0.52575000  0.21091000  1.0
  C  C21  1  0.97334000  0.47425000  0.78909000  1.0
  C  C22  1  0.87541000  0.47624000  0.32086000  1.0
  C  C23  1  0.12459000  0.52376000  0.67914000  1.0
  C  C24  1  0.76385000  0.57589000  0.42888000  1.0
  C  C25  1  0.23615000  0.42411000  0.57112000  1.0
  C  C26  1  0.81019000  0.71618000  0.42717000  1.0
  C  C27  1  0.18981000  0.28382000  0.57283000  1.0
  C  C28  1  0.20028000  0.79697000  0.95310000  1.0
  C  C29  1  0.79972000  0.20303000  0.04690000  1.0
  C  C30  1  0.36337000  0.84274000  0.85210000  1.0
  C  C31  1  0.63663000  0.15726000  0.14790000  1.0
  C  C32  1  0.52511000  0.82248000  0.90362000  1.0
  C  C33  1  0.47489000  0.17752000  0.09638000  1.0
  C  C34  1  0.53330000  0.75246000  0.06020000  1.0
  C  C35  1  0.46670000  0.24754000  0.93980000  1.0
  C  C36  1  0.37856000  0.70357000  0.15745000  1.0
  C  C37  1  0.62143000  0.29643000  0.84255000  1.0
  S  S38  1  0.98839000  0.83394000  0.90001000  1.0
  S  S39  1  0.01161000  0.16606000  0.09999000  1.0
  Br  Br40  1  0.72161000  0.09306000  0.54445000  1.0
  Br  Br41  1  0.27839000  0.90695000  0.45555000  1.0
  N  N42  1  0.95903000  0.76355000  0.32271000  1.0
  N  N43  1  0.04097000  0.23645000  0.67729000  1.0
  N  N44  1  0.21918000  0.72175000  0.10519000  1.0
  N  N45  1  0.78083000  0.27825000  0.89481000  1.0
