# generated using pymatgen
data_MnH6C2(N5Cl)2
_symmetry_space_group_name_H-M   'P 1'
_cell_length_a   3.63059000
_cell_length_b   7.96621000
_cell_length_c   16.15220000
_cell_angle_alpha   90.00000000
_cell_angle_beta   90.00000000
_cell_angle_gamma   95.04120000
_symmetry_Int_Tables_number   1
_chemical_formula_structural   MnH6C2(N5Cl)2
_chemical_formula_sum   'Mn2 H12 C4 N20 Cl4'
_cell_volume   465.34755070
_cell_formula_units_Z   2
loop_
 _symmetry_equiv_pos_site_id
 _symmetry_equiv_pos_as_xyz
  1  'x, y, z'
loop_
 _atom_site_type_symbol
 _atom_site_label
 _atom_site_symmetry_multiplicity
 _atom_site_fract_x
 _atom_site_fract_y
 _atom_site_fract_z
 _atom_site_occupancy
  Mn  Mn0  1  0.50000000  0.50000000  0.50000000  1.0
  Mn  Mn1  1  0.00000000  0.00000000  0.00000000  1.0
  H  H2  1  0.65821000  0.14009000  0.22111000  1.0
  H  H3  1  0.84179000  0.35991000  0.72111000  1.0
  H  H4  1  0.34179000  0.85991000  0.77889000  1.0
  H  H5  1  0.15821000  0.64009000  0.27889000  1.0
  H  H6  1  0.77129000  0.12421000  0.45334000  1.0
  H  H7  1  0.72871000  0.37579000  0.95334000  1.0
  H  H8  1  0.22871000  0.87579000  0.54666000  1.0
  H  H9  1  0.27129000  0.62421000  0.04666000  1.0
  H  H10  1  0.79872000  0.99515000  0.36502000  1.0
  H  H11  1  0.70128000  0.50486000  0.86502000  1.0
  H  H12  1  0.20128000  0.00485000  0.63498000  1.0
  H  H13  1  0.29873000  0.49514000  0.13498000  1.0
  C  C14  1  0.59179000  0.22259000  0.34795000  1.0
  C  C15  1  0.90820000  0.27742000  0.84795000  1.0
  C  C16  1  0.40820000  0.77741000  0.65205000  1.0
  C  C17  1  0.09179000  0.72259000  0.15206000  1.0
  N  N18  1  0.47749000  0.36991000  0.37582000  1.0
  N  N19  1  0.02251000  0.13009000  0.87582000  1.0
  N  N20  1  0.52250000  0.63009000  0.62418000  1.0
  N  N21  1  0.97750000  0.86991000  0.12418000  1.0
  N  N22  1  0.38802000  0.45639000  0.30755000  1.0
  N  N23  1  0.11198000  0.04361000  0.80756000  1.0
  N  N24  1  0.61198000  0.54361000  0.69244000  1.0
  N  N25  1  0.88802000  0.95639000  0.19245000  1.0
  N  N26  1  0.44047000  0.37313000  0.24061000  1.0
  N  N27  1  0.05952000  0.12687000  0.74061000  1.0
  N  N28  1  0.55952000  0.62687000  0.75939000  1.0
  N  N29  1  0.94048000  0.87313000  0.25939000  1.0
  N  N30  1  0.56817000  0.22619000  0.26399000  1.0
  N  N31  1  0.93183000  0.27381000  0.76399000  1.0
  N  N32  1  0.43183000  0.77381000  0.73601000  1.0
  N  N33  1  0.06817000  0.72620000  0.23601000  1.0
  N  N34  1  0.69345000  0.09503000  0.39374000  1.0
  N  N35  1  0.80655000  0.40497000  0.89374000  1.0
  N  N36  1  0.30655000  0.90497000  0.60626000  1.0
  N  N37  1  0.19346000  0.59503000  0.10626000  1.0
  Cl  Cl38  1  0.96227000  0.30400000  0.55274000  1.0
  Cl  Cl39  1  0.53773000  0.19600000  0.05274000  1.0
  Cl  Cl40  1  0.03773000  0.69600000  0.44726000  1.0
  Cl  Cl41  1  0.46227000  0.80400000  0.94726000  1.0
