# generated using pymatgen
data_MnCuH16C7N2O11
_symmetry_space_group_name_H-M   'P 1'
_cell_length_a   7.46060000
_cell_length_b   8.59408000
_cell_length_c   12.87888339
_cell_angle_alpha   70.89969090
_cell_angle_beta   80.51937922
_cell_angle_gamma   69.02630000
_symmetry_Int_Tables_number   1
_chemical_formula_structural   MnCuH16C7N2O11
_chemical_formula_sum   'Mn2 Cu2 H32 C14 N4 O22'
_cell_volume   727.53604209
_cell_formula_units_Z   2
loop_
 _symmetry_equiv_pos_site_id
 _symmetry_equiv_pos_as_xyz
  1  'x, y, z'
loop_
 _atom_site_type_symbol
 _atom_site_label
 _atom_site_symmetry_multiplicity
 _atom_site_fract_x
 _atom_site_fract_y
 _atom_site_fract_z
 _atom_site_occupancy
  Mn  Mn0  1  0.64043000  0.13209000  0.62011000  1.0
  Mn  Mn1  1  0.35947000  0.86777000  0.37996000  1.0
  Cu  Cu2  1  0.12243000  0.65654000  0.12126000  1.0
  Cu  Cu3  1  0.87747000  0.34355000  0.87864000  1.0
  H  H4  1  0.41762000  0.56151000  0.25088000  1.0
  H  H5  1  0.58241000  0.43850000  0.74897000  1.0
  H  H6  1  0.50836000  0.42200000  0.18569000  1.0
  H  H7  1  0.49170000  0.57791000  0.81425000  1.0
  H  H8  1  0.01947000  0.79854000  0.27653000  1.0
  H  H9  1  0.98059000  0.20144000  0.72329000  1.0
  H  H10  1  0.83587000  0.78866000  0.22837000  1.0
  H  H11  1  0.16412000  0.21117000  0.77157000  1.0
  H  H12  1  0.17979000  0.35928000  0.10776000  1.0
  H  H13  1  0.82028000  0.64078000  0.89234000  1.0
  H  H14  1  0.94620000  0.45305000  0.10857000  1.0
  H  H15  1  0.05386000  0.54704000  0.89144000  1.0
  H  H16  1  0.86455000  0.62612000  0.41617000  1.0
  H  H17  1  0.13585000  0.37412000  0.58369000  1.0
  H  H18  1  0.10761000  0.51001000  0.38623000  1.0
  H  H19  1  0.89277000  0.49007000  0.61359000  1.0
  H  H20  1  0.76344000  0.50166000  0.28808000  1.0
  H  H21  1  0.23663000  0.49842000  0.71204000  1.0
  H  H22  1  0.86975000  0.34966000  0.40894000  1.0
  H  H23  1  0.13050000  0.65037000  0.59116000  1.0
  H  H24  1  0.19095000  0.28089000  0.29755000  1.0
  H  H25  1  0.80905000  0.71902000  0.70246000  1.0
  H  H26  1  0.01057000  0.21619000  0.26573000  1.0
  H  H27  1  0.98916000  0.78407000  0.73417000  1.0
  H  H28  1  0.33714000  0.04716000  0.59184000  1.0
  H  H29  1  0.66281000  0.95272000  0.40823000  1.0
  H  H30  1  0.38763000  0.95113000  0.71864000  1.0
  H  H31  1  0.61250000  0.04887000  0.28136000  1.0
  H  H32  1  0.52962000  0.02294000  0.84144000  1.0
  H  H33  1  0.47041000  0.97720000  0.15854000  1.0
  H  H34  1  0.72700000  0.04831000  0.84610000  1.0
  H  H35  1  0.27308000  0.95168000  0.15402000  1.0
  C  C36  1  0.25384000  0.91454000  0.97004000  1.0
  C  C37  1  0.74596000  0.08541000  0.03000000  1.0
  C  C38  1  0.27027000  0.77698000  0.91201000  1.0
  C  C39  1  0.72985000  0.22288000  0.08804000  1.0
  C  C40  1  0.96349000  0.57176000  0.35375000  1.0
  C  C41  1  0.03678000  0.42824000  0.64618000  1.0
  C  C42  1  0.89988000  0.43801000  0.32985000  1.0
  C  C43  1  0.10021000  0.56203000  0.67022000  1.0
  C  C44  1  0.04919000  0.32958000  0.26300000  1.0
  C  C45  1  0.95078000  0.67051000  0.73700000  1.0
  C  C46  1  0.46993000  0.47847000  0.45305000  1.0
  C  C47  1  0.53009000  0.52149000  0.54678000  1.0
  C  C48  1  0.04861000  0.03637000  0.53090000  1.0
  C  C49  1  0.95127000  0.96358000  0.46926000  1.0
  N  N50  1  0.97234000  0.71597000  0.25413000  1.0
  N  N51  1  0.02771000  0.28397000  0.74575000  1.0
  N  N52  1  0.06672000  0.43258000  0.14696000  1.0
  N  N53  1  0.93330000  0.56754000  0.85307000  1.0
  O  O54  1  0.17479000  0.88732000  0.06835000  1.0
  O  O55  1  0.82497000  0.11243000  0.93169000  1.0
  O  O56  1  0.31454000  0.03911000  0.92142000  1.0
  O  O57  1  0.68492000  0.96107000  0.07871000  1.0
  O  O58  1  0.20031000  0.65582000  0.96610000  1.0
  O  O59  1  0.79964000  0.34412000  0.03396000  1.0
  O  O60  1  0.35128000  0.78784000  0.81737000  1.0
  O  O61  1  0.64910000  0.21182000  0.18275000  1.0
  O  O62  1  0.42445000  0.54362000  0.17795000  1.0
  O  O63  1  0.57543000  0.45621000  0.82198000  1.0
  O  O64  1  0.49431000  0.32183000  0.46344000  1.0
  O  O65  1  0.50566000  0.67812000  0.53643000  1.0
  O  O66  1  0.39971000  0.60931000  0.37109000  1.0
  O  O67  1  0.60031000  0.39064000  0.62873000  1.0
  O  O68  1  0.94850000  0.09831000  0.60650000  1.0
  O  O69  1  0.05128000  0.90164000  0.39366000  1.0
  O  O70  1  0.22144000  0.02779000  0.50002000  1.0
  O  O71  1  0.77843000  0.97214000  0.50017000  1.0
  O  O72  1  0.39956000  0.05088000  0.65363000  1.0
  O  O73  1  0.60011000  0.94934000  0.34645000  1.0
  O  O74  1  0.65541000  0.01974000  0.79990000  1.0
  O  O75  1  0.34456000  0.98052000  0.20008000  1.0
