# generated using pymatgen
data_CuH6C9N4
_symmetry_space_group_name_H-M   'P 1'
_cell_length_a   6.65831000
_cell_length_b   9.36643000
_cell_length_c   13.88350000
_cell_angle_alpha   108.36400000
_cell_angle_beta   92.57120000
_cell_angle_gamma   95.39840000
_symmetry_Int_Tables_number   1
_chemical_formula_structural   CuH6C9N4
_chemical_formula_sum   'Cu4 H24 C36 N16'
_cell_volume   815.55342918
_cell_formula_units_Z   4
loop_
 _symmetry_equiv_pos_site_id
 _symmetry_equiv_pos_as_xyz
  1  'x, y, z'
loop_
 _atom_site_type_symbol
 _atom_site_label
 _atom_site_symmetry_multiplicity
 _atom_site_fract_x
 _atom_site_fract_y
 _atom_site_fract_z
 _atom_site_occupancy
  Cu  Cu0  1  0.31745000  0.54363000  0.49374000  1.0
  Cu  Cu1  1  0.68252000  0.45637000  0.50627000  1.0
  Cu  Cu2  1  0.32123000  0.04273000  0.49311000  1.0
  Cu  Cu3  1  0.67876000  0.95727000  0.50689000  1.0
  H  H4  1  0.39393000  0.87221000  0.67133000  1.0
  H  H5  1  0.60607000  0.12779000  0.32867000  1.0
  H  H6  1  0.98715000  0.49257000  0.65651000  1.0
  H  H7  1  0.01284000  0.50744000  0.34349000  1.0
  H  H8  1  0.65823000  0.58403000  0.71623000  1.0
  H  H9  1  0.34178000  0.41598000  0.28378000  1.0
  H  H10  1  0.08135000  0.87172000  0.95885000  1.0
  H  H11  1  0.91866000  0.12830000  0.04115000  1.0
  H  H12  1  0.39482000  0.59671000  0.83934000  1.0
  H  H13  1  0.60519000  0.40328000  0.16067000  1.0
  H  H14  1  0.81449000  0.89431000  0.08008000  1.0
  H  H15  1  0.18552000  0.10569000  0.91992000  1.0
  H  H16  1  0.50725000  0.99501000  0.12248000  1.0
  H  H17  1  0.49277000  0.00498000  0.87752000  1.0
  H  H18  1  0.30887000  0.52020000  0.97731000  1.0
  H  H19  1  0.69113000  0.47980000  0.02269000  1.0
  H  H20  1  0.23957000  0.01176000  0.24098000  1.0
  H  H21  1  0.76044000  0.98825000  0.75901000  1.0
  H  H22  1  0.04399000  0.53556000  0.09851000  1.0
  H  H23  1  0.95602000  0.46444000  0.90150000  1.0
  H  H24  1  0.02634000  0.00360000  0.35479000  1.0
  H  H25  1  0.97365000  0.99642000  0.64521000  1.0
  H  H26  1  0.57074000  0.64348000  0.31438000  1.0
  H  H27  1  0.42925000  0.35654000  0.68562000  1.0
  C  C28  1  0.30888000  0.33529000  0.45022000  1.0
  C  C29  1  0.69107000  0.66470000  0.54977000  1.0
  C  C30  1  0.27557000  0.79958000  0.68982000  1.0
  C  C31  1  0.72442000  0.20043000  0.31018000  1.0
  C  C32  1  0.07040000  0.60472000  0.67895000  1.0
  C  C33  1  0.92959000  0.39530000  0.32104000  1.0
  C  C34  1  0.88494000  0.72640000  0.83116000  1.0
  C  C35  1  0.11507000  0.27361000  0.16885000  1.0
  C  C36  1  0.69267000  0.64789000  0.79674000  1.0
  C  C37  1  0.30734000  0.35211000  0.20326000  1.0
  C  C38  1  0.92977000  0.81394000  0.93305000  1.0
  C  C39  1  0.07024000  0.18607000  0.06695000  1.0
  C  C40  1  0.54527000  0.65724000  0.86574000  1.0
  C  C41  1  0.45474000  0.34275000  0.13426000  1.0
  C  C42  1  0.77971000  0.82508000  0.00069000  1.0
  C  C43  1  0.22030000  0.17492000  0.99932000  1.0
  C  C44  1  0.58558000  0.74656000  0.96844000  1.0
  C  C45  1  0.41443000  0.25343000  0.03155000  1.0
  C  C46  1  0.42785000  0.75643000  0.04085000  1.0
  C  C47  1  0.57216000  0.24356000  0.95915000  1.0
  C  C48  1  0.40693000  0.89345000  0.11708000  1.0
  C  C49  1  0.59308000  0.10654000  0.88292000  1.0
  C  C50  1  0.29439000  0.62811000  0.03499000  1.0
  C  C51  1  0.70562000  0.37189000  0.96501000  1.0
  C  C52  1  0.25552000  0.90339000  0.18411000  1.0
  C  C53  1  0.74449000  0.09661000  0.81588000  1.0
  C  C54  1  0.14501000  0.63570000  0.10257000  1.0
  C  C55  1  0.85499000  0.36430000  0.89743000  1.0
  C  C56  1  0.12387000  0.77382000  0.17612000  1.0
  C  C57  1  0.87614000  0.22618000  0.82388000  1.0
  C  C58  1  0.93196000  0.89603000  0.32546000  1.0
  C  C59  1  0.06805000  0.10397000  0.67454000  1.0
  C  C60  1  0.70361000  0.71030000  0.30252000  1.0
  C  C61  1  0.29640000  0.28972000  0.69747000  1.0
  C  C62  1  0.68995000  0.16611000  0.55271000  1.0
  C  C63  1  0.31004000  0.83390000  0.44728000  1.0
  N  N64  1  0.28610000  0.70158000  0.43152000  1.0
  N  N65  1  0.71388000  0.29842000  0.56848000  1.0
  N  N66  1  0.22163000  0.65171000  0.63213000  1.0
  N  N67  1  0.77836000  0.34830000  0.36787000  1.0
  N  N68  1  0.28556000  0.20277000  0.43359000  1.0
  N  N69  1  0.71439000  0.79722000  0.56640000  1.0
  N  N70  1  0.16747000  0.84632000  0.76943000  1.0
  N  N71  1  0.83253000  0.15368000  0.23057000  1.0
  N  N72  1  0.03613000  0.72062000  0.76141000  1.0
  N  N73  1  0.96387000  0.27939000  0.23860000  1.0
  N  N74  1  0.96501000  0.78170000  0.24160000  1.0
  N  N75  1  0.03499000  0.21830000  0.75840000  1.0
  N  N76  1  0.81850000  0.66192000  0.22604000  1.0
  N  N77  1  0.18150000  0.33809000  0.77396000  1.0
  N  N78  1  0.76787000  0.85348000  0.36588000  1.0
  N  N79  1  0.23213000  0.14653000  0.63412000  1.0
