# generated using pymatgen
data_CaH15C5N(ClO2)2
_symmetry_space_group_name_H-M   'P 1'
_cell_length_a   9.92010000
_cell_length_b   10.81300000
_cell_length_c   10.92120000
_cell_angle_alpha   90.00000000
_cell_angle_beta   90.00000000
_cell_angle_gamma   90.00000000
_symmetry_Int_Tables_number   1
_chemical_formula_structural   CaH15C5N(ClO2)2
_chemical_formula_sum   'Ca4 H60 C20 N4 Cl8 O16'
_cell_volume   1171.47389025
_cell_formula_units_Z   4
loop_
 _symmetry_equiv_pos_site_id
 _symmetry_equiv_pos_as_xyz
  1  'x, y, z'
loop_
 _atom_site_type_symbol
 _atom_site_label
 _atom_site_symmetry_multiplicity
 _atom_site_fract_x
 _atom_site_fract_y
 _atom_site_fract_z
 _atom_site_occupancy
  Ca  Ca0  1  0.25000000  0.22592000  0.19022000  1.0
  Ca  Ca1  1  0.75000000  0.72592000  0.30978000  1.0
  Ca  Ca2  1  0.25000000  0.27408000  0.69022000  1.0
  Ca  Ca3  1  0.75000000  0.77408000  0.80978000  1.0
  H  H4  1  0.15879000  0.69151000  0.87184000  1.0
  H  H5  1  0.84121000  0.19151000  0.62816000  1.0
  H  H6  1  0.34121000  0.80849000  0.37184000  1.0
  H  H7  1  0.65879000  0.30849000  0.12816000  1.0
  H  H8  1  0.84121000  0.30849000  0.12816000  1.0
  H  H9  1  0.15879000  0.80849000  0.37184000  1.0
  H  H10  1  0.65879000  0.19151000  0.62816000  1.0
  H  H11  1  0.34121000  0.69151000  0.87184000  1.0
  H  H12  1  0.25000000  0.62929000  0.99891000  1.0
  H  H13  1  0.75000000  0.12929000  0.50109000  1.0
  H  H14  1  0.25000000  0.87071000  0.49891000  1.0
  H  H15  1  0.75000000  0.37071000  0.00109000  1.0
  H  H16  1  0.12195000  0.75796000  0.12772000  1.0
  H  H17  1  0.87805000  0.25796000  0.37228000  1.0
  H  H18  1  0.37805000  0.74204000  0.62772000  1.0
  H  H19  1  0.62195000  0.24204000  0.87228000  1.0
  H  H20  1  0.87805000  0.24204000  0.87228000  1.0
  H  H21  1  0.12195000  0.74204000  0.62772000  1.0
  H  H22  1  0.62195000  0.25796000  0.37228000  1.0
  H  H23  1  0.37805000  0.75796000  0.12772000  1.0
  H  H24  1  0.03798000  0.83338000  0.00468000  1.0
  H  H25  1  0.96202000  0.33338000  0.49532000  1.0
  H  H26  1  0.46202000  0.66666667  0.50468000  1.0
  H  H27  1  0.53798000  0.16662000  0.99532000  1.0
  H  H28  1  0.96202000  0.16662000  0.99532000  1.0
  H  H29  1  0.03798000  0.66666667  0.50468000  1.0
  H  H30  1  0.53798000  0.33338000  0.49532000  1.0
  H  H31  1  0.46202000  0.83338000  0.00468000  1.0
  H  H32  1  0.12972000  0.92426000  0.11546000  1.0
  H  H33  1  0.87028000  0.42426000  0.38454000  1.0
  H  H34  1  0.37028000  0.57574000  0.61546000  1.0
  H  H35  1  0.62972000  0.07574000  0.88454000  1.0
  H  H36  1  0.87028000  0.07574000  0.88454000  1.0
  H  H37  1  0.12972000  0.57574000  0.61546000  1.0
  H  H38  1  0.62972000  0.42426000  0.38454000  1.0
  H  H39  1  0.37028000  0.92426000  0.11546000  1.0
  H  H40  1  0.15987000  0.90388000  0.82972000  1.0
  H  H41  1  0.84013000  0.40388000  0.67028000  1.0
  H  H42  1  0.34013000  0.59612000  0.32972000  1.0
  H  H43  1  0.65987000  0.09612000  0.17028000  1.0
  H  H44  1  0.84013000  0.09612000  0.17028000  1.0
  H  H45  1  0.15987000  0.59612000  0.32972000  1.0
  H  H46  1  0.65987000  0.40388000  0.67028000  1.0
  H  H47  1  0.34013000  0.90388000  0.82972000  1.0
  H  H48  1  0.41438000  0.36733000  0.99655000  1.0
  H  H49  1  0.58562000  0.86733000  0.50345000  1.0
  H  H50  1  0.08562000  0.13267000  0.49655000  1.0
  H  H51  1  0.91438000  0.63267000  0.00345000  1.0
  H  H52  1  0.58562000  0.63267000  0.00345000  1.0
  H  H53  1  0.41438000  0.13267000  0.49655000  1.0
  H  H54  1  0.91438000  0.86733000  0.50345000  1.0
  H  H55  1  0.08562000  0.36733000  0.99655000  1.0
  H  H56  1  0.45004000  0.42442000  0.12506000  1.0
  H  H57  1  0.54996000  0.92442000  0.37494000  1.0
  H  H58  1  0.04996000  0.07558000  0.62506000  1.0
  H  H59  1  0.95004000  0.57558000  0.87494000  1.0
  H  H60  1  0.54996000  0.57558000  0.87494000  1.0
  H  H61  1  0.45004000  0.07558000  0.62506000  1.0
  H  H62  1  0.95004000  0.92442000  0.37494000  1.0
  H  H63  1  0.04997000  0.42442000  0.12506000  1.0
  C  C64  1  0.25000000  0.70020000  0.92736000  1.0
  C  C65  1  0.75000000  0.20020000  0.57264000  1.0
  C  C66  1  0.25000000  0.79980000  0.42736000  1.0
  C  C67  1  0.75000000  0.29980000  0.07264000  1.0
  C  C68  1  0.12581000  0.83699000  0.06522000  1.0
  C  C69  1  0.87419000  0.33699000  0.43478000  1.0
  C  C70  1  0.37419000  0.66301000  0.56522000  1.0
  C  C71  1  0.62581000  0.16301000  0.93478000  1.0
  C  C72  1  0.87419000  0.16301000  0.93478000  1.0
  C  C73  1  0.12581000  0.66301000  0.56522000  1.0
  C  C74  1  0.62581000  0.33699000  0.43478000  1.0
  C  C75  1  0.37419000  0.83699000  0.06522000  1.0
  C  C76  1  0.25000000  0.92018000  0.88633000  1.0
  C  C77  1  0.75000000  0.42018000  0.61367000  1.0
  C  C78  1  0.25000000  0.57982000  0.38633000  1.0
  C  C79  1  0.75000000  0.07982000  0.11367000  1.0
  C  C80  1  0.25000000  0.05566000  0.92472000  1.0
  C  C81  1  0.75000000  0.55566000  0.57528000  1.0
  C  C82  1  0.25000000  0.44434000  0.42472000  1.0
  C  C83  1  0.75000000  0.94434000  0.07528000  1.0
  N  N84  1  0.25000000  0.82527000  0.98745000  1.0
  N  N85  1  0.75000000  0.32527000  0.51255000  1.0
  N  N86  1  0.25000000  0.67473000  0.48745000  1.0
  N  N87  1  0.75000000  0.17473000  0.01255000  1.0
  Cl  Cl88  1  0.44846000  0.08449000  0.30484000  1.0
  Cl  Cl89  1  0.55154000  0.58449000  0.19516000  1.0
  Cl  Cl90  1  0.05154000  0.41551000  0.80484000  1.0
  Cl  Cl91  1  0.94846000  0.91551000  0.69516000  1.0
  Cl  Cl92  1  0.55154000  0.91551000  0.69516000  1.0
  Cl  Cl93  1  0.44846000  0.41551000  0.80484000  1.0
  Cl  Cl94  1  0.94846000  0.58449000  0.19516000  1.0
  Cl  Cl95  1  0.05154000  0.08449000  0.30484000  1.0
  O  O96  1  0.25000000  0.08504000  0.03652000  1.0
  O  O97  1  0.75000000  0.58504000  0.46348000  1.0
  O  O98  1  0.25000000  0.41496000  0.53652000  1.0
  O  O99  1  0.75000000  0.91496000  0.96348000  1.0
  O  O100  1  0.25000000  0.12984000  0.83587000  1.0
  O  O101  1  0.75000000  0.62984000  0.66413000  1.0
  O  O102  1  0.25000000  0.37016000  0.33587000  1.0
  O  O103  1  0.75000000  0.87016000  0.16413000  1.0
  O  O104  1  0.41208000  0.34966000  0.08556000  1.0
  O  O105  1  0.58792000  0.84966000  0.41444000  1.0
  O  O106  1  0.08792000  0.15034000  0.58556000  1.0
  O  O107  1  0.91208000  0.65034000  0.91444000  1.0
  O  O108  1  0.58792000  0.65034000  0.91444000  1.0
  O  O109  1  0.41208000  0.15034000  0.58556000  1.0
  O  O110  1  0.91208000  0.84966000  0.41444000  1.0
  O  O111  1  0.08792000  0.34966000  0.08556000  1.0
