# generated using pymatgen
data_MnH17C22(NO)4
_symmetry_space_group_name_H-M   'P 1'
_cell_length_a   8.38716000
_cell_length_b   10.28820000
_cell_length_c   12.02990000
_cell_angle_alpha   67.66530000
_cell_angle_beta   86.35470000
_cell_angle_gamma   88.49970000
_symmetry_Int_Tables_number   1
_chemical_formula_structural   MnH17C22(NO)4
_chemical_formula_sum   'Mn2 H34 C44 N8 O8'
_cell_volume   958.22601177
_cell_formula_units_Z   2
loop_
 _symmetry_equiv_pos_site_id
 _symmetry_equiv_pos_as_xyz
  1  'x, y, z'
loop_
 _atom_site_type_symbol
 _atom_site_label
 _atom_site_symmetry_multiplicity
 _atom_site_fract_x
 _atom_site_fract_y
 _atom_site_fract_z
 _atom_site_occupancy
  Mn  Mn0  1  0.00072000  0.36796000  0.37783000  1.0
  Mn  Mn1  1  0.99928000  0.63204000  0.62217000  1.0
  H  H2  1  0.93466000  0.89745000  0.41276000  1.0
  H  H3  1  0.06534000  0.10256000  0.58724000  1.0
  H  H4  1  0.96170000  0.75775000  0.11930000  1.0
  H  H5  1  0.03830000  0.24225000  0.88070000  1.0
  H  H6  1  0.00791000  0.20037000  0.05321000  1.0
  H  H7  1  0.99209000  0.79964000  0.94678000  1.0
  H  H8  1  0.31710000  0.27927000  0.22611000  1.0
  H  H9  1  0.68290000  0.72073000  0.77389000  1.0
  H  H10  1  0.58271000  0.45342000  0.13465000  1.0
  H  H11  1  0.41729000  0.54658000  0.86536000  1.0
  H  H12  1  0.24224000  0.64931000  0.29474000  1.0
  H  H13  1  0.75776000  0.35069000  0.70526000  1.0
  H  H14  1  0.66331000  0.68462000  0.17538000  1.0
  H  H15  1  0.33669000  0.31538000  0.82462000  1.0
  H  H16  1  0.50032000  0.77881000  0.20875000  1.0
  H  H17  1  0.49968000  0.22119000  0.79125000  1.0
  H  H18  1  0.71748000  0.92899000  0.00574000  1.0
  H  H19  1  0.28252000  0.07101000  0.99425000  1.0
  H  H20  1  0.70572000  0.05210000  0.78590000  1.0
  H  H21  1  0.29428000  0.94790000  0.21409000  1.0
  H  H22  1  0.29651000  0.80174000  0.79524000  1.0
  H  H23  1  0.70349000  0.19826000  0.20476000  1.0
  H  H24  1  0.31070000  0.67918000  0.01233000  1.0
  H  H25  1  0.68931000  0.32082000  0.98767000  1.0
  H  H26  1  0.54323000  0.91918000  0.60455000  1.0
  H  H27  1  0.45677000  0.08082000  0.39545000  1.0
  H  H28  1  0.36688000  0.01299000  0.61474000  1.0
  H  H29  1  0.63313000  0.98701000  0.38525000  1.0
  H  H30  1  0.38459000  0.28015000  0.55483000  1.0
  H  H31  1  0.61540000  0.71986000  0.44516000  1.0
  H  H32  1  0.63288000  0.46698000  0.43793000  1.0
  H  H33  1  0.36712000  0.53302000  0.56207000  1.0
  H  H34  1  0.81233000  0.05183000  0.55002000  1.0
  H  H35  1  0.18767000  0.94817000  0.44998000  1.0
  C  C36  1  0.99275000  0.17406000  0.28312000  1.0
  C  C37  1  0.00725000  0.82595000  0.71688000  1.0
  C  C38  1  0.97729000  0.05952000  0.23599000  1.0
  C  C39  1  0.02271000  0.94048000  0.76401000  1.0
  C  C40  1  0.94947000  0.92138000  0.31636000  1.0
  C  C41  1  0.05053000  0.07862000  0.68364000  1.0
  C  C42  1  0.94074000  0.81421000  0.27223000  1.0
  C  C43  1  0.05926000  0.18579000  0.72778000  1.0
  C  C44  1  0.96431000  0.84564000  0.14849000  1.0
  C  C45  1  0.03569000  0.15435000  0.85151000  1.0
  C  C46  1  0.98877000  0.98406000  0.06568000  1.0
  C  C47  1  0.01123000  0.01594000  0.93432000  1.0
  C  C48  1  0.99146000  0.09055000  0.11215000  1.0
  C  C49  1  0.00854000  0.90946000  0.88785000  1.0
  C  C50  1  0.90823000  0.66550000  0.35635000  1.0
  C  C51  1  0.09177000  0.33450000  0.64365000  1.0
  C  C52  1  0.34051000  0.38183000  0.22706000  1.0
  C  C53  1  0.65949000  0.61817000  0.77295000  1.0
  C  C54  1  0.47236000  0.46619000  0.18126000  1.0
  C  C55  1  0.52764000  0.53381000  0.81874000  1.0
  C  C56  1  0.29548000  0.57064000  0.26426000  1.0
  C  C57  1  0.70452000  0.42936000  0.73574000  1.0
  C  C58  1  0.53743000  0.71309000  0.15782000  1.0
  C  C59  1  0.46257000  0.28691000  0.84217000  1.0
  C  C60  1  0.51869000  0.79275000  0.02453000  1.0
  C  C61  1  0.48131000  0.20725000  0.97546000  1.0
  C  C62  1  0.62558000  0.90065000  0.95916000  1.0
  C  C63  1  0.37442000  0.09935000  0.04084000  1.0
  C  C64  1  0.61709000  0.97182000  0.83517000  1.0
  C  C65  1  0.38291000  0.02818000  0.16482000  1.0
  C  C66  1  0.49889000  0.93730000  0.77439000  1.0
  C  C67  1  0.50111000  0.06270000  0.22561000  1.0
  C  C68  1  0.38851000  0.83257000  0.84036000  1.0
  C  C69  1  0.61149000  0.16743000  0.15964000  1.0
  C  C70  1  0.39771000  0.76138000  0.96397000  1.0
  C  C71  1  0.60229000  0.23862000  0.03602000  1.0
  C  C72  1  0.49203000  0.99715000  0.63902000  1.0
  C  C73  1  0.50797000  0.00286000  0.36098000  1.0
  C  C74  1  0.51090000  0.26283000  0.53967000  1.0
  C  C75  1  0.48910000  0.73717000  0.46032000  1.0
  C  C76  1  0.63358000  0.35341000  0.47994000  1.0
  C  C77  1  0.36642000  0.64658000  0.52006000  1.0
  C  C78  1  0.73316000  0.14210000  0.53501000  1.0
  C  C79  1  0.26684000  0.85790000  0.46498000  1.0
  N  N80  1  0.23116000  0.44795000  0.27894000  1.0
  N  N81  1  0.76884000  0.55204000  0.72107000  1.0
  N  N82  1  0.44229000  0.58543000  0.20603000  1.0
  N  N83  1  0.55771000  0.41457000  0.79396000  1.0
  N  N84  1  0.57639000  0.12909000  0.57453000  1.0
  N  N85  1  0.42361000  0.87091000  0.42547000  1.0
  N  N86  1  0.77140000  0.27741000  0.47760000  1.0
  N  N87  1  0.22860000  0.72259000  0.52240000  1.0
  O  O88  1  0.06210000  0.14464000  0.38182000  1.0
  O  O89  1  0.93790000  0.85536000  0.61818000  1.0
  O  O90  1  0.93644000  0.29553000  0.22553000  1.0
  O  O91  1  0.06356000  0.70447000  0.77447000  1.0
  O  O92  1  0.88302000  0.63917000  0.46835000  1.0
  O  O93  1  0.11698000  0.36083000  0.53165000  1.0
  O  O94  1  0.90401000  0.57309000  0.30949000  1.0
  O  O95  1  0.09599000  0.42691000  0.69051000  1.0
