# generated using pymatgen
data_YbH9C9NO8
_symmetry_space_group_name_H-M   'P 1'
_cell_length_a   5.29609000
_cell_length_b   8.45876000
_cell_length_c   15.66746725
_cell_angle_alpha   74.73975186
_cell_angle_beta   84.82032809
_cell_angle_gamma   86.38590000
_symmetry_Int_Tables_number   1
_chemical_formula_structural   YbH9C9NO8
_chemical_formula_sum   'Yb2 H18 C18 N2 O16'
_cell_volume   673.80006446
_cell_formula_units_Z   2
loop_
 _symmetry_equiv_pos_site_id
 _symmetry_equiv_pos_as_xyz
  1  'x, y, z'
loop_
 _atom_site_type_symbol
 _atom_site_label
 _atom_site_symmetry_multiplicity
 _atom_site_fract_x
 _atom_site_fract_y
 _atom_site_fract_z
 _atom_site_occupancy
  Yb  Yb0  1  0.03569000  0.62376000  0.74010000  1.0
  Yb  Yb1  1  0.96431000  0.37624000  0.25990000  1.0
  H  H2  1  0.75667000  0.56907000  0.51447000  1.0
  H  H3  1  0.24332000  0.43093000  0.48553000  1.0
  H  H4  1  0.91348000  0.92663000  0.28127000  1.0
  H  H5  1  0.08651000  0.07336000  0.71873000  1.0
  H  H6  1  0.59697000  0.66347000  0.00886000  1.0
  H  H7  1  0.40304000  0.33653000  0.99114000  1.0
  H  H8  1  0.36753000  0.64592000  0.93639000  1.0
  H  H9  1  0.63248000  0.35409000  0.06361000  1.0
  H  H10  1  0.21419000  0.97375000  0.43833000  1.0
  H  H11  1  0.78581000  0.02626000  0.56166000  1.0
  H  H12  1  0.44846000  0.42479000  0.83139000  1.0
  H  H13  1  0.55155000  0.57520000  0.16861000  1.0
  H  H14  1  0.18698000  0.33401000  0.86949000  1.0
  H  H15  1  0.81302000  0.66599000  0.13051000  1.0
  H  H16  1  0.67348000  0.49063000  0.65450000  1.0
  H  H17  1  0.32652000  0.50937000  0.34550000  1.0
  H  H18  1  0.94533000  0.38249000  0.64131000  1.0
  H  H19  1  0.05467000  0.61751000  0.35869000  1.0
  C  C20  1  0.30836000  0.70381000  0.57358000  1.0
  C  C21  1  0.69164000  0.29620000  0.42642000  1.0
  C  C22  1  0.46561000  0.76338000  0.48822000  1.0
  C  C23  1  0.53438000  0.23662000  0.51178000  1.0
  C  C24  1  0.69388000  0.68289000  0.46910000  1.0
  C  C25  1  0.30613000  0.31711000  0.53090000  1.0
  C  C26  1  0.78120000  0.88082000  0.33884000  1.0
  C  C27  1  0.21879000  0.11918000  0.66115000  1.0
  C  C28  1  0.55328000  0.96805000  0.35103000  1.0
  C  C29  1  0.44671000  0.03195000  0.64896000  1.0
  C  C30  1  0.49204000  0.12911000  0.28741000  1.0
  C  C31  1  0.50796000  0.87089000  0.71259000  1.0
  C  C32  1  0.74121000  0.57430000  0.89877000  1.0
  C  C33  1  0.25879000  0.42570000  0.10123000  1.0
  C  C34  1  0.53484000  0.58449000  0.97011000  1.0
  C  C35  1  0.46517000  0.41552000  0.02989000  1.0
  C  C36  1  0.39156000  0.90722000  0.42646000  1.0
  C  C37  1  0.60844000  0.09278000  0.57354000  1.0
  N  N38  1  0.84724000  0.73933000  0.39576000  1.0
  N  N39  1  0.15276000  0.26067000  0.60424000  1.0
  O  O40  1  0.38338000  0.57807000  0.63357000  1.0
  O  O41  1  0.61662000  0.42193000  0.36643000  1.0
  O  O42  1  0.10287000  0.78120000  0.58786000  1.0
  O  O43  1  0.89713000  0.21881000  0.41214000  1.0
  O  O44  1  0.67573000  0.21067000  0.24299000  1.0
  O  O45  1  0.32426000  0.78932000  0.75702000  1.0
  O  O46  1  0.26099000  0.17574000  0.28334000  1.0
  O  O47  1  0.73900000  0.82425000  0.71666000  1.0
  O  O48  1  0.71634000  0.48105000  0.84650000  1.0
  O  O49  1  0.28367000  0.51895000  0.15350000  1.0
  O  O50  1  0.93541000  0.65980000  0.88628000  1.0
  O  O51  1  0.06460000  0.34021000  0.11372000  1.0
  O  O52  1  0.27281000  0.40163000  0.81621000  1.0
  O  O53  1  0.72719000  0.59836000  0.18379000  1.0
  O  O54  1  0.85010000  0.46312000  0.67246000  1.0
  O  O55  1  0.14990000  0.53688000  0.32754000  1.0
