# generated using pymatgen
data_CoH6(C4N5)2
_symmetry_space_group_name_H-M   'P 1'
_cell_length_a   6.34991000
_cell_length_b   8.32006000
_cell_length_c   10.35690000
_cell_angle_alpha   92.45350000
_cell_angle_beta   90.00000000
_cell_angle_gamma   112.41500000
_symmetry_Int_Tables_number   1
_chemical_formula_structural   CoH6(C4N5)2
_chemical_formula_sum   'Co2 H12 C16 N20'
_cell_volume   505.28840012
_cell_formula_units_Z   2
loop_
 _symmetry_equiv_pos_site_id
 _symmetry_equiv_pos_as_xyz
  1  'x, y, z'
loop_
 _atom_site_type_symbol
 _atom_site_label
 _atom_site_symmetry_multiplicity
 _atom_site_fract_x
 _atom_site_fract_y
 _atom_site_fract_z
 _atom_site_occupancy
  Co  Co0  1  0.50000000  0.50000000  0.00000000  1.0
  Co  Co1  1  0.00000000  0.50000000  0.50000000  1.0
  H  H2  1  0.82042000  0.12055000  0.57014000  1.0
  H  H3  1  0.69951000  0.87923000  0.92979000  1.0
  H  H4  1  0.17960000  0.87945000  0.42986000  1.0
  H  H5  1  0.30049000  0.12077000  0.07022000  1.0
  H  H6  1  0.47624000  0.12344000  0.92527000  1.0
  H  H7  1  0.35280000  0.87638000  0.57453000  1.0
  H  H8  1  0.52376000  0.87655000  0.07473000  1.0
  H  H9  1  0.64721000  0.12362000  0.42546000  1.0
  H  H10  1  0.84414000  0.58509000  0.74874000  1.0
  H  H11  1  0.25902000  0.41472000  0.75122000  1.0
  H  H12  1  0.15584000  0.41490000  0.25126000  1.0
  H  H13  1  0.74099000  0.58528000  0.24879000  1.0
  C  C14  1  0.77317000  0.18841000  0.65010000  1.0
  C  C15  1  0.58451000  0.81139000  0.84983000  1.0
  C  C16  1  0.22683000  0.81159000  0.34990000  1.0
  C  C17  1  0.41549000  0.18861000  0.15017000  1.0
  C  C18  1  0.64590000  0.09556000  0.75097000  1.0
  C  C19  1  0.55024000  0.90426000  0.74892000  1.0
  C  C20  1  0.35410000  0.90444000  0.24903000  1.0
  C  C21  1  0.44976000  0.09574000  0.25108000  1.0
  C  C22  1  0.58930000  0.19042000  0.84948000  1.0
  C  C23  1  0.39880000  0.80940000  0.65040000  1.0
  C  C24  1  0.41070000  0.80957000  0.15052000  1.0
  C  C25  1  0.60121000  0.19060000  0.34960000  1.0
  C  C26  1  0.78552000  0.44420000  0.75058000  1.0
  C  C27  1  0.34119000  0.55562000  0.74939000  1.0
  C  C28  1  0.21447000  0.55579000  0.24943000  1.0
  C  C29  1  0.65881000  0.44437000  0.25061000  1.0
  N  N30  1  0.83953000  0.36310000  0.64705000  1.0
  N  N31  1  0.47627000  0.63674000  0.85290000  1.0
  N  N32  1  0.16046000  0.63690000  0.35296000  1.0
  N  N33  1  0.52374000  0.36326000  0.14710000  1.0
  N  N34  1  0.66230000  0.36425000  0.85027000  1.0
  N  N35  1  0.29791000  0.63554000  0.64963000  1.0
  N  N36  1  0.33769000  0.63574000  0.14973000  1.0
  N  N37  1  0.70209000  0.36446000  0.35037000  1.0
  N  N38  1  0.95697000  0.75607000  0.98805000  1.0
  N  N39  1  0.20097000  0.24391000  0.51195000  1.0
  N  N40  1  0.04305000  0.24395000  0.01194000  1.0
  N  N41  1  0.79903000  0.75611000  0.48805000  1.0
  N  N42  1  0.79626000  0.67378000  0.05097000  1.0
  N  N43  1  0.12260000  0.32622000  0.44901000  1.0
  N  N44  1  0.20374000  0.32621000  0.94903000  1.0
  N  N45  1  0.87740000  0.67378000  0.55099000  1.0
  N  N46  1  0.11971000  0.84431000  0.93388000  1.0
  N  N47  1  0.27546000  0.15563000  0.56617000  1.0
  N  N48  1  0.88028000  0.15570000  0.06612000  1.0
  N  N49  1  0.72455000  0.84438000  0.43384000  1.0
