# generated using pymatgen
data_AlH24C45(ClO2)3
_symmetry_space_group_name_H-M   'P 1'
_cell_length_a   3.96842000
_cell_length_b   23.54880000
_cell_length_c   23.57840000
_cell_angle_alpha   60.07770000
_cell_angle_beta   87.51790000
_cell_angle_gamma   87.72290000
_symmetry_Int_Tables_number   1
_chemical_formula_structural   AlH24C45(ClO2)3
_chemical_formula_sum   'Al1 H24 C45 Cl3 O6'
_cell_volume   1907.51523031
_cell_formula_units_Z   1
loop_
 _symmetry_equiv_pos_site_id
 _symmetry_equiv_pos_as_xyz
  1  'x, y, z'
loop_
 _atom_site_type_symbol
 _atom_site_label
 _atom_site_symmetry_multiplicity
 _atom_site_fract_x
 _atom_site_fract_y
 _atom_site_fract_z
 _atom_site_occupancy
  Al  Al0  1  0.00002000  0.50019000  0.50007000  1.0
  H  H1  1  0.50799000  0.32235000  0.67872000  1.0
  H  H2  1  0.51161000  0.20184000  0.74288000  1.0
  H  H3  1  0.17367000  0.98345000  0.83666000  1.0
  H  H4  1  0.55484000  0.68476000  0.31443000  1.0
  H  H5  1  0.49852000  0.74157000  0.19463000  1.0
  H  H6  1  0.75291000  0.76882000  0.10642000  1.0
  H  H7  1  0.75656000  0.83314000  0.98726000  1.0
  H  H8  1  0.48898000  0.89505000  0.89366000  1.0
  H  H9  1  0.48130000  0.49903000  0.32285000  1.0
  H  H10  1  0.49084000  0.55459000  0.20269000  1.0
  H  H11  1  0.19263000  0.68240000  0.98375000  1.0
  H  H12  1  0.47700000  0.50100000  0.68444000  1.0
  H  H13  1  0.41961000  0.56483000  0.74164000  1.0
  H  H14  1  0.71551000  0.62237000  0.76660000  1.0
  H  H15  1  0.73654000  0.67754000  0.83091000  1.0
  H  H16  1  0.46465000  0.71207000  0.89475000  1.0
  H  H17  1  0.44575000  0.67985000  0.49904000  1.0
  H  H18  1  0.44907000  0.74395000  0.55556000  1.0
  H  H19  1  0.14340000  0.83762000  0.68608000  1.0
  H  H20  1  0.52120000  0.31439000  0.50025000  1.0
  H  H21  1  0.47133000  0.19398000  0.56458000  1.0
  H  H22  1  0.77344000  0.10636000  0.62341000  1.0
  H  H23  1  0.77773000  0.98635000  0.67903000  1.0
  H  H24  1  0.46174000  0.89389000  0.71224000  1.0
  C  C25  1  0.51151000  0.39926000  0.54848000  1.0
  C  C26  1  0.47598000  0.54912000  0.55214000  1.0
  C  C27  1  0.51375000  0.55232000  0.39936000  1.0
  C  C28  1  0.50472000  0.29384000  0.65384000  1.0
  C  C29  1  0.50045000  0.22587000  0.68997000  1.0
  C  C30  1  0.31223000  0.07780000  0.75848000  1.0
  C  C31  1  0.31301000  0.00965000  0.79024000  1.0
  C  C32  1  0.53312000  0.65648000  0.28964000  1.0
  C  C33  1  0.50671000  0.68815000  0.22190000  1.0
  C  C34  1  0.62027000  0.75026000  0.07969000  1.0
  C  C35  1  0.62314000  0.78699000  0.01184000  1.0
  C  C36  1  0.51304000  0.32626000  0.58540000  1.0
  C  C37  1  0.48405000  0.18808000  0.65914000  1.0
  C  C38  1  0.47224000  0.11563000  0.69650000  1.0
  C  C39  1  0.47604000  0.97492000  0.76276000  1.0
  C  C40  1  0.47664000  0.90259000  0.79884000  1.0
  C  C41  1  0.48168000  0.86792000  0.86744000  1.0
  C  C42  1  0.49181000  0.55233000  0.29423000  1.0
  C  C43  1  0.48962000  0.58398000  0.22637000  1.0
  C  C44  1  0.32360000  0.66518000  0.07780000  1.0
  C  C45  1  0.32379000  0.70188000  0.00976000  1.0
  C  C46  1  0.46303000  0.55441000  0.65637000  1.0
  C  C47  1  0.43569000  0.59072000  0.68829000  1.0
  C  C48  1  0.58040000  0.66903000  0.74960000  1.0
  C  C49  1  0.59232000  0.70017000  0.78625000  1.0
  C  C50  1  0.51619000  0.58812000  0.32658000  1.0
  C  C51  1  0.48616000  0.65283000  0.18836000  1.0
  C  C52  1  0.47157000  0.68807000  0.11601000  1.0
  C  C53  1  0.47491000  0.76308000  0.97508000  1.0
  C  C54  1  0.47654000  0.79932000  0.90280000  1.0
  C  C55  1  0.46760000  0.76545000  0.86799000  1.0
  C  C56  1  0.44536000  0.65487000  0.55237000  1.0
  C  C57  1  0.44016000  0.69091000  0.58446000  1.0
  C  C58  1  0.26634000  0.75914000  0.66757000  1.0
  C  C59  1  0.27584000  0.79062000  0.70415000  1.0
  C  C60  1  0.51334000  0.28950000  0.55362000  1.0
  C  C61  1  0.48978000  0.22156000  0.59017000  1.0
  C  C62  1  0.63369000  0.07936000  0.66977000  1.0
  C  C63  1  0.63655000  0.01137000  0.70118000  1.0
  C  C64  1  0.46112000  0.58636000  0.58795000  1.0
  C  C65  1  0.42697000  0.65981000  0.65323000  1.0
  C  C66  1  0.41894000  0.69672000  0.68894000  1.0
  C  C67  1  0.44149000  0.76246000  0.76365000  1.0
  C  C68  1  0.45961000  0.79866000  0.79956000  1.0
  C  C69  1  0.46637000  0.86734000  0.76557000  1.0
  Cl  Cl70  1  0.04887000  0.80197000  0.59496000  1.0
  Cl  Cl71  1  0.09201000  0.11192000  0.80010000  1.0
  Cl  Cl72  1  0.12076000  0.59064000  0.11065000  1.0
  O  O73  1  0.73932000  0.56493000  0.42824000  1.0
  O  O74  1  0.75130000  0.42816000  0.50719000  1.0
  O  O75  1  0.71640000  0.50725000  0.56455000  1.0
  O  O76  1  0.28300000  0.51016000  0.42818000  1.0
  O  O77  1  0.24776000  0.56247000  0.51053000  1.0
  O  O78  1  0.26747000  0.42795000  0.56192000  1.0
