# generated using pymatgen
data_H22PbC27(NO)4
_symmetry_space_group_name_H-M   'P 1'
_cell_length_a   9.21639000
_cell_length_b   10.26600000
_cell_length_c   12.93440000
_cell_angle_alpha   100.09800000
_cell_angle_beta   90.64430000
_cell_angle_gamma   98.88320000
_symmetry_Int_Tables_number   1
_chemical_formula_structural   H22PbC27(NO)4
_chemical_formula_sum   'H44 Pb2 C54 N8 O8'
_cell_volume   1189.46088910
_cell_formula_units_Z   2
loop_
 _symmetry_equiv_pos_site_id
 _symmetry_equiv_pos_as_xyz
  1  'x, y, z'
loop_
 _atom_site_type_symbol
 _atom_site_label
 _atom_site_symmetry_multiplicity
 _atom_site_fract_x
 _atom_site_fract_y
 _atom_site_fract_z
 _atom_site_occupancy
  H  H0  1  0.05925000  0.86638000  0.17818000  1.0
  H  H1  1  0.94075000  0.13362000  0.82182000  1.0
  H  H2  1  0.96786000  0.76921000  0.33399000  1.0
  H  H3  1  0.03213000  0.23079000  0.66601000  1.0
  H  H4  1  0.84206000  0.64713000  0.25091000  1.0
  H  H5  1  0.15794000  0.35288000  0.74909000  1.0
  H  H6  1  0.72366000  0.84891000  0.33249000  1.0
  H  H7  1  0.27634000  0.15109000  0.66751000  1.0
  H  H8  1  0.85873000  0.95253000  0.27852000  1.0
  H  H9  1  0.14127000  0.04747000  0.72148000  1.0
  H  H10  1  0.63748000  0.91467000  0.16773000  1.0
  H  H11  1  0.36252000  0.08533000  0.83227000  1.0
  H  H12  1  0.72778000  0.80602000  0.99454000  1.0
  H  H13  1  0.27221000  0.19398000  0.00546000  1.0
  H  H14  1  0.85715000  0.93365000  0.07002000  1.0
  H  H15  1  0.14285000  0.06635000  0.92998000  1.0
  H  H16  1  0.98239000  0.74283000  0.99829000  1.0
  H  H17  1  0.01761000  0.25717000  0.00171000  1.0
  H  H18  1  0.85205000  0.63026000  0.05159000  1.0
  H  H19  1  0.14795000  0.36974000  0.94841000  1.0
  H  H20  1  0.16926000  0.53992000  0.38214000  1.0
  H  H21  1  0.83075000  0.46008000  0.61786000  1.0
  H  H22  1  0.15093000  0.47937000  0.56321000  1.0
  H  H23  1  0.84907000  0.52063000  0.43679000  1.0
  H  H24  1  0.33041000  0.34342000  0.61951000  1.0
  H  H25  1  0.66959000  0.65658000  0.38049000  1.0
  H  H26  1  0.64676000  0.37381000  0.05872000  1.0
  H  H27  1  0.35325000  0.62619000  0.94128000  1.0
  H  H28  1  0.82346000  0.22322000  0.08474000  1.0
  H  H29  1  0.17655000  0.77678000  0.91526000  1.0
  H  H30  1  0.82560000  0.13621000  0.25716000  1.0
  H  H31  1  0.17440000  0.86379000  0.74284000  1.0
  H  H32  1  0.88320000  0.95819000  0.51368000  1.0
  H  H33  1  0.11680000  0.04181000  0.48632000  1.0
  H  H34  1  0.97587000  0.81573000  0.62737000  1.0
  H  H35  1  0.02413000  0.18427000  0.37263000  1.0
  H  H36  1  0.87034000  0.80485000  0.80393000  1.0
  H  H37  1  0.12966000  0.19516000  0.19607000  1.0
  H  H38  1  0.67148000  0.93729000  0.86322000  1.0
  H  H39  1  0.32852000  0.06271000  0.13678000  1.0
  H  H40  1  0.58232000  0.08065000  0.75032000  1.0
  H  H41  1  0.41768000  0.91935000  0.24968000  1.0
  H  H42  1  0.52505000  0.21506000  0.65115000  1.0
  H  H43  1  0.47495000  0.78493000  0.34885000  1.0
  Pb  Pb44  1  0.33549000  0.48835000  0.14838000  1.0
  Pb  Pb45  1  0.66451000  0.51165000  0.85162000  1.0
  C  C46  1  0.12374000  0.67682000  0.16228000  1.0
  C  C47  1  0.87626000  0.32318000  0.83772000  1.0
  C  C48  1  0.00148000  0.76210000  0.16772000  1.0
  C  C49  1  0.99852000  0.23790000  0.83228000  1.0
  C  C50  1  0.90150000  0.75070000  0.26029000  1.0
  C  C51  1  0.09849000  0.24931000  0.73971000  1.0
  C  C52  1  0.79444000  0.85116000  0.26503000  1.0
  C  C53  1  0.20556000  0.14884000  0.73498000  1.0
  C  C54  1  0.70081000  0.83079000  0.16257000  1.0
  C  C55  1  0.29918000  0.16921000  0.83743000  1.0
  C  C56  1  0.58383000  0.70594000  0.15093000  1.0
  C  C57  1  0.41616000  0.29406000  0.84908000  1.0
  C  C58  1  0.79782000  0.83110000  0.06694000  1.0
  C  C59  1  0.20217000  0.16890000  0.93306000  1.0
  C  C60  1  0.90949000  0.73461000  0.06423000  1.0
  C  C61  1  0.09051000  0.26539000  0.93577000  1.0
  C  C62  1  0.24359000  0.47930000  0.41005000  1.0
  C  C63  1  0.75641000  0.52069000  0.58995000  1.0
  C  C64  1  0.23400000  0.44492000  0.51041000  1.0
  C  C65  1  0.76601000  0.55507000  0.48959000  1.0
  C  C66  1  0.33243000  0.36896000  0.54126000  1.0
  C  C67  1  0.66756000  0.63105000  0.45874000  1.0
  C  C68  1  0.43813000  0.32563000  0.47084000  1.0
  C  C69  1  0.56187000  0.67437000  0.52916000  1.0
  C  C70  1  0.44182000  0.36605000  0.37057000  1.0
  C  C71  1  0.55818000  0.63395000  0.62943000  1.0
  C  C72  1  0.55070000  0.32624000  0.29538000  1.0
  C  C73  1  0.44930000  0.67377000  0.70462000  1.0
  C  C74  1  0.64962000  0.33540000  0.13181000  1.0
  C  C75  1  0.35039000  0.66460000  0.86819000  1.0
  C  C76  1  0.74972000  0.24977000  0.14739000  1.0
  C  C77  1  0.25028000  0.75023000  0.85262000  1.0
  C  C78  1  0.75012000  0.20267000  0.24111000  1.0
  C  C79  1  0.24988000  0.79733000  0.75889000  1.0
  C  C80  1  0.65022000  0.24073000  0.31813000  1.0
  C  C81  1  0.34978000  0.75927000  0.68187000  1.0
  C  C82  1  0.64258000  0.19883000  0.41781000  1.0
  C  C83  1  0.35742000  0.80117000  0.58219000  1.0
  C  C84  1  0.54199000  0.24307000  0.49130000  1.0
  C  C85  1  0.45801000  0.75692000  0.50870000  1.0
  C  C86  1  0.67587000  0.11075000  0.55377000  1.0
  C  C87  1  0.32412000  0.88925000  0.44624000  1.0
  C  C88  1  0.72768000  0.02948000  0.62398000  1.0
  C  C89  1  0.27231000  0.97052000  0.37602000  1.0
  C  C90  1  0.83885000  0.95366000  0.59091000  1.0
  C  C91  1  0.16114000  0.04634000  0.40910000  1.0
  C  C92  1  0.88984000  0.87366000  0.65516000  1.0
  C  C93  1  0.11016000  0.12634000  0.34484000  1.0
  C  C94  1  0.83023000  0.86745000  0.75350000  1.0
  C  C95  1  0.16977000  0.13255000  0.24650000  1.0
  C  C96  1  0.71860000  0.94144000  0.78666000  1.0
  C  C97  1  0.28139000  0.05856000  0.21334000  1.0
  C  C98  1  0.66770000  0.02205000  0.72264000  1.0
  C  C99  1  0.33230000  0.97795000  0.27736000  1.0
  N  N100  1  0.55384000  0.37202000  0.20328000  1.0
  N  N101  1  0.44617000  0.62798000  0.79672000  1.0
  N  N102  1  0.34475000  0.44185000  0.34291000  1.0
  N  N103  1  0.65525000  0.55815000  0.65709000  1.0
  N  N104  1  0.72473000  0.11686000  0.45733000  1.0
  N  N105  1  0.27527000  0.88314000  0.54267000  1.0
  N  N106  1  0.56515000  0.18612000  0.57718000  1.0
  N  N107  1  0.43484000  0.81388000  0.42282000  1.0
  O  O108  1  0.14040000  0.61247000  0.23683000  1.0
  O  O109  1  0.85960000  0.38753000  0.76317000  1.0
  O  O110  1  0.20636000  0.67447000  0.08396000  1.0
  O  O111  1  0.79364000  0.32553000  0.91604000  1.0
  O  O112  1  0.56098000  0.62399000  0.06547000  1.0
  O  O113  1  0.43902000  0.37601000  0.93453000  1.0
  O  O114  1  0.50542000  0.68836000  0.23121000  1.0
  O  O115  1  0.49458000  0.31164000  0.76879000  1.0
