# generated using pymatgen
data_CdH12C13(NCl)2
_symmetry_space_group_name_H-M   'P 1'
_cell_length_a   6.99148000
_cell_length_b   9.65654000
_cell_length_c   10.53150000
_cell_angle_alpha   98.29650000
_cell_angle_beta   105.75500000
_cell_angle_gamma   94.47440000
_symmetry_Int_Tables_number   1
_chemical_formula_structural   CdH12C13(NCl)2
_chemical_formula_sum   'Cd2 H24 C26 N4 Cl4'
_cell_volume   671.99860372
_cell_formula_units_Z   2
loop_
 _symmetry_equiv_pos_site_id
 _symmetry_equiv_pos_as_xyz
  1  'x, y, z'
loop_
 _atom_site_type_symbol
 _atom_site_label
 _atom_site_symmetry_multiplicity
 _atom_site_fract_x
 _atom_site_fract_y
 _atom_site_fract_z
 _atom_site_occupancy
  Cd  Cd0  1  0.76917000  0.58390000  0.53249000  1.0
  Cd  Cd1  1  0.23082000  0.41611000  0.46750000  1.0
  H  H2  1  0.56895000  0.72135000  0.26706000  1.0
  H  H3  1  0.43105000  0.27866000  0.73294000  1.0
  H  H4  1  0.54344000  0.95843000  0.19661000  1.0
  H  H5  1  0.45655000  0.04158000  0.80340000  1.0
  H  H6  1  0.67396000  0.17755000  0.37440000  1.0
  H  H7  1  0.32603000  0.82246000  0.62561000  1.0
  H  H8  1  0.82528000  0.14725000  0.60942000  1.0
  H  H9  1  0.17472000  0.85275000  0.39059000  1.0
  H  H10  1  0.90925000  0.99252000  0.77666000  1.0
  H  H11  1  0.09075000  0.00748000  0.22335000  1.0
  H  H12  1  0.23138000  0.64661000  0.79026000  1.0
  H  H13  1  0.76862000  0.35339000  0.20974000  1.0
  H  H14  1  0.38117000  0.57782000  0.01111000  1.0
  H  H15  1  0.61883000  0.42218000  0.98889000  1.0
  H  H16  1  0.21690000  0.62748000  0.19369000  1.0
  H  H17  1  0.78310000  0.37252000  0.80631000  1.0
  H  H18  1  0.92086000  0.75485000  0.15778000  1.0
  H  H19  1  0.07914000  0.24515000  0.84221000  1.0
  H  H20  1  0.65122000  0.83710000  0.01439000  1.0
  H  H21  1  0.34877000  0.16289000  0.98560000  1.0
  H  H22  1  0.62244000  0.82367000  0.84067000  1.0
  H  H23  1  0.37756000  0.17633000  0.15932000  1.0
  H  H24  1  0.76493000  0.97490000  0.95454000  1.0
  H  H25  1  0.23506000  0.02510000  0.04545000  1.0
  C  C26  1  0.62469000  0.81882000  0.33922000  1.0
  C  C27  1  0.37531000  0.18119000  0.66079000  1.0
  C  C28  1  0.61118000  0.95135000  0.30118000  1.0
  C  C29  1  0.38882000  0.04867000  0.69882000  1.0
  C  C30  1  0.68262000  0.07177000  0.39900000  1.0
  C  C31  1  0.31737000  0.92823000  0.60101000  1.0
  C  C32  1  0.76603000  0.05517000  0.53122000  1.0
  C  C33  1  0.23398000  0.94483000  0.46879000  1.0
  C  C34  1  0.77735000  0.91917000  0.56104000  1.0
  C  C35  1  0.22266000  0.08083000  0.43896000  1.0
  C  C36  1  0.87368000  0.89849000  0.69815000  1.0
  C  C37  1  0.12632000  0.10152000  0.30185000  1.0
  C  C38  1  0.00244000  0.75055000  0.85349000  1.0
  C  C39  1  0.99756000  0.24944000  0.14650000  1.0
  C  C40  1  0.16936000  0.67555000  0.87340000  1.0
  C  C41  1  0.83064000  0.32445000  0.12660000  1.0
  C  C42  1  0.25191000  0.63638000  0.99687000  1.0
  C  C43  1  0.74809000  0.36361000  0.00313000  1.0
  C  C44  1  0.16242000  0.66570000  0.09954000  1.0
  C  C45  1  0.83758000  0.33429000  0.90046000  1.0
  C  C46  1  0.99487000  0.73838000  0.07882000  1.0
  C  C47  1  0.00513000  0.26162000  0.92118000  1.0
  C  C48  1  0.91266000  0.78486000  0.95775000  1.0
  C  C49  1  0.08733000  0.21513000  0.04225000  1.0
  C  C50  1  0.72852000  0.85958000  0.94048000  1.0
  C  C51  1  0.27147000  0.14041000  0.05952000  1.0
  N  N52  1  0.70507000  0.80344000  0.46606000  1.0
  N  N53  1  0.29492000  0.19657000  0.53394000  1.0
  N  N54  1  0.91945000  0.77689000  0.72278000  1.0
  N  N55  1  0.08055000  0.22310000  0.27722000  1.0
  Cl  Cl56  1  0.49211000  0.44249000  0.32571000  1.0
  Cl  Cl57  1  0.50789000  0.55751000  0.67428000  1.0
  Cl  Cl58  1  0.97364000  0.39280000  0.61700000  1.0
  Cl  Cl59  1  0.02636000  0.60720000  0.38300000  1.0
