# generated using pymatgen
data_AgH14C16S(NO)2
_symmetry_space_group_name_H-M   'P 1'
_cell_length_a   7.52431000
_cell_length_b   11.97730000
_cell_length_c   13.02310000
_cell_angle_alpha   73.02390000
_cell_angle_beta   84.90490000
_cell_angle_gamma   72.90890000
_symmetry_Int_Tables_number   1
_chemical_formula_structural   AgH14C16S(NO)2
_chemical_formula_sum   'Ag2 H28 C32 S2 N4 O4'
_cell_volume   1072.93621388
_cell_formula_units_Z   2
loop_
 _symmetry_equiv_pos_site_id
 _symmetry_equiv_pos_as_xyz
  1  'x, y, z'
loop_
 _atom_site_type_symbol
 _atom_site_label
 _atom_site_symmetry_multiplicity
 _atom_site_fract_x
 _atom_site_fract_y
 _atom_site_fract_z
 _atom_site_occupancy
  Ag  Ag0  1  0.30259000  0.25865000  0.10160000  1.0
  Ag  Ag1  1  0.69741000  0.74134000  0.89840000  1.0
  H  H2  1  0.27778000  0.77227000  0.82460000  1.0
  H  H3  1  0.72222000  0.22773000  0.17539000  1.0
  H  H4  1  0.08020000  0.64908000  0.80160000  1.0
  H  H5  1  0.91980000  0.35092000  0.19839000  1.0
  H  H6  1  0.56275000  0.33558000  0.87275000  1.0
  H  H7  1  0.43726000  0.66441000  0.12725000  1.0
  H  H8  1  0.74134000  0.47159000  0.89724000  1.0
  H  H9  1  0.25866000  0.52841000  0.10276000  1.0
  H  H10  1  0.08123000  0.44926000  0.76566000  1.0
  H  H11  1  0.91877000  0.55074000  0.23434000  1.0
  H  H12  1  0.28181000  0.31994000  0.80224000  1.0
  H  H13  1  0.71818000  0.68005000  0.19776000  1.0
  H  H14  1  0.91259000  0.27195000  0.85544000  1.0
  H  H15  1  0.08742000  0.72805000  0.14457000  1.0
  H  H16  1  0.91151000  0.20554000  0.99813000  1.0
  H  H17  1  0.08849000  0.79446000  0.00187000  1.0
  H  H18  1  0.17717000  0.17510000  0.74432000  1.0
  H  H19  1  0.82283000  0.82491000  0.25568000  1.0
  H  H20  1  0.43284000  0.98764000  0.73985000  1.0
  H  H21  1  0.56717000  0.01236000  0.26015000  1.0
  H  H22  1  0.41713000  0.84984000  0.06997000  1.0
  H  H23  1  0.58287000  0.15015000  0.93003000  1.0
  H  H24  1  0.16159000  0.03222000  0.08923000  1.0
  H  H25  1  0.83842000  0.96778000  0.91077000  1.0
  H  H26  1  0.14591000  0.16890000  0.46570000  1.0
  H  H27  1  0.85407000  0.83112000  0.53430000  1.0
  H  H28  1  0.93723000  0.93561000  0.34535000  1.0
  H  H29  1  0.06275000  0.06440000  0.65465000  1.0
  C  C30  1  0.33789000  0.67488000  0.83560000  1.0
  C  C31  1  0.66211000  0.32512000  0.16439000  1.0
  C  C32  1  0.22664000  0.60521000  0.82226000  1.0
  C  C33  1  0.77337000  0.39479000  0.17773000  1.0
  C  C34  1  0.30561000  0.48067000  0.83529000  1.0
  C  C35  1  0.69439000  0.51933000  0.16471000  1.0
  C  C36  1  0.49445000  0.43208000  0.86151000  1.0
  C  C37  1  0.50556000  0.56792000  0.13849000  1.0
  C  C38  1  0.59489000  0.50755000  0.87451000  1.0
  C  C39  1  0.40512000  0.49244000  0.12549000  1.0
  C  C40  1  0.19315000  0.40007000  0.82481000  1.0
  C  C41  1  0.80685000  0.59993000  0.17519000  1.0
  C  C42  1  0.99930000  0.22911000  0.92787000  1.0
  C  C43  1  0.00070000  0.77089000  0.07213000  1.0
  C  C44  1  0.15001000  0.11882000  0.91799000  1.0
  C  C45  1  0.84999000  0.88118000  0.08201000  1.0
  C  C46  1  0.22804000  0.10582000  0.81907000  1.0
  C  C47  1  0.77197000  0.89418000  0.18093000  1.0
  C  C48  1  0.36927000  0.00090000  0.81571000  1.0
  C  C49  1  0.63072000  0.99910000  0.18429000  1.0
  C  C50  1  0.35881000  0.92364000  0.99919000  1.0
  C  C51  1  0.64119000  0.07636000  0.00081000  1.0
  C  C52  1  0.21798000  0.02435000  0.01038000  1.0
  C  C53  1  0.78202000  0.97564000  0.98962000  1.0
  C  C54  1  0.09457000  0.11983000  0.28177000  1.0
  C  C55  1  0.90544000  0.88017000  0.71823000  1.0
  C  C56  1  0.04601000  0.05804000  0.39483000  1.0
  C  C57  1  0.95399000  0.94197000  0.60516000  1.0
  C  C58  1  0.08176000  0.09480000  0.48192000  1.0
  C  C59  1  0.91823000  0.90520000  0.51808000  1.0
  C  C60  1  0.96399000  0.96274000  0.41411000  1.0
  C  C61  1  0.03600000  0.03728000  0.58589000  1.0
  S  S62  1  0.08369000  0.34692000  0.95454000  1.0
  S  S63  1  0.91631000  0.65307000  0.04547000  1.0
  N  N64  1  0.51883000  0.62728000  0.86215000  1.0
  N  N65  1  0.48117000  0.37272000  0.13785000  1.0
  N  N66  1  0.43479000  0.91067000  0.90434000  1.0
  N  N67  1  0.56521000  0.08933000  0.09566000  1.0
  O  O68  1  0.20401000  0.18674000  0.27282000  1.0
  O  O69  1  0.79599000  0.81326000  0.72719000  1.0
  O  O70  1  0.02434000  0.10318000  0.20460000  1.0
  O  O71  1  0.97567000  0.89681000  0.79540000  1.0
