# generated using pymatgen
data_Li2H27C15SN9
_symmetry_space_group_name_H-M   'P 1'
_cell_length_a   10.06740000
_cell_length_b   10.29970000
_cell_length_c   12.41080000
_cell_angle_alpha   78.43260000
_cell_angle_beta   67.33270000
_cell_angle_gamma   83.01570000
_symmetry_Int_Tables_number   1
_chemical_formula_structural   Li2H27C15SN9
_chemical_formula_sum   'Li4 H54 C30 S2 N18'
_cell_volume   1161.97148514
_cell_formula_units_Z   2
loop_
 _symmetry_equiv_pos_site_id
 _symmetry_equiv_pos_as_xyz
  1  'x, y, z'
loop_
 _atom_site_type_symbol
 _atom_site_label
 _atom_site_symmetry_multiplicity
 _atom_site_fract_x
 _atom_site_fract_y
 _atom_site_fract_z
 _atom_site_occupancy
  Li  Li0  1  0.30214000  0.48069000  0.61727000  1.0
  Li  Li1  1  0.69786000  0.51931000  0.38273000  1.0
  Li  Li2  1  0.46400000  0.67556000  0.51654000  1.0
  Li  Li3  1  0.53600000  0.32444000  0.48346000  1.0
  H  H4  1  0.24654000  0.25974000  0.83457000  1.0
  H  H5  1  0.75346000  0.74027000  0.16542000  1.0
  H  H6  1  0.43261000  0.87391000  0.62830000  1.0
  H  H7  1  0.56739000  0.12608000  0.37170000  1.0
  H  H8  1  0.39808000  0.91479000  0.50738000  1.0
  H  H9  1  0.60192000  0.08521000  0.49261000  1.0
  H  H10  1  0.30479000  0.54876000  0.82805000  1.0
  H  H11  1  0.69520000  0.45124000  0.17195000  1.0
  H  H12  1  0.45078000  0.65491000  0.78216000  1.0
  H  H13  1  0.54921000  0.34509000  0.21784000  1.0
  H  H14  1  0.53049000  0.47789000  0.90767000  1.0
  H  H15  1  0.46951000  0.52211000  0.09233000  1.0
  H  H16  1  0.44878000  0.35371000  0.87377000  1.0
  H  H17  1  0.55122000  0.64629000  0.12623000  1.0
  H  H18  1  0.66695000  0.22192000  0.75707000  1.0
  H  H19  1  0.33305000  0.77809000  0.24293000  1.0
  H  H20  1  0.81542000  0.30892000  0.75042000  1.0
  H  H21  1  0.18458000  0.69109000  0.24958000  1.0
  H  H22  1  0.88671000  0.38279000  0.53848000  1.0
  H  H23  1  0.11329000  0.61722000  0.46152000  1.0
  H  H24  1  0.81217000  0.23085000  0.54908000  1.0
  H  H25  1  0.18783000  0.76916000  0.45092000  1.0
  H  H26  1  0.94270000  0.54225000  0.68076000  1.0
  H  H27  1  0.05730000  0.45775000  0.31924000  1.0
  H  H28  1  0.97775000  0.67201000  0.73958000  1.0
  H  H29  1  0.02225000  0.32799000  0.26042000  1.0
  H  H30  1  0.84553000  0.56823000  0.94372000  1.0
  H  H31  1  0.15447000  0.43177000  0.05629000  1.0
  H  H32  1  0.75057000  0.50418000  0.87060000  1.0
  H  H33  1  0.24943000  0.49582000  0.12940000  1.0
  H  H34  1  0.80643000  0.23358000  0.04099000  1.0
  H  H35  1  0.19358000  0.76642000  0.95900000  1.0
  H  H36  1  0.89570000  0.34745000  0.07915000  1.0
  H  H37  1  0.10431000  0.65255000  0.92084000  1.0
  H  H38  1  0.07825000  0.16552000  0.04988000  1.0
  H  H39  1  0.92176000  0.83448000  0.95011000  1.0
  H  H40  1  0.03246000  0.11882000  0.93791000  1.0
  H  H41  1  0.96754000  0.88118000  0.06208000  1.0
  H  H42  1  0.26867000  0.29554000  0.43028000  1.0
  H  H43  1  0.73132000  0.70446000  0.56973000  1.0
  H  H44  1  0.14130000  0.38313000  0.53765000  1.0
  H  H45  1  0.85870000  0.61687000  0.46236000  1.0
  H  H46  1  0.01662000  0.18724000  0.64950000  1.0
  H  H47  1  0.98338000  0.81275000  0.35051000  1.0
  H  H48  1  0.11599000  0.11209000  0.52212000  1.0
  H  H49  1  0.88400000  0.88792000  0.47789000  1.0
  H  H50  1  0.05496000  0.96604000  0.77240000  1.0
  H  H51  1  0.94504000  0.03396000  0.22760000  1.0
  H  H52  1  0.22522000  0.95267000  0.78955000  1.0
  H  H53  1  0.77478000  0.04732000  0.21045000  1.0
  H  H54  1  0.19718000  0.75460000  0.71794000  1.0
  H  H55  1  0.80282000  0.24540000  0.28205000  1.0
  H  H56  1  0.16367000  0.85267000  0.59643000  1.0
  H  H57  1  0.83632000  0.14733000  0.40357000  1.0
  C  C58  1  0.58780000  0.45820000  0.63764000  1.0
  C  C59  1  0.41220000  0.54181000  0.36236000  1.0
  C  C60  1  0.42167000  0.55495000  0.78089000  1.0
  C  C61  1  0.57832000  0.44505000  0.21910000  1.0
  C  C62  1  0.50684000  0.44700000  0.83736000  1.0
  C  C63  1  0.49316000  0.55301000  0.16264000  1.0
  C  C64  1  0.72990000  0.31174000  0.71541000  1.0
  C  C65  1  0.27010000  0.68826000  0.28459000  1.0
  C  C66  1  0.78639000  0.32765000  0.57882000  1.0
  C  C67  1  0.21361000  0.67236000  0.42118000  1.0
  C  C68  1  0.07074000  0.39220000  0.83581000  1.0
  C  C69  1  0.92926000  0.60780000  0.16418000  1.0
  C  C70  1  0.97056000  0.56400000  0.75292000  1.0
  C  C71  1  0.02944000  0.43600000  0.24708000  1.0
  C  C72  1  0.85640000  0.50951000  0.87491000  1.0
  C  C73  1  0.14360000  0.49049000  0.12509000  1.0
  C  C74  1  0.90312000  0.29093000  0.00984000  1.0
  C  C75  1  0.09689000  0.70907000  0.99016000  1.0
  C  C76  1  0.04398000  0.20374000  0.97510000  1.0
  C  C77  1  0.95603000  0.79626000  0.02490000  1.0
  C  C78  1  0.21202000  0.29254000  0.52650000  1.0
  C  C79  1  0.78798000  0.70746000  0.47351000  1.0
  C  C80  1  0.12626000  0.16631000  0.58636000  1.0
  C  C81  1  0.87374000  0.83369000  0.41365000  1.0
  C  C82  1  0.31512000  0.16981000  0.65008000  1.0
  C  C83  1  0.68489000  0.83018000  0.34992000  1.0
  C  C84  1  0.17318000  0.96468000  0.72437000  1.0
  C  C85  1  0.82682000  0.03532000  0.27563000  1.0
  C  C86  1  0.22300000  0.84863000  0.65530000  1.0
  C  C87  1  0.77700000  0.15137000  0.34470000  1.0
  S  S88  1  0.42471000  0.11496000  0.72888000  1.0
  S  S89  1  0.57529000  0.88503000  0.27112000  1.0
  N  N90  1  0.46458000  0.53110000  0.65824000  1.0
  N  N91  1  0.53541000  0.46890000  0.34176000  1.0
  N  N92  1  0.67061000  0.40272000  0.54411000  1.0
  N  N93  1  0.32939000  0.59728000  0.45589000  1.0
  N  N94  1  0.63558000  0.43126000  0.73290000  1.0
  N  N95  1  0.36442000  0.56875000  0.26710000  1.0
  N  N96  1  0.10909000  0.49433000  0.75126000  1.0
  N  N97  1  0.89091000  0.50568000  0.24874000  1.0
  N  N98  1  0.14657000  0.29667000  0.88484000  1.0
  N  N99  1  0.85343000  0.70334000  0.11515000  1.0
  N  N100  1  0.92384000  0.37804000  0.89701000  1.0
  N  N101  1  0.07616000  0.62197000  0.10299000  1.0
  N  N102  1  0.31801000  0.28865000  0.58328000  1.0
  N  N103  1  0.68199000  0.71134000  0.41673000  1.0
  N  N104  1  0.21380000  0.09070000  0.64957000  1.0
  N  N105  1  0.78620000  0.90929000  0.35043000  1.0
  N  N106  1  0.37772000  0.84552000  0.58296000  1.0
  N  N107  1  0.62228000  0.15448000  0.41704000  1.0
