# generated using pymatgen
data_AgH6C9S(NO)3
_symmetry_space_group_name_H-M   'P 1'
_cell_length_a   6.40175000
_cell_length_b   12.30150000
_cell_length_c   13.38850000
_cell_angle_alpha   90.00030000
_cell_angle_beta   90.00100000
_cell_angle_gamma   95.59830000
_symmetry_Int_Tables_number   1
_chemical_formula_structural   AgH6C9S(NO)3
_chemical_formula_sum   'Ag4 H24 C36 S4 N12 O12'
_cell_volume   1049.33048826
_cell_formula_units_Z   4
loop_
 _symmetry_equiv_pos_site_id
 _symmetry_equiv_pos_as_xyz
  1  'x, y, z'
loop_
 _atom_site_type_symbol
 _atom_site_label
 _atom_site_symmetry_multiplicity
 _atom_site_fract_x
 _atom_site_fract_y
 _atom_site_fract_z
 _atom_site_occupancy
  Ag  Ag0  1  0.20779000  0.94260000  0.83298000  1.0
  Ag  Ag1  1  0.79221000  0.55740000  0.33298000  1.0
  Ag  Ag2  1  0.79220000  0.05740000  0.16702000  1.0
  Ag  Ag3  1  0.20780000  0.44260000  0.66701000  1.0
  H  H4  1  0.33210000  0.32374000  0.03639000  1.0
  H  H5  1  0.66788000  0.17627000  0.53638000  1.0
  H  H6  1  0.66792000  0.67626000  0.96361000  1.0
  H  H7  1  0.33210000  0.82373000  0.46361000  1.0
  H  H8  1  0.29939000  0.21296000  0.14716000  1.0
  H  H9  1  0.70056000  0.28704000  0.64715000  1.0
  H  H10  1  0.70059000  0.78704000  0.85284000  1.0
  H  H11  1  0.29946000  0.71296000  0.35285000  1.0
  H  H12  1  0.25143000  0.82868000  0.04222000  1.0
  H  H13  1  0.74859000  0.67132000  0.54222000  1.0
  H  H14  1  0.74857000  0.17132000  0.95778000  1.0
  H  H15  1  0.25141000  0.32868000  0.45778000  1.0
  H  H16  1  0.31560000  0.87477000  0.22520000  1.0
  H  H17  1  0.68441000  0.62524000  0.72520000  1.0
  H  H18  1  0.68439000  0.12523000  0.77480000  1.0
  H  H19  1  0.31560000  0.37476000  0.27480000  1.0
  H  H20  1  0.32697000  0.06877000  0.27782000  1.0
  H  H21  1  0.67300000  0.43124000  0.77781000  1.0
  H  H22  1  0.67302000  0.93124000  0.72218000  1.0
  H  H23  1  0.32701000  0.56876000  0.22219000  1.0
  H  H24  1  0.29482000  0.44747000  0.89169000  1.0
  H  H25  1  0.70516000  0.05254000  0.39169000  1.0
  H  H26  1  0.70521000  0.55253000  0.10831000  1.0
  H  H27  1  0.29481000  0.94746000  0.60831000  1.0
  C  C28  1  0.28929000  0.28959000  0.96356000  1.0
  C  C29  1  0.71069000  0.21041000  0.46356000  1.0
  C  C30  1  0.71072000  0.71041000  0.03644000  1.0
  C  C31  1  0.28930000  0.78959000  0.53644000  1.0
  C  C32  1  0.25549000  0.17710000  0.94599000  1.0
  C  C33  1  0.74449000  0.32290000  0.44599000  1.0
  C  C34  1  0.74450000  0.82290000  0.05400000  1.0
  C  C35  1  0.25551000  0.67710000  0.55401000  1.0
  C  C36  1  0.29166000  0.12717000  0.12668000  1.0
  C  C37  1  0.70830000  0.37283000  0.62668000  1.0
  C  C38  1  0.70832000  0.87283000  0.87332000  1.0
  C  C39  1  0.29170000  0.62716000  0.37332000  1.0
  C  C40  1  0.26703000  0.91273000  0.06938000  1.0
  C  C41  1  0.73298000  0.58728000  0.56939000  1.0
  C  C42  1  0.73297000  0.08728000  0.93062000  1.0
  C  C43  1  0.26702000  0.41272000  0.43062000  1.0
  C  C44  1  0.29949000  0.93818000  0.16995000  1.0
  C  C45  1  0.70051000  0.56183000  0.66995000  1.0
  C  C46  1  0.70050000  0.06183000  0.83005000  1.0
  C  C47  1  0.29950000  0.43817000  0.33005000  1.0
  C  C48  1  0.30970000  0.04732000  0.19919000  1.0
  C  C49  1  0.69028000  0.45269000  0.69919000  1.0
  C  C50  1  0.69028000  0.95269000  0.80081000  1.0
  C  C51  1  0.30973000  0.54731000  0.30081000  1.0
  C  C52  1  0.26574000  0.09537000  0.02648000  1.0
  C  C53  1  0.73424000  0.40464000  0.52648000  1.0
  C  C54  1  0.73425000  0.90463000  0.97352000  1.0
  C  C55  1  0.26576000  0.59536000  0.47352000  1.0
  C  C56  1  0.20581000  0.21198000  0.77893000  1.0
  C  C57  1  0.79418000  0.28802000  0.27893000  1.0
  C  C58  1  0.79418000  0.78802000  0.22107000  1.0
  C  C59  1  0.20582000  0.71198000  0.72107000  1.0
  C  C60  1  0.27236000  0.35903000  0.88323000  1.0
  C  C61  1  0.72763000  0.14097000  0.38323000  1.0
  C  C62  1  0.72767000  0.64097000  0.11676000  1.0
  C  C63  1  0.27235000  0.85903000  0.61677000  1.0
  S  S64  1  0.18064000  0.15394000  0.65343000  1.0
  S  S65  1  0.81935000  0.34605000  0.15343000  1.0
  S  S66  1  0.81936000  0.84605000  0.34658000  1.0
  S  S67  1  0.18066000  0.65395000  0.84657000  1.0
  N  N68  1  0.21544000  0.13975000  0.85247000  1.0
  N  N69  1  0.78455000  0.36025000  0.35247000  1.0
  N  N70  1  0.78455000  0.86025000  0.14753000  1.0
  N  N71  1  0.21545000  0.63975000  0.64753000  1.0
  N  N72  1  0.25125000  0.98937000  0.99926000  1.0
  N  N73  1  0.74876000  0.51063000  0.49926000  1.0
  N  N74  1  0.74875000  0.01063000  0.00074000  1.0
  N  N75  1  0.25125000  0.48937000  0.50074000  1.0
  N  N76  1  0.22846000  0.32098000  0.78990000  1.0
  N  N77  1  0.77153000  0.17902000  0.28990000  1.0
  N  N78  1  0.77156000  0.67903000  0.21010000  1.0
  N  N79  1  0.22846000  0.82097000  0.71010000  1.0
  O  O80  1  0.39475000  0.12403000  0.63605000  1.0
  O  O81  1  0.60525000  0.37598000  0.13605000  1.0
  O  O82  1  0.60525000  0.87597000  0.36395000  1.0
  O  O83  1  0.39476000  0.62402000  0.86395000  1.0
  O  O84  1  0.11972000  0.24170000  0.58920000  1.0
  O  O85  1  0.88025000  0.25829000  0.08920000  1.0
  O  O86  1  0.88027000  0.75830000  0.41080000  1.0
  O  O87  1  0.11976000  0.74170000  0.91080000  1.0
  O  O88  1  0.02213000  0.06061000  0.66119000  1.0
  O  O89  1  0.97789000  0.43938000  0.16120000  1.0
  O  O90  1  0.97787000  0.93939000  0.33881000  1.0
  O  O91  1  0.02213000  0.56061000  0.83881000  1.0
