# generated using pymatgen
data_MnH12C14S2(N3O2)2
_symmetry_space_group_name_H-M   'P 1'
_cell_length_a   9.01739000
_cell_length_b   11.25500000
_cell_length_c   12.83120000
_cell_angle_alpha   90.00040000
_cell_angle_beta   90.00050000
_cell_angle_gamma   105.57500000
_symmetry_Int_Tables_number   1
_chemical_formula_structural   MnH12C14S2(N3O2)2
_chemical_formula_sum   'Mn2 H24 C28 S4 N12 O8'
_cell_volume   1254.42900199
_cell_formula_units_Z   2
loop_
 _symmetry_equiv_pos_site_id
 _symmetry_equiv_pos_as_xyz
  1  'x, y, z'
loop_
 _atom_site_type_symbol
 _atom_site_label
 _atom_site_symmetry_multiplicity
 _atom_site_fract_x
 _atom_site_fract_y
 _atom_site_fract_z
 _atom_site_occupancy
  Mn  Mn0  1  0.00000000  0.50000000  0.50000000  1.0
  Mn  Mn1  1  0.50000000  0.00000000  0.00000000  1.0
  H  H2  1  0.23444000  0.68701000  0.42724000  1.0
  H  H3  1  0.26556000  0.81299000  0.92723000  1.0
  H  H4  1  0.76556000  0.31299000  0.57276000  1.0
  H  H5  1  0.73444000  0.18701000  0.07277000  1.0
  H  H6  1  0.07698000  0.69585000  0.36949000  1.0
  H  H7  1  0.42302000  0.80415000  0.86948000  1.0
  H  H8  1  0.92302000  0.30415000  0.63052000  1.0
  H  H9  1  0.57698000  0.19585000  0.13051000  1.0
  H  H10  1  0.85865000  0.79973000  0.22264000  1.0
  H  H11  1  0.64135000  0.70027000  0.72264000  1.0
  H  H12  1  0.14134000  0.20027000  0.77736000  1.0
  H  H13  1  0.35866000  0.29973000  0.27736000  1.0
  H  H14  1  0.77993000  0.94364000  0.10193000  1.0
  H  H15  1  0.72007000  0.55636000  0.60193000  1.0
  H  H16  1  0.22006000  0.05636000  0.89806000  1.0
  H  H17  1  0.27994000  0.44365000  0.39806000  1.0
  H  H18  1  0.31840000  0.75246000  0.12587000  1.0
  H  H19  1  0.18160000  0.74754000  0.62586000  1.0
  H  H20  1  0.68159000  0.24753000  0.87414000  1.0
  H  H21  1  0.81841000  0.25246000  0.37414000  1.0
  H  H22  1  0.37700000  0.60151000  0.25037000  1.0
  H  H23  1  0.12300000  0.89849000  0.75036000  1.0
  H  H24  1  0.62299000  0.39849000  0.74963000  1.0
  H  H25  1  0.87701000  0.10151000  0.24964000  1.0
  C  C26  1  0.64956000  0.43747000  0.41108000  1.0
  C  C27  1  0.85045000  0.06254000  0.91109000  1.0
  C  C28  1  0.35044000  0.56253000  0.58891000  1.0
  C  C29  1  0.14956000  0.93746000  0.08891000  1.0
  C  C30  1  0.67010000  0.60248000  0.31529000  1.0
  C  C31  1  0.82990000  0.89753000  0.81529000  1.0
  C  C32  1  0.32990000  0.39753000  0.68471000  1.0
  C  C33  1  0.17011000  0.10247000  0.18471000  1.0
  C  C34  1  0.62424000  0.68809000  0.24653000  1.0
  C  C35  1  0.87576000  0.81192000  0.74652000  1.0
  C  C36  1  0.37575000  0.31191000  0.75348000  1.0
  C  C37  1  0.12425000  0.18808000  0.25348000  1.0
  C  C38  1  0.73767000  0.78722000  0.20453000  1.0
  C  C39  1  0.76232000  0.71278000  0.70453000  1.0
  C  C40  1  0.26232000  0.21278000  0.79547000  1.0
  C  C41  1  0.23768000  0.28722000  0.29547000  1.0
  C  C42  1  0.69370000  0.86697000  0.13648000  1.0
  C  C43  1  0.80629000  0.63303000  0.63648000  1.0
  C  C44  1  0.30629000  0.13303000  0.86352000  1.0
  C  C45  1  0.19372000  0.36697000  0.36352000  1.0
  C  C46  1  0.43697000  0.75998000  0.14971000  1.0
  C  C47  1  0.06303000  0.74002000  0.64971000  1.0
  C  C48  1  0.56303000  0.24002000  0.85029000  1.0
  C  C49  1  0.93698000  0.25998000  0.35029000  1.0
  C  C50  1  0.47006000  0.67527000  0.21867000  1.0
  C  C51  1  0.02993000  0.82474000  0.71866000  1.0
  C  C52  1  0.52993000  0.32474000  0.78134000  1.0
  C  C53  1  0.97007000  0.17526000  0.28134000  1.0
  S  S54  1  0.56685000  0.30330000  0.46953000  1.0
  S  S55  1  0.93316000  0.19670000  0.96954000  1.0
  S  S56  1  0.43316000  0.69670000  0.53047000  1.0
  S  S57  1  0.06684000  0.80330000  0.03046000  1.0
  N  N58  1  0.79570000  0.50793000  0.41278000  1.0
  N  N59  1  0.70431000  0.99207000  0.91278000  1.0
  N  N60  1  0.20431000  0.49207000  0.58722000  1.0
  N  N61  1  0.29570000  0.00793000  0.08722000  1.0
  N  N62  1  0.80752000  0.61150000  0.35269000  1.0
  N  N63  1  0.69248000  0.88850000  0.85269000  1.0
  N  N64  1  0.19249000  0.38850000  0.64731000  1.0
  N  N65  1  0.30752000  0.11150000  0.14731000  1.0
  N  N66  1  0.54620000  0.85422000  0.10826000  1.0
  N  N67  1  0.95380000  0.64578000  0.60826000  1.0
  N  N68  1  0.45379000  0.14577000  0.89174000  1.0
  N  N69  1  0.04621000  0.35422000  0.39174000  1.0
  O  O70  1  0.56533000  0.49649000  0.34736000  1.0
  O  O71  1  0.93467000  0.00352000  0.84736000  1.0
  O  O72  1  0.43467000  0.50352000  0.65264000  1.0
  O  O73  1  0.06533000  0.99648000  0.15264000  1.0
  O  O74  1  0.13918000  0.64080000  0.38991000  1.0
  O  O75  1  0.36083000  0.85920000  0.88991000  1.0
  O  O76  1  0.86083000  0.35920000  0.61009000  1.0
  O  O77  1  0.63917000  0.14080000  0.11009000  1.0
