# generated using pymatgen
data_ZnH19C25N3O4
_symmetry_space_group_name_H-M   'P 1'
_cell_length_a   12.01240000
_cell_length_b   14.65770000
_cell_length_c   15.72060000
_cell_angle_alpha   90.00000000
_cell_angle_beta   90.00010000
_cell_angle_gamma   99.36720000
_symmetry_Int_Tables_number   1
_chemical_formula_structural   ZnH19C25N3O4
_chemical_formula_sum   'Zn4 H76 C100 N12 O16'
_cell_volume   2731.08158449
_cell_formula_units_Z   4
loop_
 _symmetry_equiv_pos_site_id
 _symmetry_equiv_pos_as_xyz
  1  'x, y, z'
loop_
 _atom_site_type_symbol
 _atom_site_label
 _atom_site_symmetry_multiplicity
 _atom_site_fract_x
 _atom_site_fract_y
 _atom_site_fract_z
 _atom_site_occupancy
  Zn  Zn0  1  0.87823000  0.47992000  0.50873000  1.0
  Zn  Zn1  1  0.12177000  0.02008000  0.00873000  1.0
  Zn  Zn2  1  0.12177000  0.52008000  0.49127000  1.0
  Zn  Zn3  1  0.87823000  0.97992000  0.99127000  1.0
  H  H4  1  0.40395000  0.15736000  0.46716000  1.0
  H  H5  1  0.59605000  0.34264000  0.96716000  1.0
  H  H6  1  0.59605000  0.84264000  0.53284000  1.0
  H  H7  1  0.40395000  0.65736000  0.03284000  1.0
  H  H8  1  0.69331000  0.37557000  0.40783000  1.0
  H  H9  1  0.30669000  0.12444000  0.90783000  1.0
  H  H10  1  0.30669000  0.62444000  0.59217000  1.0
  H  H11  1  0.69331000  0.87556000  0.09217000  1.0
  H  H12  1  0.49085000  0.30962000  0.42709000  1.0
  H  H13  1  0.50915000  0.19039000  0.92709000  1.0
  H  H14  1  0.50916000  0.69039000  0.57291000  1.0
  H  H15  1  0.49085000  0.80961000  0.07291000  1.0
  H  H16  1  0.35495000  0.30120000  0.63811000  1.0
  H  H17  1  0.64505000  0.19880000  0.13811000  1.0
  H  H18  1  0.64505000  0.69880000  0.36189000  1.0
  H  H19  1  0.35495000  0.80120000  0.86189000  1.0
  H  H20  1  0.30950000  0.38537000  0.57359000  1.0
  H  H21  1  0.69050000  0.11463000  0.07359000  1.0
  H  H22  1  0.69050000  0.61463000  0.42641000  1.0
  H  H23  1  0.30950000  0.88537000  0.92641000  1.0
  H  H24  1  0.30393000  0.28039000  0.44662000  1.0
  H  H25  1  0.69607000  0.21961000  0.94662000  1.0
  H  H26  1  0.69607000  0.71961000  0.55338000  1.0
  H  H27  1  0.30393000  0.78039000  0.05338000  1.0
  H  H28  1  0.21090000  0.24018000  0.52926000  1.0
  H  H29  1  0.78910000  0.25982000  0.02926000  1.0
  H  H30  1  0.78910000  0.75982000  0.47074000  1.0
  H  H31  1  0.21090000  0.74018000  0.97074000  1.0
  H  H32  1  0.21942000  0.16902000  0.65425000  1.0
  H  H33  1  0.78058000  0.33098000  0.15425000  1.0
  H  H34  1  0.78058000  0.83098000  0.34575000  1.0
  H  H35  1  0.21942000  0.66902000  0.84575000  1.0
  H  H36  1  0.20879000  0.05439000  0.76889000  1.0
  H  H37  1  0.79121000  0.44561000  0.26889000  1.0
  H  H38  1  0.79122000  0.94561000  0.23111000  1.0
  H  H39  1  0.20879000  0.55439000  0.73111000  1.0
  H  H40  1  0.31695000  0.92302000  0.76022000  1.0
  H  H41  1  0.68305000  0.57698000  0.26022000  1.0
  H  H42  1  0.68305000  0.07698000  0.23978000  1.0
  H  H43  1  0.31694000  0.42302000  0.73978000  1.0
  H  H44  1  0.44150000  0.91070000  0.63406000  1.0
  H  H45  1  0.55850000  0.58930000  0.13406000  1.0
  H  H46  1  0.55850000  0.08930000  0.36594000  1.0
  H  H47  1  0.44150000  0.41070000  0.86594000  1.0
  H  H48  1  0.50852000  0.43931000  0.67490000  1.0
  H  H49  1  0.49148000  0.06069000  0.17490000  1.0
  H  H50  1  0.49149000  0.56069000  0.32511000  1.0
  H  H51  1  0.50852000  0.93931000  0.82511000  1.0
  H  H52  1  0.71122000  0.50092000  0.64422000  1.0
  H  H53  1  0.28878000  0.99908000  0.14422000  1.0
  H  H54  1  0.28879000  0.49907000  0.35578000  1.0
  H  H55  1  0.71122000  0.00092000  0.85578000  1.0
  H  H56  1  0.87652000  0.12865000  0.23003000  1.0
  H  H57  1  0.12348000  0.37135000  0.73003000  1.0
  H  H58  1  0.12348000  0.87135000  0.76997000  1.0
  H  H59  1  0.87653000  0.62865000  0.26997000  1.0
  H  H60  1  0.88123000  0.24343000  0.34754000  1.0
  H  H61  1  0.11877000  0.25657000  0.84754000  1.0
  H  H62  1  0.11877000  0.75657000  0.65246000  1.0
  H  H63  1  0.88123000  0.74343000  0.15246000  1.0
  H  H64  1  0.06458000  0.29836000  0.99668000  1.0
  H  H65  1  0.93542000  0.20164000  0.49668000  1.0
  H  H66  1  0.93542000  0.70164000  0.00332000  1.0
  H  H67  1  0.06458000  0.79836000  0.50332000  1.0
  H  H68  1  0.14850000  0.46211000  0.97248000  1.0
  H  H69  1  0.85150000  0.03789000  0.47247000  1.0
  H  H70  1  0.85151000  0.53789000  0.02753000  1.0
  H  H71  1  0.14850000  0.96211000  0.52753000  1.0
  H  H72  1  0.15774000  0.57610000  0.09074000  1.0
  H  H73  1  0.84226000  0.92389000  0.59074000  1.0
  H  H74  1  0.84227000  0.42390000  0.90926000  1.0
  H  H75  1  0.15773000  0.07611000  0.40926000  1.0
  H  H76  1  0.08240000  0.52718000  0.23312000  1.0
  H  H77  1  0.91760000  0.97282000  0.73312000  1.0
  H  H78  1  0.91760000  0.47282000  0.76688000  1.0
  H  H79  1  0.08240000  0.02718000  0.26688000  1.0
  C  C80  1  0.96980000  0.22530000  0.14350000  1.0
  C  C81  1  0.03020000  0.27470000  0.64350000  1.0
  C  C82  1  0.03019000  0.77470000  0.85650000  1.0
  C  C83  1  0.96980000  0.72530000  0.35650000  1.0
  C  C84  1  0.64807000  0.38819000  0.46571000  1.0
  C  C85  1  0.35193000  0.11182000  0.96571000  1.0
  C  C86  1  0.35193000  0.61182000  0.53429000  1.0
  C  C87  1  0.64807000  0.88818000  0.03429000  1.0
  C  C88  1  0.53514000  0.35120000  0.47781000  1.0
  C  C89  1  0.46485000  0.14880000  0.97782000  1.0
  C  C90  1  0.46486000  0.64880000  0.52219000  1.0
  C  C91  1  0.53515000  0.85120000  0.02218000  1.0
  C  C92  1  0.48104000  0.36736000  0.55398000  1.0
  C  C93  1  0.51896000  0.13264000  0.05398000  1.0
  C  C94  1  0.51896000  0.63264000  0.44602000  1.0
  C  C95  1  0.48104000  0.86736000  0.94602000  1.0
  C  C96  1  0.35976000  0.32881000  0.57278000  1.0
  C  C97  1  0.64024000  0.17119000  0.07278000  1.0
  C  C98  1  0.64024000  0.67119000  0.42722000  1.0
  C  C99  1  0.35976000  0.82881000  0.92722000  1.0
  C  C100  1  0.30091000  0.25424000  0.51224000  1.0
  C  C101  1  0.69909000  0.24576000  0.01224000  1.0
  C  C102  1  0.69909000  0.74576000  0.48776000  1.0
  C  C103  1  0.30091000  0.75424000  0.98776000  1.0
  C  C104  1  0.33917000  0.10769000  0.57811000  1.0
  C  C105  1  0.66083000  0.39231000  0.07811000  1.0
  C  C106  1  0.66083000  0.89231000  0.42189000  1.0
  C  C107  1  0.33917000  0.60769000  0.92189000  1.0
  C  C108  1  0.26946000  0.11354000  0.64972000  1.0
  C  C109  1  0.73054000  0.38646000  0.14972000  1.0
  C  C110  1  0.73054000  0.88646000  0.35028000  1.0
  C  C111  1  0.26946000  0.61354000  0.85028000  1.0
  C  C112  1  0.26272000  0.04804000  0.71413000  1.0
  C  C113  1  0.73728000  0.45196000  0.21413000  1.0
  C  C114  1  0.73728000  0.95196000  0.28587000  1.0
  C  C115  1  0.26272000  0.54804000  0.78587000  1.0
  C  C116  1  0.32424000  0.97431000  0.70953000  1.0
  C  C117  1  0.67576000  0.52569000  0.20953000  1.0
  C  C118  1  0.67576000  0.02569000  0.29047000  1.0
  C  C119  1  0.32424000  0.47431000  0.79047000  1.0
  C  C120  1  0.39304000  0.96712000  0.63988000  1.0
  C  C121  1  0.60696000  0.53288000  0.13988000  1.0
  C  C122  1  0.60696000  0.03288000  0.36012000  1.0
  C  C123  1  0.39304000  0.46712000  0.86012000  1.0
  C  C124  1  0.40288000  0.03303000  0.57411000  1.0
  C  C125  1  0.59712000  0.46697000  0.07411000  1.0
  C  C126  1  0.59712000  0.96697000  0.42589000  1.0
  C  C127  1  0.40288000  0.53303000  0.92589000  1.0
  C  C128  1  0.54577000  0.42317000  0.61456000  1.0
  C  C129  1  0.45423000  0.07683000  0.11456000  1.0
  C  C130  1  0.45423000  0.57683000  0.38544000  1.0
  C  C131  1  0.54577000  0.92317000  0.88544000  1.0
  C  C132  1  0.65805000  0.45825000  0.59826000  1.0
  C  C133  1  0.34195000  0.04176000  0.09826000  1.0
  C  C134  1  0.34195000  0.54175000  0.40174000  1.0
  C  C135  1  0.65805000  0.95824000  0.90174000  1.0
  C  C136  1  0.97587000  0.15021000  0.08003000  1.0
  C  C137  1  0.02413000  0.34978000  0.58003000  1.0
  C  C138  1  0.02411000  0.84979000  0.91996000  1.0
  C  C139  1  0.97589000  0.65021000  0.41996000  1.0
  C  C140  1  0.98699000  0.41471000  0.35359000  1.0
  C  C141  1  0.01301000  0.08529000  0.85359000  1.0
  C  C142  1  0.01301000  0.58529000  0.64641000  1.0
  C  C143  1  0.98699000  0.91471000  0.14641000  1.0
  C  C144  1  0.97872000  0.35351000  0.27698000  1.0
  C  C145  1  0.02128000  0.14649000  0.77698000  1.0
  C  C146  1  0.02127000  0.64649000  0.72302000  1.0
  C  C147  1  0.97873000  0.85351000  0.22302000  1.0
  C  C148  1  0.02844000  0.38383000  0.19724000  1.0
  C  C149  1  0.97156000  0.11618000  0.69724000  1.0
  C  C150  1  0.97155000  0.61618000  0.80276000  1.0
  C  C151  1  0.02845000  0.88382000  0.30276000  1.0
  C  C152  1  0.02326000  0.31817000  0.12890000  1.0
  C  C153  1  0.97674000  0.18183000  0.62890000  1.0
  C  C154  1  0.97674000  0.68183000  0.87110000  1.0
  C  C155  1  0.02326000  0.81817000  0.37110000  1.0
  C  C156  1  0.91754000  0.19982000  0.22028000  1.0
  C  C157  1  0.08246000  0.30018000  0.72028000  1.0
  C  C158  1  0.08245000  0.80018000  0.77972000  1.0
  C  C159  1  0.91755000  0.69982000  0.27972000  1.0
  C  C160  1  0.92141000  0.26422000  0.28683000  1.0
  C  C161  1  0.07859000  0.23578000  0.78683000  1.0
  C  C162  1  0.07859000  0.73578000  0.71317000  1.0
  C  C163  1  0.92141000  0.76422000  0.21317000  1.0
  C  C164  1  0.06840000  0.34848000  0.04827000  1.0
  C  C165  1  0.93160000  0.15152000  0.54828000  1.0
  C  C166  1  0.93160000  0.65153000  0.95172000  1.0
  C  C167  1  0.06840000  0.84848000  0.45172000  1.0
  C  C168  1  0.11554000  0.43951000  0.03499000  1.0
  C  C169  1  0.88447000  0.06048000  0.53499000  1.0
  C  C170  1  0.88446000  0.56049000  0.96501000  1.0
  C  C171  1  0.11554000  0.93952000  0.46501000  1.0
  C  C172  1  0.12054000  0.50420000  0.10224000  1.0
  C  C173  1  0.87946000  0.99580000  0.60224000  1.0
  C  C174  1  0.87946000  0.49580000  0.89776000  1.0
  C  C175  1  0.12054000  0.00420000  0.39776000  1.0
  C  C176  1  0.07849000  0.47705000  0.18156000  1.0
  C  C177  1  0.92151000  0.02295000  0.68156000  1.0
  C  C178  1  0.92151000  0.52295000  0.81844000  1.0
  C  C179  1  0.07849000  0.97705000  0.31844000  1.0
  N  N180  1  0.70893000  0.44059000  0.52496000  1.0
  N  N181  1  0.29107000  0.05941000  0.02496000  1.0
  N  N182  1  0.29107000  0.55941000  0.47504000  1.0
  N  N183  1  0.70893000  0.94059000  0.97504000  1.0
  N  N184  1  0.34694000  0.16880000  0.51211000  1.0
  N  N185  1  0.65306000  0.33120000  0.01211000  1.0
  N  N186  1  0.65306000  0.83120000  0.48789000  1.0
  N  N187  1  0.34694000  0.66880000  0.98789000  1.0
  N  N188  1  0.47136000  0.03302000  0.50273000  1.0
  N  N189  1  0.52863000  0.46698000  0.00273000  1.0
  N  N190  1  0.52863000  0.96698000  0.49727000  1.0
  N  N191  1  0.47136000  0.53302000  0.99727000  1.0
  O  O192  1  0.88320000  0.10310000  0.05480000  1.0
  O  O193  1  0.11679000  0.39690000  0.55479000  1.0
  O  O194  1  0.11679000  0.89690000  0.94521000  1.0
  O  O195  1  0.88321000  0.60310000  0.44521000  1.0
  O  O196  1  0.89445000  0.42082000  0.39089000  1.0
  O  O197  1  0.10555000  0.07918000  0.89089000  1.0
  O  O198  1  0.10554000  0.57918000  0.60911000  1.0
  O  O199  1  0.89447000  0.92082000  0.10911000  1.0
  O  O200  1  0.08495000  0.45293000  0.37707000  1.0
  O  O201  1  0.91504000  0.04707000  0.87707000  1.0
  O  O202  1  0.91504000  0.54707000  0.62293000  1.0
  O  O203  1  0.08497000  0.95293000  0.12293000  1.0
  O  O204  1  0.07436000  0.13725000  0.05986000  1.0
  O  O205  1  0.92564000  0.36275000  0.55986000  1.0
  O  O206  1  0.92563000  0.86275000  0.94013000  1.0
  O  O207  1  0.07437000  0.63725000  0.44013000  1.0
