# generated using pymatgen
data_ZnH8(C7N4)2
_symmetry_space_group_name_H-M   'P 1'
_cell_length_a   8.71803000
_cell_length_b   9.34451000
_cell_length_c   9.34449000
_cell_angle_alpha   76.70020000
_cell_angle_beta   81.41720000
_cell_angle_gamma   81.41720000
_symmetry_Int_Tables_number   1
_chemical_formula_structural   ZnH8(C7N4)2
_chemical_formula_sum   'Zn2 H16 C28 N16'
_cell_volume   727.30060402
_cell_formula_units_Z   2
loop_
 _symmetry_equiv_pos_site_id
 _symmetry_equiv_pos_as_xyz
  1  'x, y, z'
loop_
 _atom_site_type_symbol
 _atom_site_label
 _atom_site_symmetry_multiplicity
 _atom_site_fract_x
 _atom_site_fract_y
 _atom_site_fract_z
 _atom_site_occupancy
  Zn  Zn0  1  0.75000000  0.30644000  0.69356000  1.0
  Zn  Zn1  1  0.25000000  0.69356000  0.30644000  1.0
  H  H2  1  0.12302000  0.96307000  0.42171000  1.0
  H  H3  1  0.37698000  0.57829000  0.03693000  1.0
  H  H4  1  0.87699000  0.03693000  0.57829000  1.0
  H  H5  1  0.62302000  0.42171000  0.96307000  1.0
  H  H6  1  0.54132000  0.84617000  0.17726000  1.0
  H  H7  1  0.95869000  0.82275000  0.15383000  1.0
  H  H8  1  0.45868000  0.15383000  0.82274000  1.0
  H  H9  1  0.04131000  0.17725000  0.84617000  1.0
  H  H10  1  0.63794000  0.08825000  0.17253000  1.0
  H  H11  1  0.86206000  0.82748000  0.91175000  1.0
  H  H12  1  0.36206000  0.91175000  0.82746000  1.0
  H  H13  1  0.13794000  0.17253000  0.08825000  1.0
  H  H14  1  0.46404000  0.27390000  0.29843000  1.0
  H  H15  1  0.03595000  0.70157000  0.72610000  1.0
  H  H16  1  0.53596000  0.72611000  0.70156000  1.0
  H  H17  1  0.96404000  0.29843000  0.27390000  1.0
  C  C18  1  0.03107000  0.42468000  0.49663000  1.0
  C  C19  1  0.46893000  0.50337000  0.57532000  1.0
  C  C20  1  0.96892000  0.57532000  0.50337000  1.0
  C  C21  1  0.53108000  0.49663000  0.42468000  1.0
  C  C22  1  0.16853000  0.23349000  0.44539000  1.0
  C  C23  1  0.33146000  0.55461000  0.76651000  1.0
  C  C24  1  0.83147000  0.76651000  0.55461000  1.0
  C  C25  1  0.66853000  0.44538000  0.23349000  1.0
  C  C26  1  0.28109000  0.13229000  0.37299000  1.0
  C  C27  1  0.21891000  0.62701000  0.86771000  1.0
  C  C28  1  0.71892000  0.86772000  0.62701000  1.0
  C  C29  1  0.78109000  0.37299000  0.13229000  1.0
  C  C30  1  0.23718000  0.99469000  0.36972000  1.0
  C  C31  1  0.26282000  0.63029000  0.00531000  1.0
  C  C32  1  0.76282000  0.00531000  0.63029000  1.0
  C  C33  1  0.73718000  0.36971000  0.99469000  1.0
  C  C34  1  0.47062000  0.93020000  0.23082000  1.0
  C  C35  1  0.02939000  0.76918000  0.06980000  1.0
  C  C36  1  0.52938000  0.06980000  0.76917000  1.0
  C  C37  1  0.97062000  0.23082000  0.93020000  1.0
  C  C38  1  0.52297000  0.06439000  0.22899000  1.0
  C  C39  1  0.97703000  0.77101000  0.93561000  1.0
  C  C40  1  0.47703000  0.93562000  0.77100000  1.0
  C  C41  1  0.02297000  0.22899000  0.06439000  1.0
  C  C42  1  0.42710000  0.16745000  0.29961000  1.0
  C  C43  1  0.07290000  0.70039000  0.83255000  1.0
  C  C44  1  0.57290000  0.83255000  0.70039000  1.0
  C  C45  1  0.92710000  0.29960000  0.16746000  1.0
  N  N46  1  0.95833000  0.30710000  0.57287000  1.0
  N  N47  1  0.54168000  0.42713000  0.69291000  1.0
  N  N48  1  0.04168000  0.69290000  0.42713000  1.0
  N  N49  1  0.45833000  0.57287000  0.30710000  1.0
  N  N50  1  0.04677000  0.18339000  0.54131000  1.0
  N  N51  1  0.45323000  0.45869000  0.81661000  1.0
  N  N52  1  0.95323000  0.81661000  0.45869000  1.0
  N  N53  1  0.54677000  0.54130000  0.18339000  1.0
  N  N54  1  0.16412000  0.38373000  0.41473000  1.0
  N  N55  1  0.33588000  0.58527000  0.61627000  1.0
  N  N56  1  0.83589000  0.61627000  0.58527000  1.0
  N  N57  1  0.66412000  0.41473000  0.38373000  1.0
  N  N58  1  0.32853000  0.89704000  0.29936000  1.0
  N  N59  1  0.17147000  0.70064000  0.10296000  1.0
  N  N60  1  0.67147000  0.10296000  0.70064000  1.0
  N  N61  1  0.82853000  0.29936000  0.89704000  1.0
