# generated using pymatgen
data_H12PbC11(IN2)2
_symmetry_space_group_name_H-M   'P 1'
_cell_length_a   8.20489000
_cell_length_b   9.52810000
_cell_length_c   10.65670000
_cell_angle_alpha   71.61540000
_cell_angle_beta   81.75740000
_cell_angle_gamma   79.17530000
_symmetry_Int_Tables_number   1
_chemical_formula_structural   H12PbC11(IN2)2
_chemical_formula_sum   'H24 Pb2 C22 I4 N8'
_cell_volume   773.35053565
_cell_formula_units_Z   2
loop_
 _symmetry_equiv_pos_site_id
 _symmetry_equiv_pos_as_xyz
  1  'x, y, z'
loop_
 _atom_site_type_symbol
 _atom_site_label
 _atom_site_symmetry_multiplicity
 _atom_site_fract_x
 _atom_site_fract_y
 _atom_site_fract_z
 _atom_site_occupancy
  H  H0  1  0.63058000  0.12669000  0.51538000  1.0
  H  H1  1  0.36946000  0.87331000  0.48460000  1.0
  H  H2  1  0.74254000  0.97504000  0.32796000  1.0
  H  H3  1  0.25745000  0.02495000  0.67203000  1.0
  H  H4  1  0.50631000  0.19598000  0.01968000  1.0
  H  H5  1  0.49367000  0.80402000  0.98032000  1.0
  H  H6  1  0.57024000  0.00185000  0.10553000  1.0
  H  H7  1  0.42973000  0.99816000  0.89447000  1.0
  H  H8  1  0.72148000  0.12752000  0.04125000  1.0
  H  H9  1  0.27850000  0.87247000  0.95874000  1.0
  H  H10  1  0.27241000  0.49374000  0.92200000  1.0
  H  H11  1  0.72759000  0.50624000  0.07801000  1.0
  H  H12  1  0.09344000  0.68965000  0.76533000  1.0
  H  H13  1  0.90654000  0.31033000  0.23468000  1.0
  H  H14  1  0.87112000  0.87662000  0.08029000  1.0
  H  H15  1  0.12887000  0.12337000  0.91971000  1.0
  H  H16  1  0.04830000  0.68236000  0.23758000  1.0
  H  H17  1  0.95170000  0.31764000  0.76242000  1.0
  H  H18  1  0.78297000  0.99553000  0.86132000  1.0
  H  H19  1  0.21702000  0.00445000  0.13867000  1.0
  H  H20  1  0.79292000  0.87124000  0.76456000  1.0
  H  H21  1  0.20710000  0.12875000  0.23543000  1.0
  H  H22  1  0.94550000  0.98720000  0.73346000  1.0
  H  H23  1  0.05450000  0.01278000  0.26655000  1.0
  Pb  Pb24  1  0.27862000  0.46833000  0.44158000  1.0
  Pb  Pb25  1  0.72142000  0.53174000  0.55840000  1.0
  C  C26  1  0.59515000  0.15207000  0.41546000  1.0
  C  C27  1  0.40487000  0.84794000  0.58453000  1.0
  C  C28  1  0.65296000  0.07585000  0.32206000  1.0
  C  C29  1  0.34705000  0.92415000  0.67794000  1.0
  C  C30  1  0.46733000  0.27196000  0.23849000  1.0
  C  C31  1  0.53267000  0.72804000  0.76151000  1.0
  C  C32  1  0.59391000  0.11674000  0.08644000  1.0
  C  C33  1  0.40606000  0.88326000  0.91356000  1.0
  C  C34  1  0.17392000  0.57635000  0.08998000  1.0
  C  C35  1  0.82609000  0.42365000  0.91003000  1.0
  C  C36  1  0.18529000  0.57853000  0.95595000  1.0
  C  C37  1  0.81471000  0.42145000  0.04406000  1.0
  C  C38  1  0.08485000  0.68830000  0.86889000  1.0
  C  C39  1  0.91514000  0.31167000  0.13111000  1.0
  C  C40  1  0.97096000  0.79911000  0.91082000  1.0
  C  C41  1  0.02903000  0.20086000  0.08919000  1.0
  C  C42  1  0.95966000  0.79382000  0.04482000  1.0
  C  C43  1  0.04033000  0.20617000  0.95519000  1.0
  C  C44  1  0.05934000  0.68432000  0.13370000  1.0
  C  C45  1  0.94067000  0.31569000  0.86630000  1.0
  C  C46  1  0.86719000  0.91941000  0.81386000  1.0
  C  C47  1  0.13279000  0.08057000  0.18613000  1.0
  I  I48  1  0.01549000  0.24879000  0.50003000  1.0
  I  I49  1  0.98455000  0.75123000  0.50000000  1.0
  I  I50  1  0.44736000  0.31269000  0.71649000  1.0
  I  I51  1  0.55264000  0.68738000  0.28351000  1.0
  N  N52  1  0.48039000  0.27230000  0.36306000  1.0
  N  N53  1  0.51964000  0.72770000  0.63693000  1.0
  N  N54  1  0.57152000  0.15218000  0.21155000  1.0
  N  N55  1  0.42846000  0.84783000  0.78845000  1.0
  N  N56  1  0.37028000  0.36973000  0.14538000  1.0
  N  N57  1  0.62971000  0.63027000  0.85463000  1.0
  N  N58  1  0.27190000  0.47177000  0.18465000  1.0
  N  N59  1  0.72812000  0.52823000  0.81534000  1.0
