# generated using pymatgen
data_ErH12C11O8
_symmetry_space_group_name_H-M   'P 1'
_cell_length_a   5.77726000
_cell_length_b   13.25890000
_cell_length_c   15.51170000
_cell_angle_alpha   94.34200000
_cell_angle_beta   90.00000000
_cell_angle_gamma   90.00000000
_symmetry_Int_Tables_number   1
_chemical_formula_structural   ErH12C11O8
_chemical_formula_sum   'Er4 H48 C44 O32'
_cell_volume   1184.78772381
_cell_formula_units_Z   4
loop_
 _symmetry_equiv_pos_site_id
 _symmetry_equiv_pos_as_xyz
  1  'x, y, z'
loop_
 _atom_site_type_symbol
 _atom_site_label
 _atom_site_symmetry_multiplicity
 _atom_site_fract_x
 _atom_site_fract_y
 _atom_site_fract_z
 _atom_site_occupancy
  Er  Er0  1  0.44029000  0.63456000  0.58378000  1.0
  Er  Er1  1  0.94027000  0.86544000  0.91622000  1.0
  Er  Er2  1  0.55973000  0.36544000  0.41621000  1.0
  Er  Er3  1  0.05971000  0.13456000  0.08379000  1.0
  H  H4  1  0.87339000  0.71824000  0.66630000  1.0
  H  H5  1  0.37338000  0.78175000  0.83370000  1.0
  H  H6  1  0.12662000  0.28175000  0.33370000  1.0
  H  H7  1  0.62661000  0.21824000  0.16630000  1.0
  H  H8  1  0.68805000  0.71490000  0.74270000  1.0
  H  H9  1  0.18805000  0.78509000  0.75730000  1.0
  H  H10  1  0.31195000  0.28509000  0.25730000  1.0
  H  H11  1  0.81195000  0.21490000  0.24270000  1.0
  H  H12  1  0.79180000  0.58754000  0.45948000  1.0
  H  H13  1  0.29179000  0.91246000  0.04052000  1.0
  H  H14  1  0.20821000  0.41246000  0.54052000  1.0
  H  H15  1  0.70819000  0.08754000  0.95948000  1.0
  H  H16  1  0.89621000  0.68846000  0.49609000  1.0
  H  H17  1  0.39620000  0.81154000  0.00391000  1.0
  H  H18  1  0.10380000  0.31154000  0.50391000  1.0
  H  H19  1  0.60379000  0.18846000  0.99609000  1.0
  H  H20  1  0.20796000  0.47526000  0.84206000  1.0
  H  H21  1  0.70797000  0.02474000  0.65794000  1.0
  H  H22  1  0.79204000  0.52474000  0.15793000  1.0
  H  H23  1  0.29204000  0.97527000  0.34207000  1.0
  H  H24  1  0.51465000  0.30742000  0.70951000  1.0
  H  H25  1  0.01465000  0.19258000  0.79049000  1.0
  H  H26  1  0.48534000  0.69259000  0.29049000  1.0
  H  H27  1  0.98536000  0.80743000  0.20951000  1.0
  H  H28  1  0.08716000  0.96361000  0.64648000  1.0
  H  H29  1  0.58713000  0.53639000  0.85353000  1.0
  H  H30  1  0.91288000  0.03639000  0.35353000  1.0
  H  H31  1  0.41282000  0.46361000  0.14648000  1.0
  H  H32  1  0.88339000  0.88078000  0.59629000  1.0
  H  H33  1  0.38336000  0.61922000  0.90371000  1.0
  H  H34  1  0.11665000  0.11922000  0.40371000  1.0
  H  H35  1  0.61659000  0.38077000  0.09630000  1.0
  H  H36  1  0.26548000  0.99455000  0.50446000  1.0
  H  H37  1  0.76544000  0.50544000  0.99555000  1.0
  H  H38  1  0.73456000  0.00544000  0.49555000  1.0
  H  H39  1  0.23452000  0.49455000  0.00446000  1.0
  H  H40  1  0.08671000  0.90218000  0.45102000  1.0
  H  H41  1  0.58667000  0.59781000  0.04899000  1.0
  H  H42  1  0.91333000  0.09782000  0.54898000  1.0
  H  H43  1  0.41329000  0.40218000  0.95102000  1.0
  H  H44  1  0.61036000  0.28354000  0.86174000  1.0
  H  H45  1  0.11037000  0.21647000  0.63826000  1.0
  H  H46  1  0.38963000  0.71647000  0.13826000  1.0
  H  H47  1  0.88965000  0.78354000  0.36174000  1.0
  H  H48  1  0.96567000  0.36367000  0.92895000  1.0
  H  H49  1  0.46568000  0.13634000  0.57105000  1.0
  H  H50  1  0.03432000  0.63634000  0.07105000  1.0
  H  H51  1  0.53433000  0.86367000  0.42895000  1.0
  C  C52  1  0.15751000  0.51659000  0.67869000  1.0
  C  C53  1  0.65748000  0.98341000  0.82131000  1.0
  C  C54  1  0.84252000  0.48341000  0.32131000  1.0
  C  C55  1  0.34250000  0.01659000  0.17869000  1.0
  C  C56  1  0.74062000  0.40706000  0.59611000  1.0
  C  C57  1  0.24061000  0.09293000  0.90388000  1.0
  C  C58  1  0.25939000  0.59293000  0.40388000  1.0
  C  C59  1  0.75938000  0.90707000  0.09612000  1.0
  C  C60  1  0.22414000  0.82289000  0.60036000  1.0
  C  C61  1  0.72412000  0.67710000  0.89965000  1.0
  C  C62  1  0.77588000  0.17710000  0.39965000  1.0
  C  C63  1  0.27583000  0.32289000  0.10036000  1.0
  C  C64  1  0.81003000  0.40198000  0.68885000  1.0
  C  C65  1  0.31002000  0.09802000  0.81115000  1.0
  C  C66  1  0.18997000  0.59803000  0.31115000  1.0
  C  C67  1  0.68999000  0.90198000  0.18885000  1.0
  C  C68  1  0.00425000  0.45102000  0.72741000  1.0
  C  C69  1  0.50424000  0.04898000  0.77258000  1.0
  C  C70  1  0.99575000  0.54899000  0.27258000  1.0
  C  C71  1  0.49576000  0.95102000  0.22742000  1.0
  C  C72  1  0.05592000  0.43731000  0.81408000  1.0
  C  C73  1  0.55592000  0.06270000  0.68591000  1.0
  C  C74  1  0.94408000  0.56270000  0.18591000  1.0
  C  C75  1  0.44409000  0.93731000  0.31409000  1.0
  C  C76  1  0.66755000  0.34375000  0.73867000  1.0
  C  C77  1  0.16755000  0.15625000  0.76133000  1.0
  C  C78  1  0.33244000  0.65625000  0.26132000  1.0
  C  C79  1  0.83246000  0.84376000  0.23867000  1.0
  C  C80  1  0.06099000  0.90915000  0.58991000  1.0
  C  C81  1  0.56096000  0.59084000  0.91010000  1.0
  C  C82  1  0.93904000  0.09084000  0.41010000  1.0
  C  C83  1  0.43899000  0.40915000  0.08990000  1.0
  C  C84  1  0.09257000  0.96004000  0.50576000  1.0
  C  C85  1  0.59253000  0.53995000  0.99425000  1.0
  C  C86  1  0.90746000  0.03995000  0.49425000  1.0
  C  C87  1  0.40742000  0.46004000  0.00576000  1.0
  C  C88  1  0.72147000  0.33083000  0.82476000  1.0
  C  C89  1  0.22148000  0.16917000  0.67523000  1.0
  C  C90  1  0.27852000  0.66918000  0.17523000  1.0
  C  C91  1  0.77854000  0.83084000  0.32477000  1.0
  C  C92  1  0.91885000  0.37637000  0.86254000  1.0
  C  C93  1  0.41887000  0.12363000  0.63746000  1.0
  C  C94  1  0.08114000  0.62364000  0.13746000  1.0
  C  C95  1  0.58115000  0.87637000  0.36254000  1.0
  O  O96  1  0.13029000  0.51858000  0.59581000  1.0
  O  O97  1  0.63026000  0.98143000  0.90419000  1.0
  O  O98  1  0.86974000  0.48143000  0.40419000  1.0
  O  O99  1  0.36972000  0.01857000  0.09581000  1.0
  O  O100  1  0.78894000  0.33303000  0.54186000  1.0
  O  O101  1  0.28892000  0.16697000  0.95814000  1.0
  O  O102  1  0.21108000  0.66697000  0.45813000  1.0
  O  O103  1  0.71107000  0.83303000  0.04187000  1.0
  O  O104  1  0.61343000  0.47894000  0.57394000  1.0
  O  O105  1  0.11340000  0.02106000  0.92605000  1.0
  O  O106  1  0.38659000  0.52106000  0.42605000  1.0
  O  O107  1  0.88658000  0.97894000  0.07394000  1.0
  O  O108  1  0.71824000  0.69150000  0.68168000  1.0
  O  O109  1  0.21823000  0.80850000  0.81832000  1.0
  O  O110  1  0.28178000  0.30850000  0.31832000  1.0
  O  O111  1  0.78176000  0.19150000  0.18168000  1.0
  O  O112  1  0.42307000  0.81724000  0.56727000  1.0
  O  O113  1  0.92304000  0.68275000  0.93273000  1.0
  O  O114  1  0.57695000  0.18275000  0.43273000  1.0
  O  O115  1  0.07692000  0.31724000  0.06727000  1.0
  O  O116  1  0.31435000  0.57015000  0.71668000  1.0
  O  O117  1  0.81432000  0.92984000  0.78331000  1.0
  O  O118  1  0.68569000  0.42984000  0.28331000  1.0
  O  O119  1  0.18566000  0.07015000  0.21669000  1.0
  O  O120  1  0.15254000  0.74796000  0.64439000  1.0
  O  O121  1  0.65254000  0.75204000  0.85562000  1.0
  O  O122  1  0.84747000  0.25204000  0.35561000  1.0
  O  O123  1  0.34744000  0.24796000  0.14439000  1.0
  O  O124  1  0.74612000  0.65425000  0.48962000  1.0
  O  O125  1  0.24610000  0.84575000  0.01037000  1.0
  O  O126  1  0.25390000  0.34575000  0.51037000  1.0
  O  O127  1  0.75388000  0.15425000  0.98962000  1.0
