# generated using pymatgen
data_SrH14(CO)11
_symmetry_space_group_name_H-M   'P 1'
_cell_length_a   6.73442000
_cell_length_b   13.68410000
_cell_length_c   15.81440000
_cell_angle_alpha   104.74300000
_cell_angle_beta   90.00000000
_cell_angle_gamma   90.00000000
_symmetry_Int_Tables_number   1
_chemical_formula_structural   SrH14(CO)11
_chemical_formula_sum   'Sr4 H56 C44 O44'
_cell_volume   1409.38689222
_cell_formula_units_Z   4
loop_
 _symmetry_equiv_pos_site_id
 _symmetry_equiv_pos_as_xyz
  1  'x, y, z'
loop_
 _atom_site_type_symbol
 _atom_site_label
 _atom_site_symmetry_multiplicity
 _atom_site_fract_x
 _atom_site_fract_y
 _atom_site_fract_z
 _atom_site_occupancy
  Sr  Sr0  1  0.25869000  0.26175000  0.39837000  1.0
  Sr  Sr1  1  0.75868000  0.23825000  0.60163000  1.0
  Sr  Sr2  1  0.74131000  0.73824000  0.60163000  1.0
  Sr  Sr3  1  0.24131000  0.76175000  0.39837000  1.0
  H  H4  1  0.45626000  0.08968000  0.43924000  1.0
  H  H5  1  0.95625000  0.41032000  0.56076000  1.0
  H  H6  1  0.54375000  0.91032000  0.56076000  1.0
  H  H7  1  0.04375000  0.58968000  0.43924000  1.0
  H  H8  1  0.56606000  0.06636000  0.34673000  1.0
  H  H9  1  0.06605000  0.43364000  0.65327000  1.0
  H  H10  1  0.43395000  0.93364000  0.65327000  1.0
  H  H11  1  0.93395000  0.56636000  0.34673000  1.0
  H  H12  1  0.16571000  0.45489000  0.33333333  1.0
  H  H13  1  0.66571000  0.04510000  0.66666667  1.0
  H  H14  1  0.83429000  0.54510000  0.66666667  1.0
  H  H15  1  0.33430000  0.95489000  0.33333333  1.0
  H  H16  1  0.16759000  0.37989000  0.24103000  1.0
  H  H17  1  0.66759000  0.12011000  0.75897000  1.0
  H  H18  1  0.83242000  0.62011000  0.75897000  1.0
  H  H19  1  0.33243000  0.87989000  0.24103000  1.0
  H  H20  1  0.24336000  0.49439000  0.52365000  1.0
  H  H21  1  0.74337000  0.00561000  0.47635000  1.0
  H  H22  1  0.75664000  0.50561000  0.47635000  1.0
  H  H23  1  0.25663000  0.99439000  0.52365000  1.0
  H  H24  1  0.38427000  0.42159000  0.56102000  1.0
  H  H25  1  0.88427000  0.07841000  0.43898000  1.0
  H  H26  1  0.61573000  0.57841000  0.43898000  1.0
  H  H27  1  0.11572000  0.92159000  0.56102000  1.0
  H  H28  1  0.27028000  0.01911000  0.82959000  1.0
  H  H29  1  0.77028000  0.48089000  0.17040000  1.0
  H  H30  1  0.72973000  0.98089000  0.17040000  1.0
  H  H31  1  0.22972000  0.51912000  0.82960000  1.0
  H  H32  1  0.76227000  0.20094000  0.99875000  1.0
  H  H33  1  0.26227000  0.29906000  0.00124000  1.0
  H  H34  1  0.23773000  0.79907000  0.00124000  1.0
  H  H35  1  0.73772000  0.70094000  0.99876000  1.0
  H  H36  1  0.81467000  0.27175000  0.15792000  1.0
  H  H37  1  0.31468000  0.22826000  0.84208000  1.0
  H  H38  1  0.18533000  0.72826000  0.84208000  1.0
  H  H39  1  0.68532000  0.77174000  0.15792000  1.0
  H  H40  1  0.20456000  0.07526000  0.04937000  1.0
  H  H41  1  0.70456000  0.42473000  0.95062000  1.0
  H  H42  1  0.79543000  0.92473000  0.95062000  1.0
  H  H43  1  0.29543000  0.57526000  0.04938000  1.0
  H  H44  1  0.13286000  0.99974000  0.17442000  1.0
  H  H45  1  0.63287000  0.50026000  0.82557000  1.0
  H  H46  1  0.86714000  0.00025000  0.82557000  1.0
  H  H47  1  0.36714000  0.49974000  0.17443000  1.0
  H  H48  1  0.97995000  0.09640000  0.15066000  1.0
  H  H49  1  0.47994000  0.40360000  0.84935000  1.0
  H  H50  1  0.02006000  0.90360000  0.84934000  1.0
  H  H51  1  0.52005000  0.59640000  0.15066000  1.0
  H  H52  1  0.71193000  0.38228000  0.30420000  1.0
  H  H53  1  0.21193000  0.11773000  0.69579000  1.0
  H  H54  1  0.28807000  0.61772000  0.69579000  1.0
  H  H55  1  0.78807000  0.88227000  0.30421000  1.0
  H  H56  1  0.86585000  0.27348000  0.28392000  1.0
  H  H57  1  0.36585000  0.22653000  0.71607000  1.0
  H  H58  1  0.13416000  0.72652000  0.71607000  1.0
  H  H59  1  0.63415000  0.77347000  0.28393000  1.0
  C  C60  1  0.45348000  0.09556000  0.91956000  1.0
  C  C61  1  0.95349000  0.40443000  0.08044000  1.0
  C  C62  1  0.54651000  0.90444000  0.08044000  1.0
  C  C63  1  0.04651000  0.59557000  0.91957000  1.0
  C  C64  1  0.48148000  0.13390000  0.01507000  1.0
  C  C65  1  0.98149000  0.36611000  0.98493000  1.0
  C  C66  1  0.51851000  0.86611000  0.98493000  1.0
  C  C67  1  0.01851000  0.63389000  0.01507000  1.0
  C  C68  1  0.65258000  0.18886000  0.04562000  1.0
  C  C69  1  0.15258000  0.31114000  0.95438000  1.0
  C  C70  1  0.34743000  0.81114000  0.95438000  1.0
  C  C71  1  0.84742000  0.68886000  0.04562000  1.0
  C  C72  1  0.68155000  0.22814000  0.13503000  1.0
  C  C73  1  0.18154000  0.27187000  0.86497000  1.0
  C  C74  1  0.31845000  0.77187000  0.86497000  1.0
  C  C75  1  0.81845000  0.72813000  0.13503000  1.0
  C  C76  1  0.54005000  0.21205000  0.19453000  1.0
  C  C77  1  0.04006000  0.28795000  0.80546000  1.0
  C  C78  1  0.45995000  0.78795000  0.80547000  1.0
  C  C79  1  0.95994000  0.71205000  0.19454000  1.0
  C  C80  1  0.36462000  0.15699000  0.16380000  1.0
  C  C81  1  0.86462000  0.34301000  0.83619000  1.0
  C  C82  1  0.63538000  0.84301000  0.83619000  1.0
  C  C83  1  0.13538000  0.65698000  0.16381000  1.0
  C  C84  1  0.33708000  0.11810000  0.07463000  1.0
  C  C85  1  0.83707000  0.38189000  0.92537000  1.0
  C  C86  1  0.66292000  0.88190000  0.92537000  1.0
  C  C87  1  0.16291000  0.61810000  0.07463000  1.0
  C  C88  1  0.07219000  0.07625000  0.20118000  1.0
  C  C89  1  0.57219000  0.42374000  0.79882000  1.0
  C  C90  1  0.92781000  0.92375000  0.79882000  1.0
  C  C91  1  0.42781000  0.57625000  0.20118000  1.0
  C  C92  1  0.94187000  0.07584000  0.28016000  1.0
  C  C93  1  0.44187000  0.42416000  0.71984000  1.0
  C  C94  1  0.05813000  0.92416000  0.71984000  1.0
  C  C95  1  0.55813000  0.57584000  0.28016000  1.0
  C  C96  1  0.72882000  0.30692000  0.31643000  1.0
  C  C97  1  0.22882000  0.19308000  0.68357000  1.0
  C  C98  1  0.27118000  0.69308000  0.68357000  1.0
  C  C99  1  0.77118000  0.80692000  0.31643000  1.0
  C  C100  1  0.75362000  0.31667000  0.41378000  1.0
  C  C101  1  0.25362000  0.18333000  0.58621000  1.0
  C  C102  1  0.24638000  0.68333000  0.58621000  1.0
  C  C103  1  0.74638000  0.81667000  0.41379000  1.0
  O  O104  1  0.23131000  0.14742000  0.22726000  1.0
  O  O105  1  0.73131000  0.35258000  0.77274000  1.0
  O  O106  1  0.76870000  0.85258000  0.77274000  1.0
  O  O107  1  0.26869000  0.64742000  0.22726000  1.0
  O  O108  1  0.43443000  0.07402000  0.37509000  1.0
  O  O109  1  0.93442000  0.42598000  0.62491000  1.0
  O  O110  1  0.56557000  0.92598000  0.62492000  1.0
  O  O111  1  0.06558000  0.57402000  0.37509000  1.0
  O  O112  1  0.99434000  0.12560000  0.35536000  1.0
  O  O113  1  0.49432000  0.37440000  0.64464000  1.0
  O  O114  1  0.00567000  0.87440000  0.64464000  1.0
  O  O115  1  0.50567000  0.62559000  0.35536000  1.0
  O  O116  1  0.21488000  0.38679000  0.30110000  1.0
  O  O117  1  0.71488000  0.11321000  0.69889000  1.0
  O  O118  1  0.78512000  0.61321000  0.69890000  1.0
  O  O119  1  0.28513000  0.88679000  0.30110000  1.0
  O  O120  1  0.78218000  0.02410000  0.26472000  1.0
  O  O121  1  0.28217000  0.47590000  0.73528000  1.0
  O  O122  1  0.21782000  0.97590000  0.73528000  1.0
  O  O123  1  0.71783000  0.52410000  0.26472000  1.0
  O  O124  1  0.31533000  0.43048000  0.50801000  1.0
  O  O125  1  0.81533000  0.06952000  0.49199000  1.0
  O  O126  1  0.68466000  0.56952000  0.49200000  1.0
  O  O127  1  0.18465000  0.93048000  0.50800000  1.0
  O  O128  1  0.28718000  0.04372000  0.89719000  1.0
  O  O129  1  0.78718000  0.45628000  0.10280000  1.0
  O  O130  1  0.71282000  0.95628000  0.10280000  1.0
  O  O131  1  0.21282000  0.54372000  0.89720000  1.0
  O  O132  1  0.57488000  0.11315000  0.86591000  1.0
  O  O133  1  0.07487000  0.38684000  0.13408000  1.0
  O  O134  1  0.42513000  0.88685000  0.13408000  1.0
  O  O135  1  0.92513000  0.61316000  0.86592000  1.0
  O  O136  1  0.56001000  0.24485000  0.28319000  1.0
  O  O137  1  0.06001000  0.25515000  0.71681000  1.0
  O  O138  1  0.43999000  0.75515000  0.71681000  1.0
  O  O139  1  0.93999000  0.74485000  0.28319000  1.0
  O  O140  1  0.62618000  0.27931000  0.45510000  1.0
  O  O141  1  0.12618000  0.22069000  0.54489000  1.0
  O  O142  1  0.37382000  0.72070000  0.54490000  1.0
  O  O143  1  0.87382000  0.77930000  0.45511000  1.0
  O  O144  1  0.90959000  0.36446000  0.44658000  1.0
  O  O145  1  0.40960000  0.13555000  0.55342000  1.0
  O  O146  1  0.09040000  0.63554000  0.55342000  1.0
  O  O147  1  0.59040000  0.86446000  0.44658000  1.0
