# generated using pymatgen
data_NaH9C8SO5
_symmetry_space_group_name_H-M   'P 1'
_cell_length_a   6.07461000
_cell_length_b   9.80035000
_cell_length_c   16.60910000
_cell_angle_alpha   79.36100000
_cell_angle_beta   89.99990000
_cell_angle_gamma   89.99970000
_symmetry_Int_Tables_number   1
_chemical_formula_structural   NaH9C8SO5
_chemical_formula_sum   'Na4 H36 C32 S4 O20'
_cell_volume   971.79713289
_cell_formula_units_Z   4
loop_
 _symmetry_equiv_pos_site_id
 _symmetry_equiv_pos_as_xyz
  1  'x, y, z'
loop_
 _atom_site_type_symbol
 _atom_site_label
 _atom_site_symmetry_multiplicity
 _atom_site_fract_x
 _atom_site_fract_y
 _atom_site_fract_z
 _atom_site_occupancy
  Na  Na0  1  0.67179000  0.37037000  0.45882000  1.0
  Na  Na1  1  0.17179000  0.12962000  0.54118000  1.0
  Na  Na2  1  0.32821000  0.62963000  0.54118000  1.0
  Na  Na3  1  0.82820000  0.87037000  0.45882000  1.0
  H  H4  1  0.47551000  0.20723000  0.34758000  1.0
  H  H5  1  0.97552000  0.29277000  0.65242000  1.0
  H  H6  1  0.52449000  0.79277000  0.65242000  1.0
  H  H7  1  0.02448000  0.70723000  0.34758000  1.0
  H  H8  1  0.19177000  0.31775000  0.28223000  1.0
  H  H9  1  0.69177000  0.18226000  0.71777000  1.0
  H  H10  1  0.80824000  0.68226000  0.71777000  1.0
  H  H11  1  0.30822000  0.81774000  0.28223000  1.0
  H  H12  1  0.67140000  0.55042000  0.30728000  1.0
  H  H13  1  0.17140000  0.94958000  0.69271000  1.0
  H  H14  1  0.32860000  0.44959000  0.69272000  1.0
  H  H15  1  0.82860000  0.05041000  0.30728000  1.0
  H  H16  1  0.77899000  0.75202000  0.20625000  1.0
  H  H17  1  0.27899000  0.74798000  0.79375000  1.0
  H  H18  1  0.22101000  0.24799000  0.79375000  1.0
  H  H19  1  0.72101000  0.25202000  0.20625000  1.0
  H  H20  1  0.19226000  0.70619000  0.06616000  1.0
  H  H21  1  0.69226000  0.79382000  0.93384000  1.0
  H  H22  1  0.80774000  0.29382000  0.93384000  1.0
  H  H23  1  0.30773000  0.20618000  0.06616000  1.0
  H  H24  1  0.08227000  0.50371000  0.17093000  1.0
  H  H25  1  0.58227000  0.99630000  0.82906000  1.0
  H  H26  1  0.91773000  0.49630000  0.82907000  1.0
  H  H27  1  0.41774000  0.00370000  0.17093000  1.0
  H  H28  1  0.75471000  0.00294000  0.01730000  1.0
  H  H29  1  0.25471000  0.49706000  0.98270000  1.0
  H  H30  1  0.24530000  0.99706000  0.98270000  1.0
  H  H31  1  0.74529000  0.50295000  0.01730000  1.0
  H  H32  1  0.89009000  0.84992000  0.07182000  1.0
  H  H33  1  0.39010000  0.65009000  0.92818000  1.0
  H  H34  1  0.10990000  0.15009000  0.92818000  1.0
  H  H35  1  0.60990000  0.34992000  0.07182000  1.0
  H  H36  1  0.75627000  0.96701000  0.12718000  1.0
  H  H37  1  0.25627000  0.53298000  0.87282000  1.0
  H  H38  1  0.24374000  0.03299000  0.87282000  1.0
  H  H39  1  0.74373000  0.46701000  0.12718000  1.0
  C  C40  1  0.30883000  0.38372000  0.30815000  1.0
  C  C41  1  0.80883000  0.11628000  0.69185000  1.0
  C  C42  1  0.69117000  0.61628000  0.69185000  1.0
  C  C43  1  0.19116000  0.88372000  0.30815000  1.0
  C  C44  1  0.36941000  0.51098000  0.24664000  1.0
  C  C45  1  0.86941000  0.98901000  0.75335000  1.0
  C  C46  1  0.63059000  0.48902000  0.75336000  1.0
  C  C47  1  0.13059000  0.01098000  0.24664000  1.0
  C  C48  1  0.56288000  0.58392000  0.25544000  1.0
  C  C49  1  0.06289000  0.91608000  0.74455000  1.0
  C  C50  1  0.43712000  0.41609000  0.74456000  1.0
  C  C51  1  0.93711000  0.08392000  0.25544000  1.0
  C  C52  1  0.62644000  0.69870000  0.19711000  1.0
  C  C53  1  0.12644000  0.80130000  0.80289000  1.0
  C  C54  1  0.37355000  0.30131000  0.80289000  1.0
  C  C55  1  0.87356000  0.19870000  0.19711000  1.0
  C  C56  1  0.49374000  0.74181000  0.12808000  1.0
  C  C57  1  0.99375000  0.75820000  0.87192000  1.0
  C  C58  1  0.50625000  0.25820000  0.87192000  1.0
  C  C59  1  0.00625000  0.24180000  0.12808000  1.0
  C  C60  1  0.29527000  0.67205000  0.11980000  1.0
  C  C61  1  0.79528000  0.82795000  0.88020000  1.0
  C  C62  1  0.70473000  0.32796000  0.88020000  1.0
  C  C63  1  0.20473000  0.17205000  0.11980000  1.0
  C  C64  1  0.23497000  0.55806000  0.17856000  1.0
  C  C65  1  0.73496000  0.94194000  0.82144000  1.0
  C  C66  1  0.76503000  0.44195000  0.82144000  1.0
  C  C67  1  0.26503000  0.05805000  0.17856000  1.0
  C  C68  1  0.74942000  0.92076000  0.07170000  1.0
  C  C69  1  0.24942000  0.57924000  0.92831000  1.0
  C  C70  1  0.25059000  0.07924000  0.92830000  1.0
  C  C71  1  0.75058000  0.42075000  0.07170000  1.0
  S  S72  1  0.15612000  0.43392000  0.39549000  1.0
  S  S73  1  0.65612000  0.06608000  0.60451000  1.0
  S  S74  1  0.84388000  0.56608000  0.60451000  1.0
  S  S75  1  0.34388000  0.93392000  0.39549000  1.0
  O  O76  1  0.32560000  0.48823000  0.44430000  1.0
  O  O77  1  0.82559000  0.01177000  0.55570000  1.0
  O  O78  1  0.67440000  0.51177000  0.55570000  1.0
  O  O79  1  0.17441000  0.98823000  0.44430000  1.0
  O  O80  1  0.04685000  0.30781000  0.44024000  1.0
  O  O81  1  0.54685000  0.19219000  0.55976000  1.0
  O  O82  1  0.95316000  0.69219000  0.55976000  1.0
  O  O83  1  0.45315000  0.80780000  0.44024000  1.0
  O  O84  1  0.99031000  0.53918000  0.36105000  1.0
  O  O85  1  0.49030000  0.96082000  0.63895000  1.0
  O  O86  1  0.00969000  0.46082000  0.63894000  1.0
  O  O87  1  0.50969000  0.03917000  0.36105000  1.0
  O  O88  1  0.54484000  0.84949000  0.06588000  1.0
  O  O89  1  0.04484000  0.65051000  0.93412000  1.0
  O  O90  1  0.45517000  0.15052000  0.93412000  1.0
  O  O91  1  0.95517000  0.34949000  0.06588000  1.0
  O  O92  1  0.49680000  0.31001000  0.34142000  1.0
  O  O93  1  0.99681000  0.18999000  0.65858000  1.0
  O  O94  1  0.50321000  0.69000000  0.65858000  1.0
  O  O95  1  0.00319000  0.81001000  0.34142000  1.0
