# generated using pymatgen
data_AgPH16C19SN(OF)3
_symmetry_space_group_name_H-M   'P 1'
_cell_length_a   8.57790000
_cell_length_b   11.09070000
_cell_length_c   11.31140000
_cell_angle_alpha   88.01110000
_cell_angle_beta   83.81440000
_cell_angle_gamma   70.16570000
_symmetry_Int_Tables_number   1
_chemical_formula_structural   AgPH16C19SN(OF)3
_chemical_formula_sum   'Ag2 P2 H32 C38 S2 N2 O6 F6'
_cell_volume   1006.37659466
_cell_formula_units_Z   2
loop_
 _symmetry_equiv_pos_site_id
 _symmetry_equiv_pos_as_xyz
  1  'x, y, z'
loop_
 _atom_site_type_symbol
 _atom_site_label
 _atom_site_symmetry_multiplicity
 _atom_site_fract_x
 _atom_site_fract_y
 _atom_site_fract_z
 _atom_site_occupancy
  Ag  Ag0  1  0.28432000  0.55906000  0.59812000  1.0
  Ag  Ag1  1  0.71568000  0.44093000  0.40188000  1.0
  P  P2  1  0.16583000  0.76069000  0.68538000  1.0
  P  P3  1  0.83418000  0.23931000  0.31462000  1.0
  H  H4  1  0.92404000  0.94483000  0.64041000  1.0
  H  H5  1  0.07596000  0.05516000  0.35959000  1.0
  H  H6  1  0.07569000  0.89092000  0.51340000  1.0
  H  H7  1  0.92431000  0.10908000  0.48660000  1.0
  H  H8  1  0.04326000  0.75982000  0.36820000  1.0
  H  H9  1  0.95674000  0.24017000  0.63180000  1.0
  H  H10  1  0.91233000  0.60754000  0.30358000  1.0
  H  H11  1  0.08768000  0.39245000  0.69642000  1.0
  H  H12  1  0.64912000  0.61750000  0.63457000  1.0
  H  H13  1  0.35088000  0.38249000  0.36543000  1.0
  H  H14  1  0.76395000  0.77391000  0.71124000  1.0
  H  H15  1  0.23605000  0.22609000  0.28876000  1.0
  H  H16  1  0.06537000  0.56693000  0.82255000  1.0
  H  H17  1  0.93463000  0.43308000  0.17745000  1.0
  H  H18  1  0.86763000  0.58051000  0.00492000  1.0
  H  H19  1  0.13236000  0.41950000  0.99508000  1.0
  H  H20  1  0.73900000  0.78573000  0.11484000  1.0
  H  H21  1  0.26099000  0.21429000  0.88515000  1.0
  H  H22  1  0.80097000  0.98068000  0.03978000  1.0
  H  H23  1  0.19903000  0.01933000  0.96021000  1.0
  H  H24  1  0.98859000  0.96997000  0.85519000  1.0
  H  H25  1  0.01141000  0.03003000  0.14481000  1.0
  H  H26  1  0.24577000  0.98133000  0.55900000  1.0
  H  H27  1  0.75422000  0.01867000  0.44101000  1.0
  H  H28  1  0.42600000  0.10130000  0.60849000  1.0
  H  H29  1  0.57400000  0.89870000  0.39150000  1.0
  H  H30  1  0.57952000  0.04554000  0.78696000  1.0
  H  H31  1  0.42048000  0.95446000  0.21303000  1.0
  H  H32  1  0.55497000  0.86425000  0.91728000  1.0
  H  H33  1  0.44504000  0.13576000  0.08272000  1.0
  H  H34  1  0.37440000  0.74390000  0.86924000  1.0
  H  H35  1  0.62561000  0.25610000  0.13076000  1.0
  C  C36  1  0.00728000  0.86053000  0.58949000  1.0
  C  C37  1  0.99272000  0.13947000  0.41051000  1.0
  C  C38  1  0.91690000  0.77858000  0.54623000  1.0
  C  C39  1  0.08310000  0.22142000  0.45377000  1.0
  C  C40  1  0.95550000  0.73124000  0.42967000  1.0
  C  C41  1  0.04450000  0.26876000  0.57033000  1.0
  C  C42  1  0.88394000  0.64548000  0.39382000  1.0
  C  C43  1  0.11606000  0.35452000  0.60618000  1.0
  C  C44  1  0.73635000  0.65195000  0.57806000  1.0
  C  C45  1  0.26365000  0.34805000  0.42194000  1.0
  C  C46  1  0.80155000  0.73923000  0.62040000  1.0
  C  C47  1  0.19845000  0.26076000  0.37960000  1.0
  C  C48  1  0.04013000  0.76692000  0.82725000  1.0
  C  C49  1  0.95987000  0.23308000  0.17275000  1.0
  C  C50  1  0.00649000  0.65744000  0.87063000  1.0
  C  C51  1  0.99350000  0.34256000  0.12937000  1.0
  C  C52  1  0.89729000  0.66491000  0.97334000  1.0
  C  C53  1  0.10270000  0.33510000  0.02666000  1.0
  C  C54  1  0.82453000  0.78066000  0.03503000  1.0
  C  C55  1  0.17546000  0.21935000  0.96497000  1.0
  C  C56  1  0.85917000  0.88985000  0.99263000  1.0
  C  C57  1  0.14083000  0.11015000  0.00736000  1.0
  C  C58  1  0.96502000  0.88364000  0.88878000  1.0
  C  C59  1  0.03498000  0.11637000  0.11122000  1.0
  C  C60  1  0.29453000  0.85584000  0.71235000  1.0
  C  C61  1  0.70546000  0.14416000  0.28766000  1.0
  C  C62  1  0.31200000  0.95528000  0.63808000  1.0
  C  C63  1  0.68800000  0.04472000  0.36192000  1.0
  C  C64  1  0.41461000  0.02284000  0.66549000  1.0
  C  C65  1  0.58539000  0.97716000  0.33451000  1.0
  C  C66  1  0.50083000  0.99154000  0.76630000  1.0
  C  C67  1  0.49917000  0.00846000  0.23369000  1.0
  C  C68  1  0.48667000  0.89041000  0.83906000  1.0
  C  C69  1  0.51333000  0.10960000  0.16094000  1.0
  C  C70  1  0.38515000  0.82234000  0.81202000  1.0
  C  C71  1  0.61486000  0.17767000  0.18798000  1.0
  C  C72  1  0.66333000  0.37946000  0.83597000  1.0
  C  C73  1  0.33667000  0.62054000  0.16403000  1.0
  S  S74  1  0.58877000  0.31651000  0.70996000  1.0
  S  S75  1  0.41123000  0.68349000  0.29004000  1.0
  N  N76  1  0.77817000  0.60391000  0.46689000  1.0
  N  N77  1  0.22183000  0.39609000  0.53311000  1.0
  O  O78  1  0.58081000  0.41609000  0.61839000  1.0
  O  O79  1  0.41919000  0.58391000  0.38161000  1.0
  O  O80  1  0.71776000  0.19345000  0.68074000  1.0
  O  O81  1  0.28224000  0.80655000  0.31926000  1.0
  O  O82  1  0.42743000  0.31245000  0.76019000  1.0
  O  O83  1  0.57257000  0.68754000  0.23981000  1.0
  F  F84  1  0.81262000  0.39592000  0.80471000  1.0
  F  F85  1  0.18739000  0.60407000  0.19530000  1.0
  F  F86  1  0.68216000  0.29713000  0.92930000  1.0
  F  F87  1  0.31783000  0.70287000  0.07070000  1.0
  F  F88  1  0.55231000  0.49483000  0.87292000  1.0
  F  F89  1  0.44769000  0.50517000  0.12708000  1.0
