# generated using pymatgen
data_V4ZnH4C4(NO5)2
_symmetry_space_group_name_H-M   'P 1'
_cell_length_a   6.96680000
_cell_length_b   7.98834498
_cell_length_c   11.56250000
_cell_angle_alpha   90.00002559
_cell_angle_beta   90.00020000
_cell_angle_gamma   115.84597211
_symmetry_Int_Tables_number   1
_chemical_formula_structural   V4ZnH4C4(NO5)2
_chemical_formula_sum   'V8 Zn2 H8 C8 N4 O20'
_cell_volume   579.12135556
_cell_formula_units_Z   2
loop_
 _symmetry_equiv_pos_site_id
 _symmetry_equiv_pos_as_xyz
  1  'x, y, z'
loop_
 _atom_site_type_symbol
 _atom_site_label
 _atom_site_symmetry_multiplicity
 _atom_site_fract_x
 _atom_site_fract_y
 _atom_site_fract_z
 _atom_site_occupancy
  V  V0  1  0.15227000  0.57608000  0.60418000  1.0
  V  V1  1  0.42373000  0.57611000  0.39584000  1.0
  V  V2  1  0.57627000  0.42390000  0.89584000  1.0
  V  V3  1  0.84773000  0.42392000  0.10417000  1.0
  V  V4  1  0.84772000  0.42391000  0.39582000  1.0
  V  V5  1  0.57627000  0.42389000  0.60416000  1.0
  V  V6  1  0.42374000  0.57611000  0.10416000  1.0
  V  V7  1  0.15228000  0.57609000  0.89583000  1.0
  Zn  Zn8  1  0.32221000  0.00001000  0.75000000  1.0
  Zn  Zn9  1  0.67779000  0.99999000  0.25000000  1.0
  H  H10  1  0.00770000  0.00009000  0.92717000  1.0
  H  H11  1  0.99230000  0.99991000  0.07283000  1.0
  H  H12  1  0.00770000  0.00009000  0.57283000  1.0
  H  H13  1  0.99230000  0.99991000  0.42717000  1.0
  H  H14  1  0.64102000  0.00000000  0.93042000  1.0
  H  H15  1  0.35899000  0.00000000  0.06957000  1.0
  H  H16  1  0.64102000  0.00000000  0.56957000  1.0
  H  H17  1  0.35898000  0.99999000  0.43043000  1.0
  C  C18  1  0.92167000  0.00009000  0.84916000  1.0
  C  C19  1  0.07833000  0.99990000  0.15084000  1.0
  C  C20  1  0.92167000  0.00009000  0.65084000  1.0
  C  C21  1  0.07833000  0.99990000  0.34916000  1.0
  C  C22  1  0.72219000  0.00001000  0.84997000  1.0
  C  C23  1  0.27782000  0.99999000  0.15003000  1.0
  C  C24  1  0.72219000  0.00001000  0.65002000  1.0
  C  C25  1  0.27782000  0.99999000  0.34998000  1.0
  N  N26  1  0.01964000  0.00011000  0.75000000  1.0
  N  N27  1  0.98036000  0.99989000  0.25000000  1.0
  N  N28  1  0.62467000  0.99998000  0.75000000  1.0
  N  N29  1  0.37532000  0.00001000  0.25000000  1.0
  O  O30  1  0.14340000  0.54597000  0.43058000  1.0
  O  O31  1  0.40237000  0.54579000  0.56942000  1.0
  O  O32  1  0.59761000  0.45419000  0.06942000  1.0
  O  O33  1  0.85660000  0.45405000  0.93058000  1.0
  O  O34  1  0.85659000  0.45401000  0.56942000  1.0
  O  O35  1  0.59763000  0.45421000  0.43058000  1.0
  O  O36  1  0.40239000  0.54582000  0.93058000  1.0
  O  O37  1  0.14341000  0.54598000  0.06942000  1.0
  O  O38  1  0.22098000  0.79993000  0.61910000  1.0
  O  O39  1  0.57895000  0.79993000  0.38096000  1.0
  O  O40  1  0.42104000  0.20008000  0.88095000  1.0
  O  O41  1  0.77902000  0.20006000  0.11910000  1.0
  O  O42  1  0.77900000  0.20006000  0.38089000  1.0
  O  O43  1  0.42105000  0.20007000  0.61905000  1.0
  O  O44  1  0.57896000  0.79992000  0.11905000  1.0
  O  O45  1  0.22099000  0.79994000  0.88090000  1.0
  O  O46  1  0.12630000  0.49162000  0.75000000  1.0
  O  O47  1  0.36511000  0.49167000  0.25000000  1.0
  O  O48  1  0.63489000  0.50834000  0.75000000  1.0
  O  O49  1  0.87370000  0.50838000  0.25000000  1.0
