# generated using pymatgen
data_SrH5C7NO5
_symmetry_space_group_name_H-M   'P 1'
_cell_length_a   6.46127000
_cell_length_b   7.18866000
_cell_length_c   18.58610000
_cell_angle_alpha   89.99980000
_cell_angle_beta   90.00030000
_cell_angle_gamma   89.99950000
_symmetry_Int_Tables_number   1
_chemical_formula_structural   SrH5C7NO5
_chemical_formula_sum   'Sr4 H20 C28 N4 O20'
_cell_volume   863.28481600
_cell_formula_units_Z   4
loop_
 _symmetry_equiv_pos_site_id
 _symmetry_equiv_pos_as_xyz
  1  'x, y, z'
loop_
 _atom_site_type_symbol
 _atom_site_label
 _atom_site_symmetry_multiplicity
 _atom_site_fract_x
 _atom_site_fract_y
 _atom_site_fract_z
 _atom_site_occupancy
  Sr  Sr0  1  0.56075000  0.53098000  0.69305000  1.0
  Sr  Sr1  1  0.93926000  0.46902000  0.19305000  1.0
  Sr  Sr2  1  0.43924000  0.03099000  0.80694000  1.0
  Sr  Sr3  1  0.06075000  0.96902000  0.30695000  1.0
  H  H4  1  0.94013000  0.57291000  0.47660000  1.0
  H  H5  1  0.55987000  0.42709000  0.97660000  1.0
  H  H6  1  0.05986000  0.07292000  0.02340000  1.0
  H  H7  1  0.44013000  0.92708000  0.52340000  1.0
  H  H8  1  0.52310000  0.39009000  0.38671000  1.0
  H  H9  1  0.97690000  0.60990000  0.88670000  1.0
  H  H10  1  0.47690000  0.89010000  0.11330000  1.0
  H  H11  1  0.02310000  0.10989000  0.61330000  1.0
  H  H12  1  0.88754000  0.33522000  0.78869000  1.0
  H  H13  1  0.61247000  0.66477000  0.28869000  1.0
  H  H14  1  0.11247000  0.83523000  0.71131000  1.0
  H  H15  1  0.38753000  0.16478000  0.21131000  1.0
  H  H16  1  0.00010000  0.49663000  0.74379000  1.0
  H  H17  1  0.49991000  0.50337000  0.24379000  1.0
  H  H18  1  0.99990000  0.99662000  0.75621000  1.0
  H  H19  1  0.50009000  0.00337000  0.25621000  1.0
  H  H20  1  0.67016000  0.40890000  0.51211000  1.0
  H  H21  1  0.82985000  0.59110000  0.01210000  1.0
  H  H22  1  0.32983000  0.90890000  0.98790000  1.0
  H  H23  1  0.17016000  0.09109000  0.48789000  1.0
  C  C24  1  0.19395000  0.52982000  0.54943000  1.0
  C  C25  1  0.30606000  0.47019000  0.04942000  1.0
  C  C26  1  0.80604000  0.02982000  0.95058000  1.0
  C  C27  1  0.69395000  0.97019000  0.45057000  1.0
  C  C28  1  0.10185000  0.53243000  0.48145000  1.0
  C  C29  1  0.39815000  0.46757000  0.98144000  1.0
  C  C30  1  0.89814000  0.03244000  0.01855000  1.0
  C  C31  1  0.60185000  0.96756000  0.51855000  1.0
  C  C32  1  0.21917000  0.48022000  0.42164000  1.0
  C  C33  1  0.28083000  0.51978000  0.92163000  1.0
  C  C34  1  0.78083000  0.98023000  0.07837000  1.0
  C  C35  1  0.71917000  0.01977000  0.57836000  1.0
  C  C36  1  0.42633000  0.43027000  0.43215000  1.0
  C  C37  1  0.07367000  0.56973000  0.93214000  1.0
  C  C38  1  0.57367000  0.93027000  0.06786000  1.0
  C  C39  1  0.92633000  0.06972000  0.56786000  1.0
  C  C40  1  0.50789000  0.44059000  0.50144000  1.0
  C  C41  1  0.99211000  0.55941000  0.00143000  1.0
  C  C42  1  0.49210000  0.94060000  0.99857000  1.0
  C  C43  1  0.00790000  0.05940000  0.49857000  1.0
  C  C44  1  0.06581000  0.56500000  0.61636000  1.0
  C  C45  1  0.43420000  0.43501000  0.11635000  1.0
  C  C46  1  0.93419000  0.06498000  0.88365000  1.0
  C  C47  1  0.56580000  0.93501000  0.38364000  1.0
  C  C48  1  0.12431000  0.47272000  0.34774000  1.0
  C  C49  1  0.37569000  0.52728000  0.84773000  1.0
  C  C50  1  0.87570000  0.97274000  0.15226000  1.0
  C  C51  1  0.62430000  0.02729000  0.65226000  1.0
  N  N52  1  0.39543000  0.48872000  0.55929000  1.0
  N  N53  1  0.10457000  0.51128000  0.05928000  1.0
  N  N54  1  0.60455000  0.98872000  0.94072000  1.0
  N  N55  1  0.89544000  0.01127000  0.44072000  1.0
  O  O56  1  0.16413000  0.58645000  0.67610000  1.0
  O  O57  1  0.33588000  0.41355000  0.17610000  1.0
  O  O58  1  0.83587000  0.08644000  0.82390000  1.0
  O  O59  1  0.66413000  0.91355000  0.32390000  1.0
  O  O60  1  0.87223000  0.56629000  0.60956000  1.0
  O  O61  1  0.62776000  0.43374000  0.10955000  1.0
  O  O62  1  0.12775000  0.06625000  0.89045000  1.0
  O  O63  1  0.37225000  0.93373000  0.39045000  1.0
  O  O64  1  0.08208000  0.62441000  0.31604000  1.0
  O  O65  1  0.41791000  0.37559000  0.81603000  1.0
  O  O66  1  0.91792000  0.12441000  0.18397000  1.0
  O  O67  1  0.58207000  0.87560000  0.68397000  1.0
  O  O68  1  0.09126000  0.31451000  0.32006000  1.0
  O  O69  1  0.40876000  0.68549000  0.82006000  1.0
  O  O70  1  0.90875000  0.81452000  0.17994000  1.0
  O  O71  1  0.59126000  0.18549000  0.67994000  1.0
  O  O72  1  0.87938000  0.46727000  0.77495000  1.0
  O  O73  1  0.62062000  0.53272000  0.27495000  1.0
  O  O74  1  0.12061000  0.96727000  0.72505000  1.0
  O  O75  1  0.37938000  0.03273000  0.22505000  1.0
