# generated using pymatgen
data_CdH11C14SN3O
_symmetry_space_group_name_H-M   'P 1'
_cell_length_a   11.11800000
_cell_length_b   11.26150000
_cell_length_c   12.89340000
_cell_angle_alpha   108.00700000
_cell_angle_beta   115.50300000
_cell_angle_gamma   90.04150000
_symmetry_Int_Tables_number   1
_chemical_formula_structural   CdH11C14SN3O
_chemical_formula_sum   'Cd4 H44 C56 S4 N12 O4'
_cell_volume   1368.71612661
_cell_formula_units_Z   4
loop_
 _symmetry_equiv_pos_site_id
 _symmetry_equiv_pos_as_xyz
  1  'x, y, z'
loop_
 _atom_site_type_symbol
 _atom_site_label
 _atom_site_symmetry_multiplicity
 _atom_site_fract_x
 _atom_site_fract_y
 _atom_site_fract_z
 _atom_site_occupancy
  Cd  Cd0  1  0.66662000  0.51071000  0.61281000  1.0
  Cd  Cd1  1  0.05399000  0.98957000  0.38735000  1.0
  Cd  Cd2  1  0.33333333  0.48929000  0.38719000  1.0
  Cd  Cd3  1  0.94601000  0.01044000  0.61265000  1.0
  H  H4  1  0.48802000  0.37881000  0.18120000  1.0
  H  H5  1  0.30667000  0.12128000  0.81895000  1.0
  H  H6  1  0.51199000  0.62119000  0.81881000  1.0
  H  H7  1  0.69332000  0.87872000  0.18105000  1.0
  H  H8  1  0.49474000  0.17319000  0.04016000  1.0
  H  H9  1  0.45421000  0.32695000  0.96019000  1.0
  H  H10  1  0.50527000  0.82681000  0.95985000  1.0
  H  H11  1  0.54578000  0.67305000  0.03980000  1.0
  H  H12  1  0.55352000  0.99042000  0.11321000  1.0
  H  H13  1  0.44014000  0.50986000  0.88727000  1.0
  H  H14  1  0.44649000  0.00958000  0.88679000  1.0
  H  H15  1  0.55986000  0.49014000  0.11273000  1.0
  H  H16  1  0.60195000  0.01522000  0.32653000  1.0
  H  H17  1  0.27581000  0.48506000  0.67391000  1.0
  H  H18  1  0.39805000  0.98478000  0.67347000  1.0
  H  H19  1  0.72419000  0.51494000  0.32609000  1.0
  H  H20  1  0.59689000  0.11441000  0.50178000  1.0
  H  H21  1  0.09567000  0.38594000  0.49861000  1.0
  H  H22  1  0.40310000  0.88558000  0.49822000  1.0
  H  H23  1  0.90433000  0.61406000  0.50139000  1.0
  H  H24  1  0.62456000  0.18635000  0.68964000  1.0
  H  H25  1  0.93527000  0.31402000  0.31067000  1.0
  H  H26  1  0.37544000  0.81365000  0.31036000  1.0
  H  H27  1  0.06472000  0.68598000  0.68932000  1.0
  H  H28  1  0.49443000  0.28006000  0.68022000  1.0
  H  H29  1  0.81467000  0.21998000  0.32005000  1.0
  H  H30  1  0.50557000  0.71994000  0.31978000  1.0
  H  H31  1  0.18533000  0.78001000  0.67995000  1.0
  H  H32  1  0.68643000  0.26976000  0.91459000  1.0
  H  H33  1  0.77292000  0.23086000  0.08587000  1.0
  H  H34  1  0.31356000  0.73023000  0.08540000  1.0
  H  H35  1  0.22709000  0.76914000  0.91414000  1.0
  H  H36  1  0.84392000  0.43842000  0.11476000  1.0
  H  H37  1  0.72965000  0.06212000  0.88553000  1.0
  H  H38  1  0.15607000  0.56158000  0.88524000  1.0
  H  H39  1  0.27035000  0.93788000  0.11447000  1.0
  H  H40  1  0.93136000  0.63929000  0.10957000  1.0
  H  H41  1  0.82179000  0.86116000  0.89052000  1.0
  H  H42  1  0.06864000  0.36071000  0.89043000  1.0
  H  H43  1  0.17821000  0.13884000  0.10948000  1.0
  H  H44  1  0.85786000  0.66472000  0.90383000  1.0
  H  H45  1  0.95402000  0.83564000  0.09615000  1.0
  H  H46  1  0.14214000  0.33528000  0.09617000  1.0
  H  H47  1  0.04597000  0.16436000  0.90384000  1.0
  C  C48  1  0.54663000  0.31796000  0.33570000  1.0
  C  C49  1  0.21086000  0.18227000  0.66458000  1.0
  C  C50  1  0.45338000  0.68203000  0.66430000  1.0
  C  C51  1  0.78914000  0.81773000  0.33542000  1.0
  C  C52  1  0.51596000  0.29881000  0.21229000  1.0
  C  C53  1  0.30346000  0.20141000  0.78801000  1.0
  C  C54  1  0.48405000  0.70120000  0.78772000  1.0
  C  C55  1  0.69654000  0.79859000  0.21199000  1.0
  C  C56  1  0.51882000  0.18370000  0.13429000  1.0
  C  C57  1  0.38420000  0.31653000  0.86612000  1.0
  C  C58  1  0.48119000  0.81630000  0.86572000  1.0
  C  C59  1  0.61580000  0.68348000  0.13388000  1.0
  C  C60  1  0.55163000  0.08065000  0.17504000  1.0
  C  C61  1  0.37635000  0.41965000  0.82543000  1.0
  C  C62  1  0.44837000  0.91935000  0.82496000  1.0
  C  C63  1  0.62365000  0.58035000  0.17457000  1.0
  C  C64  1  0.57839000  0.09511000  0.29399000  1.0
  C  C65  1  0.28452000  0.40518000  0.70645000  1.0
  C  C66  1  0.42161000  0.90489000  0.70601000  1.0
  C  C67  1  0.71547000  0.59482000  0.29355000  1.0
  C  C68  1  0.57590000  0.21114000  0.37614000  1.0
  C  C69  1  0.19984000  0.28913000  0.62423000  1.0
  C  C70  1  0.42411000  0.78886000  0.62386000  1.0
  C  C71  1  0.80016000  0.71087000  0.37577000  1.0
  C  C72  1  0.59092000  0.20873000  0.49267000  1.0
  C  C73  1  0.09863000  0.29158000  0.50768000  1.0
  C  C74  1  0.40909000  0.79126000  0.50734000  1.0
  C  C75  1  0.90137000  0.70842000  0.49232000  1.0
  C  C76  1  0.59709000  0.28008000  0.68692000  1.0
  C  C77  1  0.91067000  0.22023000  0.31339000  1.0
  C  C78  1  0.40290000  0.71992000  0.31309000  1.0
  C  C79  1  0.08933000  0.77977000  0.68660000  1.0
  C  C80  1  0.69145000  0.38039000  0.80712000  1.0
  C  C81  1  0.88492000  0.12005000  0.19316000  1.0
  C  C82  1  0.30855000  0.61961000  0.19288000  1.0
  C  C83  1  0.11507000  0.87995000  0.80684000  1.0
  C  C84  1  0.72750000  0.35916000  0.91737000  1.0
  C  C85  1  0.81084000  0.14137000  0.08295000  1.0
  C  C86  1  0.27249000  0.64084000  0.08263000  1.0
  C  C87  1  0.18916000  0.85863000  0.91705000  1.0
  C  C88  1  0.81367000  0.45207000  0.02731000  1.0
  C  C89  1  0.78677000  0.04845000  0.97295000  1.0
  C  C90  1  0.18633000  0.54792000  0.97268000  1.0
  C  C91  1  0.21323000  0.95155000  0.02705000  1.0
  C  C92  1  0.86301000  0.56500000  0.02510000  1.0
  C  C93  1  0.83800000  0.93542000  0.97503000  1.0
  C  C94  1  0.13699000  0.43500000  0.97490000  1.0
  C  C95  1  0.16199000  0.06458000  0.02496000  1.0
  C  C96  1  0.82238000  0.57947000  0.91233000  1.0
  C  C97  1  0.91015000  0.92088000  0.08776000  1.0
  C  C98  1  0.17762000  0.42053000  0.08767000  1.0
  C  C99  1  0.08984000  0.07912000  0.91224000  1.0
  C  C100  1  0.73412000  0.81252000  0.64725000  1.0
  C  C101  1  0.08702000  0.68775000  0.35265000  1.0
  C  C102  1  0.26587000  0.18747000  0.35274000  1.0
  C  C103  1  0.91299000  0.31228000  0.64735000  1.0
  S  S104  1  0.71342000  0.94720000  0.62511000  1.0
  S  S105  1  0.08828000  0.55302000  0.37471000  1.0
  S  S106  1  0.28658000  0.05280000  0.37489000  1.0
  S  S107  1  0.91172000  0.44699000  0.62529000  1.0
  N  N108  1  0.59336000  0.30332000  0.58155000  1.0
  N  N109  1  0.01219000  0.19701000  0.41875000  1.0
  N  N110  1  0.40664000  0.69668000  0.41846000  1.0
  N  N111  1  0.98781000  0.80299000  0.58125000  1.0
  N  N112  1  0.73810000  0.48979000  0.80620000  1.0
  N  N113  1  0.93217000  0.01057000  0.19396000  1.0
  N  N114  1  0.26190000  0.51021000  0.19380000  1.0
  N  N115  1  0.06783000  0.98943000  0.80603000  1.0
  N  N116  1  0.74947000  0.71568000  0.66614000  1.0
  N  N117  1  0.08355000  0.78466000  0.33388000  1.0
  N  N118  1  0.25053000  0.28433000  0.33385000  1.0
  N  N119  1  0.91645000  0.21534000  0.66612000  1.0
  O  O120  1  0.54329000  0.43081000  0.40485000  1.0
  O  O121  1  0.13846000  0.06937000  0.59538000  1.0
  O  O122  1  0.45671000  0.56919000  0.59515000  1.0
  O  O123  1  0.86154000  0.93063000  0.40462000  1.0
