# generated using pymatgen
data_KH5C3O4
_symmetry_space_group_name_H-M   'P 1'
_cell_length_a   4.72611000
_cell_length_b   10.54260000
_cell_length_c   10.74770000
_cell_angle_alpha   89.99980000
_cell_angle_beta   77.76300000
_cell_angle_gamma   89.99980000
_symmetry_Int_Tables_number   1
_chemical_formula_structural   KH5C3O4
_chemical_formula_sum   'K4 H20 C12 O16'
_cell_volume   523.34220022
_cell_formula_units_Z   4
loop_
 _symmetry_equiv_pos_site_id
 _symmetry_equiv_pos_as_xyz
  1  'x, y, z'
loop_
 _atom_site_type_symbol
 _atom_site_label
 _atom_site_symmetry_multiplicity
 _atom_site_fract_x
 _atom_site_fract_y
 _atom_site_fract_z
 _atom_site_occupancy
  K  K0  1  0.63274000  0.50579000  0.14698000  1.0
  K  K1  1  0.86726000  0.00579000  0.35302000  1.0
  K  K2  1  0.36726000  0.49420000  0.85302000  1.0
  K  K3  1  0.13274000  0.99421000  0.64698000  1.0
  H  H4  1  0.80977000  0.25748000  0.92284000  1.0
  H  H5  1  0.69023000  0.75748000  0.57715000  1.0
  H  H6  1  0.19023000  0.74252000  0.07716000  1.0
  H  H7  1  0.30976000  0.24252000  0.42284000  1.0
  H  H8  1  0.26678000  0.23375000  0.77979000  1.0
  H  H9  1  0.23322000  0.73375000  0.72021000  1.0
  H  H10  1  0.73322000  0.76625000  0.22021000  1.0
  H  H11  1  0.76678000  0.26625000  0.27979000  1.0
  H  H12  1  0.52828000  0.14445000  0.08040000  1.0
  H  H13  1  0.97172000  0.64446000  0.41960000  1.0
  H  H14  1  0.47172000  0.85554000  0.91960000  1.0
  H  H15  1  0.02828000  0.35555000  0.58040000  1.0
  H  H16  1  0.18958000  0.04354000  0.97597000  1.0
  H  H17  1  0.31042000  0.54354000  0.52403000  1.0
  H  H18  1  0.81042000  0.95646000  0.02403000  1.0
  H  H19  1  0.68958000  0.45646000  0.47597000  1.0
  H  H20  1  0.50425000  0.08155000  0.85724000  1.0
  H  H21  1  0.99576000  0.58156000  0.64276000  1.0
  H  H22  1  0.49575000  0.91845000  0.14276000  1.0
  H  H23  1  0.00425000  0.41844000  0.35724000  1.0
  C  C24  1  0.16495000  0.26950000  0.10910000  1.0
  C  C25  1  0.33506000  0.76950000  0.39090000  1.0
  C  C26  1  0.83504000  0.73050000  0.89091000  1.0
  C  C27  1  0.66495000  0.23050000  0.60910000  1.0
  C  C28  1  0.42385000  0.20631000  0.02027000  1.0
  C  C29  1  0.07616000  0.70631000  0.47973000  1.0
  C  C30  1  0.57615000  0.79369000  0.97973000  1.0
  C  C31  1  0.92384000  0.29369000  0.52027000  1.0
  C  C32  1  0.31587000  0.12172000  0.92404000  1.0
  C  C33  1  0.18413000  0.62172000  0.57596000  1.0
  C  C34  1  0.68413000  0.87828000  0.07596000  1.0
  C  C35  1  0.81587000  0.37828000  0.42404000  1.0
  O  O36  1  0.14927000  0.38910000  0.11315000  1.0
  O  O37  1  0.35073000  0.88910000  0.38686000  1.0
  O  O38  1  0.85072000  0.61090000  0.88686000  1.0
  O  O39  1  0.64926000  0.11091000  0.61314000  1.0
  O  O40  1  0.62339000  0.30060000  0.96063000  1.0
  O  O41  1  0.87661000  0.80060000  0.53937000  1.0
  O  O42  1  0.37661000  0.69940000  0.03937000  1.0
  O  O43  1  0.12338000  0.19940000  0.46063000  1.0
  O  O44  1  0.13444000  0.18644000  0.85327000  1.0
  O  O45  1  0.36556000  0.68644000  0.64673000  1.0
  O  O46  1  0.86556000  0.81356000  0.14672000  1.0
  O  O47  1  0.63444000  0.31356000  0.35327000  1.0
  O  O48  1  0.98022000  0.19290000  0.17342000  1.0
  O  O49  1  0.51978000  0.69291000  0.32658000  1.0
  O  O50  1  0.01978000  0.80709000  0.82658000  1.0
  O  O51  1  0.48022000  0.30710000  0.67343000  1.0
