# generated using pymatgen
data_NiH8C14(NO)4
_symmetry_space_group_name_H-M   'P 1'
_cell_length_a   5.34653000
_cell_length_b   26.34938323
_cell_length_c   26.35230000
_cell_angle_alpha   60.02902164
_cell_angle_beta   89.99990000
_cell_angle_gamma   89.99989999
_symmetry_Int_Tables_number   1
_chemical_formula_structural   NiH8C14(NO)4
_chemical_formula_sum   'Ni3 H24 C42 N12 O12'
_cell_volume   3216.01859352
_cell_formula_units_Z   3
loop_
 _symmetry_equiv_pos_site_id
 _symmetry_equiv_pos_as_xyz
  1  'x, y, z'
loop_
 _atom_site_type_symbol
 _atom_site_label
 _atom_site_symmetry_multiplicity
 _atom_site_fract_x
 _atom_site_fract_y
 _atom_site_fract_z
 _atom_site_occupancy
  Ni  Ni0  1  0.50000000  0.50000000  0.50000000  1.0
  Ni  Ni1  1  0.50000000  0.00000000  0.50000000  1.0
  Ni  Ni2  1  0.50000000  0.50000000  0.00000000  1.0
  H  H3  1  0.50001000  0.46767000  0.62435000  1.0
  H  H4  1  0.50001000  0.90801000  0.46766000  1.0
  H  H5  1  0.50002000  0.62433000  0.90813000  1.0
  H  H6  1  0.50001000  0.53233000  0.37565000  1.0
  H  H7  1  0.50001000  0.09199000  0.53234000  1.0
  H  H8  1  0.50002000  0.37567000  0.09187000  1.0
  H  H9  1  0.50001000  0.37564000  0.53233000  1.0
  H  H10  1  0.50003000  0.53234000  0.09199000  1.0
  H  H11  1  0.50001000  0.09187000  0.37567000  1.0
  H  H12  1  0.50001000  0.62436000  0.46767000  1.0
  H  H13  1  0.50002000  0.46766000  0.90801000  1.0
  H  H14  1  0.50001000  0.90813000  0.62433000  1.0
  H  H15  1  0.49999000  0.51951000  0.68316000  1.0
  H  H16  1  0.49999000  0.79737000  0.51954000  1.0
  H  H17  1  0.49999000  0.68315000  0.79749000  1.0
  H  H18  1  0.49999000  0.48049000  0.31684000  1.0
  H  H19  1  0.49999000  0.20263000  0.48046000  1.0
  H  H20  1  0.49999000  0.31685000  0.20251000  1.0
  H  H21  1  0.50000000  0.31684000  0.48048000  1.0
  H  H22  1  0.49999000  0.48046000  0.20263000  1.0
  H  H23  1  0.50000000  0.20250000  0.31685000  1.0
  H  H24  1  0.49999000  0.68316000  0.51952000  1.0
  H  H25  1  0.49998000  0.51954000  0.79737000  1.0
  H  H26  1  0.49999000  0.79750000  0.68315000  1.0
  C  C27  1  0.49999000  0.60554000  0.60554000  1.0
  C  C28  1  0.50000000  0.78905000  0.60554000  1.0
  C  C29  1  0.49999000  0.60554000  0.78905000  1.0
  C  C30  1  0.49999000  0.39446000  0.39446000  1.0
  C  C31  1  0.50000000  0.21095000  0.39446000  1.0
  C  C32  1  0.49999000  0.39446000  0.21095000  1.0
  C  C33  1  0.49999000  0.63796000  0.63796000  1.0
  C  C34  1  0.49999000  0.72423000  0.63797000  1.0
  C  C35  1  0.49999000  0.63798000  0.72422000  1.0
  C  C36  1  0.49999000  0.36204000  0.36204000  1.0
  C  C37  1  0.49999000  0.27577000  0.36203000  1.0
  C  C38  1  0.49999000  0.36202000  0.27578000  1.0
  C  C39  1  0.00000000  0.47037000  0.52963000  1.0
  C  C40  1  0.00000000  0.99998000  0.47037000  1.0
  C  C41  1  0.99999000  0.52963000  0.00002000  1.0
  C  C42  1  0.00000000  0.52963000  0.47037000  1.0
  C  C43  1  0.00000000  0.00002000  0.52963000  1.0
  C  C44  1  0.99999000  0.47037000  0.99998000  1.0
  C  C45  1  0.50000000  0.51532000  0.60341000  1.0
  C  C46  1  0.50001000  0.88133000  0.51530000  1.0
  C  C47  1  0.50001000  0.60342000  0.88139000  1.0
  C  C48  1  0.50000000  0.48468000  0.39659000  1.0
  C  C49  1  0.50001000  0.11867000  0.48470000  1.0
  C  C50  1  0.50001000  0.39658000  0.11861000  1.0
  C  C51  1  0.50000000  0.39658000  0.48469000  1.0
  C  C52  1  0.50001000  0.48470000  0.11868000  1.0
  C  C53  1  0.50001000  0.11860000  0.39660000  1.0
  C  C54  1  0.50001000  0.60342000  0.51531000  1.0
  C  C55  1  0.50001000  0.51530000  0.88132000  1.0
  C  C56  1  0.50001000  0.88140000  0.60340000  1.0
  C  C57  1  0.49999000  0.54410000  0.63549000  1.0
  C  C58  1  0.50000000  0.82049000  0.54411000  1.0
  C  C59  1  0.50000000  0.63548000  0.82057000  1.0
  C  C60  1  0.50000000  0.45591000  0.36450000  1.0
  C  C61  1  0.50000000  0.17950000  0.45590000  1.0
  C  C62  1  0.50000000  0.36452000  0.17943000  1.0
  C  C63  1  0.50000000  0.36451000  0.45590000  1.0
  C  C64  1  0.50000000  0.45590000  0.17951000  1.0
  C  C65  1  0.50000000  0.17943000  0.36451000  1.0
  C  C66  1  0.50000000  0.63549000  0.54410000  1.0
  C  C67  1  0.50000000  0.54410000  0.82049000  1.0
  C  C68  1  0.50000000  0.82057000  0.63549000  1.0
  N  N69  1  0.50000000  0.54444000  0.54444000  1.0
  N  N70  1  0.50001000  0.91120000  0.54443000  1.0
  N  N71  1  0.50002000  0.54444000  0.91119000  1.0
  N  N72  1  0.50001000  0.45556000  0.45556000  1.0
  N  N73  1  0.50001000  0.08880000  0.45557000  1.0
  N  N74  1  0.50002000  0.45556000  0.08881000  1.0
  N  N75  1  0.49998000  0.60650000  0.69681000  1.0
  N  N76  1  0.49999000  0.69681000  0.60651000  1.0
  N  N77  1  0.49998000  0.69685000  0.69683000  1.0
  N  N78  1  0.49999000  0.39350000  0.30319000  1.0
  N  N79  1  0.49999000  0.30319000  0.39349000  1.0
  N  N80  1  0.49999000  0.30315000  0.30317000  1.0
  O  O81  1  0.78951000  0.44821000  0.55179000  1.0
  O  O82  1  0.78951000  0.99996000  0.44821000  1.0
  O  O83  1  0.78950000  0.55180000  0.00002000  1.0
  O  O84  1  0.78951000  0.55179000  0.44821000  1.0
  O  O85  1  0.78951000  0.00003000  0.55180000  1.0
  O  O86  1  0.78950000  0.44820000  0.99998000  1.0
  O  O87  1  0.21049000  0.44821000  0.55179000  1.0
  O  O88  1  0.21050000  0.55180000  0.00002000  1.0
  O  O89  1  0.21049000  0.99996000  0.44821000  1.0
  O  O90  1  0.21049000  0.55179000  0.44821000  1.0
  O  O91  1  0.21050000  0.44820000  0.99998000  1.0
  O  O92  1  0.21049000  0.00003000  0.55180000  1.0
