# generated using pymatgen
data_Cu3H28C38(N3Cl)4
_symmetry_space_group_name_H-M   'P 1'
_cell_length_a   9.23408000
_cell_length_b   9.77924000
_cell_length_c   11.64045140
_cell_angle_alpha   80.78261155
_cell_angle_beta   68.00517665
_cell_angle_gamma   84.78460000
_symmetry_Int_Tables_number   1
_chemical_formula_structural   Cu3H28C38(N3Cl)4
_chemical_formula_sum   'Cu3 H28 C38 N12 Cl4'
_cell_volume   961.51976119
_cell_formula_units_Z   1
loop_
 _symmetry_equiv_pos_site_id
 _symmetry_equiv_pos_as_xyz
  1  'x, y, z'
loop_
 _atom_site_type_symbol
 _atom_site_label
 _atom_site_symmetry_multiplicity
 _atom_site_fract_x
 _atom_site_fract_y
 _atom_site_fract_z
 _atom_site_occupancy
  Cu  Cu0  1  0.00000000  0.50000000  0.50000000  1.0
  Cu  Cu1  1  0.60795000  0.61420000  0.70071000  1.0
  Cu  Cu2  1  0.39206000  0.38580000  0.29929000  1.0
  H  H3  1  0.51297000  0.30600000  0.63036000  1.0
  H  H4  1  0.48703000  0.69400000  0.36963000  1.0
  H  H5  1  0.28185000  0.54575000  0.86586000  1.0
  H  H6  1  0.71813000  0.45425000  0.13416000  1.0
  H  H7  1  0.02308000  0.31735000  0.72247000  1.0
  H  H8  1  0.97691000  0.68265000  0.27754000  1.0
  H  H9  1  0.28750000  0.19440000  0.61647000  1.0
  H  H10  1  0.71249000  0.80560000  0.38352000  1.0
  H  H11  1  0.21076000  0.68926000  0.51897000  1.0
  H  H12  1  0.78925000  0.31073000  0.48103000  1.0
  H  H13  1  0.13519000  0.33346000  0.88381000  1.0
  H  H14  1  0.86478000  0.66656000  0.11621000  1.0
  H  H15  1  0.66943000  0.58535000  0.93833000  1.0
  H  H16  1  0.33056000  0.41465000  0.06168000  1.0
  H  H17  1  0.13426000  0.03581000  0.58919000  1.0
  H  H18  1  0.86574000  0.96418000  0.41081000  1.0
  H  H19  1  0.08357000  0.85990000  0.61006000  1.0
  H  H20  1  0.91643000  0.14009000  0.38994000  1.0
  H  H21  1  0.72961000  0.90572000  0.69748000  1.0
  H  H22  1  0.27041000  0.09428000  0.30250000  1.0
  H  H23  1  0.91016000  0.67428000  0.76997000  1.0
  H  H24  1  0.08984000  0.32571000  0.23003000  1.0
  H  H25  1  0.72856000  0.16596000  0.67033000  1.0
  H  H26  1  0.27145000  0.83404000  0.32965000  1.0
  H  H27  1  0.50995000  0.72412000  0.10621000  1.0
  H  H28  1  0.49004000  0.27588000  0.89379000  1.0
  H  H29  1  0.59247000  0.95925000  0.11145000  1.0
  H  H30  1  0.40752000  0.04077000  0.88854000  1.0
  C  C31  1  0.50965000  0.19336000  0.64095000  1.0
  C  C32  1  0.49035000  0.80664000  0.35904000  1.0
  C  C33  1  0.25551000  0.63607000  0.69185000  1.0
  C  C34  1  0.74448000  0.36393000  0.30816000  1.0
  C  C35  1  0.23544000  0.53278000  0.79501000  1.0
  C  C36  1  0.76455000  0.46723000  0.20500000  1.0
  C  C37  1  0.09069000  0.40577000  0.71567000  1.0
  C  C38  1  0.90931000  0.59423000  0.28434000  1.0
  C  C39  1  0.38251000  0.13262000  0.63497000  1.0
  C  C40  1  0.61748000  0.86738000  0.36502000  1.0
  C  C41  1  0.38351000  0.98803000  0.65361000  1.0
  C  C42  1  0.61648000  0.01197000  0.34639000  1.0
  C  C43  1  0.19445000  0.61551000  0.60295000  1.0
  C  C44  1  0.80556000  0.38449000  0.39705000  1.0
  C  C45  1  0.50708000  0.90658000  0.67568000  1.0
  C  C46  1  0.49293000  0.09342000  0.32431000  1.0
  C  C47  1  0.15321000  0.41619000  0.80578000  1.0
  C  C48  1  0.84679000  0.58382000  0.19423000  1.0
  C  C49  1  0.70814000  0.68709000  0.93955000  1.0
  C  C50  1  0.29185000  0.31292000  0.06046000  1.0
  C  C51  1  0.12383000  0.93609000  0.65008000  1.0
  C  C52  1  0.87617000  0.06391000  0.34992000  1.0
  C  C53  1  0.63492000  0.96890000  0.68014000  1.0
  C  C54  1  0.36509000  0.03111000  0.31985000  1.0
  C  C55  1  0.80035000  0.94687000  0.94471000  1.0
  C  C56  1  0.19966000  0.05313000  0.05528000  1.0
  C  C57  1  0.88866000  0.86740000  0.84857000  1.0
  C  C58  1  0.11135000  0.13259000  0.15143000  1.0
  C  C59  1  0.33574000  0.76324000  0.67863000  1.0
  C  C60  1  0.66425000  0.23676000  0.32137000  1.0
  C  C61  1  0.84534000  0.73497000  0.84486000  1.0
  C  C62  1  0.15466000  0.26502000  0.15515000  1.0
  C  C63  1  0.63361000  0.11306000  0.66354000  1.0
  C  C64  1  0.36639000  0.88694000  0.33645000  1.0
  C  C65  1  0.61715000  0.76660000  0.03494000  1.0
  C  C66  1  0.38283000  0.23341000  0.96506000  1.0
  C  C67  1  0.66224000  0.89679000  0.03914000  1.0
  C  C68  1  0.33777000  0.10322000  0.96085000  1.0
  N  N69  1  0.11160000  0.50423000  0.61625000  1.0
  N  N70  1  0.88841000  0.49577000  0.38375000  1.0
  N  N71  1  0.99099000  0.07667000  0.81798000  1.0
  N  N72  1  0.00901000  0.92334000  0.18201000  1.0
  N  N73  1  0.27732000  0.89491000  0.65504000  1.0
  N  N74  1  0.72269000  0.10509000  0.34495000  1.0
  N  N75  1  0.00603000  0.95337000  0.77102000  1.0
  N  N76  1  0.99398000  0.04662000  0.22898000  1.0
  N  N77  1  0.87013000  0.07306000  0.92130000  1.0
  N  N78  1  0.12988000  0.92695000  0.07868000  1.0
  N  N79  1  0.47423000  0.76712000  0.69026000  1.0
  N  N80  1  0.52577000  0.23288000  0.30974000  1.0
  Cl  Cl81  1  0.72722000  0.42465000  0.72481000  1.0
  Cl  Cl82  1  0.27278000  0.57534000  0.27520000  1.0
  Cl  Cl83  1  0.91529000  0.73264000  0.51811000  1.0
  Cl  Cl84  1  0.08470000  0.26735000  0.48190000  1.0
