# generated using pymatgen
data_CuH14C24N5O4
_symmetry_space_group_name_H-M   'P 1'
_cell_length_a   9.54260000
_cell_length_b   10.80820000
_cell_length_c   11.65030000
_cell_angle_alpha   111.05200000
_cell_angle_beta   91.41420000
_cell_angle_gamma   107.09300000
_symmetry_Int_Tables_number   1
_chemical_formula_structural   CuH14C24N5O4
_chemical_formula_sum   'Cu2 H28 C48 N10 O8'
_cell_volume   1060.36901413
_cell_formula_units_Z   2
loop_
 _symmetry_equiv_pos_site_id
 _symmetry_equiv_pos_as_xyz
  1  'x, y, z'
loop_
 _atom_site_type_symbol
 _atom_site_label
 _atom_site_symmetry_multiplicity
 _atom_site_fract_x
 _atom_site_fract_y
 _atom_site_fract_z
 _atom_site_occupancy
  Cu  Cu0  1  0.80032000  0.25404000  0.21988000  1.0
  Cu  Cu1  1  0.19969000  0.74597000  0.78012000  1.0
  H  H2  1  0.46611000  0.10667000  0.09061000  1.0
  H  H3  1  0.53389000  0.89335000  0.90940000  1.0
  H  H4  1  0.26515000  0.90127000  0.09620000  1.0
  H  H5  1  0.73484000  0.09872000  0.90379000  1.0
  H  H6  1  0.52702000  0.89139000  0.38278000  1.0
  H  H7  1  0.47298000  0.10859000  0.61721000  1.0
  H  H8  1  0.74170000  0.00883000  0.51420000  1.0
  H  H9  1  0.25830000  0.99116000  0.48577000  1.0
  H  H10  1  0.15951000  0.34159000  0.58283000  1.0
  H  H11  1  0.84048000  0.65839000  0.41716000  1.0
  H  H12  1  0.27992000  0.51132000  0.51813000  1.0
  H  H13  1  0.72009000  0.48870000  0.48187000  1.0
  H  H14  1  0.24871000  0.68857000  0.25929000  1.0
  H  H15  1  0.75131000  0.31144000  0.74070000  1.0
  H  H16  1  0.00066000  0.50014000  0.15566000  1.0
  H  H17  1  0.99937000  0.49986000  0.84432000  1.0
  H  H18  1  0.81566000  0.95406000  0.63556000  1.0
  H  H19  1  0.18434000  0.04593000  0.36444000  1.0
  H  H20  1  0.90747000  0.89391000  0.80012000  1.0
  H  H21  1  0.09251000  0.10609000  0.19988000  1.0
  H  H22  1  0.30177000  0.24999000  0.89569000  1.0
  H  H23  1  0.69820000  0.75000000  0.10432000  1.0
  H  H24  1  0.21760000  0.30924000  0.72640000  1.0
  H  H25  1  0.78240000  0.69076000  0.27362000  1.0
  H  H26  1  0.46582000  0.56677000  0.22242000  1.0
  H  H27  1  0.53418000  0.43321000  0.77757000  1.0
  H  H28  1  0.66445000  0.35861000  0.91825000  1.0
  H  H29  1  0.33555000  0.64138000  0.08174000  1.0
  C  C30  1  0.48192000  0.05760000  0.15457000  1.0
  C  C31  1  0.51808000  0.94242000  0.84544000  1.0
  C  C32  1  0.36875000  0.94365000  0.16015000  1.0
  C  C33  1  0.63124000  0.05635000  0.83984000  1.0
  C  C34  1  0.51436000  0.94089000  0.31795000  1.0
  C  C35  1  0.48564000  0.05911000  0.68204000  1.0
  C  C36  1  0.62840000  0.05469000  0.31456000  1.0
  C  C37  1  0.37160000  0.94532000  0.68545000  1.0
  C  C38  1  0.77271000  0.12214000  0.39428000  1.0
  C  C39  1  0.22729000  0.87786000  0.60572000  1.0
  C  C40  1  0.81760000  0.09130000  0.49212000  1.0
  C  C41  1  0.18241000  0.90870000  0.50788000  1.0
  C  C42  1  0.95906000  0.16799000  0.56281000  1.0
  C  C43  1  0.04095000  0.83200000  0.43719000  1.0
  C  C44  1  0.05014000  0.27614000  0.53030000  1.0
  C  C45  1  0.94986000  0.72387000  0.46970000  1.0
  C  C46  1  0.99891000  0.30072000  0.43035000  1.0
  C  C47  1  0.00108000  0.69928000  0.56965000  1.0
  C  C48  1  0.07837000  0.40736000  0.38326000  1.0
  C  C49  1  0.92163000  0.59266000  0.61675000  1.0
  C  C50  1  0.21819000  0.50787000  0.43598000  1.0
  C  C51  1  0.78182000  0.49214000  0.56402000  1.0
  C  C52  1  0.20149000  0.60471000  0.29279000  1.0
  C  C53  1  0.79853000  0.39530000  0.70721000  1.0
  C  C54  1  0.06393000  0.50290000  0.23631000  1.0
  C  C55  1  0.93608000  0.49710000  0.76369000  1.0
  C  C56  1  0.00942000  0.13610000  0.66593000  1.0
  C  C57  1  0.99058000  0.86391000  0.33408000  1.0
  C  C58  1  0.92355000  0.02002000  0.69040000  1.0
  C  C59  1  0.07644000  0.97998000  0.30961000  1.0
  C  C60  1  0.97488000  0.98420000  0.78251000  1.0
  C  C61  1  0.02511000  0.01580000  0.21749000  1.0
  C  C62  1  0.11268000  0.06636000  0.85611000  1.0
  C  C63  1  0.88730000  0.93365000  0.14391000  1.0
  C  C64  1  0.19643000  0.18503000  0.83611000  1.0
  C  C65  1  0.80355000  0.81497000  0.16390000  1.0
  C  C66  1  0.14734000  0.21830000  0.74126000  1.0
  C  C67  1  0.85265000  0.78171000  0.25876000  1.0
  C  C68  1  0.17380000  0.02985000  0.95567000  1.0
  C  C69  1  0.82619000  0.97015000  0.04434000  1.0
  C  C70  1  0.65262000  0.41630000  0.16493000  1.0
  C  C71  1  0.34737000  0.58368000  0.83506000  1.0
  C  C72  1  0.47972000  0.53771000  0.12470000  1.0
  C  C73  1  0.52028000  0.46228000  0.87529000  1.0
  C  C74  1  0.57340000  0.45838000  0.07895000  1.0
  C  C75  1  0.42663000  0.54163000  0.92106000  1.0
  C  C76  1  0.59279000  0.42137000  0.95351000  1.0
  C  C77  1  0.40720000  0.57863000  0.04649000  1.0
  N  N78  1  0.60995000  0.11133000  0.23054000  1.0
  N  N79  1  0.39005000  0.88867000  0.76947000  1.0
  N  N80  1  0.38543000  0.88568000  0.24155000  1.0
  N  N81  1  0.61458000  0.11434000  0.75845000  1.0
  N  N82  1  0.86338000  0.22404000  0.36487000  1.0
  N  N83  1  0.13661000  0.77596000  0.63514000  1.0
  N  N84  1  0.00251000  0.40646000  0.28244000  1.0
  N  N85  1  0.99749000  0.59355000  0.71756000  1.0
  N  N86  1  0.27879000  0.60714000  0.39180000  1.0
  N  N87  1  0.72121000  0.39287000  0.60820000  1.0
  O  O88  1  0.24881000  0.13004000  0.05209000  1.0
  O  O89  1  0.75116000  0.86996000  0.94792000  1.0
  O  O90  1  0.14521000  0.89868000  0.93461000  1.0
  O  O91  1  0.85480000  0.10132000  0.06539000  1.0
  O  O92  1  0.71234000  0.32043000  0.10982000  1.0
  O  O93  1  0.28764000  0.67954000  0.89016000  1.0
  O  O94  1  0.65913000  0.47339000  0.28049000  1.0
  O  O95  1  0.34089000  0.52661000  0.71951000  1.0
