# generated using pymatgen
data_CdH14C13N5ClO2
_symmetry_space_group_name_H-M   'P 1'
_cell_length_a   7.94033000
_cell_length_b   9.12671000
_cell_length_c   12.94005513
_cell_angle_alpha   69.36335053
_cell_angle_beta   81.38540443
_cell_angle_gamma   64.90180000
_symmetry_Int_Tables_number   1
_chemical_formula_structural   CdH14C13N5ClO2
_chemical_formula_sum   'Cd2 H28 C26 N10 Cl2 O4'
_cell_volume   794.72284685
_cell_formula_units_Z   2
loop_
 _symmetry_equiv_pos_site_id
 _symmetry_equiv_pos_as_xyz
  1  'x, y, z'
loop_
 _atom_site_type_symbol
 _atom_site_label
 _atom_site_symmetry_multiplicity
 _atom_site_fract_x
 _atom_site_fract_y
 _atom_site_fract_z
 _atom_site_occupancy
  Cd  Cd0  1  0.62076000  0.34107000  0.05153000  1.0
  Cd  Cd1  1  0.12080000  0.39272000  0.94834000  1.0
  H  H2  1  0.61775000  0.98647000  0.23961000  1.0
  H  H3  1  0.11755000  0.22578000  0.76016000  1.0
  H  H4  1  0.54020000  0.87211000  0.46863000  1.0
  H  H5  1  0.04055000  0.33935000  0.53152000  1.0
  H  H6  1  0.48090000  0.68237000  0.64886000  1.0
  H  H7  1  0.98114000  0.33005000  0.35123000  1.0
  H  H8  1  0.00652000  0.70540000  0.51039000  1.0
  H  H9  1  0.50558000  0.21634000  0.48947000  1.0
  H  H10  1  0.06067000  0.89984000  0.33023000  1.0
  H  H11  1  0.55995000  0.23021000  0.66976000  1.0
  H  H12  1  0.14481000  0.48642000  0.68273000  1.0
  H  H13  1  0.64410000  0.16927000  0.31718000  1.0
  H  H14  1  0.34123000  0.47175000  0.74046000  1.0
  H  H15  1  0.84073000  0.21206000  0.25943000  1.0
  H  H16  1  0.81560000  0.67711000  0.74108000  1.0
  H  H17  1  0.31510000  0.41859000  0.25891000  1.0
  H  H18  1  0.88621000  0.84809000  0.66575000  1.0
  H  H19  1  0.38601000  0.51393000  0.33432000  1.0
  H  H20  1  0.74600000  0.76224000  0.90217000  1.0
  H  H21  1  0.24598000  0.66479000  0.09792000  1.0
  H  H22  1  0.70165000  0.96491000  0.80503000  1.0
  H  H23  1  0.20180000  0.77019000  0.19516000  1.0
  H  H24  1  0.97081000  0.96446000  0.87058000  1.0
  H  H25  1  0.47136000  0.83477000  0.12972000  1.0
  H  H26  1  0.99840000  0.76612000  0.97065000  1.0
  H  H27  1  0.49868000  0.73670000  0.02952000  1.0
  H  H28  1  0.17491000  0.84068000  0.74261000  1.0
  H  H29  1  0.67511000  0.58277000  0.25757000  1.0
  C  C30  1  0.32075000  0.01803000  0.28195000  1.0
  C  C31  1  0.82052000  0.29978000  0.71799000  1.0
  C  C32  1  0.30343000  0.89795000  0.38802000  1.0
  C  C33  1  0.80318000  0.28553000  0.61199000  1.0
  C  C34  1  0.42316000  0.83556000  0.47738000  1.0
  C  C35  1  0.92315000  0.31206000  0.52267000  1.0
  C  C36  1  0.38967000  0.72970000  0.57871000  1.0
  C  C37  1  0.88961000  0.30765000  0.42133000  1.0
  C  C38  1  0.23843000  0.68302000  0.59219000  1.0
  C  C39  1  0.73799000  0.27506000  0.40775000  1.0
  C  C40  1  0.12182000  0.74428000  0.50165000  1.0
  C  C41  1  0.62114000  0.24608000  0.49828000  1.0
  C  C42  1  0.15178000  0.85166000  0.40067000  1.0
  C  C43  1  0.65123000  0.25229000  0.59933000  1.0
  C  C44  1  0.20710000  0.56217000  0.70006000  1.0
  C  C45  1  0.70660000  0.26217000  0.29986000  1.0
  C  C46  1  0.88922000  0.75198000  0.74743000  1.0
  C  C47  1  0.38896000  0.49959000  0.25261000  1.0
  C  C48  1  0.81071000  0.83666000  0.83705000  1.0
  C  C49  1  0.31075000  0.67390000  0.16309000  1.0
  C  C50  1  0.98148000  0.83623000  0.88184000  1.0
  C  C51  1  0.48174000  0.71796000  0.11835000  1.0
  C  C52  1  0.14860000  0.74586000  0.81654000  1.0
  C  C53  1  0.64868000  0.56211000  0.18357000  1.0
  C  C54  1  0.32948000  0.64279000  0.88330000  1.0
  C  C55  1  0.82960000  0.52563000  0.11680000  1.0
  N  N56  1  0.17419000  0.12878000  0.21569000  1.0
  N  N57  1  0.67394000  0.34481000  0.78417000  1.0
  N  N58  1  0.24089000  0.21836000  0.12727000  1.0
  N  N59  1  0.74063000  0.34620000  0.87249000  1.0
  N  N60  1  0.41856000  0.17138000  0.13488000  1.0
  N  N61  1  0.91840000  0.30644000  0.86490000  1.0
  N  N62  1  0.47235000  0.04527000  0.23152000  1.0
  N  N63  1  0.97220000  0.27650000  0.76836000  1.0
  N  N64  1  0.08465000  0.63869000  0.78244000  1.0
  N  N65  1  0.58438000  0.42108000  0.21754000  1.0
  Cl  Cl66  1  0.84490000  0.02294000  0.13848000  1.0
  Cl  Cl67  1  0.34490000  0.16181000  0.86121000  1.0
  O  O68  1  0.45027000  0.70101000  0.86627000  1.0
  O  O69  1  0.95053000  0.56668000  0.13376000  1.0
  O  O70  1  0.34104000  0.49849000  0.95845000  1.0
  O  O71  1  0.84106000  0.45645000  0.04165000  1.0
