# generated using pymatgen
data_SnH16C11O2
_symmetry_space_group_name_H-M   'P 1'
_cell_length_a   10.09470000
_cell_length_b   10.33850000
_cell_length_c   12.83300000
_cell_angle_alpha   113.03000000
_cell_angle_beta   90.00000000
_cell_angle_gamma   90.00000000
_symmetry_Int_Tables_number   1
_chemical_formula_structural   SnH16C11O2
_chemical_formula_sum   'Sn4 H64 C44 O8'
_cell_volume   1232.56159555
_cell_formula_units_Z   4
loop_
 _symmetry_equiv_pos_site_id
 _symmetry_equiv_pos_as_xyz
  1  'x, y, z'
loop_
 _atom_site_type_symbol
 _atom_site_label
 _atom_site_symmetry_multiplicity
 _atom_site_fract_x
 _atom_site_fract_y
 _atom_site_fract_z
 _atom_site_occupancy
  Sn  Sn0  1  0.40646000  0.33083000  0.77212000  1.0
  Sn  Sn1  1  0.90646000  0.16917000  0.72789000  1.0
  Sn  Sn2  1  0.59354000  0.66917000  0.22788000  1.0
  Sn  Sn3  1  0.09354000  0.83083000  0.27211000  1.0
  H  H4  1  0.55487000  0.73436000  0.82377000  1.0
  H  H5  1  0.05487000  0.76564000  0.67624000  1.0
  H  H6  1  0.44512000  0.26564000  0.17623000  1.0
  H  H7  1  0.94513000  0.23435000  0.32376000  1.0
  H  H8  1  0.37469000  0.92125000  0.61207000  1.0
  H  H9  1  0.87470000  0.57874000  0.88792000  1.0
  H  H10  1  0.62530000  0.07874000  0.38793000  1.0
  H  H11  1  0.12531000  0.42126000  0.11207000  1.0
  H  H12  1  0.54630000  0.76596000  0.64133000  1.0
  H  H13  1  0.04630000  0.73404000  0.85867000  1.0
  H  H14  1  0.45369000  0.23403000  0.35867000  1.0
  H  H15  1  0.95370000  0.26596000  0.14132000  1.0
  H  H16  1  0.39474000  0.86064000  0.97660000  1.0
  H  H17  1  0.89475000  0.63935000  0.52340000  1.0
  H  H18  1  0.60526000  0.13936000  0.02341000  1.0
  H  H19  1  0.10526000  0.36064000  0.47659000  1.0
  H  H20  1  0.21025000  0.15256000  0.00620000  1.0
  H  H21  1  0.71025000  0.34744000  0.49380000  1.0
  H  H22  1  0.78975000  0.84744000  0.99380000  1.0
  H  H23  1  0.28975000  0.65256000  0.50620000  1.0
  H  H24  1  0.21215000  0.00935000  0.04893000  1.0
  H  H25  1  0.71215000  0.49065000  0.45107000  1.0
  H  H26  1  0.78785000  0.99066000  0.95108000  1.0
  H  H27  1  0.28784000  0.50934000  0.54892000  1.0
  H  H28  1  0.09357000  0.01530000  0.94784000  1.0
  H  H29  1  0.59358000  0.48470000  0.55216000  1.0
  H  H30  1  0.90643000  0.98470000  0.05216000  1.0
  H  H31  1  0.40642000  0.51530000  0.44784000  1.0
  H  H32  1  0.17741000  0.45335000  0.74950000  1.0
  H  H33  1  0.67741000  0.04665000  0.75050000  1.0
  H  H34  1  0.82258000  0.54666000  0.25051000  1.0
  H  H35  1  0.32259000  0.95335000  0.24949000  1.0
  H  H36  1  0.30828000  0.58110000  0.78366000  1.0
  H  H37  1  0.80828000  0.91890000  0.71634000  1.0
  H  H38  1  0.69172000  0.41891000  0.21635000  1.0
  H  H39  1  0.19173000  0.08110000  0.28365000  1.0
  H  H40  1  0.23384000  0.53710000  0.89157000  1.0
  H  H41  1  0.73384000  0.96290000  0.60843000  1.0
  H  H42  1  0.76616000  0.46290000  0.10843000  1.0
  H  H43  1  0.26617000  0.03710000  0.39156000  1.0
  H  H44  1  0.46682000  0.18191000  0.89790000  1.0
  H  H45  1  0.96682000  0.31809000  0.60210000  1.0
  H  H46  1  0.53317000  0.81810000  0.10210000  1.0
  H  H47  1  0.03318000  0.68191000  0.39789000  1.0
  H  H48  1  0.43978000  0.36087000  0.99150000  1.0
  H  H49  1  0.93979000  0.13913000  0.50850000  1.0
  H  H50  1  0.56021000  0.63914000  0.00850000  1.0
  H  H51  1  0.06022000  0.86086000  0.49150000  1.0
  H  H52  1  0.59349000  0.31040000  0.91620000  1.0
  H  H53  1  0.09349000  0.18960000  0.58381000  1.0
  H  H54  1  0.40651000  0.68960000  0.08381000  1.0
  H  H55  1  0.90651000  0.81040000  0.41619000  1.0
  H  H56  1  0.34596000  0.14146000  0.56170000  1.0
  H  H57  1  0.84596000  0.35854000  0.93830000  1.0
  H  H58  1  0.65404000  0.85854000  0.43830000  1.0
  H  H59  1  0.15404000  0.64147000  0.06169000  1.0
  H  H60  1  0.51585000  0.11799000  0.59186000  1.0
  H  H61  1  0.01586000  0.38201000  0.90815000  1.0
  H  H62  1  0.48415000  0.88201000  0.40815000  1.0
  H  H63  1  0.98414000  0.61799000  0.09185000  1.0
  H  H64  1  0.47052000  0.25949000  0.55198000  1.0
  H  H65  1  0.97052000  0.24051000  0.94802000  1.0
  H  H66  1  0.52948000  0.74051000  0.44802000  1.0
  H  H67  1  0.02948000  0.75950000  0.05198000  1.0
  C  C68  1  0.28810000  0.97725000  0.77779000  1.0
  C  C69  1  0.78810000  0.52275000  0.72220000  1.0
  C  C70  1  0.71189000  0.02276000  0.22221000  1.0
  C  C71  1  0.21190000  0.47725000  0.27779000  1.0
  C  C72  1  0.18629000  0.07161000  0.75894000  1.0
  C  C73  1  0.68629000  0.42838000  0.74106000  1.0
  C  C74  1  0.81371000  0.92838000  0.24106000  1.0
  C  C75  1  0.31371000  0.57162000  0.25894000  1.0
  C  C76  1  0.48136000  0.80393000  0.81111000  1.0
  C  C77  1  0.98136000  0.69607000  0.68889000  1.0
  C  C78  1  0.51864000  0.19606000  0.18889000  1.0
  C  C79  1  0.01864000  0.30393000  0.31110000  1.0
  C  C80  1  0.37919000  0.90733000  0.69198000  1.0
  C  C81  1  0.87919000  0.59267000  0.80802000  1.0
  C  C82  1  0.62081000  0.09267000  0.30802000  1.0
  C  C83  1  0.12081000  0.40733000  0.19197000  1.0
  C  C84  1  0.47555000  0.82026000  0.70840000  1.0
  C  C85  1  0.97555000  0.67974000  0.79160000  1.0
  C  C86  1  0.52445000  0.17973000  0.29160000  1.0
  C  C87  1  0.02445000  0.32026000  0.20839000  1.0
  C  C88  1  0.29215000  0.96113000  0.88194000  1.0
  C  C89  1  0.79216000  0.53886000  0.61806000  1.0
  C  C90  1  0.70785000  0.03886000  0.11806000  1.0
  C  C91  1  0.20785000  0.46113000  0.38193000  1.0
  C  C92  1  0.39021000  0.87394000  0.89645000  1.0
  C  C93  1  0.89022000  0.62605000  0.60355000  1.0
  C  C94  1  0.60977000  0.12605000  0.10355000  1.0
  C  C95  1  0.10978000  0.37394000  0.39644000  1.0
  C  C96  1  0.19701000  0.03804000  0.97604000  1.0
  C  C97  1  0.69701000  0.46196000  0.52396000  1.0
  C  C98  1  0.80300000  0.96197000  0.02396000  1.0
  C  C99  1  0.30299000  0.53804000  0.47604000  1.0
  C  C100  1  0.26468000  0.49581000  0.80260000  1.0
  C  C101  1  0.76468000  0.00419000  0.69741000  1.0
  C  C102  1  0.73532000  0.50419000  0.19741000  1.0
  C  C103  1  0.23532000  0.99581000  0.30259000  1.0
  C  C104  1  0.48650000  0.29174000  0.91207000  1.0
  C  C105  1  0.98650000  0.20826000  0.58794000  1.0
  C  C106  1  0.51349000  0.70826000  0.08793000  1.0
  C  C107  1  0.01350000  0.79174000  0.41206000  1.0
  C  C108  1  0.43880000  0.19506000  0.59793000  1.0
  C  C109  1  0.93880000  0.30493000  0.90208000  1.0
  C  C110  1  0.56120000  0.80494000  0.40208000  1.0
  C  C111  1  0.06120000  0.69507000  0.09792000  1.0
  O  O112  1  0.21636000  0.19467000  0.76838000  1.0
  O  O113  1  0.71636000  0.30533000  0.73163000  1.0
  O  O114  1  0.78365000  0.80534000  0.23163000  1.0
  O  O115  1  0.28364000  0.69467000  0.26837000  1.0
  O  O116  1  0.06886000  0.02162000  0.73430000  1.0
  O  O117  1  0.56885000  0.47839000  0.76570000  1.0
  O  O118  1  0.93114000  0.97839000  0.26570000  1.0
  O  O119  1  0.43115000  0.52162000  0.23430000  1.0
