# generated using pymatgen
data_Cu2P2H45C57I2N3
_symmetry_space_group_name_H-M   'P 1'
_cell_length_a   9.34647000
_cell_length_b   13.78290000
_cell_length_c   24.47470000
_cell_angle_alpha   77.92370000
_cell_angle_beta   82.72780000
_cell_angle_gamma   80.87030000
_symmetry_Int_Tables_number   1
_chemical_formula_structural   Cu2P2H45C57I2N3
_chemical_formula_sum   'Cu4 P4 H90 C114 I4 N6'
_cell_volume   3029.76227939
_cell_formula_units_Z   2
loop_
 _symmetry_equiv_pos_site_id
 _symmetry_equiv_pos_as_xyz
  1  'x, y, z'
loop_
 _atom_site_type_symbol
 _atom_site_label
 _atom_site_symmetry_multiplicity
 _atom_site_fract_x
 _atom_site_fract_y
 _atom_site_fract_z
 _atom_site_occupancy
  Cu  Cu0  1  0.47705000  0.00616000  0.43468000  1.0
  Cu  Cu1  1  0.52295000  0.99384000  0.56532000  1.0
  Cu  Cu2  1  0.11277000  0.91945000  0.00813000  1.0
  Cu  Cu3  1  0.88722000  0.08054000  0.99187000  1.0
  P  P4  1  0.60839000  0.06961000  0.35825000  1.0
  P  P5  1  0.39161000  0.93039000  0.64175000  1.0
  P  P6  1  0.19109000  0.79180000  0.96564000  1.0
  P  P7  1  0.80891000  0.20820000  0.03436000  1.0
  H  H8  1  0.38823000  0.89955000  0.35203000  1.0
  H  H9  1  0.61176000  0.10046000  0.64797000  1.0
  H  H10  1  0.96048000  0.81980000  0.41555000  1.0
  H  H11  1  0.03952000  0.18020000  0.58446000  1.0
  H  H12  1  0.97708000  0.89359000  0.49826000  1.0
  H  H13  1  0.02292000  0.10641000  0.50174000  1.0
  H  H14  1  0.19962000  0.97286000  0.50278000  1.0
  H  H15  1  0.80038000  0.02714000  0.49722000  1.0
  H  H16  1  0.09130000  0.84428000  0.12859000  1.0
  H  H17  1  0.90870000  0.15573000  0.87142000  1.0
  H  H18  1  0.45631000  0.92246000  0.19482000  1.0
  H  H19  1  0.54368000  0.07755000  0.80518000  1.0
  H  H20  1  0.52755000  0.01293000  0.09754000  1.0
  H  H21  1  0.47244000  0.98707000  0.90246000  1.0
  H  H22  1  0.37514000  0.01292000  0.02053000  1.0
  H  H23  1  0.62486000  0.98708000  0.97947000  1.0
  H  H24  1  0.13533000  0.55393000  0.21016000  1.0
  H  H25  1  0.86468000  0.44607000  0.78984000  1.0
  H  H26  1  0.89323000  0.60500000  0.36629000  1.0
  H  H27  1  0.10677000  0.39500000  0.63371000  1.0
  H  H28  1  0.77940000  0.45169000  0.36874000  1.0
  H  H29  1  0.22060000  0.54831000  0.63126000  1.0
  H  H30  1  0.84790000  0.35841000  0.28994000  1.0
  H  H31  1  0.15212000  0.64158000  0.71005000  1.0
  H  H32  1  0.27122000  0.92784000  0.26968000  1.0
  H  H33  1  0.72877000  0.07217000  0.73032000  1.0
  H  H34  1  0.13919000  0.70757000  0.19279000  1.0
  H  H35  1  0.86081000  0.29244000  0.80721000  1.0
  H  H36  1  0.06775000  0.68420000  0.37222000  1.0
  H  H37  1  0.93226000  0.31580000  0.62778000  1.0
  H  H38  1  0.65550000  0.21219000  0.42079000  1.0
  H  H39  1  0.34450000  0.78781000  0.57921000  1.0
  H  H40  1  0.87438000  0.28178000  0.43545000  1.0
  H  H41  1  0.12562000  0.71822000  0.56455000  1.0
  H  H42  1  0.11872000  0.21913000  0.39362000  1.0
  H  H43  1  0.88128000  0.78088000  0.60638000  1.0
  H  H44  1  0.14324000  0.08741000  0.33521000  1.0
  H  H45  1  0.85676000  0.91259000  0.66479000  1.0
  H  H46  1  0.92531000  0.01974000  0.31928000  1.0
  H  H47  1  0.07469000  0.98026000  0.68072000  1.0
  H  H48  1  0.72922000  0.23122000  0.27075000  1.0
  H  H49  1  0.27079000  0.76878000  0.72925000  1.0
  H  H50  1  0.60884000  0.38012000  0.20971000  1.0
  H  H51  1  0.39116000  0.61988000  0.79029000  1.0
  H  H52  1  0.33743000  0.41785000  0.21726000  1.0
  H  H53  1  0.66257000  0.58214000  0.78274000  1.0
  H  H54  1  0.18869000  0.30754000  0.28752000  1.0
  H  H55  1  0.81131000  0.69245000  0.71248000  1.0
  H  H56  1  0.31248000  0.15779000  0.34976000  1.0
  H  H57  1  0.68753000  0.84221000  0.65024000  1.0
  H  H58  1  0.67809000  0.09473000  0.23259000  1.0
  H  H59  1  0.32192000  0.90527000  0.76741000  1.0
  H  H60  1  0.75281000  0.97079000  0.17080000  1.0
  H  H61  1  0.24719000  0.02921000  0.82920000  1.0
  H  H62  1  0.78076000  0.78914000  0.21103000  1.0
  H  H63  1  0.21923000  0.21086000  0.78897000  1.0
  H  H64  1  0.73353000  0.73061000  0.31451000  1.0
  H  H65  1  0.26646000  0.26939000  0.68549000  1.0
  H  H66  1  0.66153000  0.85468000  0.37723000  1.0
  H  H67  1  0.33846000  0.14532000  0.62277000  1.0
  H  H68  1  0.43626000  0.78496000  0.02633000  1.0
  H  H69  1  0.56374000  0.21504000  0.97367000  1.0
  H  H70  1  0.70257000  0.77747000  0.00045000  1.0
  H  H71  1  0.29743000  0.22253000  0.99954000  1.0
  H  H72  1  0.80421000  0.77560000  0.90174000  1.0
  H  H73  1  0.19579000  0.22440000  0.09825000  1.0
  H  H74  1  0.63819000  0.77904000  0.82889000  1.0
  H  H75  1  0.36181000  0.22096000  0.17110000  1.0
  H  H76  1  0.37241000  0.78476000  0.85479000  1.0
  H  H77  1  0.62758000  0.21524000  0.14521000  1.0
  H  H78  1  0.04095000  0.94812000  0.88719000  1.0
  H  H79  1  0.95904000  0.05188000  0.11281000  1.0
  H  H80  1  0.93868000  0.95223000  0.79755000  1.0
  H  H81  1  0.06131000  0.04777000  0.20245000  1.0
  H  H82  1  0.94410000  0.79296000  0.76317000  1.0
  H  H83  1  0.05590000  0.20704000  0.23683000  1.0
  H  H84  1  0.05042000  0.63221000  0.81789000  1.0
  H  H85  1  0.94959000  0.36778000  0.18211000  1.0
  H  H86  1  0.15892000  0.62840000  0.90679000  1.0
  H  H87  1  0.84108000  0.37160000  0.09321000  1.0
  H  H88  1  0.38744000  0.59618000  0.97396000  1.0
  H  H89  1  0.61255000  0.40382000  0.02604000  1.0
  H  H90  1  0.36675000  0.42917000  0.03466000  1.0
  H  H91  1  0.63325000  0.57083000  0.96534000  1.0
  H  H92  1  0.15248000  0.40459000  0.10434000  1.0
  H  H93  1  0.84751000  0.59541000  0.89566000  1.0
  H  H94  1  0.95393000  0.54658000  0.11198000  1.0
  H  H95  1  0.04607000  0.45342000  0.88802000  1.0
  H  H96  1  0.97345000  0.71358000  0.05107000  1.0
  H  H97  1  0.02655000  0.28642000  0.94893000  1.0
  C  C98  1  0.29387000  0.89780000  0.38327000  1.0
  C  C99  1  0.70612000  0.10220000  0.61673000  1.0
  C  C100  1  0.17464000  0.85240000  0.37685000  1.0
  C  C101  1  0.82536000  0.14760000  0.62315000  1.0
  C  C102  1  0.05829000  0.85110000  0.41917000  1.0
  C  C103  1  0.94171000  0.14890000  0.58083000  1.0
  C  C104  1  0.06625000  0.89386000  0.46505000  1.0
  C  C105  1  0.93374000  0.10615000  0.53495000  1.0
  C  C106  1  0.18866000  0.93778000  0.46780000  1.0
  C  C107  1  0.81134000  0.06222000  0.53220000  1.0
  C  C108  1  0.19126000  0.87821000  0.12366000  1.0
  C  C109  1  0.80874000  0.12180000  0.87634000  1.0
  C  C110  1  0.26824000  0.87431000  0.16965000  1.0
  C  C111  1  0.73175000  0.12569000  0.83035000  1.0
  C  C112  1  0.39187000  0.92381000  0.16043000  1.0
  C  C113  1  0.60812000  0.07619000  0.83957000  1.0
  C  C114  1  0.43236000  0.97366000  0.10649000  1.0
  C  C115  1  0.56763000  0.02634000  0.89351000  1.0
  C  C116  1  0.34906000  0.97339000  0.06323000  1.0
  C  C117  1  0.65094000  0.02661000  0.93677000  1.0
  C  C118  1  0.05520000  0.53492000  0.24591000  1.0
  C  C119  1  0.94480000  0.46508000  0.75409000  1.0
  C  C120  1  0.02449000  0.59386000  0.28756000  1.0
  C  C121  1  0.97551000  0.40614000  0.71244000  1.0
  C  C122  1  0.92317000  0.56229000  0.33279000  1.0
  C  C123  1  0.07684000  0.43771000  0.66721000  1.0
  C  C124  1  0.85874000  0.47733000  0.33426000  1.0
  C  C125  1  0.14127000  0.52267000  0.66574000  1.0
  C  C126  1  0.89644000  0.42537000  0.29021000  1.0
  C  C127  1  0.10357000  0.57462000  0.70979000  1.0
  C  C128  1  0.16985000  0.81030000  0.32657000  1.0
  C  C129  1  0.83015000  0.18970000  0.67343000  1.0
  C  C130  1  0.22534000  0.85837000  0.27370000  1.0
  C  C131  1  0.77465000  0.14164000  0.72630000  1.0
  C  C132  1  0.21549000  0.82115000  0.22545000  1.0
  C  C133  1  0.78451000  0.17886000  0.77455000  1.0
  C  C134  1  0.14903000  0.73499000  0.23062000  1.0
  C  C135  1  0.85096000  0.26502000  0.76938000  1.0
  C  C136  1  0.09425000  0.68461000  0.28310000  1.0
  C  C137  1  0.90576000  0.31539000  0.71690000  1.0
  C  C138  1  0.10609000  0.72322000  0.33076000  1.0
  C  C139  1  0.89392000  0.27678000  0.66924000  1.0
  C  C140  1  0.77646000  0.11204000  0.36862000  1.0
  C  C141  1  0.22355000  0.88796000  0.63138000  1.0
  C  C142  1  0.76268000  0.18632000  0.40131000  1.0
  C  C143  1  0.23732000  0.81368000  0.59869000  1.0
  C  C144  1  0.88529000  0.22505000  0.40955000  1.0
  C  C145  1  0.11471000  0.77495000  0.59045000  1.0
  C  C146  1  0.02293000  0.18986000  0.38586000  1.0
  C  C147  1  0.97707000  0.81014000  0.61414000  1.0
  C  C148  1  0.03656000  0.11590000  0.35366000  1.0
  C  C149  1  0.96344000  0.88410000  0.64634000  1.0
  C  C150  1  0.91397000  0.07701000  0.34486000  1.0
  C  C151  1  0.08603000  0.92299000  0.65514000  1.0
  C  C152  1  0.52709000  0.18341000  0.31332000  1.0
  C  C153  1  0.47292000  0.81659000  0.68668000  1.0
  C  C154  1  0.61067000  0.24751000  0.27446000  1.0
  C  C155  1  0.38933000  0.75250000  0.72554000  1.0
  C  C156  1  0.54269000  0.33163000  0.24017000  1.0
  C  C157  1  0.45731000  0.66837000  0.75983000  1.0
  C  C158  1  0.39074000  0.35278000  0.24449000  1.0
  C  C159  1  0.60926000  0.64722000  0.75551000  1.0
  C  C160  1  0.30702000  0.29031000  0.28368000  1.0
  C  C161  1  0.69299000  0.70969000  0.71633000  1.0
  C  C162  1  0.37537000  0.20628000  0.31800000  1.0
  C  C163  1  0.62464000  0.79373000  0.68200000  1.0
  C  C164  1  0.66589000  0.98321000  0.30933000  1.0
  C  C165  1  0.33411000  0.01679000  0.69067000  1.0
  C  C166  1  0.69104000  0.01515000  0.25104000  1.0
  C  C167  1  0.30896000  0.98485000  0.74896000  1.0
  C  C168  1  0.73263000  0.94548000  0.21606000  1.0
  C  C169  1  0.26737000  0.05453000  0.78394000  1.0
  C  C170  1  0.74870000  0.84305000  0.23874000  1.0
  C  C171  1  0.25129000  0.15695000  0.76126000  1.0
  C  C172  1  0.72282000  0.81050000  0.29669000  1.0
  C  C173  1  0.27717000  0.18950000  0.70331000  1.0
  C  C174  1  0.68210000  0.87994000  0.33187000  1.0
  C  C175  1  0.31790000  0.12006000  0.66813000  1.0
  C  C176  1  0.38578000  0.78584000  0.94226000  1.0
  C  C177  1  0.61422000  0.21416000  0.05774000  1.0
  C  C178  1  0.48055000  0.78342000  0.98302000  1.0
  C  C179  1  0.51946000  0.21658000  0.01698000  1.0
  C  C180  1  0.63025000  0.77848000  0.96858000  1.0
  C  C181  1  0.36975000  0.22152000  0.03141000  1.0
  C  C182  1  0.68744000  0.77760000  0.91302000  1.0
  C  C183  1  0.31256000  0.22240000  0.08698000  1.0
  C  C184  1  0.59438000  0.78038000  0.87226000  1.0
  C  C185  1  0.40561000  0.21962000  0.12774000  1.0
  C  C186  1  0.44414000  0.78409000  0.88674000  1.0
  C  C187  1  0.55586000  0.21590000  0.11326000  1.0
  C  C188  1  0.10947000  0.78858000  0.90205000  1.0
  C  C189  1  0.89053000  0.21142000  0.09795000  1.0
  C  C190  1  0.04538000  0.87927000  0.87129000  1.0
  C  C191  1  0.95461000  0.12073000  0.12871000  1.0
  C  C192  1  0.98747000  0.88115000  0.82116000  1.0
  C  C193  1  0.01253000  0.11884000  0.17884000  1.0
  C  C194  1  0.99072000  0.79220000  0.80194000  1.0
  C  C195  1  0.00928000  0.20780000  0.19806000  1.0
  C  C196  1  0.05231000  0.70132000  0.83280000  1.0
  C  C197  1  0.94769000  0.29867000  0.16720000  1.0
  C  C198  1  0.11203000  0.69951000  0.88253000  1.0
  C  C199  1  0.88797000  0.30049000  0.11747000  1.0
  C  C200  1  0.18173000  0.66622000  0.00844000  1.0
  C  C201  1  0.81827000  0.33378000  0.99156000  1.0
  C  C202  1  0.29229000  0.58553000  0.00417000  1.0
  C  C203  1  0.70771000  0.41447000  0.99583000  1.0
  C  C204  1  0.28132000  0.49187000  0.03850000  1.0
  C  C205  1  0.71868000  0.50813000  0.96150000  1.0
  C  C206  1  0.16022000  0.47772000  0.07754000  1.0
  C  C207  1  0.83977000  0.52228000  0.92246000  1.0
  C  C208  1  0.04905000  0.55733000  0.08166000  1.0
  C  C209  1  0.95095000  0.44266000  0.91835000  1.0
  C  C210  1  0.05955000  0.65107000  0.04737000  1.0
  C  C211  1  0.94045000  0.34893000  0.95263000  1.0
  I  I212  1  0.63206000  0.85629000  0.50227000  1.0
  I  I213  1  0.36794000  0.14372000  0.49773000  1.0
  I  I214  1  0.84458000  0.90870000  0.06089000  1.0
  I  I215  1  0.15542000  0.09130000  0.93911000  1.0
  N  N216  1  0.30112000  0.94036000  0.42746000  1.0
  N  N217  1  0.69887000  0.05963000  0.57254000  1.0
  N  N218  1  0.22974000  0.92662000  0.07154000  1.0
  N  N219  1  0.77026000  0.07338000  0.92846000  1.0
  N  N220  1  0.99330000  0.45351000  0.24666000  1.0
  N  N221  1  0.00671000  0.54649000  0.75334000  1.0
