# generated using pymatgen
data_CdH16C24(NO)4
_symmetry_space_group_name_H-M   'P 1'
_cell_length_a   7.20441000
_cell_length_b   10.94490000
_cell_length_c   15.16930000
_cell_angle_alpha   70.79600000
_cell_angle_beta   89.98000000
_cell_angle_gamma   70.79400000
_symmetry_Int_Tables_number   1
_chemical_formula_structural   CdH16C24(NO)4
_chemical_formula_sum   'Cd2 H32 C48 N8 O8'
_cell_volume   1058.86288249
_cell_formula_units_Z   2
loop_
 _symmetry_equiv_pos_site_id
 _symmetry_equiv_pos_as_xyz
  1  'x, y, z'
loop_
 _atom_site_type_symbol
 _atom_site_label
 _atom_site_symmetry_multiplicity
 _atom_site_fract_x
 _atom_site_fract_y
 _atom_site_fract_z
 _atom_site_occupancy
  Cd  Cd0  1  0.12143000  0.00009000  0.74998000  1.0
  Cd  Cd1  1  0.87857000  0.99991000  0.25003000  1.0
  H  H2  1  0.49329000  0.27315000  0.79240000  1.0
  H  H3  1  0.76637000  0.72712000  0.70735000  1.0
  H  H4  1  0.50671000  0.72685000  0.20760000  1.0
  H  H5  1  0.23362000  0.27288000  0.29266000  1.0
  H  H6  1  0.63733000  0.46051000  0.73359000  1.0
  H  H7  1  0.09763000  0.53974000  0.76595000  1.0
  H  H8  1  0.36267000  0.53950000  0.26640000  1.0
  H  H9  1  0.90237000  0.46025000  0.23405000  1.0
  H  H10  1  0.48419000  0.65534000  0.58427000  1.0
  H  H11  1  0.13903000  0.34469000  0.91524000  1.0
  H  H12  1  0.51580000  0.34467000  0.41572000  1.0
  H  H13  1  0.86097000  0.65530000  0.08477000  1.0
  H  H14  1  0.18920000  0.66039000  0.49210000  1.0
  H  H15  1  0.84923000  0.33975000  0.00756000  1.0
  H  H16  1  0.81080000  0.33961000  0.50790000  1.0
  H  H17  1  0.15077000  0.66024000  0.99245000  1.0
  H  H18  1  0.91167000  0.16384000  0.89103000  1.0
  H  H19  1  0.07550000  0.83701000  0.60878000  1.0
  H  H20  1  0.08833000  0.83616000  0.10898000  1.0
  H  H21  1  0.92451000  0.16299000  0.39122000  1.0
  H  H22  1  0.64838000  0.16727000  0.99666000  1.0
  H  H23  1  0.81616000  0.83331000  0.50306000  1.0
  H  H24  1  0.35162000  0.83272000  0.00335000  1.0
  H  H25  1  0.18386000  0.16669000  0.49695000  1.0
  H  H26  1  0.57997000  0.82554000  0.93188000  1.0
  H  H27  1  0.40519000  0.17424000  0.56821000  1.0
  H  H28  1  0.42002000  0.17446000  0.06811000  1.0
  H  H29  1  0.59483000  0.82576000  0.43178000  1.0
  H  H30  1  0.85038000  0.83324000  0.83338000  1.0
  H  H31  1  0.68272000  0.16696000  0.66676000  1.0
  H  H32  1  0.14961000  0.16678000  0.16661000  1.0
  H  H33  1  0.31728000  0.83306000  0.33323000  1.0
  C  C34  1  0.19979000  0.23877000  0.70842000  1.0
  C  C35  1  0.43870000  0.76152000  0.79129000  1.0
  C  C36  1  0.80020000  0.76123000  0.29158000  1.0
  C  C37  1  0.56129000  0.23848000  0.20872000  1.0
  C  C38  1  0.26646000  0.36018000  0.67590000  1.0
  C  C39  1  0.62666000  0.64006000  0.82390000  1.0
  C  C40  1  0.73353000  0.63982000  0.32410000  1.0
  C  C41  1  0.37334000  0.35994000  0.17611000  1.0
  C  C42  1  0.42933000  0.35907000  0.72680000  1.0
  C  C43  1  0.78845000  0.64118000  0.77295000  1.0
  C  C44  1  0.57066000  0.64093000  0.27319000  1.0
  C  C45  1  0.21155000  0.35882000  0.22705000  1.0
  C  C46  1  0.50901000  0.46358000  0.69386000  1.0
  C  C47  1  0.97250000  0.53660000  0.80580000  1.0
  C  C48  1  0.49098000  0.53643000  0.30613000  1.0
  C  C49  1  0.02749000  0.46339000  0.19420000  1.0
  C  C50  1  0.42347000  0.57273000  0.60943000  1.0
  C  C51  1  0.99586000  0.42740000  0.89019000  1.0
  C  C52  1  0.57653000  0.42728000  0.39056000  1.0
  C  C53  1  0.00414000  0.57259000  0.10981000  1.0
  C  C54  1  0.26034000  0.57638000  0.55786000  1.0
  C  C55  1  0.83637000  0.42381000  0.94183000  1.0
  C  C56  1  0.73967000  0.42361000  0.44213000  1.0
  C  C57  1  0.16362000  0.57618000  0.05817000  1.0
  C  C58  1  0.18182000  0.47016000  0.59056000  1.0
  C  C59  1  0.65175000  0.53008000  0.90925000  1.0
  C  C60  1  0.81818000  0.52983000  0.40943000  1.0
  C  C61  1  0.34825000  0.46992000  0.09076000  1.0
  C  C62  1  0.83354000  0.09070000  0.90263000  1.0
  C  C63  1  0.92410000  0.90988000  0.59727000  1.0
  C  C64  1  0.16646000  0.90930000  0.09737000  1.0
  C  C65  1  0.07591000  0.09012000  0.40274000  1.0
  C  C66  1  0.68395000  0.09263000  0.96069000  1.0
  C  C67  1  0.77670000  0.90778000  0.53916000  1.0
  C  C68  1  0.31604000  0.90737000  0.03931000  1.0
  C  C69  1  0.22331000  0.09221000  0.46085000  1.0
  C  C70  1  0.58364000  0.99889000  0.97174000  1.0
  C  C71  1  0.58255000  0.00119000  0.52824000  1.0
  C  C72  1  0.41635000  0.00110000  0.02826000  1.0
  C  C73  1  0.41747000  0.99882000  0.47176000  1.0
  C  C74  1  0.64886000  0.90211000  0.92639000  1.0
  C  C75  1  0.55076000  0.09791000  0.57364000  1.0
  C  C76  1  0.35114000  0.09789000  0.07360000  1.0
  C  C77  1  0.44925000  0.90210000  0.42636000  1.0
  C  C78  1  0.79977000  0.90666000  0.87010000  1.0
  C  C79  1  0.70593000  0.09361000  0.62993000  1.0
  C  C80  1  0.20023000  0.09335000  0.12989000  1.0
  C  C81  1  0.29408000  0.90640000  0.37007000  1.0
  N  N82  1  0.88900000  0.00072000  0.85665000  1.0
  N  N83  1  0.88929000  0.99973000  0.64336000  1.0
  N  N84  1  0.11099000  0.99929000  0.14335000  1.0
  N  N85  1  0.11071000  0.00028000  0.35665000  1.0
  N  N86  1  0.00445000  0.47952000  0.54412000  1.0
  N  N87  1  0.48379000  0.52075000  0.95587000  1.0
  N  N88  1  0.99555000  0.52048000  0.45587000  1.0
  N  N89  1  0.51621000  0.47925000  0.04414000  1.0
  O  O90  1  0.22827000  0.16560000  0.79521000  1.0
  O  O91  1  0.39388000  0.83440000  0.70447000  1.0
  O  O92  1  0.77171000  0.83441000  0.20479000  1.0
  O  O93  1  0.60613000  0.16560000  0.29554000  1.0
  O  O94  1  0.12561000  0.20745000  0.64527000  1.0
  O  O95  1  0.33341000  0.79307000  0.85446000  1.0
  O  O96  1  0.87440000  0.79255000  0.35472000  1.0
  O  O97  1  0.66657000  0.20693000  0.14554000  1.0
