# generated using pymatgen
data_CaH18(CO)10
_symmetry_space_group_name_H-M   'P 1'
_cell_length_a   11.65430000
_cell_length_b   11.65390000
_cell_length_c   12.16150000
_cell_angle_alpha   89.99970000
_cell_angle_beta   89.99930000
_cell_angle_gamma   89.99910000
_symmetry_Int_Tables_number   1
_chemical_formula_structural   CaH18(CO)10
_chemical_formula_sum   'Ca4 H72 C40 O40'
_cell_volume   1651.75117544
_cell_formula_units_Z   4
loop_
 _symmetry_equiv_pos_site_id
 _symmetry_equiv_pos_as_xyz
  1  'x, y, z'
loop_
 _atom_site_type_symbol
 _atom_site_label
 _atom_site_symmetry_multiplicity
 _atom_site_fract_x
 _atom_site_fract_y
 _atom_site_fract_z
 _atom_site_occupancy
  Ca  Ca0  1  0.78186000  0.78186000  0.00000000  1.0
  Ca  Ca1  1  0.21814000  0.21814000  0.49999000  1.0
  Ca  Ca2  1  0.71813000  0.28186000  0.74999000  1.0
  Ca  Ca3  1  0.28186000  0.71814000  0.25001000  1.0
  H  H4  1  0.96915000  0.89928000  0.79397000  1.0
  H  H5  1  0.03086000  0.10071000  0.29397000  1.0
  H  H6  1  0.60071000  0.46914000  0.54397000  1.0
  H  H7  1  0.39930000  0.53085000  0.04399000  1.0
  H  H8  1  0.53085000  0.39928000  0.95601000  1.0
  H  H9  1  0.46914000  0.60071000  0.45602000  1.0
  H  H10  1  0.89927000  0.96914000  0.20604000  1.0
  H  H11  1  0.10073000  0.03086000  0.70602000  1.0
  H  H12  1  0.85893000  0.07665000  0.80405000  1.0
  H  H13  1  0.14108000  0.92334000  0.30404000  1.0
  H  H14  1  0.42334000  0.35893000  0.55404000  1.0
  H  H15  1  0.57665000  0.64108000  0.05407000  1.0
  H  H16  1  0.64107000  0.57665000  0.94595000  1.0
  H  H17  1  0.35893000  0.42334000  0.44595000  1.0
  H  H18  1  0.07664000  0.85892000  0.19596000  1.0
  H  H19  1  0.92335000  0.14106000  0.69594000  1.0
  H  H20  1  0.64537000  0.92654000  0.77672000  1.0
  H  H21  1  0.35463000  0.07347000  0.27673000  1.0
  H  H22  1  0.57346000  0.14536000  0.52670000  1.0
  H  H23  1  0.42654000  0.85463000  0.02672000  1.0
  H  H24  1  0.85462000  0.42653000  0.97327000  1.0
  H  H25  1  0.14537000  0.57346000  0.47327000  1.0
  H  H26  1  0.92653000  0.64536000  0.22330000  1.0
  H  H27  1  0.07345000  0.35464000  0.72327000  1.0
  H  H28  1  0.62058000  0.01766000  0.60388000  1.0
  H  H29  1  0.37942000  0.98234000  0.10389000  1.0
  H  H30  1  0.48233000  0.12059000  0.35386000  1.0
  H  H31  1  0.51767000  0.87941000  0.85388000  1.0
  H  H32  1  0.87941000  0.51765000  0.14612000  1.0
  H  H33  1  0.12059000  0.48235000  0.64612000  1.0
  H  H34  1  0.01766000  0.62060000  0.39614000  1.0
  H  H35  1  0.98232000  0.37941000  0.89612000  1.0
  H  H36  1  0.72995000  0.84855000  0.60104000  1.0
  H  H37  1  0.27006000  0.15145000  0.10105000  1.0
  H  H38  1  0.65145000  0.22995000  0.35103000  1.0
  H  H39  1  0.34855000  0.77005000  0.85105000  1.0
  H  H40  1  0.77005000  0.34853000  0.14896000  1.0
  H  H41  1  0.22995000  0.65146000  0.64895000  1.0
  H  H42  1  0.84854000  0.72995000  0.39898000  1.0
  H  H43  1  0.15145000  0.27007000  0.89895000  1.0
  H  H44  1  0.79928000  0.94522000  0.50793000  1.0
  H  H45  1  0.20073000  0.05478000  0.00794000  1.0
  H  H46  1  0.55478000  0.29929000  0.25792000  1.0
  H  H47  1  0.44523000  0.70070000  0.75795000  1.0
  H  H48  1  0.70070000  0.44523000  0.24206000  1.0
  H  H49  1  0.29928000  0.55478000  0.74206000  1.0
  H  H50  1  0.94522000  0.79930000  0.49208000  1.0
  H  H51  1  0.05477000  0.20071000  0.99206000  1.0
  H  H52  1  0.74748000  0.78608000  0.79856000  1.0
  H  H53  1  0.25252000  0.21392000  0.29857000  1.0
  H  H54  1  0.71390000  0.24747000  0.54856000  1.0
  H  H55  1  0.28610000  0.75252000  0.04858000  1.0
  H  H56  1  0.75253000  0.28608000  0.95142000  1.0
  H  H57  1  0.24747000  0.71392000  0.45144000  1.0
  H  H58  1  0.78608000  0.74747000  0.20144000  1.0
  H  H59  1  0.21391000  0.25255000  0.70142000  1.0
  H  H60  1  0.83921000  0.05126000  0.96586000  1.0
  H  H61  1  0.16078000  0.94871000  0.46586000  1.0
  H  H62  1  0.44875000  0.33922000  0.71585000  1.0
  H  H63  1  0.55126000  0.66077000  0.21588000  1.0
  H  H64  1  0.66078000  0.55128000  0.78414000  1.0
  H  H65  1  0.33922000  0.44872000  0.28414000  1.0
  H  H66  1  0.05124000  0.83922000  0.03415000  1.0
  H  H67  1  0.94875000  0.16077000  0.53413000  1.0
  H  H68  1  0.63193000  0.09328000  0.89149000  1.0
  H  H69  1  0.36808000  0.90673000  0.39149000  1.0
  H  H70  1  0.40672000  0.13193000  0.64148000  1.0
  H  H71  1  0.59328000  0.86806000  0.14149000  1.0
  H  H72  1  0.86806000  0.59327000  0.85851000  1.0
  H  H73  1  0.13193000  0.40674000  0.35852000  1.0
  H  H74  1  0.09326000  0.63193000  0.10852000  1.0
  H  H75  1  0.90672000  0.36806000  0.60850000  1.0
  C  C76  1  0.87997000  0.89787000  0.76425000  1.0
  C  C77  1  0.12004000  0.10213000  0.26425000  1.0
  C  C78  1  0.60213000  0.37997000  0.51424000  1.0
  C  C79  1  0.39789000  0.62003000  0.01425000  1.0
  C  C80  1  0.62003000  0.39787000  0.98574000  1.0
  C  C81  1  0.37996000  0.60213000  0.48575000  1.0
  C  C82  1  0.89786000  0.87997000  0.23577000  1.0
  C  C83  1  0.10214000  0.12004000  0.73574000  1.0
  C  C84  1  0.81225000  0.99639000  0.81638000  1.0
  C  C85  1  0.18775000  0.00360000  0.31638000  1.0
  C  C86  1  0.50361000  0.31226000  0.56638000  1.0
  C  C87  1  0.49639000  0.68775000  0.06639000  1.0
  C  C88  1  0.68774000  0.49639000  0.93361000  1.0
  C  C89  1  0.31225000  0.50361000  0.43362000  1.0
  C  C90  1  0.99638000  0.81225000  0.18362000  1.0
  C  C91  1  0.00362000  0.18774000  0.68361000  1.0
  C  C92  1  0.69407000  0.00637000  0.76461000  1.0
  C  C93  1  0.30594000  0.99363000  0.26461000  1.0
  C  C94  1  0.49364000  0.19407000  0.51460000  1.0
  C  C95  1  0.50638000  0.80593000  0.01461000  1.0
  C  C96  1  0.80592000  0.50636000  0.98539000  1.0
  C  C97  1  0.19406000  0.49363000  0.48540000  1.0
  C  C98  1  0.00636000  0.69407000  0.23540000  1.0
  C  C99  1  0.99362000  0.30593000  0.73539000  1.0
  C  C100  1  0.70751000  0.02865000  0.64066000  1.0
  C  C101  1  0.29249000  0.97135000  0.14067000  1.0
  C  C102  1  0.47134000  0.20753000  0.39066000  1.0
  C  C103  1  0.52866000  0.79248000  0.89067000  1.0
  C  C104  1  0.79248000  0.52865000  0.10933000  1.0
  C  C105  1  0.20751000  0.47135000  0.60933000  1.0
  C  C106  1  0.02865000  0.70753000  0.35935000  1.0
  C  C107  1  0.97135000  0.29248000  0.85933000  1.0
  C  C108  1  0.77905000  0.92955000  0.59466000  1.0
  C  C109  1  0.22096000  0.07045000  0.09466000  1.0
  C  C110  1  0.57045000  0.27905000  0.34464000  1.0
  C  C111  1  0.42956000  0.72095000  0.84466000  1.0
  C  C112  1  0.72095000  0.42954000  0.15534000  1.0
  C  C113  1  0.27905000  0.57045000  0.65535000  1.0
  C  C114  1  0.92954000  0.77906000  0.40536000  1.0
  C  C115  1  0.07045000  0.22096000  0.90534000  1.0
  O  O116  1  0.83521000  0.78885000  0.79295000  1.0
  O  O117  1  0.16479000  0.21115000  0.29295000  1.0
  O  O118  1  0.71115000  0.33521000  0.54294000  1.0
  O  O119  1  0.28886000  0.66478000  0.04295000  1.0
  O  O120  1  0.66479000  0.28884000  0.95705000  1.0
  O  O121  1  0.33520000  0.71114000  0.45705000  1.0
  O  O122  1  0.78884000  0.83521000  0.20707000  1.0
  O  O123  1  0.21115000  0.16481000  0.70705000  1.0
  O  O124  1  0.80471000  0.98202000  0.93460000  1.0
  O  O125  1  0.19529000  0.01796000  0.43460000  1.0
  O  O126  1  0.51798000  0.30470000  0.68460000  1.0
  O  O127  1  0.48203000  0.69530000  0.18461000  1.0
  O  O128  1  0.69529000  0.48204000  0.81539000  1.0
  O  O129  1  0.30471000  0.51797000  0.31539000  1.0
  O  O130  1  0.98201000  0.80469000  0.06541000  1.0
  O  O131  1  0.01798000  0.19529000  0.56539000  1.0
  O  O132  1  0.63091000  0.10067000  0.81143000  1.0
  O  O133  1  0.36909000  0.89933000  0.31144000  1.0
  O  O134  1  0.39934000  0.13091000  0.56143000  1.0
  O  O135  1  0.60067000  0.86909000  0.06144000  1.0
  O  O136  1  0.86908000  0.60066000  0.93856000  1.0
  O  O137  1  0.13091000  0.39933000  0.43857000  1.0
  O  O138  1  0.10067000  0.63090000  0.18857000  1.0
  O  O139  1  0.89933000  0.36909000  0.68856000  1.0
  O  O140  1  0.75297000  0.13761000  0.62012000  1.0
  O  O141  1  0.24702000  0.86239000  0.12012000  1.0
  O  O142  1  0.36239000  0.25299000  0.37011000  1.0
  O  O143  1  0.63762000  0.74701000  0.87012000  1.0
  O  O144  1  0.74703000  0.63762000  0.12988000  1.0
  O  O145  1  0.25297000  0.36239000  0.62988000  1.0
  O  O146  1  0.13762000  0.75298000  0.37989000  1.0
  O  O147  1  0.86239000  0.24702000  0.87987000  1.0
  O  O148  1  0.88860000  0.91657000  0.64894000  1.0
  O  O149  1  0.11141000  0.08344000  0.14894000  1.0
  O  O150  1  0.58342000  0.38861000  0.39893000  1.0
  O  O151  1  0.41658000  0.61139000  0.89894000  1.0
  O  O152  1  0.61140000  0.41657000  0.10106000  1.0
  O  O153  1  0.38860000  0.58343000  0.60106000  1.0
  O  O154  1  0.91656000  0.88861000  0.35108000  1.0
  O  O155  1  0.08344000  0.11140000  0.85106000  1.0
