# generated using pymatgen
data_ZnH4C18N5O12
_symmetry_space_group_name_H-M   'P 1'
_cell_length_a   14.39560000
_cell_length_b   16.54940000
_cell_length_c   18.00010000
_cell_angle_alpha   89.98350000
_cell_angle_beta   89.32790000
_cell_angle_gamma   89.88730000
_symmetry_Int_Tables_number   1
_chemical_formula_structural   ZnH4C18N5O12
_chemical_formula_sum   'Zn2 H8 C36 N10 O24'
_cell_volume   4288.01411000
_cell_formula_units_Z   2
loop_
 _symmetry_equiv_pos_site_id
 _symmetry_equiv_pos_as_xyz
  1  'x, y, z'
loop_
 _atom_site_type_symbol
 _atom_site_label
 _atom_site_symmetry_multiplicity
 _atom_site_fract_x
 _atom_site_fract_y
 _atom_site_fract_z
 _atom_site_occupancy
  Zn  Zn0  1  0.50017000  0.58421000  0.50000000  1.0
  Zn  Zn1  1  0.49993000  0.41575000  0.50003000  1.0
  H  H2  1  0.38835000  0.58749000  0.12396000  1.0
  H  H3  1  0.38873000  0.41068000  0.87691000  1.0
  H  H4  1  0.61001000  0.58793000  0.87657000  1.0
  H  H5  1  0.61165000  0.41138000  0.12259000  1.0
  H  H6  1  0.40681000  0.71375000  0.58908000  1.0
  H  H7  1  0.59638000  0.28586000  0.41326000  1.0
  H  H8  1  0.59141000  0.71388000  0.40928000  1.0
  H  H9  1  0.40486000  0.28616000  0.58899000  1.0
  C  C10  1  0.49928000  0.50193000  0.64543000  1.0
  C  C11  1  0.50105000  0.50162000  0.35459000  1.0
  C  C12  1  0.32086000  0.49896000  0.50173000  1.0
  C  C13  1  0.67921000  0.49823000  0.49843000  1.0
  C  C14  1  0.22112000  0.49945000  0.50131000  1.0
  C  C15  1  0.77896000  0.49860000  0.49887000  1.0
  C  C16  1  0.13596000  0.49981000  0.50064000  1.0
  C  C17  1  0.86412000  0.49926000  0.49943000  1.0
  C  C18  1  0.04289000  0.49993000  0.50015000  1.0
  C  C19  1  0.95718000  0.49975000  0.49986000  1.0
  C  C20  1  0.43759000  0.54890000  0.15271000  1.0
  C  C21  1  0.43728000  0.45022000  0.84779000  1.0
  C  C22  1  0.56127000  0.54926000  0.84759000  1.0
  C  C23  1  0.56273000  0.45058000  0.15189000  1.0
  C  C24  1  0.43835000  0.54747000  0.22979000  1.0
  C  C25  1  0.43787000  0.45328000  0.77074000  1.0
  C  C26  1  0.56118000  0.54793000  0.77052000  1.0
  C  C27  1  0.56287000  0.45363000  0.22894000  1.0
  C  C28  1  0.50087000  0.50097000  0.27072000  1.0
  C  C29  1  0.49940000  0.50123000  0.72929000  1.0
  C  C30  1  0.49993000  0.49935000  0.11260000  1.0
  C  C31  1  0.49908000  0.49945000  0.88737000  1.0
  C  C32  1  0.49947000  0.49881000  0.03382000  1.0
  C  C33  1  0.49905000  0.49884000  0.96615000  1.0
  C  C34  1  0.44071000  0.83276000  0.54712000  1.0
  C  C35  1  0.55973000  0.16702000  0.45407000  1.0
  C  C36  1  0.54643000  0.83286000  0.44446000  1.0
  C  C37  1  0.45173000  0.16728000  0.55525000  1.0
  C  C38  1  0.44577000  0.74902000  0.54817000  1.0
  C  C39  1  0.55543000  0.25080000  0.45312000  1.0
  C  C40  1  0.54893000  0.74910000  0.44803000  1.0
  C  C41  1  0.44912000  0.25102000  0.55139000  1.0
  C  C42  1  0.49231000  0.87878000  0.49506000  1.0
  C  C43  1  0.50693000  0.12130000  0.50551000  1.0
  C  C44  1  0.49523000  0.96366000  0.49722000  1.0
  C  C45  1  0.50399000  0.03640000  0.50349000  1.0
  N  N46  1  0.49864000  0.70847000  0.49887000  1.0
  N  N47  1  0.50121000  0.29145000  0.50147000  1.0
  N  N48  1  0.36667000  0.59585000  0.26926000  1.0
  N  N49  1  0.36814000  0.40419000  0.73147000  1.0
  N  N50  1  0.63318000  0.59611000  0.73141000  1.0
  N  N51  1  0.63440000  0.40563000  0.26754000  1.0
  N  N52  1  0.37728000  0.87208000  0.60127000  1.0
  N  N53  1  0.62318000  0.12698000  0.40042000  1.0
  N  N54  1  0.60056000  0.87233000  0.38440000  1.0
  N  N55  1  0.39646000  0.12758000  0.61453000  1.0
  O  O56  1  0.48918000  0.57038000  0.61520000  1.0
  O  O57  1  0.49105000  0.43356000  0.38568000  1.0
  O  O58  1  0.51085000  0.57013000  0.38469000  1.0
  O  O59  1  0.50905000  0.43373000  0.61448000  1.0
  O  O60  1  0.36087000  0.56736000  0.49534000  1.0
  O  O61  1  0.63993000  0.42962000  0.49202000  1.0
  O  O62  1  0.63914000  0.56673000  0.50468000  1.0
  O  O63  1  0.36023000  0.43028000  0.50830000  1.0
  O  O64  1  0.35512000  0.66611000  0.24764000  1.0
  O  O65  1  0.32283000  0.56163000  0.31953000  1.0
  O  O66  1  0.32111000  0.43900000  0.68419000  1.0
  O  O67  1  0.36176000  0.33223000  0.74970000  1.0
  O  O68  1  0.64572000  0.66584000  0.75385000  1.0
  O  O69  1  0.67644000  0.56204000  0.68064000  1.0
  O  O70  1  0.67788000  0.44012000  0.31713000  1.0
  O  O71  1  0.64600000  0.33511000  0.24653000  1.0
  O  O72  1  0.37360000  0.84187000  0.66400000  1.0
  O  O73  1  0.33186000  0.93020000  0.57850000  1.0
  O  O74  1  0.62428000  0.15449000  0.33668000  1.0
  O  O75  1  0.67071000  0.07081000  0.42462000  1.0
  O  O76  1  0.67662000  0.84173000  0.36870000  1.0
  O  O77  1  0.56398000  0.93103000  0.35398000  1.0
  O  O78  1  0.31800000  0.15510000  0.62650000  1.0
  O  O79  1  0.43485000  0.07165000  0.64784000  1.0
