# generated using pymatgen
data_ErH14(C3O2)5
_symmetry_space_group_name_H-M   'P 1'
_cell_length_a   6.07967000
_cell_length_b   10.57290000
_cell_length_c   13.38980000
_cell_angle_alpha   112.13700000
_cell_angle_beta   96.86350000
_cell_angle_gamma   97.88300000
_symmetry_Int_Tables_number   1
_chemical_formula_structural   ErH14(C3O2)5
_chemical_formula_sum   'Er2 H28 C30 O20'
_cell_volume   775.84716139
_cell_formula_units_Z   2
loop_
 _symmetry_equiv_pos_site_id
 _symmetry_equiv_pos_as_xyz
  1  'x, y, z'
loop_
 _atom_site_type_symbol
 _atom_site_label
 _atom_site_symmetry_multiplicity
 _atom_site_fract_x
 _atom_site_fract_y
 _atom_site_fract_z
 _atom_site_occupancy
  Er  Er0  1  0.41547000  0.36990000  0.28997000  1.0
  Er  Er1  1  0.58452000  0.63010000  0.71003000  1.0
  H  H2  1  0.57663000  0.88634000  0.57555000  1.0
  H  H3  1  0.42337000  0.11367000  0.42445000  1.0
  H  H4  1  0.86241000  0.88237000  0.56340000  1.0
  H  H5  1  0.13759000  0.11763000  0.43660000  1.0
  H  H6  1  0.63671000  0.00414000  0.29560000  1.0
  H  H7  1  0.36328000  0.99585000  0.70439000  1.0
  H  H8  1  0.89129000  0.99634000  0.16551000  1.0
  H  H9  1  0.10870000  0.00366000  0.83449000  1.0
  H  H10  1  0.26950000  0.75236000  0.29032000  1.0
  H  H11  1  0.73050000  0.24764000  0.70968000  1.0
  H  H12  1  0.01412000  0.75893000  0.41967000  1.0
  H  H13  1  0.98589000  0.24107000  0.58033000  1.0
  H  H14  1  0.07399000  0.91530000  0.02808000  1.0
  H  H15  1  0.92602000  0.08470000  0.97192000  1.0
  H  H16  1  0.36478000  0.90802000  0.02857000  1.0
  H  H17  1  0.63522000  0.09199000  0.97143000  1.0
  H  H18  1  0.95969000  0.36213000  0.04330000  1.0
  H  H19  1  0.04032000  0.63785000  0.95670000  1.0
  H  H20  1  0.97062000  0.54164000  0.12585000  1.0
  H  H21  1  0.02937000  0.45834000  0.87414000  1.0
  H  H22  1  0.51456000  0.70175000  0.17525000  1.0
  H  H23  1  0.48544000  0.29825000  0.82475000  1.0
  H  H24  1  0.27212000  0.26847000  0.96497000  1.0
  H  H25  1  0.72788000  0.73153000  0.03503000  1.0
  H  H26  1  0.87583000  0.38312000  0.37875000  1.0
  H  H27  1  0.12417000  0.61689000  0.62125000  1.0
  H  H28  1  0.75831000  0.47353000  0.47597000  1.0
  H  H29  1  0.24169000  0.52647000  0.52403000  1.0
  C  C30  1  0.63355000  0.68532000  0.48208000  1.0
  C  C31  1  0.36646000  0.31468000  0.51792000  1.0
  C  C32  1  0.68720000  0.84235000  0.51768000  1.0
  C  C33  1  0.31280000  0.15765000  0.48232000  1.0
  C  C34  1  0.80315000  0.88028000  0.36513000  1.0
  C  C35  1  0.19685000  0.11971000  0.63487000  1.0
  C  C36  1  0.77425000  0.94774000  0.29388000  1.0
  C  C37  1  0.22575000  0.05225000  0.70612000  1.0
  C  C38  1  0.91900000  0.94250000  0.21972000  1.0
  C  C39  1  0.08100000  0.05750000  0.78028000  1.0
  C  C40  1  0.09528000  0.86942000  0.21649000  1.0
  C  C41  1  0.90472000  0.13058000  0.78351000  1.0
  C  C42  1  0.12766000  0.80485000  0.28952000  1.0
  C  C43  1  0.87235000  0.19515000  0.71048000  1.0
  C  C44  1  0.98256000  0.80970000  0.36354000  1.0
  C  C45  1  0.01745000  0.19030000  0.63645000  1.0
  C  C46  1  0.23933000  0.93775000  0.08172000  1.0
  C  C47  1  0.76067000  0.06225000  0.91828000  1.0
  C  C48  1  0.30731000  0.09352000  0.15248000  1.0
  C  C49  1  0.69268000  0.90648000  0.84752000  1.0
  C  C50  1  0.91214000  0.40558000  0.20821000  1.0
  C  C51  1  0.08785000  0.59441000  0.79179000  1.0
  C  C52  1  0.02080000  0.44537000  0.12585000  1.0
  C  C53  1  0.97920000  0.55462000  0.87415000  1.0
  C  C54  1  0.37926000  0.48413000  0.07636000  1.0
  C  C55  1  0.62073000  0.51586000  0.92365000  1.0
  C  C56  1  0.50898000  0.61393000  0.09874000  1.0
  C  C57  1  0.49102000  0.38607000  0.90127000  1.0
  C  C58  1  0.36930000  0.36992000  0.97895000  1.0
  C  C59  1  0.63070000  0.63008000  0.02106000  1.0
  O  O60  1  0.53172000  0.60687000  0.38584000  1.0
  O  O61  1  0.46828000  0.39313000  0.61416000  1.0
  O  O62  1  0.69951000  0.64085000  0.55561000  1.0
  O  O63  1  0.30049000  0.35915000  0.44439000  1.0
  O  O64  1  0.64653000  0.88938000  0.43240000  1.0
  O  O65  1  0.35347000  0.11062000  0.56760000  1.0
  O  O66  1  0.43161000  0.13692000  0.24722000  1.0
  O  O67  1  0.56839000  0.86308000  0.75278000  1.0
  O  O68  1  0.23929000  0.17880000  0.11509000  1.0
  O  O69  1  0.76070000  0.82120000  0.88491000  1.0
  O  O70  1  0.24308000  0.85421000  0.14364000  1.0
  O  O71  1  0.75692000  0.14579000  0.85636000  1.0
  O  O72  1  0.04157000  0.39277000  0.28491000  1.0
  O  O73  1  0.95842000  0.60723000  0.71509000  1.0
  O  O74  1  0.69971000  0.38775000  0.19682000  1.0
  O  O75  1  0.30028000  0.61225000  0.80318000  1.0
  O  O76  1  0.26258000  0.46817000  0.15682000  1.0
  O  O77  1  0.73741000  0.53183000  0.84318000  1.0
  O  O78  1  0.74109000  0.38189000  0.41420000  1.0
  O  O79  1  0.25890000  0.61812000  0.58580000  1.0
