# generated using pymatgen
data_ZnH9C11N5O6
_symmetry_space_group_name_H-M   'P 1'
_cell_length_a   10.26960000
_cell_length_b   11.24360000
_cell_length_c   13.88710000
_cell_angle_alpha   89.99990000
_cell_angle_beta   99.29600000
_cell_angle_gamma   90.00000000
_symmetry_Int_Tables_number   1
_chemical_formula_structural   ZnH9C11N5O6
_chemical_formula_sum   'Zn4 H36 C44 N20 O24'
_cell_volume   1582.44674335
_cell_formula_units_Z   4
loop_
 _symmetry_equiv_pos_site_id
 _symmetry_equiv_pos_as_xyz
  1  'x, y, z'
loop_
 _atom_site_type_symbol
 _atom_site_label
 _atom_site_symmetry_multiplicity
 _atom_site_fract_x
 _atom_site_fract_y
 _atom_site_fract_z
 _atom_site_occupancy
  Zn  Zn0  1  0.39639000  0.57492000  0.72817000  1.0
  Zn  Zn1  1  0.60361000  0.07492000  0.77183000  1.0
  Zn  Zn2  1  0.60361000  0.42508000  0.27183000  1.0
  Zn  Zn3  1  0.39639000  0.92508000  0.22817000  1.0
  H  H4  1  0.22999000  0.33571000  0.71880000  1.0
  H  H5  1  0.77001000  0.83571000  0.78120000  1.0
  H  H6  1  0.77001000  0.66429000  0.28120000  1.0
  H  H7  1  0.22999000  0.16429000  0.21880000  1.0
  H  H8  1  0.07276000  0.23280000  0.59220000  1.0
  H  H9  1  0.92724000  0.73280000  0.90780000  1.0
  H  H10  1  0.92724000  0.76720000  0.40780000  1.0
  H  H11  1  0.07276000  0.26720000  0.09220000  1.0
  H  H12  1  0.03366000  0.31578000  0.41962000  1.0
  H  H13  1  0.96634000  0.81578000  0.08038000  1.0
  H  H14  1  0.96634000  0.68422000  0.58038000  1.0
  H  H15  1  0.03366000  0.18422000  0.91962000  1.0
  H  H16  1  0.15519000  0.50052000  0.38599000  1.0
  H  H17  1  0.84481000  0.00052000  0.11401000  1.0
  H  H18  1  0.84481000  0.49948000  0.61401000  1.0
  H  H19  1  0.15519000  0.99948000  0.88599000  1.0
  H  H20  1  0.31752000  0.65824000  0.44487000  1.0
  H  H21  1  0.68248000  0.15824000  0.05513000  1.0
  H  H22  1  0.68247000  0.34176000  0.55513000  1.0
  H  H23  1  0.31752000  0.84176000  0.94487000  1.0
  H  H24  1  0.54125000  0.71613000  0.44609000  1.0
  H  H25  1  0.45875000  0.21613000  0.05391000  1.0
  H  H26  1  0.45875000  0.28387000  0.55392000  1.0
  H  H27  1  0.54125000  0.78387000  0.94609000  1.0
  H  H28  1  0.69466000  0.88814000  0.44687000  1.0
  H  H29  1  0.30534000  0.38814000  0.05313000  1.0
  H  H30  1  0.30534000  0.11186000  0.55313000  1.0
  H  H31  1  0.69466000  0.61186000  0.94687000  1.0
  H  H32  1  0.71595000  0.03404000  0.58626000  1.0
  H  H33  1  0.28404000  0.53404000  0.91374000  1.0
  H  H34  1  0.28405000  0.96596000  0.41374000  1.0
  H  H35  1  0.71596000  0.46596000  0.08626000  1.0
  H  H36  1  0.44912000  0.84448000  0.72078000  1.0
  H  H37  1  0.55088000  0.34448000  0.77922000  1.0
  H  H38  1  0.55088000  0.15552000  0.27922000  1.0
  H  H39  1  0.44912000  0.65552000  0.22078000  1.0
  C  C40  1  0.21080000  0.37030000  0.64462000  1.0
  C  C41  1  0.78920000  0.87030000  0.85538000  1.0
  C  C42  1  0.78920000  0.62970000  0.35538000  1.0
  C  C43  1  0.21080000  0.12970000  0.14462000  1.0
  C  C44  1  0.12294000  0.31211000  0.57231000  1.0
  C  C45  1  0.87706000  0.81211000  0.92769000  1.0
  C  C46  1  0.87707000  0.68789000  0.42769000  1.0
  C  C47  1  0.12293000  0.18789000  0.07231000  1.0
  C  C48  1  0.10152000  0.35813000  0.47805000  1.0
  C  C49  1  0.89848000  0.85814000  0.02195000  1.0
  C  C50  1  0.89848000  0.64186000  0.52195000  1.0
  C  C51  1  0.10152000  0.14187000  0.97805000  1.0
  C  C52  1  0.16829000  0.46150000  0.45868000  1.0
  C  C53  1  0.83171000  0.96150000  0.04132000  1.0
  C  C54  1  0.83171000  0.53850000  0.54132000  1.0
  C  C55  1  0.16829000  0.03850000  0.95868000  1.0
  C  C56  1  0.25445000  0.51447000  0.53452000  1.0
  C  C57  1  0.74555000  0.01447000  0.96548000  1.0
  C  C58  1  0.74555000  0.48553000  0.46548000  1.0
  C  C59  1  0.25445000  0.98553000  0.03452000  1.0
  C  C60  1  0.32779000  0.62202000  0.51899000  1.0
  C  C61  1  0.67221000  0.12202000  0.98101000  1.0
  C  C62  1  0.67221000  0.37798000  0.48101000  1.0
  C  C63  1  0.32779000  0.87798000  0.01899000  1.0
  C  C64  1  0.48197000  0.76806000  0.58307000  1.0
  C  C65  1  0.51803000  0.26807000  0.91693000  1.0
  C  C66  1  0.51803000  0.23194000  0.41692000  1.0
  C  C67  1  0.48197000  0.73194000  0.08308000  1.0
  C  C68  1  0.55228000  0.78088000  0.50524000  1.0
  C  C69  1  0.44772000  0.28088000  0.99476000  1.0
  C  C70  1  0.44772000  0.21912000  0.49476000  1.0
  C  C71  1  0.55228000  0.71912000  0.00524000  1.0
  C  C72  1  0.63836000  0.87660000  0.50613000  1.0
  C  C73  1  0.36164000  0.37660000  0.99387000  1.0
  C  C74  1  0.36164000  0.12339000  0.49387000  1.0
  C  C75  1  0.63836000  0.62340000  0.00613000  1.0
  C  C76  1  0.65095000  0.95711000  0.58300000  1.0
  C  C77  1  0.34904000  0.45711000  0.91700000  1.0
  C  C78  1  0.34904000  0.04289000  0.41700000  1.0
  C  C79  1  0.65096000  0.54289000  0.08300000  1.0
  C  C80  1  0.50127000  0.85230000  0.65860000  1.0
  C  C81  1  0.49873000  0.35230000  0.84140000  1.0
  C  C82  1  0.49873000  0.14771000  0.34140000  1.0
  C  C83  1  0.50127000  0.64771000  0.15860000  1.0
  N  N84  1  0.27521000  0.46877000  0.62624000  1.0
  N  N85  1  0.72479000  0.96877000  0.87376000  1.0
  N  N86  1  0.72480000  0.53123000  0.37376000  1.0
  N  N87  1  0.27520000  0.03123000  0.12624000  1.0
  N  N88  1  0.39984000  0.67094000  0.59322000  1.0
  N  N89  1  0.60016000  0.17094000  0.90678000  1.0
  N  N90  1  0.60016000  0.32906000  0.40678000  1.0
  N  N91  1  0.39984000  0.82906000  0.09322000  1.0
  N  N92  1  0.58274000  0.94531000  0.65780000  1.0
  N  N93  1  0.41726000  0.44531000  0.84220000  1.0
  N  N94  1  0.41726000  0.05469000  0.34220000  1.0
  N  N95  1  0.58274000  0.55469000  0.15780000  1.0
  N  N96  1  0.66695000  0.57386000  0.74095000  1.0
  N  N97  1  0.33306000  0.07386000  0.75905000  1.0
  N  N98  1  0.33305000  0.42614000  0.25905000  1.0
  N  N99  1  0.66695000  0.92614000  0.24095000  1.0
  N  N100  1  0.18812000  0.72418000  0.77568000  1.0
  N  N101  1  0.81188000  0.22418000  0.72431000  1.0
  N  N102  1  0.81188000  0.27582000  0.22432000  1.0
  N  N103  1  0.18812000  0.77582000  0.27569000  1.0
  O  O104  1  0.58899000  0.64175000  0.78218000  1.0
  O  O105  1  0.41100000  0.14175000  0.71782000  1.0
  O  O106  1  0.41100000  0.35825000  0.21782000  1.0
  O  O107  1  0.58900000  0.85825000  0.28218000  1.0
  O  O108  1  0.61312000  0.49471000  0.68239000  1.0
  O  O109  1  0.38688000  0.99472000  0.81761000  1.0
  O  O110  1  0.38688000  0.50528000  0.31761000  1.0
  O  O111  1  0.61312000  0.00529000  0.18239000  1.0
  O  O112  1  0.78825000  0.58841000  0.76016000  1.0
  O  O113  1  0.21175000  0.08841000  0.73984000  1.0
  O  O114  1  0.21175000  0.41159000  0.23984000  1.0
  O  O115  1  0.78825000  0.91158000  0.26015000  1.0
  O  O116  1  0.31160000  0.69520000  0.81118000  1.0
  O  O117  1  0.68840000  0.19520000  0.68882000  1.0
  O  O118  1  0.68840000  0.30480000  0.18882000  1.0
  O  O119  1  0.31160000  0.80480000  0.31118000  1.0
  O  O120  1  0.12630000  0.78411000  0.82844000  1.0
  O  O121  1  0.87370000  0.28411000  0.67156000  1.0
  O  O122  1  0.87370000  0.21589000  0.17156000  1.0
  O  O123  1  0.12630000  0.71589000  0.32844000  1.0
  O  O124  1  0.14104000  0.68939000  0.69185000  1.0
  O  O125  1  0.85895000  0.18940000  0.80815000  1.0
  O  O126  1  0.85895000  0.31061000  0.30815000  1.0
  O  O127  1  0.14104000  0.81061000  0.19185000  1.0
