# generated using pymatgen
data_ZnP2H10(C2O)4
_symmetry_space_group_name_H-M   'P 1'
_cell_length_a   7.28370000
_cell_length_b   10.46160000
_cell_length_c   15.86450000
_cell_angle_alpha   105.37400000
_cell_angle_beta   89.99950000
_cell_angle_gamma   90.00000000
_symmetry_Int_Tables_number   1
_chemical_formula_structural   ZnP2H10(C2O)4
_chemical_formula_sum   'Zn4 P8 H40 C32 O16'
_cell_volume   1165.60337974
_cell_formula_units_Z   4
loop_
 _symmetry_equiv_pos_site_id
 _symmetry_equiv_pos_as_xyz
  1  'x, y, z'
loop_
 _atom_site_type_symbol
 _atom_site_label
 _atom_site_symmetry_multiplicity
 _atom_site_fract_x
 _atom_site_fract_y
 _atom_site_fract_z
 _atom_site_occupancy
  Zn  Zn0  1  0.41298000  0.37838000  0.58224000  1.0
  Zn  Zn1  1  0.91298000  0.12162000  0.41777000  1.0
  Zn  Zn2  1  0.58702000  0.62162000  0.41777000  1.0
  Zn  Zn3  1  0.08702000  0.87838000  0.58224000  1.0
  P  P4  1  0.09420000  0.19176000  0.60349000  1.0
  P  P5  1  0.59421000  0.30824000  0.39650000  1.0
  P  P6  1  0.90579000  0.80824000  0.39651000  1.0
  P  P7  1  0.40579000  0.69176000  0.60350000  1.0
  P  P8  1  0.78216000  0.06117000  0.68667000  1.0
  P  P9  1  0.28217000  0.43883000  0.31334000  1.0
  P  P10  1  0.21783000  0.93883000  0.31334000  1.0
  P  P11  1  0.71783000  0.56117000  0.68666000  1.0
  H  H12  1  0.02087000  0.20680000  0.75350000  1.0
  H  H13  1  0.52087000  0.29320000  0.24650000  1.0
  H  H14  1  0.97914000  0.79320000  0.24650000  1.0
  H  H15  1  0.47913000  0.70680000  0.75350000  1.0
  H  H16  1  0.85230000  0.28948000  0.70487000  1.0
  H  H17  1  0.35230000  0.21052000  0.29513000  1.0
  H  H18  1  0.14770000  0.71052000  0.29513000  1.0
  H  H19  1  0.64770000  0.78948000  0.70487000  1.0
  H  H20  1  0.54430000  0.15970000  0.62052000  1.0
  H  H21  1  0.04430000  0.34030000  0.37948000  1.0
  H  H22  1  0.45571000  0.84029000  0.37948000  1.0
  H  H23  1  0.95570000  0.65970000  0.62052000  1.0
  H  H24  1  0.50467000  0.98783000  0.61078000  1.0
  H  H25  1  0.00467000  0.51217000  0.38922000  1.0
  H  H26  1  0.49534000  0.01217000  0.38922000  1.0
  H  H27  1  0.99533000  0.48783000  0.61078000  1.0
  H  H28  1  0.67171000  0.03501000  0.54255000  1.0
  H  H29  1  0.17171000  0.46500000  0.45745000  1.0
  H  H30  1  0.32829000  0.96499000  0.45745000  1.0
  H  H31  1  0.82829000  0.53500000  0.54255000  1.0
  H  H32  1  0.46739000  0.22969000  0.76594000  1.0
  H  H33  1  0.96741000  0.27030000  0.23405000  1.0
  H  H34  1  0.53260000  0.77030000  0.23405000  1.0
  H  H35  1  0.03261000  0.72969000  0.76593000  1.0
  H  H36  1  0.34010000  0.28424000  0.91618000  1.0
  H  H37  1  0.84013000  0.21576000  0.08382000  1.0
  H  H38  1  0.65988000  0.71576000  0.08382000  1.0
  H  H39  1  0.15991000  0.78422000  0.91617000  1.0
  H  H40  1  0.47154000  0.18336000  0.02774000  1.0
  H  H41  1  0.97157000  0.31665000  0.97226000  1.0
  H  H42  1  0.52844000  0.81665000  0.97226000  1.0
  H  H43  1  0.02846000  0.68335000  0.02773000  1.0
  H  H44  1  0.73065000  0.02190000  0.98794000  1.0
  H  H45  1  0.23068000  0.47812000  0.01206000  1.0
  H  H46  1  0.26932000  0.97811000  0.01206000  1.0
  H  H47  1  0.76933000  0.52190000  0.98794000  1.0
  H  H48  1  0.86156000  0.96787000  0.83760000  1.0
  H  H49  1  0.36158000  0.53214000  0.16241000  1.0
  H  H50  1  0.13842000  0.03213000  0.16241000  1.0
  H  H51  1  0.63842000  0.46787000  0.83760000  1.0
  C  C52  1  0.93671000  0.19941000  0.69483000  1.0
  C  C53  1  0.43671000  0.30058000  0.30517000  1.0
  C  C54  1  0.06329000  0.80059000  0.30517000  1.0
  C  C55  1  0.56329000  0.69941000  0.69483000  1.0
  C  C56  1  0.60904000  0.06198000  0.60782000  1.0
  C  C57  1  0.10905000  0.43802000  0.39218000  1.0
  C  C58  1  0.39096000  0.93802000  0.39218000  1.0
  C  C59  1  0.89096000  0.56198000  0.60782000  1.0
  C  C60  1  0.67509000  0.09653000  0.79297000  1.0
  C  C61  1  0.17511000  0.40347000  0.20703000  1.0
  C  C62  1  0.32490000  0.90347000  0.20703000  1.0
  C  C63  1  0.82490000  0.59653000  0.79297000  1.0
  C  C64  1  0.52712000  0.18508000  0.81457000  1.0
  C  C65  1  0.02714000  0.31492000  0.18543000  1.0
  C  C66  1  0.47287000  0.81492000  0.18543000  1.0
  C  C67  1  0.97288000  0.68507000  0.81456000  1.0
  C  C68  1  0.45512000  0.21571000  0.89909000  1.0
  C  C69  1  0.95515000  0.28429000  0.10091000  1.0
  C  C70  1  0.54485000  0.78429000  0.10091000  1.0
  C  C71  1  0.04488000  0.71570000  0.89908000  1.0
  C  C72  1  0.52886000  0.15845000  0.96183000  1.0
  C  C73  1  0.02888000  0.34155000  0.03817000  1.0
  C  C74  1  0.47112000  0.84155000  0.03817000  1.0
  C  C75  1  0.97114000  0.65844000  0.96182000  1.0
  C  C76  1  0.67461000  0.06875000  0.93976000  1.0
  C  C77  1  0.17464000  0.43126000  0.06024000  1.0
  C  C78  1  0.32536000  0.93125000  0.06024000  1.0
  C  C79  1  0.82538000  0.56875000  0.93976000  1.0
  C  C80  1  0.74830000  0.03805000  0.85560000  1.0
  C  C81  1  0.24831000  0.46196000  0.14440000  1.0
  C  C82  1  0.25169000  0.96195000  0.14440000  1.0
  C  C83  1  0.75170000  0.53805000  0.85560000  1.0
  O  O84  1  0.24073000  0.29559000  0.64453000  1.0
  O  O85  1  0.74073000  0.20441000  0.35547000  1.0
  O  O86  1  0.75927000  0.70441000  0.35547000  1.0
  O  O87  1  0.25927000  0.79559000  0.64454000  1.0
  O  O88  1  0.17451000  0.05143000  0.57453000  1.0
  O  O89  1  0.67451000  0.44857000  0.42546000  1.0
  O  O90  1  0.82549000  0.94858000  0.42547000  1.0
  O  O91  1  0.32548000  0.55143000  0.57454000  1.0
  O  O92  1  0.98504000  0.23105000  0.53129000  1.0
  O  O93  1  0.48505000  0.26895000  0.46871000  1.0
  O  O94  1  0.01495000  0.76895000  0.46871000  1.0
  O  O95  1  0.51495000  0.73104000  0.53129000  1.0
  O  O96  1  0.88373000  0.92867000  0.67074000  1.0
  O  O97  1  0.38374000  0.57133000  0.32927000  1.0
  O  O98  1  0.11627000  0.07133000  0.32927000  1.0
  O  O99  1  0.61627000  0.42867000  0.67073000  1.0
