# generated using pymatgen
data_AgH2C3N3O2
_symmetry_space_group_name_H-M   'P 1'
_cell_length_a   6.06568000
_cell_length_b   6.85062000
_cell_length_c   12.26470000
_cell_angle_alpha   90.00320000
_cell_angle_beta   89.99990000
_cell_angle_gamma   89.99960000
_symmetry_Int_Tables_number   1
_chemical_formula_structural   AgH2C3N3O2
_chemical_formula_sum   'Ag4 H8 C12 N12 O8'
_cell_volume   509.64327996
_cell_formula_units_Z   4
loop_
 _symmetry_equiv_pos_site_id
 _symmetry_equiv_pos_as_xyz
  1  'x, y, z'
loop_
 _atom_site_type_symbol
 _atom_site_label
 _atom_site_symmetry_multiplicity
 _atom_site_fract_x
 _atom_site_fract_y
 _atom_site_fract_z
 _atom_site_occupancy
  Ag  Ag0  1  0.24999000  0.04618000  0.72630000  1.0
  Ag  Ag1  1  0.74995000  0.95381000  0.27371000  1.0
  Ag  Ag2  1  0.75003000  0.04611000  0.77375000  1.0
  Ag  Ag3  1  0.25003000  0.95389000  0.22630000  1.0
  H  H4  1  0.24999000  0.84793000  0.48922000  1.0
  H  H5  1  0.75000000  0.15210000  0.51075000  1.0
  H  H6  1  0.74999000  0.84798000  0.01078000  1.0
  H  H7  1  0.25000000  0.15201000  0.98925000  1.0
  H  H8  1  0.24999000  0.44853000  0.56409000  1.0
  H  H9  1  0.75000000  0.55147000  0.43587000  1.0
  H  H10  1  0.74997000  0.44861000  0.93590000  1.0
  H  H11  1  0.25000000  0.55148000  0.06411000  1.0
  C  C12  1  0.24999000  0.00505000  0.47842000  1.0
  C  C13  1  0.74999000  0.99498000  0.52157000  1.0
  C  C14  1  0.75002000  0.00510000  0.02157000  1.0
  C  C15  1  0.25001000  0.99491000  0.97843000  1.0
  C  C16  1  0.25001000  0.28755000  0.40327000  1.0
  C  C17  1  0.74999000  0.71243000  0.59670000  1.0
  C  C18  1  0.75006000  0.28758000  0.09676000  1.0
  C  C19  1  0.24999000  0.71240000  0.90326000  1.0
  C  C20  1  0.25000000  0.31571000  0.51610000  1.0
  C  C21  1  0.74999000  0.68428000  0.48388000  1.0
  C  C22  1  0.75002000  0.31579000  0.98391000  1.0
  C  C23  1  0.25000000  0.68424000  0.01609000  1.0
  N  N24  1  0.24998000  0.13586000  0.56242000  1.0
  N  N25  1  0.74998000  0.86414000  0.43760000  1.0
  N  N26  1  0.75000000  0.13593000  0.93760000  1.0
  N  N27  1  0.25001000  0.86408000  0.06240000  1.0
  N  N28  1  0.25000000  0.09073000  0.38073000  1.0
  N  N29  1  0.74999000  0.90925000  0.61925000  1.0
  N  N30  1  0.75003000  0.09074000  0.11927000  1.0
  N  N31  1  0.24999000  0.90922000  0.88076000  1.0
  N  N32  1  0.25001000  0.43128000  0.32108000  1.0
  N  N33  1  0.74999000  0.56869000  0.67891000  1.0
  N  N34  1  0.75000000  0.43132000  0.17893000  1.0
  N  N35  1  0.25001000  0.56866000  0.82108000  1.0
  O  O36  1  0.25000000  0.60633000  0.35106000  1.0
  O  O37  1  0.74999000  0.39365000  0.64898000  1.0
  O  O38  1  0.75001000  0.60636000  0.14893000  1.0
  O  O39  1  0.24999000  0.39363000  0.85102000  1.0
  O  O40  1  0.25001000  0.37993000  0.22305000  1.0
  O  O41  1  0.74997000  0.62009000  0.77692000  1.0
  O  O42  1  0.74999000  0.37997000  0.27697000  1.0
  O  O43  1  0.25001000  0.62006000  0.72307000  1.0
