# generated using pymatgen
data_AlH15C21(N2O3)2
_symmetry_space_group_name_H-M   'P 1'
_cell_length_a   4.12066000
_cell_length_b   13.48480382
_cell_length_c   13.48450000
_cell_angle_alpha   60.00023593
_cell_angle_beta   89.99960000
_cell_angle_gamma   90.00020000
_symmetry_Int_Tables_number   1
_chemical_formula_structural   AlH15C21(N2O3)2
_chemical_formula_sum   'Al1 H15 C21 N4 O6'
_cell_volume   648.90022733
_cell_formula_units_Z   1
loop_
 _symmetry_equiv_pos_site_id
 _symmetry_equiv_pos_as_xyz
  1  'x, y, z'
loop_
 _atom_site_type_symbol
 _atom_site_label
 _atom_site_symmetry_multiplicity
 _atom_site_fract_x
 _atom_site_fract_y
 _atom_site_fract_z
 _atom_site_occupancy
  Al  Al0  1  0.99504000  0.50002000  0.99999000  1.0
  H  H1  1  0.80723000  0.21713000  0.96750000  1.0
  H  H2  1  0.80550000  0.10595000  0.86716000  1.0
  H  H3  1  0.20853000  0.36404000  0.60233000  1.0
  H  H4  1  0.20855000  0.03362000  0.86406000  1.0
  H  H5  1  0.80724000  0.81538000  0.71712000  1.0
  H  H6  1  0.80549000  0.02689000  0.60594000  1.0
  H  H7  1  0.20853000  0.10234000  0.53361000  1.0
  H  H8  1  0.80722000  0.46750000  0.31538000  1.0
  H  H9  1  0.80550000  0.36716000  0.52689000  1.0
  H  H10  1  0.04187000  0.51011000  0.75428000  1.0
  H  H11  1  0.99592000  0.50798000  0.63256000  1.0
  H  H12  1  0.04185000  0.73562000  0.01012000  1.0
  H  H13  1  0.99592000  0.85946000  0.00799000  1.0
  H  H14  1  0.04180000  0.25428000  0.23562000  1.0
  H  H15  1  0.99587000  0.13257000  0.35947000  1.0
  C  C16  1  0.49574000  0.67655000  0.91447000  1.0
  C  C17  1  0.49574000  0.40899000  0.17654000  1.0
  C  C18  1  0.49575000  0.41449000  0.90897000  1.0
  C  C19  1  0.66936000  0.24809000  0.88843000  1.0
  C  C20  1  0.67299000  0.18605000  0.83158000  1.0
  C  C21  1  0.50928000  0.22816000  0.72670000  1.0
  C  C22  1  0.33980000  0.33161000  0.68265000  1.0
  C  C23  1  0.32523000  0.39321000  0.74096000  1.0
  C  C24  1  0.49757000  0.35085000  0.84496000  1.0
  C  C25  1  0.33981000  0.98574000  0.83162000  1.0
  C  C26  1  0.32523000  0.86583000  0.89322000  1.0
  C  C27  1  0.49757000  0.80420000  0.85084000  1.0
  C  C28  1  0.66935000  0.86349000  0.74809000  1.0
  C  C29  1  0.67300000  0.98237000  0.68605000  1.0
  C  C30  1  0.50926000  0.04514000  0.72817000  1.0
  C  C31  1  0.33979000  0.18265000  0.48573000  1.0
  C  C32  1  0.32524000  0.24098000  0.36581000  1.0
  C  C33  1  0.49756000  0.34497000  0.30419000  1.0
  C  C34  1  0.66937000  0.38843000  0.36349000  1.0
  C  C35  1  0.67299000  0.33158000  0.48237000  1.0
  C  C36  1  0.50929000  0.22670000  0.54515000  1.0
  N  N37  1  0.51434000  0.16666000  0.66667000  1.0
  N  N38  1  0.15565000  0.49615000  0.69501000  1.0
  N  N39  1  0.15563000  0.80884000  0.99615000  1.0
  N  N40  1  0.15559000  0.19502000  0.30884000  1.0
  O  O41  1  0.25878000  0.39663000  0.97668000  1.0
  O  O42  1  0.25876000  0.62670000  0.89662000  1.0
  O  O43  1  0.25877000  0.47670000  0.12669000  1.0
  O  O44  1  0.73099000  0.48331000  0.89212000  1.0
  O  O45  1  0.73099000  0.39214000  0.12457000  1.0
  O  O46  1  0.73098000  0.62458000  0.98330000  1.0
