# generated using pymatgen
data_DyH11C16N2O5
_symmetry_space_group_name_H-M   'P 1'
_cell_length_a   8.29996000
_cell_length_b   13.95149526
_cell_length_c   14.01840000
_cell_angle_alpha   84.94774512
_cell_angle_beta   72.77920000
_cell_angle_gamma   72.69506242
_symmetry_Int_Tables_number   1
_chemical_formula_structural   DyH11C16N2O5
_chemical_formula_sum   'Dy4 H44 C64 N8 O20'
_cell_volume   1480.33234714
_cell_formula_units_Z   4
loop_
 _symmetry_equiv_pos_site_id
 _symmetry_equiv_pos_as_xyz
  1  'x, y, z'
loop_
 _atom_site_type_symbol
 _atom_site_label
 _atom_site_symmetry_multiplicity
 _atom_site_fract_x
 _atom_site_fract_y
 _atom_site_fract_z
 _atom_site_occupancy
  Dy  Dy0  1  0.89552000  0.02327000  0.86175000  1.0
  Dy  Dy1  1  0.78020000  0.97679000  0.13830000  1.0
  Dy  Dy2  1  0.08066000  0.13877000  0.02342000  1.0
  Dy  Dy3  1  0.24291000  0.86126000  0.97665000  1.0
  H  H4  1  0.90112000  0.84652000  0.97065000  1.0
  H  H5  1  0.71813000  0.15366000  0.02946000  1.0
  H  H6  1  0.25118000  0.03010000  0.84748000  1.0
  H  H7  1  0.12862000  0.96994000  0.15246000  1.0
  H  H8  1  0.52437000  0.86145000  0.71673000  1.0
  H  H9  1  0.10163000  0.13851000  0.28307000  1.0
  H  H10  1  0.61569000  0.28328000  0.86195000  1.0
  H  H11  1  0.76027000  0.71694000  0.13818000  1.0
  H  H12  1  0.83522000  0.85226000  0.63403000  1.0
  H  H13  1  0.32069000  0.14775000  0.36556000  1.0
  H  H14  1  0.31378000  0.36595000  0.85288000  1.0
  H  H15  1  0.53171000  0.63432000  0.14742000  1.0
  H  H16  1  0.98896000  0.76733000  0.46877000  1.0
  H  H17  1  0.22451000  0.23251000  0.53090000  1.0
  H  H18  1  0.24411000  0.53140000  0.76727000  1.0
  H  H19  1  0.54214000  0.46875000  0.23285000  1.0
  H  H20  1  0.83491000  0.68191000  0.39241000  1.0
  H  H21  1  0.90865000  0.31802000  0.60738000  1.0
  H  H22  1  0.48309000  0.60784000  0.68124000  1.0
  H  H23  1  0.77191000  0.39215000  0.31858000  1.0
  H  H24  1  0.57213000  0.62885000  0.40032000  1.0
  H  H25  1  0.60061000  0.37134000  0.59949000  1.0
  H  H26  1  0.79899000  0.60021000  0.62830000  1.0
  H  H27  1  0.02698000  0.39973000  0.37145000  1.0
  H  H28  1  0.26031000  0.63575000  0.48426000  1.0
  H  H29  1  0.37955000  0.36439000  0.51568000  1.0
  H  H30  1  0.10406000  0.51629000  0.63533000  1.0
  H  H31  1  0.25510000  0.48373000  0.36460000  1.0
  H  H32  1  0.09713000  0.73602000  0.64009000  1.0
  H  H33  1  0.47224000  0.26396000  0.35995000  1.0
  H  H34  1  0.16785000  0.36019000  0.73594000  1.0
  H  H35  1  0.26331000  0.63988000  0.26409000  1.0
  H  H36  1  0.97408000  0.01573000  0.59411000  1.0
  H  H37  1  0.58336000  0.98417000  0.40610000  1.0
  H  H38  1  0.00999000  0.40720000  0.01547000  1.0
  H  H39  1  0.43308000  0.59257000  0.98443000  1.0
  H  H40  1  0.79604000  0.03565000  0.47249000  1.0
  H  H41  1  0.30346000  0.96431000  0.52782000  1.0
  H  H42  1  0.16813000  0.52939000  0.03516000  1.0
  H  H43  1  0.73323000  0.47040000  0.96458000  1.0
  H  H44  1  0.33523000  0.13946000  0.70175000  1.0
  H  H45  1  0.17569000  0.86038000  0.29864000  1.0
  H  H46  1  0.52469000  0.29907000  0.13951000  1.0
  H  H47  1  0.96356000  0.70087000  0.86042000  1.0
  C  C48  1  0.31890000  0.78039000  0.64780000  1.0
  C  C49  1  0.74611000  0.21956000  0.35219000  1.0
  C  C50  1  0.90182000  0.35254000  0.78034000  1.0
  C  C51  1  0.03415000  0.64757000  0.21958000  1.0
  C  C52  1  0.49943000  0.77556000  0.60280000  1.0
  C  C53  1  0.87689000  0.22440000  0.39711000  1.0
  C  C54  1  0.72597000  0.39745000  0.77550000  1.0
  C  C55  1  0.89839000  0.60265000  0.22443000  1.0
  C  C56  1  0.59179000  0.82236000  0.64571000  1.0
  C  C57  1  0.05893000  0.17763000  0.35408000  1.0
  C  C58  1  0.58715000  0.35441000  0.82264000  1.0
  C  C59  1  0.76351000  0.64578000  0.17743000  1.0
  C  C60  1  0.76551000  0.81751000  0.59908000  1.0
  C  C61  1  0.18127000  0.18250000  0.40060000  1.0
  C  C62  1  0.41803000  0.40102000  0.81788000  1.0
  C  C63  1  0.63614000  0.59923000  0.18232000  1.0
  C  C64  1  0.85329000  0.76783000  0.50624000  1.0
  C  C65  1  0.12670000  0.23207000  0.49349000  1.0
  C  C66  1  0.37943000  0.49395000  0.76783000  1.0
  C  C67  1  0.64057000  0.50621000  0.23223000  1.0
  C  C68  1  0.76751000  0.72070000  0.46342000  1.0
  C  C69  1  0.95099000  0.27924000  0.53636000  1.0
  C  C70  1  0.51210000  0.53680000  0.72030000  1.0
  C  C71  1  0.76874000  0.46325000  0.27960000  1.0
  C  C72  1  0.59022000  0.72183000  0.51059000  1.0
  C  C73  1  0.82189000  0.27819000  0.48926000  1.0
  C  C74  1  0.68844000  0.48973000  0.72151000  1.0
  C  C75  1  0.89918000  0.51033000  0.27834000  1.0
  C  C76  1  0.50114000  0.67107000  0.46944000  1.0
  C  C77  1  0.64092000  0.32905000  0.53042000  1.0
  C  C78  1  0.82802000  0.53098000  0.67064000  1.0
  C  C79  1  0.02917000  0.46899000  0.32917000  1.0
  C  C80  1  0.32787000  0.67510000  0.51623000  1.0
  C  C81  1  0.51838000  0.32500000  0.48369000  1.0
  C  C82  1  0.99743000  0.48419000  0.67475000  1.0
  C  C83  1  0.15582000  0.51581000  0.32515000  1.0
  C  C84  1  0.23524000  0.73156000  0.60479000  1.0
  C  C85  1  0.57065000  0.26839000  0.39521000  1.0
  C  C86  1  0.03413000  0.39551000  0.73138000  1.0
  C  C87  1  0.16040000  0.60455000  0.26859000  1.0
  C  C88  1  0.22147000  0.84024000  0.74200000  1.0
  C  C89  1  0.80303000  0.15970000  0.25802000  1.0
  C  C90  1  0.93917000  0.25833000  0.84039000  1.0
  C  C91  1  0.03751000  0.74177000  0.15948000  1.0
  C  C92  1  0.57671000  0.10133000  0.74453000  1.0
  C  C93  1  0.42182000  0.89863000  0.25577000  1.0
  C  C94  1  0.32172000  0.25610000  0.10114000  1.0
  C  C95  1  0.67923000  0.74377000  0.89893000  1.0
  C  C96  1  0.83108000  0.04488000  0.61809000  1.0
  C  C97  1  0.49338000  0.95505000  0.38219000  1.0
  C  C98  1  0.12384000  0.38311000  0.04457000  1.0
  C  C99  1  0.55195000  0.61667000  0.95535000  1.0
  C  C100  1  0.73099000  0.05552000  0.55096000  1.0
  C  C101  1  0.33677000  0.94444000  0.44934000  1.0
  C  C102  1  0.21328000  0.45055000  0.05512000  1.0
  C  C103  1  0.71942000  0.54926000  0.94468000  1.0
  C  C104  1  0.47876000  0.11201000  0.67652000  1.0
  C  C105  1  0.26656000  0.88788000  0.32381000  1.0
  C  C106  1  0.40884000  0.32441000  0.11187000  1.0
  C  C107  1  0.84547000  0.67548000  0.88805000  1.0
  C  C108  1  0.49279000  0.12424000  0.85446000  1.0
  C  C109  1  0.47094000  0.87583000  0.14580000  1.0
  C  C110  1  0.38277000  0.14566000  0.12398000  1.0
  C  C111  1  0.65259000  0.85424000  0.87623000  1.0
  N  N112  1  0.75384000  0.06639000  0.71491000  1.0
  N  N113  1  0.53440000  0.93356000  0.28537000  1.0
  N  N114  1  0.17965000  0.28583000  0.06614000  1.0
  N  N115  1  0.53193000  0.71400000  0.93391000  1.0
  N  N116  1  0.55498000  0.08808000  0.57964000  1.0
  N  N117  1  0.22203000  0.91185000  0.42067000  1.0
  N  N118  1  0.35660000  0.42172000  0.08776000  1.0
  N  N119  1  0.86653000  0.57813000  0.91203000  1.0
  O  O120  1  0.11348000  0.92508000  0.73376000  1.0
  O  O121  1  0.77212000  0.07474000  0.26624000  1.0
  O  O122  1  0.96118000  0.26696000  0.92506000  1.0
  O  O123  1  0.15302000  0.73306000  0.07488000  1.0
  O  O124  1  0.25548000  0.80323000  0.82246000  1.0
  O  O125  1  0.88052000  0.19680000  0.17761000  1.0
  O  O126  1  0.94261000  0.17736000  0.80361000  1.0
  O  O127  1  0.92327000  0.82277000  0.19620000  1.0
  O  O128  1  0.59645000  0.11165000  0.90852000  1.0
  O  O129  1  0.61610000  0.88841000  0.09183000  1.0
  O  O130  1  0.29217000  0.09133000  0.11105000  1.0
  O  O131  1  0.49473000  0.90857000  0.88914000  1.0
  O  O132  1  0.32681000  0.15509000  0.88473000  1.0
  O  O133  1  0.36611000  0.84507000  0.11540000  1.0
  O  O134  1  0.51768000  0.11528000  0.15505000  1.0
  O  O135  1  0.78814000  0.88466000  0.84518000  1.0
  O  O136  1  0.94320000  0.90069000  0.98357000  1.0
  O  O137  1  0.82725000  0.09945000  0.01650000  1.0
  O  O138  1  0.15546000  0.01655000  0.90126000  1.0
  O  O139  1  0.07303000  0.98354000  0.09873000  1.0
