# generated using pymatgen
data_ZnH18C20N5O2
_symmetry_space_group_name_H-M   'P 1'
_cell_length_a   19.81230000
_cell_length_b   19.95820000
_cell_length_c   20.74570000
_cell_angle_alpha   106.82500000
_cell_angle_beta   108.25400000
_cell_angle_gamma   111.51800000
_symmetry_Int_Tables_number   1
_chemical_formula_structural   ZnH18C20N5O2
_chemical_formula_sum   'Zn4 H72 C80 N20 O8'
_cell_volume   6443.88007767
_cell_formula_units_Z   4
loop_
 _symmetry_equiv_pos_site_id
 _symmetry_equiv_pos_as_xyz
  1  'x, y, z'
loop_
 _atom_site_type_symbol
 _atom_site_label
 _atom_site_symmetry_multiplicity
 _atom_site_fract_x
 _atom_site_fract_y
 _atom_site_fract_z
 _atom_site_occupancy
  Zn  Zn0  1  0.39582000  0.39983000  0.51105000  1.0
  Zn  Zn1  1  0.59901000  0.59720000  0.49957000  1.0
  Zn  Zn2  1  0.39676000  0.49579000  0.40506000  1.0
  Zn  Zn3  1  0.60038000  0.49801000  0.59938000  1.0
  H  H4  1  0.36335000  0.23330000  0.38647000  1.0
  H  H5  1  0.20028000  0.45659000  0.33846000  1.0
  H  H6  1  0.79490000  0.62421000  0.74282000  1.0
  H  H7  1  0.78558000  0.76425000  0.61861000  1.0
  H  H8  1  0.63731000  0.64789000  0.74403000  1.0
  H  H9  1  0.35594000  0.61697000  0.50390000  1.0
  H  H10  1  0.37111000  0.02143000  0.58621000  1.0
  H  H11  1  0.63375000  0.49611000  0.37267000  1.0
  H  H12  1  0.36562000  0.97145000  0.49731000  1.0
  H  H13  1  0.34928000  0.86352000  0.52660000  1.0
  H  H14  1  0.38263000  0.92376000  0.62391000  1.0
  H  H15  1  0.60403000  0.12916000  0.69441000  1.0
  H  H16  1  0.51467000  0.09940000  0.70571000  1.0
  H  H17  1  0.60680000  0.01092000  0.68848000  1.0
  H  H18  1  0.56516000  0.93410000  0.55142000  1.0
  H  H19  1  0.87015000  0.41359000  0.49516000  1.0
  H  H20  1  0.82751000  0.44508000  0.32384000  1.0
  H  H21  1  0.86753000  0.49222000  0.42387000  1.0
  H  H22  1  0.99529000  0.50551000  0.44179000  1.0
  H  H23  1  0.95793000  0.46614000  0.34212000  1.0
  H  H24  1  0.76215000  0.30518000  0.25229000  1.0
  H  H25  1  0.87670000  0.24858000  0.30359000  1.0
  H  H26  1  0.81723000  0.30718000  0.45020000  1.0
  H  H27  1  0.93344000  0.30517000  0.44436000  1.0
  H  H28  1  0.37824000  0.56417000  0.15294000  1.0
  H  H29  1  0.39171000  0.59673000  0.04864000  1.0
  H  H30  1  0.37566000  0.64899000  0.86818000  1.0
  H  H31  1  0.38870000  0.62351000  0.74872000  1.0
  H  H32  1  0.61538000  0.68140000  0.98509000  1.0
  H  H33  1  0.65319000  0.74626000  0.19015000  1.0
  H  H34  1  0.94942000  0.71381000  0.80169000  1.0
  H  H35  1  0.63516000  0.65744000  0.37125000  1.0
  H  H36  1  0.30975000  0.11593000  0.27341000  1.0
  H  H37  1  0.88915000  0.88436000  0.74712000  1.0
  H  H38  1  0.23999000  0.13515000  0.02961000  1.0
  H  H39  1  0.02472000  0.99687000  0.85591000  1.0
  H  H40  1  0.33170000  0.26001000  0.15277000  1.0
  H  H41  1  0.36539000  0.22623000  0.52522000  1.0
  H  H42  1  0.61842000  0.35400000  0.49651000  1.0
  H  H43  1  0.39420000  0.37529000  0.26337000  1.0
  H  H44  1  0.37175000  0.50733000  0.64250000  1.0
  H  H45  1  0.62190000  0.76290000  0.61515000  1.0
  H  H46  1  0.09415000  0.30623000  0.48547000  1.0
  H  H47  1  0.15524000  0.41149000  0.55280000  1.0
  H  H48  1  0.16570000  0.33763000  0.58171000  1.0
  H  H49  1  0.51555000  0.82166000  0.43896000  1.0
  H  H50  1  0.50666000  0.89125000  0.40211000  1.0
  H  H51  1  0.42024000  0.79255000  0.36215000  1.0
  H  H52  1  0.59597000  0.06726000  0.45769000  1.0
  H  H53  1  0.55175000  0.12873000  0.48267000  1.0
  H  H54  1  0.50289000  0.05001000  0.38724000  1.0
  H  H55  1  0.59089000  0.06146000  0.56683000  1.0
  H  H56  1  0.53295000  0.99403000  0.72124000  1.0
  H  H57  1  0.98932000  0.41093000  0.50376000  1.0
  H  H58  1  0.35499000  0.65380000  0.28666000  1.0
  H  H59  1  0.33780000  0.60681000  0.34611000  1.0
  H  H60  1  0.25856000  0.56389000  0.24992000  1.0
  H  H61  1  0.78331000  0.19578000  0.37218000  1.0
  H  H62  1  0.78865000  0.14629000  0.28833000  1.0
  H  H63  1  0.69256000  0.11175000  0.28923000  1.0
  H  H64  1  0.66477000  0.28303000  0.60112000  1.0
  H  H65  1  0.65831000  0.29032000  0.68690000  1.0
  H  H66  1  0.74794000  0.36495000  0.69188000  1.0
  H  H67  1  0.88241000  0.31152000  0.25878000  1.0
  H  H68  1  0.64070000  0.71795000  0.29613000  1.0
  H  H69  1  0.60031000  0.53250000  0.81407000  1.0
  H  H70  1  0.64793000  0.57954000  0.91660000  1.0
  H  H71  1  0.70972000  0.59883000  0.86952000  1.0
  H  H72  1  0.08824000  0.84847000  0.01787000  1.0
  H  H73  1  0.12288000  0.77802000  0.99199000  1.0
  H  H74  1  0.01533000  0.74527000  0.94471000  1.0
  H  H75  1  0.21848000  0.99138000  0.14913000  1.0
  C  C76  1  0.37512000  0.27901000  0.36659000  1.0
  C  C77  1  0.64046000  0.40701000  0.41756000  1.0
  C  C78  1  0.50378000  0.61492000  0.29172000  1.0
  C  C79  1  0.49913000  0.26457000  0.58623000  1.0
  C  C80  1  0.43605000  0.53498000  0.65584000  1.0
  C  C81  1  0.55773000  0.71541000  0.58205000  1.0
  C  C82  1  0.21752000  0.43590000  0.38067000  1.0
  C  C83  1  0.78006000  0.64766000  0.70246000  1.0
  C  C84  1  0.77469000  0.71964000  0.63989000  1.0
  C  C85  1  0.22531000  0.38884000  0.46542000  1.0
  C  C86  1  0.57190000  0.60585000  0.70820000  1.0
  C  C87  1  0.62498000  0.46853000  0.40961000  1.0
  C  C88  1  0.42167000  0.64095000  0.52536000  1.0
  C  C89  1  0.50636000  0.59839000  0.72452000  1.0
  C  C90  1  0.48690000  0.72135000  0.57316000  1.0
  C  C91  1  0.17278000  0.40587000  0.41677000  1.0
  C  C92  1  0.82624000  0.72335000  0.70692000  1.0
  C  C93  1  0.52376000  0.01999000  0.53901000  1.0
  C  C94  1  0.39932000  0.99267000  0.55898000  1.0
  C  C95  1  0.39678000  0.92187000  0.57646000  1.0
  C  C96  1  0.48249000  0.79281000  0.59437000  1.0
  C  C97  1  0.48935000  0.05751000  0.58800000  1.0
  C  C98  1  0.43535000  0.57238000  0.30064000  1.0
  C  C99  1  0.50756000  0.93614000  0.53745000  1.0
  C  C100  1  0.48131000  0.92681000  0.59906000  1.0
  C  C101  1  0.54553000  0.00352000  0.67574000  1.0
  C  C102  1  0.54201000  0.07822000  0.67162000  1.0
  C  C103  1  0.47939000  0.85433000  0.60236000  1.0
  C  C104  1  0.49341000  0.13042000  0.58443000  1.0
  C  C105  1  0.49785000  0.19371000  0.58687000  1.0
  C  C106  1  0.85594000  0.36028000  0.44655000  1.0
  C  C107  1  0.86071000  0.44336000  0.37631000  1.0
  C  C108  1  0.94530000  0.45400000  0.38672000  1.0
  C  C109  1  0.56566000  0.34364000  0.61606000  1.0
  C  C110  1  0.09429000  0.39452000  0.40382000  1.0
  C  C111  1  0.80641000  0.36153000  0.37278000  1.0
  C  C112  1  0.93540000  0.36233000  0.44932000  1.0
  C  C113  1  0.94749000  0.37632000  0.38309000  1.0
  C  C114  1  0.87456000  0.30356000  0.30668000  1.0
  C  C115  1  0.79102000  0.29418000  0.29978000  1.0
  C  C116  1  0.02614000  0.38473000  0.39107000  1.0
  C  C117  1  0.73236000  0.36008000  0.37265000  1.0
  C  C118  1  0.68451000  0.37657000  0.38889000  1.0
  C  C119  1  0.50746000  0.63335000  0.79733000  1.0
  C  C120  1  0.57009000  0.62805000  0.35509000  1.0
  C  C121  1  0.57302000  0.65436000  0.86673000  1.0
  C  C122  1  0.56617000  0.66930000  0.93317000  1.0
  C  C123  1  0.49373000  0.66479000  0.93344000  1.0
  C  C124  1  0.43074000  0.65037000  0.86686000  1.0
  C  C125  1  0.43832000  0.63589000  0.80056000  1.0
  C  C126  1  0.44545000  0.62350000  0.10358000  1.0
  C  C127  1  0.43832000  0.60573000  0.16187000  1.0
  C  C128  1  0.52347000  0.67380000  0.11333000  1.0
  C  C129  1  0.50845000  0.63805000  0.23211000  1.0
  C  C130  1  0.58573000  0.69097000  0.24212000  1.0
  C  C131  1  0.42990000  0.27253000  0.55397000  1.0
  C  C132  1  0.59327000  0.70768000  0.18364000  1.0
  C  C133  1  0.32532000  0.19797000  0.22288000  1.0
  C  C134  1  0.30740000  0.20125000  0.15262000  1.0
  C  C135  1  0.25633000  0.13184000  0.08341000  1.0
  C  C136  1  0.22131000  0.05554000  0.08192000  1.0
  C  C137  1  0.24446000  0.05097000  0.15114000  1.0
  C  C138  1  0.29543000  0.12093000  0.22039000  1.0
  C  C139  1  0.03845000  0.83859000  0.87625000  1.0
  C  C140  1  0.96327000  0.77575000  0.81434000  1.0
  C  C141  1  0.05988000  0.92021000  0.89361000  1.0
  C  C142  1  0.61692000  0.39555000  0.47273000  1.0
  C  C143  1  0.90706000  0.79020000  0.76781000  1.0
  C  C144  1  0.93102000  0.87099000  0.78235000  1.0
  C  C145  1  0.00629000  0.93397000  0.84308000  1.0
  C  C146  1  0.39084000  0.35124000  0.30369000  1.0
  C  C147  1  0.36551000  0.27168000  0.29410000  1.0
  C  C148  1  0.15419000  0.35349000  0.53464000  1.0
  C  C149  1  0.47429000  0.84316000  0.41518000  1.0
  C  C150  1  0.53782000  0.06735000  0.44776000  1.0
  C  C151  1  0.32498000  0.59555000  0.28722000  1.0
  C  C152  1  0.75100000  0.16597000  0.30926000  1.0
  C  C153  1  0.68113000  0.32514000  0.65857000  1.0
  C  C154  1  0.65023000  0.58771000  0.86690000  1.0
  C  C155  1  0.07828000  0.79654000  0.97075000  1.0
  N  N156  1  0.40218000  0.35606000  0.41393000  1.0
  N  N157  1  0.53536000  0.63797000  0.54110000  1.0
  N  N158  1  0.28854000  0.43576000  0.40460000  1.0
  N  N159  1  0.70742000  0.60304000  0.63832000  1.0
  N  N160  1  0.70428000  0.64770000  0.59910000  1.0
  N  N161  1  0.29339000  0.40618000  0.45738000  1.0
  N  N162  1  0.54222000  0.55017000  0.63641000  1.0
  N  N163  1  0.45199000  0.59227000  0.50644000  1.0
  N  N164  1  0.47732000  0.66594000  0.99493000  1.0
  N  N165  1  0.53947000  0.68725000  0.05568000  1.0
  N  N166  1  0.15862000  0.98250000  0.01648000  1.0
  N  N167  1  0.59653000  0.49219000  0.45762000  1.0
  N  N168  1  0.12813000  0.99079000  0.95737000  1.0
  N  N169  1  0.45945000  0.56135000  0.36308000  1.0
  N  N170  1  0.53781000  0.39265000  0.60237000  1.0
  N  N171  1  0.54360000  0.59660000  0.39728000  1.0
  N  N172  1  0.45293000  0.34826000  0.56375000  1.0
  N  N173  1  0.59165000  0.44761000  0.49637000  1.0
  N  N174  1  0.41182000  0.40048000  0.37518000  1.0
  N  N175  1  0.45883000  0.50637000  0.60449000  1.0
  O  O176  1  0.21962000  0.35968000  0.51601000  1.0
  O  O177  1  0.44470000  0.86950000  0.46587000  1.0
  O  O178  1  0.48740000  0.00844000  0.46289000  1.0
  O  O179  1  0.35376000  0.54328000  0.25673000  1.0
  O  O180  1  0.72921000  0.21419000  0.27818000  1.0
  O  O181  1  0.64851000  0.37816000  0.65467000  1.0
  O  O182  1  0.64433000  0.65740000  0.86738000  1.0
  O  O183  1  0.09315000  0.81983000  0.91517000  1.0
