# generated using pymatgen
data_Gd2CuH18C14S2(NO11)2
_symmetry_space_group_name_H-M   'P 1'
_cell_length_a   6.31420000
_cell_length_b   9.88392000
_cell_length_c   9.94031000
_cell_angle_alpha   95.45660000
_cell_angle_beta   92.89390000
_cell_angle_gamma   98.52840000
_symmetry_Int_Tables_number   1
_chemical_formula_structural   Gd2CuH18C14S2(NO11)2
_chemical_formula_sum   'Gd2 Cu1 H18 C14 S2 N2 O22'
_cell_volume   609.40965448
_cell_formula_units_Z   1
loop_
 _symmetry_equiv_pos_site_id
 _symmetry_equiv_pos_as_xyz
  1  'x, y, z'
loop_
 _atom_site_type_symbol
 _atom_site_label
 _atom_site_symmetry_multiplicity
 _atom_site_fract_x
 _atom_site_fract_y
 _atom_site_fract_z
 _atom_site_occupancy
  Gd  Gd0  1  0.06983000  0.46580000  0.74331000  1.0
  Gd  Gd1  1  0.93017000  0.53422000  0.25669000  1.0
  Cu  Cu2  1  0.50000000  0.99999000  0.00000000  1.0
  H  H3  1  0.33379000  0.78797000  0.78822000  1.0
  H  H4  1  0.66624000  0.21202000  0.21178000  1.0
  H  H5  1  0.46841000  0.21456000  0.80315000  1.0
  H  H6  1  0.53158000  0.78543000  0.19685000  1.0
  H  H7  1  0.19074000  0.98185000  0.43172000  1.0
  H  H8  1  0.80924000  0.01815000  0.56828000  1.0
  H  H9  1  0.60695000  0.46600000  0.64326000  1.0
  H  H10  1  0.39304000  0.53399000  0.35672000  1.0
  H  H11  1  0.72006000  0.62317000  0.64046000  1.0
  H  H12  1  0.27992000  0.37682000  0.35954000  1.0
  H  H13  1  0.55722000  0.55667000  0.82193000  1.0
  H  H14  1  0.44277000  0.44332000  0.17807000  1.0
  H  H15  1  0.42906000  0.58658000  0.95726000  1.0
  H  H16  1  0.57098000  0.41325000  0.04278000  1.0
  H  H17  1  0.20096000  0.09455000  0.09917000  1.0
  H  H18  1  0.79911000  0.90551000  0.90087000  1.0
  H  H19  1  0.26712000  0.20158000  0.99506000  1.0
  H  H20  1  0.73288000  0.79842000  0.00492000  1.0
  C  C21  1  0.32769000  0.87908000  0.73602000  1.0
  C  C22  1  0.67233000  0.12092000  0.26398000  1.0
  C  C23  1  0.40078000  0.11746000  0.74518000  1.0
  C  C24  1  0.59922000  0.88253000  0.25483000  1.0
  C  C25  1  0.31543000  0.24631000  0.54777000  1.0
  C  C26  1  0.68457000  0.75369000  0.45223000  1.0
  C  C27  1  0.17002000  0.72769000  0.52882000  1.0
  C  C28  1  0.82997000  0.27232000  0.47117000  1.0
  C  C29  1  0.32147000  0.11467000  0.61115000  1.0
  C  C30  1  0.67853000  0.88533000  0.38885000  1.0
  C  C31  1  0.24868000  0.86750000  0.60123000  1.0
  C  C32  1  0.75132000  0.13249000  0.39878000  1.0
  C  C33  1  0.24771000  0.98726000  0.53761000  1.0
  C  C34  1  0.75228000  0.01273000  0.46239000  1.0
  S  S35  1  0.92274000  0.28150000  0.96591000  1.0
  S  S36  1  0.07725000  0.71850000  0.03409000  1.0
  N  N37  1  0.40221000  0.00142000  0.80585000  1.0
  N  N38  1  0.59780000  0.99858000  0.19415000  1.0
  O  O39  1  0.78982000  0.36807000  0.89239000  1.0
  O  O40  1  0.21013000  0.63190000  0.10760000  1.0
  O  O41  1  0.13574000  0.29867000  0.90023000  1.0
  O  O42  1  0.86427000  0.70138000  0.09979000  1.0
  O  O43  1  0.82878000  0.13562000  0.95234000  1.0
  O  O44  1  0.17128000  0.86437000  0.04764000  1.0
  O  O45  1  0.32636000  0.14736000  0.06453000  1.0
  O  O46  1  0.67368000  0.85266000  0.93545000  1.0
  O  O47  1  0.96165000  0.33536000  0.11086000  1.0
  O  O48  1  0.03829000  0.66463000  0.88914000  1.0
  O  O49  1  0.33693000  0.35877000  0.62770000  1.0
  O  O50  1  0.66307000  0.64124000  0.37231000  1.0
  O  O51  1  0.11704000  0.72078000  0.40304000  1.0
  O  O52  1  0.88295000  0.27923000  0.59696000  1.0
  O  O53  1  0.16203000  0.62431000  0.59616000  1.0
  O  O54  1  0.83795000  0.37569000  0.40384000  1.0
  O  O55  1  0.28872000  0.23782000  0.42080000  1.0
  O  O56  1  0.71128000  0.76218000  0.57921000  1.0
  O  O57  1  0.72401000  0.53582000  0.68777000  1.0
  O  O58  1  0.27598000  0.46416000  0.31221000  1.0
  O  O59  1  0.41496000  0.55208000  0.86146000  1.0
  O  O60  1  0.58501000  0.44806000  0.13850000  1.0
