# generated using pymatgen
data_Zn4H29C42Cl6O13
_symmetry_space_group_name_H-M   'P 1'
_cell_length_a   18.26180000
_cell_length_b   18.27069570
_cell_length_c   18.31262182
_cell_angle_alpha   119.87915548
_cell_angle_beta   119.74899565
_cell_angle_gamma   90.15229274
_symmetry_Int_Tables_number   1
_chemical_formula_structural   Zn4H29C42Cl6O13
_chemical_formula_sum   'Zn8 H58 C84 Cl12 O26'
_cell_volume   4338.98632714
_cell_formula_units_Z   2
loop_
 _symmetry_equiv_pos_site_id
 _symmetry_equiv_pos_as_xyz
  1  'x, y, z'
loop_
 _atom_site_type_symbol
 _atom_site_label
 _atom_site_symmetry_multiplicity
 _atom_site_fract_x
 _atom_site_fract_y
 _atom_site_fract_z
 _atom_site_occupancy
  Zn  Zn0  1  0.13024000  0.05036000  0.58775000  1.0
  Zn  Zn1  1  0.95222000  0.86918000  0.41131000  1.0
  Zn  Zn2  1  0.95998000  0.03978000  0.40872000  1.0
  Zn  Zn3  1  0.96202000  0.04602000  0.59407000  1.0
  Zn  Zn4  1  0.36536000  0.45664000  0.40761000  1.0
  Zn  Zn5  1  0.54190000  0.45579000  0.58464000  1.0
  Zn  Zn6  1  0.53913000  0.63065000  0.58297000  1.0
  Zn  Zn7  1  0.54116000  0.44775000  0.41075000  1.0
  H  H8  1  0.13348000  0.28791000  0.90527000  1.0
  H  H9  1  0.53395000  0.81396000  0.25018000  1.0
  H  H10  1  0.43650000  0.69828000  0.22677000  1.0
  H  H11  1  0.30897000  0.41014000  0.08998000  1.0
  H  H12  1  0.78673000  0.65052000  0.79770000  1.0
  H  H13  1  0.19206000  0.79529000  0.39056000  1.0
  H  H14  1  0.10591000  0.17904000  0.92383000  1.0
  H  H15  1  0.32831000  0.22146000  0.91112000  1.0
  H  H16  1  0.36328000  0.04659000  0.55232000  1.0
  H  H17  1  0.30041000  0.05867000  0.60330000  1.0
  H  H18  1  0.24942000  0.03689000  0.47950000  1.0
  H  H19  1  0.39785000  0.23266000  0.09694000  1.0
  H  H20  1  0.52020000  0.47007000  0.74607000  1.0
  H  H21  1  0.41090000  0.47764000  0.69910000  1.0
  H  H22  1  0.47457000  0.48847000  0.81700000  1.0
  H  H23  1  0.22947000  0.40425000  0.92934000  1.0
  H  H24  1  0.30746000  0.34628000  0.93105000  1.0
  H  H25  1  0.19822000  0.29816000  0.81797000  1.0
  H  H26  1  0.08353000  0.36110000  0.75511000  1.0
  H  H27  1  0.02936000  0.25705000  0.71892000  1.0
  H  H28  1  0.01061000  0.27288000  0.62341000  1.0
  H  H29  1  0.95035000  0.77664000  0.67051000  1.0
  H  H30  1  0.15100000  0.09139000  0.90027000  1.0
  H  H31  1  0.95866000  0.77786000  0.57864000  1.0
  H  H32  1  0.96059000  0.87602000  0.67551000  1.0
  H  H33  1  0.48956000  0.55212000  0.29229000  1.0
  H  H34  1  0.47476000  0.63676000  0.38397000  1.0
  H  H35  1  0.40890000  0.60294000  0.25519000  1.0
  H  H36  1  0.08388000  0.86211000  0.23576000  1.0
  H  H37  1  0.00712000  0.91547000  0.25010000  1.0
  H  H38  1  0.00788000  0.81702000  0.24794000  1.0
  H  H39  1  0.52752000  0.63449000  0.83165000  1.0
  H  H40  1  0.54127000  0.73441000  0.93785000  1.0
  H  H41  1  0.27818000  0.16889000  0.06781000  1.0
  H  H42  1  0.53918000  0.73503000  0.84007000  1.0
  H  H43  1  0.13357000  0.34131000  0.05499000  1.0
  H  H44  1  0.22446000  0.43960000  0.16910000  1.0
  H  H45  1  0.16514000  0.42988000  0.05097000  1.0
  H  H46  1  0.26321000  0.67947000  0.79481000  1.0
  H  H47  1  0.35971000  0.66793000  0.79416000  1.0
  H  H48  1  0.36124000  0.77331000  0.88257000  1.0
  H  H49  1  0.26715000  0.61586000  0.31124000  1.0
  H  H50  1  0.26100000  0.71549000  0.31657000  1.0
  H  H51  1  0.36410000  0.71201000  0.40138000  1.0
  H  H52  1  0.52059000  0.36025000  0.81969000  1.0
  H  H53  1  0.23348000  0.23530000  0.18585000  1.0
  H  H54  1  0.14744000  0.25846000  0.10558000  1.0
  H  H55  1  0.14179000  0.14604000  0.06185000  1.0
  H  H56  1  0.29206000  0.07711000  0.94008000  1.0
  H  H57  1  0.28060000  0.05958000  0.82978000  1.0
  H  H58  1  0.38742000  0.11394000  0.94845000  1.0
  H  H59  1  0.41250000  0.38457000  0.07123000  1.0
  H  H60  1  0.48728000  0.38415000  0.18005000  1.0
  H  H61  1  0.47383000  0.30980000  0.06179000  1.0
  H  H62  1  0.18677000  0.28082000  0.36524000  1.0
  H  H63  1  0.91632000  0.51549000  0.86307000  1.0
  H  H64  1  0.76489000  0.45315000  0.70407000  1.0
  H  H65  1  0.61955000  0.20724000  0.35116000  1.0
  C  C66  1  0.85678000  0.86501000  0.50022000  1.0
  C  C67  1  0.41992000  0.35358000  0.68614000  1.0
  C  C68  1  0.33944000  0.29602000  0.58505000  1.0
  C  C69  1  0.14012000  0.12036000  0.48186000  1.0
  C  C70  1  0.29291000  0.21237000  0.55509000  1.0
  C  C71  1  0.19735000  0.17270000  0.47582000  1.0
  C  C72  1  0.15968000  0.20104000  0.41106000  1.0
  C  C73  1  0.21396000  0.26698000  0.42325000  1.0
  C  C74  1  0.30107000  0.31494000  0.50885000  1.0
  C  C75  1  0.94539000  0.33823000  0.69748000  1.0
  C  C76  1  0.96304000  0.41538000  0.78651000  1.0
  C  C77  1  0.30489000  0.19851000  0.94347000  1.0
  C  C78  1  0.89825000  0.45562000  0.79054000  1.0
  C  C79  1  0.81438000  0.42079000  0.70207000  1.0
  C  C80  1  0.79092000  0.34218000  0.60810000  1.0
  C  C81  1  0.13735000  0.86680000  0.50566000  1.0
  C  C82  1  0.85514000  0.29675000  0.60666000  1.0
  C  C83  1  0.82611000  0.21202000  0.51320000  1.0
  C  C84  1  0.74161000  0.18088000  0.42455000  1.0
  C  C85  1  0.68336000  0.23111000  0.42308000  1.0
  C  C86  1  0.70655000  0.30902000  0.51356000  1.0
  C  C87  1  0.65473000  0.81545000  0.36298000  1.0
  C  C88  1  0.20720000  0.19713000  0.89984000  1.0
  C  C89  1  0.56327000  0.78620000  0.29463000  1.0
  C  C90  1  0.50866000  0.72138000  0.28267000  1.0
  C  C91  1  0.54280000  0.68596000  0.33931000  1.0
  C  C92  1  0.63820000  0.71678000  0.41276000  1.0
  C  C93  1  0.87965000  0.14941000  0.50901000  1.0
  C  C94  1  0.69649000  0.78121000  0.42342000  1.0
  C  C95  1  0.79097000  0.80669000  0.49264000  1.0
  C  C96  1  0.83022000  0.77543000  0.55383000  1.0
  C  C97  1  0.77195000  0.71634000  0.54591000  1.0
  C  C98  1  0.67985000  0.68707000  0.47784000  1.0
  C  C99  1  0.30305000  0.29972000  0.10151000  1.0
  C  C100  1  0.94942000  0.79350000  0.09959000  1.0
  C  C101  1  0.98069000  0.76087000  0.03743000  1.0
  C  C102  1  0.92162000  0.70971000  0.92824000  1.0
  C  C103  1  0.83092000  0.68902000  0.88127000  1.0
  C  C104  1  0.79524000  0.71914000  0.94027000  1.0
  C  C105  1  0.86327000  0.85847000  0.22002000  1.0
  C  C106  1  0.85410000  0.77253000  0.05071000  1.0
  C  C107  1  0.81270000  0.80169000  0.10464000  1.0
  C  C108  1  0.72031000  0.77984000  0.05153000  1.0
  C  C109  1  0.66172000  0.72830000  0.94282000  1.0
  C  C110  1  0.23610000  0.21072000  0.05696000  1.0
  C  C111  1  0.70124000  0.69826000  0.89011000  1.0
  C  C112  1  0.20743000  0.81983000  0.66325000  1.0
  C  C113  1  0.24103000  0.79766000  0.73326000  1.0
  C  C114  1  0.28912000  0.73625000  0.72805000  1.0
  C  C115  1  0.30281000  0.70003000  0.65063000  1.0
  C  C116  1  0.27729000  0.72649000  0.58190000  1.0
  C  C117  1  0.14691000  0.14087000  0.78272000  1.0
  C  C118  1  0.22569000  0.78678000  0.58706000  1.0
  C  C119  1  0.19549000  0.80948000  0.51530000  1.0
  C  C120  1  0.21656000  0.77674000  0.44467000  1.0
  C  C121  1  0.36393000  0.26805000  0.06289000  1.0
  C  C122  1  0.26892000  0.72058000  0.44033000  1.0
  C  C123  1  0.29881000  0.69634000  0.50877000  1.0
  C  C124  1  0.64227000  0.36008000  0.50744000  1.0
  C  C125  1  0.35821000  0.63995000  0.50191000  1.0
  C  C126  1  0.35737000  0.37098000  0.50510000  1.0
  C  C127  1  0.62755000  0.62892000  0.48379000  1.0
  C  C128  1  0.64121000  0.64051000  0.77457000  1.0
  C  C129  1  0.20460000  0.29433000  0.93865000  1.0
  C  C130  1  0.35858000  0.35562000  0.21892000  1.0
  C  C131  1  0.25484000  0.35341000  0.05837000  1.0
  C  C132  1  0.34160000  0.17188000  0.60513000  1.0
  C  C133  1  0.16855000  0.16442000  0.94047000  1.0
  C  C134  1  0.31091000  0.07355000  0.55746000  1.0
  C  C135  1  0.45837000  0.45244000  0.73885000  1.0
  C  C136  1  0.23699000  0.33778000  0.90222000  1.0
  C  C137  1  0.02060000  0.30491000  0.69803000  1.0
  C  C138  1  0.93028000  0.80282000  0.62372000  1.0
  C  C139  1  0.47617000  0.61578000  0.31722000  1.0
  C  C140  1  0.01539000  0.84989000  0.21447000  1.0
  C  C141  1  0.56211000  0.70714000  0.88561000  1.0
  C  C142  1  0.19145000  0.39337000  0.08601000  1.0
  C  C143  1  0.42497000  0.22685000  0.69751000  1.0
  C  C144  1  0.32035000  0.71237000  0.80363000  1.0
  C  C145  1  0.29139000  0.68927000  0.36310000  1.0
  C  C146  1  0.18745000  0.21388000  0.10609000  1.0
  C  C147  1  0.31615000  0.10682000  0.91324000  1.0
  C  C148  1  0.43816000  0.34147000  0.09651000  1.0
  C  C149  1  0.45991000  0.31812000  0.74175000  1.0
  Cl  Cl150  1  0.04742000  0.16270000  0.31458000  1.0
  Cl  Cl151  1  0.14235000  0.88770000  0.67078000  1.0
  Cl  Cl152  1  0.22122000  0.84164000  0.82718000  1.0
  Cl  Cl153  1  0.34809000  0.61408000  0.63425000  1.0
  Cl  Cl154  1  0.48882000  0.18402000  0.76418000  1.0
  Cl  Cl155  1  0.70238000  0.07658000  0.31206000  1.0
  Cl  Cl156  1  0.06987000  0.46972000  0.90032000  1.0
  Cl  Cl157  1  0.71407000  0.89781000  0.37235000  1.0
  Cl  Cl158  1  0.81702000  0.67970000  0.62546000  1.0
  Cl  Cl159  1  0.67481000  0.81667000  0.12233000  1.0
  Cl  Cl160  1  0.09399000  0.78167000  0.09070000  1.0
  Cl  Cl161  1  0.96234000  0.67438000  0.85349000  1.0
  O  O162  1  0.99931000  0.00010000  0.50018000  1.0
  O  O163  1  0.60606000  0.67154000  0.54592000  1.0
  O  O164  1  0.61654000  0.55639000  0.73179000  1.0
  O  O165  1  0.89230000  0.94757000  0.57441000  1.0
  O  O166  1  0.44088000  0.36225000  0.26718000  1.0
  O  O167  1  0.62014000  0.68041000  0.73042000  1.0
  O  O168  1  0.31880000  0.39052000  0.26223000  1.0
  O  O169  1  0.31776000  0.40013000  0.45010000  1.0
  O  O170  1  0.61181000  0.54499000  0.42939000  1.0
  O  O171  1  0.62088000  0.38533000  0.57077000  1.0
  O  O172  1  0.44222000  0.68175000  0.56616000  1.0
  O  O173  1  0.17726000  0.94980000  0.55527000  1.0
  O  O174  1  0.17283000  0.13555000  0.57013000  1.0
  O  O175  1  0.05383000  0.82431000  0.44065000  1.0
  O  O176  1  0.90964000  0.13345000  0.45466000  1.0
  O  O177  1  0.88393000  0.81780000  0.26331000  1.0
  O  O178  1  0.06245000  0.12100000  0.74029000  1.0
  O  O179  1  0.87774000  0.94197000  0.26245000  1.0
  O  O180  1  0.18401000  0.11959000  0.73504000  1.0
  O  O181  1  0.88723000  0.11665000  0.55847000  1.0
  O  O182  1  0.87557000  0.82314000  0.43518000  1.0
  O  O183  1  0.06110000  0.06855000  0.40260000  1.0
  O  O184  1  0.49699000  0.49947000  0.49782000  1.0
  O  O185  1  0.61408000  0.37399000  0.43793000  1.0
  O  O186  1  0.31960000  0.55777000  0.42723000  1.0
  O  O187  1  0.44016000  0.37936000  0.55181000  1.0
