# generated using pymatgen
data_NiH12C14N2O7
_symmetry_space_group_name_H-M   'P 1'
_cell_length_a   8.02453000
_cell_length_b   10.89170000
_cell_length_c   16.44820000
_cell_angle_alpha   89.99990000
_cell_angle_beta   92.96950000
_cell_angle_gamma   90.00000000
_symmetry_Int_Tables_number   1
_chemical_formula_structural   NiH12C14N2O7
_chemical_formula_sum   'Ni4 H48 C56 N8 O28'
_cell_volume   1435.65508760
_cell_formula_units_Z   4
loop_
 _symmetry_equiv_pos_site_id
 _symmetry_equiv_pos_as_xyz
  1  'x, y, z'
loop_
 _atom_site_type_symbol
 _atom_site_label
 _atom_site_symmetry_multiplicity
 _atom_site_fract_x
 _atom_site_fract_y
 _atom_site_fract_z
 _atom_site_occupancy
  Ni  Ni0  1  0.55568000  0.41372000  0.64883000  1.0
  Ni  Ni1  1  0.44432000  0.91372000  0.85117000  1.0
  Ni  Ni2  1  0.44432000  0.58628000  0.35117000  1.0
  Ni  Ni3  1  0.55569000  0.08628000  0.14883000  1.0
  H  H4  1  0.25065000  0.06736000  0.60801000  1.0
  H  H5  1  0.74935000  0.56736000  0.89199000  1.0
  H  H6  1  0.74935000  0.93264000  0.39199000  1.0
  H  H7  1  0.25065000  0.43264000  0.10801000  1.0
  H  H8  1  0.17903000  0.86591000  0.38345000  1.0
  H  H9  1  0.82097000  0.36591000  0.11655000  1.0
  H  H10  1  0.82097000  0.13409000  0.61655000  1.0
  H  H11  1  0.17902000  0.63409000  0.88345000  1.0
  H  H12  1  0.49532000  0.18458000  0.39388000  1.0
  H  H13  1  0.50468000  0.68458000  0.10612000  1.0
  H  H14  1  0.50469000  0.81542000  0.60612000  1.0
  H  H15  1  0.49531000  0.31542000  0.89388000  1.0
  H  H16  1  0.88613000  0.80018000  0.74191000  1.0
  H  H17  1  0.11387000  0.30018000  0.75809000  1.0
  H  H18  1  0.11387000  0.19982000  0.25809000  1.0
  H  H19  1  0.88613000  0.69982000  0.24191000  1.0
  H  H20  1  0.67358000  0.63546000  0.75481000  1.0
  H  H21  1  0.32643000  0.13546000  0.74519000  1.0
  H  H22  1  0.32643000  0.36454000  0.24519000  1.0
  H  H23  1  0.67358000  0.86454000  0.25481000  1.0
  H  H24  1  0.78493000  0.48456000  0.53205000  1.0
  H  H25  1  0.21507000  0.98455000  0.96795000  1.0
  H  H26  1  0.21507000  0.51544000  0.46795000  1.0
  H  H27  1  0.78493000  0.01545000  0.03205000  1.0
  H  H28  1  0.00177000  0.63851000  0.51067000  1.0
  H  H29  1  0.99823000  0.13851000  0.98933000  1.0
  H  H30  1  0.99823000  0.36149000  0.48933000  1.0
  H  H31  1  0.00177000  0.86149000  0.01067000  1.0
  H  H32  1  0.05955000  0.80344000  0.49283000  1.0
  H  H33  1  0.94045000  0.30345000  0.00717000  1.0
  H  H34  1  0.94045000  0.19656000  0.50717000  1.0
  H  H35  1  0.05955000  0.69655000  0.99283000  1.0
  H  H36  1  0.40380000  0.59437000  0.56600000  1.0
  H  H37  1  0.59620000  0.09437000  0.93400000  1.0
  H  H38  1  0.59620000  0.40563000  0.43400000  1.0
  H  H39  1  0.40380000  0.90563000  0.06600000  1.0
  H  H40  1  0.33203000  0.56655000  0.65502000  1.0
  H  H41  1  0.66798000  0.06655000  0.84499000  1.0
  H  H42  1  0.66797000  0.43345000  0.34499000  1.0
  H  H43  1  0.33203000  0.93345000  0.15501000  1.0
  H  H44  1  0.72766000  0.22318000  0.71050000  1.0
  H  H45  1  0.27234000  0.72318000  0.78950000  1.0
  H  H46  1  0.27235000  0.77682000  0.28950000  1.0
  H  H47  1  0.72766000  0.27682000  0.21050000  1.0
  H  H48  1  0.81230000  0.34836000  0.73826000  1.0
  H  H49  1  0.18770000  0.84836000  0.76174000  1.0
  H  H50  1  0.18770000  0.65164000  0.26174000  1.0
  H  H51  1  0.81231000  0.15164000  0.23826000  1.0
  C  C52  1  0.44817000  0.24460000  0.55304000  1.0
  C  C53  1  0.55183000  0.74460000  0.94696000  1.0
  C  C54  1  0.55184000  0.75540000  0.44696000  1.0
  C  C55  1  0.44817000  0.25540000  0.05303000  1.0
  C  C56  1  0.37499000  0.13977000  0.50476000  1.0
  C  C57  1  0.62500000  0.63976000  0.99524000  1.0
  C  C58  1  0.62501000  0.86023000  0.49525000  1.0
  C  C59  1  0.37499000  0.36023000  0.00475000  1.0
  C  C60  1  0.27357000  0.05583000  0.54405000  1.0
  C  C61  1  0.72642000  0.55583000  0.95595000  1.0
  C  C62  1  0.72643000  0.94417000  0.45595000  1.0
  C  C63  1  0.27357000  0.44417000  0.04405000  1.0
  C  C64  1  0.20624000  0.95588000  0.50039000  1.0
  C  C65  1  0.79376000  0.45588000  0.99961000  1.0
  C  C66  1  0.79376000  0.04412000  0.49961000  1.0
  C  C67  1  0.20624000  0.54412000  0.00039000  1.0
  C  C68  1  0.23517000  0.94249000  0.41758000  1.0
  C  C69  1  0.76483000  0.44249000  0.08242000  1.0
  C  C70  1  0.76483000  0.05752000  0.58242000  1.0
  C  C71  1  0.23516000  0.55751000  0.91758000  1.0
  C  C72  1  0.34052000  0.02348000  0.37960000  1.0
  C  C73  1  0.65948000  0.52348000  0.12040000  1.0
  C  C74  1  0.65948000  0.97652000  0.62040000  1.0
  C  C75  1  0.34051000  0.47652000  0.87960000  1.0
  C  C76  1  0.41162000  0.12231000  0.42356000  1.0
  C  C77  1  0.58837000  0.62231000  0.07644000  1.0
  C  C78  1  0.58838000  0.87769000  0.57644000  1.0
  C  C79  1  0.41162000  0.37769000  0.92356000  1.0
  C  C80  1  0.07174000  0.84414000  0.61294000  1.0
  C  C81  1  0.92827000  0.34415000  0.88706000  1.0
  C  C82  1  0.92826000  0.15586000  0.38706000  1.0
  C  C83  1  0.07173000  0.65585000  0.11294000  1.0
  C  C84  1  0.96033000  0.73584000  0.62463000  1.0
  C  C85  1  0.03967000  0.23585000  0.87537000  1.0
  C  C86  1  0.03967000  0.26415000  0.37537000  1.0
  C  C87  1  0.96033000  0.76415000  0.12463000  1.0
  C  C88  1  0.86938000  0.73039000  0.69481000  1.0
  C  C89  1  0.13062000  0.23040000  0.80520000  1.0
  C  C90  1  0.13062000  0.26961000  0.30519000  1.0
  C  C91  1  0.86938000  0.76960000  0.19481000  1.0
  C  C92  1  0.75059000  0.63857000  0.70222000  1.0
  C  C93  1  0.24941000  0.13857000  0.79778000  1.0
  C  C94  1  0.24941000  0.36143000  0.29778000  1.0
  C  C95  1  0.75059000  0.86143000  0.20222000  1.0
  C  C96  1  0.81343000  0.55467000  0.57788000  1.0
  C  C97  1  0.18657000  0.05467000  0.92212000  1.0
  C  C98  1  0.18657000  0.44533000  0.42212000  1.0
  C  C99  1  0.81343000  0.94533000  0.07788000  1.0
  C  C100  1  0.93313000  0.64365000  0.56604000  1.0
  C  C101  1  0.06687000  0.14365000  0.93397000  1.0
  C  C102  1  0.06687000  0.35635000  0.43396000  1.0
  C  C103  1  0.93313000  0.85635000  0.06603000  1.0
  C  C104  1  0.38230000  0.00192000  0.29290000  1.0
  C  C105  1  0.61770000  0.50192000  0.20710000  1.0
  C  C106  1  0.61770000  0.99808000  0.70710000  1.0
  C  C107  1  0.38230000  0.49808000  0.79290000  1.0
  N  N108  1  0.10953000  0.86372000  0.53439000  1.0
  N  N109  1  0.89047000  0.36372000  0.96561000  1.0
  N  N110  1  0.89047000  0.13628000  0.46561000  1.0
  N  N111  1  0.10953000  0.63628000  0.03439000  1.0
  N  N112  1  0.72172000  0.55270000  0.64419000  1.0
  N  N113  1  0.27827000  0.05270000  0.85581000  1.0
  N  N114  1  0.27828000  0.44730000  0.35581000  1.0
  N  N115  1  0.72173000  0.94730000  0.14419000  1.0
  O  O116  1  0.40789000  0.25721000  0.62668000  1.0
  O  O117  1  0.59210000  0.75721000  0.87332000  1.0
  O  O118  1  0.59211000  0.74279000  0.37332000  1.0
  O  O119  1  0.40790000  0.24279000  0.12668000  1.0
  O  O120  1  0.55109000  0.31952000  0.52235000  1.0
  O  O121  1  0.44891000  0.81952000  0.97765000  1.0
  O  O122  1  0.44891000  0.68048000  0.47765000  1.0
  O  O123  1  0.55109000  0.18048000  0.02235000  1.0
  O  O124  1  0.49077000  0.07400000  0.26525000  1.0
  O  O125  1  0.50923000  0.57399000  0.23475000  1.0
  O  O126  1  0.50923000  0.92601000  0.73475000  1.0
  O  O127  1  0.49077000  0.42601000  0.76525000  1.0
  O  O128  1  0.30960000  0.91510000  0.25276000  1.0
  O  O129  1  0.69040000  0.41509000  0.24724000  1.0
  O  O130  1  0.69040000  0.08491000  0.74724000  1.0
  O  O131  1  0.30960000  0.58491000  0.75276000  1.0
  O  O132  1  0.11905000  0.91233000  0.67042000  1.0
  O  O133  1  0.88096000  0.41234000  0.82958000  1.0
  O  O134  1  0.88095000  0.08766000  0.32958000  1.0
  O  O135  1  0.11904000  0.58766000  0.17042000  1.0
  O  O136  1  0.35887000  0.52948000  0.60104000  1.0
  O  O137  1  0.64113000  0.02947000  0.89896000  1.0
  O  O138  1  0.64113000  0.47052000  0.39896000  1.0
  O  O139  1  0.35887000  0.97053000  0.10104000  1.0
  O  O140  1  0.76272000  0.30522000  0.68942000  1.0
  O  O141  1  0.23728000  0.80522000  0.81058000  1.0
  O  O142  1  0.23728000  0.69479000  0.31058000  1.0
  O  O143  1  0.76272000  0.19479000  0.18942000  1.0
