# generated using pymatgen
data_CuH9C7IN
_symmetry_space_group_name_H-M   'P 1'
_cell_length_a   8.01459000
_cell_length_b   10.25090000
_cell_length_c   10.25090000
_cell_angle_alpha   94.86360000
_cell_angle_beta   94.13500000
_cell_angle_gamma   94.13600000
_symmetry_Int_Tables_number   1
_chemical_formula_structural   CuH9C7IN
_chemical_formula_sum   'Cu4 H36 C28 I4 N4'
_cell_volume   834.36633478
_cell_formula_units_Z   4
loop_
 _symmetry_equiv_pos_site_id
 _symmetry_equiv_pos_as_xyz
  1  'x, y, z'
loop_
 _atom_site_type_symbol
 _atom_site_label
 _atom_site_symmetry_multiplicity
 _atom_site_fract_x
 _atom_site_fract_y
 _atom_site_fract_z
 _atom_site_occupancy
  Cu  Cu0  1  0.88311000  0.88735000  0.01328000  1.0
  Cu  Cu1  1  0.61689000  0.98673000  0.11264000  1.0
  Cu  Cu2  1  0.11689000  0.11264000  0.98672000  1.0
  Cu  Cu3  1  0.38311000  0.01327000  0.88736000  1.0
  H  H4  1  0.20495000  0.76324000  0.04551000  1.0
  H  H5  1  0.29504000  0.95449000  0.23676000  1.0
  H  H6  1  0.79505000  0.23676000  0.95448000  1.0
  H  H7  1  0.70495000  0.04551000  0.76324000  1.0
  H  H8  1  0.10849000  0.42120000  0.25430000  1.0
  H  H9  1  0.39149000  0.74571000  0.57880000  1.0
  H  H10  1  0.89151000  0.57879000  0.74570000  1.0
  H  H11  1  0.60850000  0.25430000  0.42120000  1.0
  H  H12  1  0.71975000  0.66718000  0.13869000  1.0
  H  H13  1  0.78024000  0.86130000  0.33282000  1.0
  H  H14  1  0.28026000  0.33282000  0.86130000  1.0
  H  H15  1  0.21975000  0.13869000  0.66719000  1.0
  H  H16  1  0.44067000  0.64765000  0.21444000  1.0
  H  H17  1  0.05932000  0.78556000  0.35235000  1.0
  H  H18  1  0.55933000  0.35235000  0.78555000  1.0
  H  H19  1  0.94067000  0.21444000  0.64765000  1.0
  H  H20  1  0.38903000  0.47469000  0.19912000  1.0
  H  H21  1  0.11096000  0.80088000  0.52531000  1.0
  H  H22  1  0.61097000  0.52531000  0.80088000  1.0
  H  H23  1  0.88904000  0.19912000  0.47469000  1.0
  H  H24  1  0.40996000  0.56128000  0.05737000  1.0
  H  H25  1  0.09004000  0.94263000  0.43872000  1.0
  H  H26  1  0.59004000  0.43872000  0.94263000  1.0
  H  H27  1  0.90996000  0.05737000  0.56128000  1.0
  H  H28  1  0.67867000  0.39477000  0.19263000  1.0
  H  H29  1  0.82132000  0.80738000  0.60522000  1.0
  H  H30  1  0.32134000  0.60523000  0.80738000  1.0
  H  H31  1  0.17868000  0.19262000  0.39478000  1.0
  H  H32  1  0.83216000  0.37095000  0.31887000  1.0
  H  H33  1  0.66782000  0.68114000  0.62905000  1.0
  H  H34  1  0.16785000  0.62905000  0.68113000  1.0
  H  H35  1  0.33218000  0.31887000  0.37096000  1.0
  H  H36  1  0.70051000  0.50344000  0.33746000  1.0
  H  H37  1  0.79948000  0.66255000  0.49656000  1.0
  H  H38  1  0.29950000  0.49656000  0.66254000  1.0
  H  H39  1  0.20052000  0.33746000  0.50345000  1.0
  C  C40  1  0.12131000  0.69630000  0.09296000  1.0
  C  C41  1  0.37869000  0.90704000  0.30369000  1.0
  C  C42  1  0.87869000  0.30370000  0.90704000  1.0
  C  C43  1  0.62131000  0.09295000  0.69630000  1.0
  C  C44  1  0.18207000  0.58936000  0.15226000  1.0
  C  C45  1  0.31792000  0.84774000  0.41063000  1.0
  C  C46  1  0.81794000  0.41063000  0.84774000  1.0
  C  C47  1  0.68207000  0.15226000  0.58937000  1.0
  C  C48  1  0.06666000  0.50705000  0.20898000  1.0
  C  C49  1  0.43334000  0.79103000  0.49295000  1.0
  C  C50  1  0.93335000  0.49295000  0.79101000  1.0
  C  C51  1  0.56666000  0.20898000  0.50705000  1.0
  C  C52  1  0.89748000  0.53281000  0.20712000  1.0
  C  C53  1  0.60252000  0.79289000  0.46719000  1.0
  C  C54  1  0.10253000  0.46719000  0.79288000  1.0
  C  C55  1  0.39748000  0.20711000  0.53281000  1.0
  C  C56  1  0.85010000  0.64237000  0.14549000  1.0
  C  C57  1  0.64989000  0.85451000  0.35763000  1.0
  C  C58  1  0.14991000  0.35763000  0.85450000  1.0
  C  C59  1  0.35010000  0.14549000  0.64238000  1.0
  C  C60  1  0.36487000  0.56647000  0.15623000  1.0
  C  C61  1  0.13512000  0.84377000  0.43353000  1.0
  C  C62  1  0.63513000  0.43353000  0.84377000  1.0
  C  C63  1  0.86488000  0.15623000  0.56647000  1.0
  C  C64  1  0.77105000  0.44644000  0.26762000  1.0
  C  C65  1  0.72894000  0.73239000  0.55356000  1.0
  C  C66  1  0.22896000  0.55356000  0.73238000  1.0
  C  C67  1  0.27106000  0.26761000  0.44644000  1.0
  I  I68  1  0.57345000  0.81314000  0.90943000  1.0
  I  I69  1  0.92655000  0.09057000  0.18686000  1.0
  I  I70  1  0.42655000  0.18686000  0.09057000  1.0
  I  I71  1  0.07345000  0.90943000  0.81314000  1.0
  N  N72  1  0.95909000  0.72283000  0.08981000  1.0
  N  N73  1  0.54090000  0.91019000  0.27717000  1.0
  N  N74  1  0.04091000  0.27717000  0.91019000  1.0
  N  N75  1  0.45910000  0.08980000  0.72283000  1.0
