# generated using pymatgen
data_Zn4H39C45N9O13
_symmetry_space_group_name_H-M   'P 1'
_cell_length_a   15.00980000
_cell_length_b   15.15040000
_cell_length_c   15.50050000
_cell_angle_alpha   97.00530000
_cell_angle_beta   97.56000000
_cell_angle_gamma   90.99670000
_symmetry_Int_Tables_number   1
_chemical_formula_structural   Zn4H39C45N9O13
_chemical_formula_sum   'Zn4 H39 C45 N9 O13'
_cell_volume   3466.15479532
_cell_formula_units_Z   1
loop_
 _symmetry_equiv_pos_site_id
 _symmetry_equiv_pos_as_xyz
  1  'x, y, z'
loop_
 _atom_site_type_symbol
 _atom_site_label
 _atom_site_symmetry_multiplicity
 _atom_site_fract_x
 _atom_site_fract_y
 _atom_site_fract_z
 _atom_site_occupancy
  Zn  Zn0  1  0.44842000  0.44251000  0.58994000  1.0
  Zn  Zn1  1  0.40085000  0.56242000  0.43198000  1.0
  Zn  Zn2  1  0.55631000  0.41892000  0.42205000  1.0
  Zn  Zn3  1  0.57862000  0.59382000  0.56456000  1.0
  H  H4  1  0.42154000  0.81658000  0.34063000  1.0
  H  H5  1  0.25740000  0.41501000  0.00357000  1.0
  H  H6  1  0.65356000  0.53953000  0.07581000  1.0
  H  H7  1  0.25486000  0.33029000  0.12297000  1.0
  H  H8  1  0.16579000  0.46134000  0.15444000  1.0
  H  H9  1  0.23791000  0.48194000  0.25662000  1.0
  H  H10  1  0.16797000  0.38377000  0.23315000  1.0
  H  H11  1  0.57337000  0.18204000  0.73994000  1.0
  H  H12  1  0.54850000  0.26815000  0.67917000  1.0
  H  H13  1  0.13988000  0.23594000  0.50603000  1.0
  H  H14  1  0.31760000  0.27698000  0.49822000  1.0
  H  H15  1  0.56076000  0.03465000  0.67903000  1.0
  H  H16  1  0.25851000  0.32715000  0.41052000  1.0
  H  H17  1  0.24362000  0.21132000  0.41416000  1.0
  H  H18  1  0.90314000  0.30738000  0.56231000  1.0
  H  H19  1  0.78528000  0.28526000  0.63048000  1.0
  H  H20  1  0.71434000  0.31745000  0.53871000  1.0
  H  H21  1  0.75842000  0.39905000  0.62716000  1.0
  H  H22  1  0.58549000  0.60931000  0.16010000  1.0
  H  H23  1  0.57467000  0.54584000  0.24237000  1.0
  H  H24  1  0.77924000  0.65420000  0.85956000  1.0
  H  H25  1  0.69949000  0.64751000  0.76590000  1.0
  H  H26  1  0.43252000  0.97712000  0.32118000  1.0
  H  H27  1  0.78865000  0.61159000  0.05993000  1.0
  H  H28  1  0.82300000  0.46498000  0.98518000  1.0
  H  H29  1  0.90994000  0.54910000  0.99124000  1.0
  H  H30  1  0.83475000  0.52088000  0.89248000  1.0
  H  H31  1  0.41539000  0.63077000  0.76692000  1.0
  H  H32  1  0.27113000  0.62383000  0.69928000  1.0
  H  H33  1  0.23881000  0.61313000  0.80452000  1.0
  H  H34  1  0.25518000  0.51640000  0.73057000  1.0
  H  H35  1  0.55845000  0.80422000  0.62879000  1.0
  H  H36  1  0.58897000  0.91373000  0.67244000  1.0
  H  H37  1  0.47455000  0.13388000  0.38720000  1.0
  H  H38  1  0.14192000  0.59153000  0.49820000  1.0
  H  H39  1  0.99471000  0.65883000  0.49243000  1.0
  H  H40  1  0.00843000  0.29420000  0.51341000  1.0
  H  H41  1  0.82977000  0.64170000  0.49554000  1.0
  H  H42  1  0.28188000  0.49217000  0.88236000  1.0
  C  C43  1  0.47828000  0.73861000  0.48106000  1.0
  C  C44  1  0.48780000  0.51069000  0.12960000  1.0
  C  C45  1  0.34234000  0.43131000  0.12702000  1.0
  C  C46  1  0.51502000  0.26948000  0.51160000  1.0
  C  C47  1  0.56845000  0.57606000  0.83741000  1.0
  C  C48  1  0.48114000  0.83503000  0.47628000  1.0
  C  C49  1  0.51910000  0.17361000  0.52298000  1.0
  C  C50  1  0.54289000  0.05458000  0.61381000  1.0
  C  C51  1  0.54351000  0.14567000  0.60805000  1.0
  C  C52  1  0.49332000  0.11051000  0.45075000  1.0
  C  C53  1  0.48819000  0.01853000  0.45726000  1.0
  C  C54  1  0.68782000  0.58536000  0.96071000  1.0
  C  C55  1  0.51641000  0.99031000  0.54101000  1.0
  C  C56  1  0.51700000  0.89629000  0.54937000  1.0
  C  C57  1  0.44886000  0.86619000  0.39498000  1.0
  C  C58  1  0.26585000  0.47750000  0.52013000  1.0
  C  C59  1  0.45447000  0.95451000  0.38450000  1.0
  C  C60  1  0.16784000  0.45514000  0.50813000  1.0
  C  C61  1  0.83197000  0.50220000  0.51045000  1.0
  C  C62  1  0.96383000  0.59498000  0.49973000  1.0
  C  C63  1  0.87354000  0.58564000  0.50183000  1.0
  C  C64  1  0.88480000  0.42764000  0.52297000  1.0
  C  C65  1  0.62689000  0.55682000  0.01153000  1.0
  C  C66  1  0.98022000  0.43489000  0.51507000  1.0
  C  C67  1  0.01850000  0.51962000  0.50505000  1.0
  C  C68  1  0.11146000  0.52655000  0.50229000  1.0
  C  C69  1  0.12912000  0.36815000  0.50952000  1.0
  C  C70  1  0.73247000  0.50211000  0.50081000  1.0
  C  C71  1  0.03669000  0.36151000  0.51511000  1.0
  C  C72  1  0.44417000  0.46775000  0.26959000  1.0
  C  C73  1  0.54886000  0.55622000  0.74069000  1.0
  C  C74  1  0.32215000  0.44076000  0.03918000  1.0
  C  C75  1  0.42508000  0.46877000  0.17377000  1.0
  C  C76  1  0.53292000  0.54535000  0.98290000  1.0
  C  C77  1  0.65895000  0.59901000  0.87206000  1.0
  C  C78  1  0.20949000  0.42997000  0.20455000  1.0
  C  C79  1  0.25347000  0.27635000  0.45478000  1.0
  C  C80  1  0.77354000  0.33722000  0.58720000  1.0
  C  C81  1  0.84003000  0.52970000  0.96433000  1.0
  C  C82  1  0.28033000  0.58490000  0.75476000  1.0
  C  C83  1  0.50394000  0.55647000  0.89341000  1.0
  C  C84  1  0.46937000  0.51456000  0.03709000  1.0
  C  C85  1  0.38209000  0.48479000  0.99406000  1.0
  C  C86  1  0.35258000  0.50551000  0.90830000  1.0
  C  C87  1  0.40816000  0.54969000  0.86196000  1.0
  N  N88  1  0.28285000  0.38064000  0.16878000  1.0
  N  N89  1  0.57157000  0.20561000  0.68135000  1.0
  N  N90  1  0.17733000  0.29155000  0.50337000  1.0
  N  N91  1  0.85383000  0.34950000  0.54646000  1.0
  N  N92  1  0.56664000  0.54981000  0.17692000  1.0
  N  N93  1  0.72242000  0.62542000  0.82369000  1.0
  N  N94  1  0.78060000  0.60057000  0.99317000  1.0
  N  N95  1  0.37467000  0.58720000  0.78886000  1.0
  N  N96  1  0.54884000  0.87059000  0.62875000  1.0
  O  O97  1  0.49526000  0.50230000  0.50037000  1.0
  O  O98  1  0.38225000  0.49017000  0.31645000  1.0
  O  O99  1  0.58294000  0.60929000  0.69359000  1.0
  O  O100  1  0.52378000  0.44684000  0.30168000  1.0
  O  O101  1  0.50327000  0.48491000  0.70954000  1.0
  O  O102  1  0.31728000  0.43209000  0.56941000  1.0
  O  O103  1  0.69807000  0.57414000  0.53304000  1.0
  O  O104  1  0.42850000  0.68737000  0.42082000  1.0
  O  O105  1  0.52734000  0.29358000  0.43784000  1.0
  O  O106  1  0.52637000  0.70951000  0.54648000  1.0
  O  O107  1  0.49805000  0.32221000  0.57841000  1.0
  O  O108  1  0.29105000  0.54433000  0.48512000  1.0
  O  O109  1  0.68781000  0.43469000  0.45716000  1.0
