# generated using pymatgen
data_CuH6C6(NO3)2
_symmetry_space_group_name_H-M   'P 1'
_cell_length_a   6.66901000
_cell_length_b   6.76745000
_cell_length_c   18.56400000
_cell_angle_alpha   90.00000000
_cell_angle_beta   89.99990000
_cell_angle_gamma   110.58900000
_symmetry_Int_Tables_number   1
_chemical_formula_structural   CuH6C6(NO3)2
_chemical_formula_sum   'Cu4 H24 C24 N8 O24'
_cell_volume   784.31909196
_cell_formula_units_Z   4
loop_
 _symmetry_equiv_pos_site_id
 _symmetry_equiv_pos_as_xyz
  1  'x, y, z'
loop_
 _atom_site_type_symbol
 _atom_site_label
 _atom_site_symmetry_multiplicity
 _atom_site_fract_x
 _atom_site_fract_y
 _atom_site_fract_z
 _atom_site_occupancy
  Cu  Cu0  1  0.15837000  0.99112000  0.37316000  1.0
  Cu  Cu1  1  0.34163000  0.00889000  0.87316000  1.0
  Cu  Cu2  1  0.84162000  0.00888000  0.62684000  1.0
  Cu  Cu3  1  0.65838000  0.99112000  0.12684000  1.0
  H  H4  1  0.24516000  0.33526000  0.48220000  1.0
  H  H5  1  0.25484000  0.66474000  0.98220000  1.0
  H  H6  1  0.75484000  0.66474000  0.51780000  1.0
  H  H7  1  0.74516000  0.33526000  0.01780000  1.0
  H  H8  1  0.06838000  0.27732000  0.26414000  1.0
  H  H9  1  0.43162000  0.72269000  0.76414000  1.0
  H  H10  1  0.93161000  0.72268000  0.73586000  1.0
  H  H11  1  0.56838000  0.27731000  0.23586000  1.0
  H  H12  1  0.74832000  0.76643000  0.37388000  1.0
  H  H13  1  0.75169000  0.23357000  0.87388000  1.0
  H  H14  1  0.25168000  0.23357000  0.62612000  1.0
  H  H15  1  0.24831000  0.76643000  0.12612000  1.0
  H  H16  1  0.79721000  0.94890000  0.43913000  1.0
  H  H17  1  0.70279000  0.05110000  0.93913000  1.0
  H  H18  1  0.20279000  0.05110000  0.56087000  1.0
  H  H19  1  0.29721000  0.94890000  0.06087000  1.0
  H  H20  1  0.56384000  0.19247000  0.37856000  1.0
  H  H21  1  0.93617000  0.80753000  0.87856000  1.0
  H  H22  1  0.43616000  0.80753000  0.62144000  1.0
  H  H23  1  0.06384000  0.19247000  0.12144000  1.0
  H  H24  1  0.51555000  0.00991000  0.31368000  1.0
  H  H25  1  0.98446000  0.99008000  0.81368000  1.0
  H  H26  1  0.48446000  0.99008000  0.68632000  1.0
  H  H27  1  0.01554000  0.00991000  0.18632000  1.0
  C  C28  1  0.26844000  0.74922000  0.50055000  1.0
  C  C29  1  0.23156000  0.25078000  0.00055000  1.0
  C  C30  1  0.73156000  0.25078000  0.49945000  1.0
  C  C31  1  0.76844000  0.74922000  0.99945000  1.0
  C  C32  1  0.21600000  0.61367000  0.43312000  1.0
  C  C33  1  0.28400000  0.38633000  0.93312000  1.0
  C  C34  1  0.78400000  0.38633000  0.56688000  1.0
  C  C35  1  0.71600000  0.61367000  0.06688000  1.0
  C  C36  1  0.20956000  0.40507000  0.43320000  1.0
  C  C37  1  0.29044000  0.59493000  0.93321000  1.0
  C  C38  1  0.79044000  0.59492000  0.56680000  1.0
  C  C39  1  0.70956000  0.40507000  0.06680000  1.0
  C  C40  1  0.11119000  0.37260000  0.31305000  1.0
  C  C41  1  0.38881000  0.62740000  0.81305000  1.0
  C  C42  1  0.88881000  0.62740000  0.68695000  1.0
  C  C43  1  0.61119000  0.37259000  0.18695000  1.0
  C  C44  1  0.12334000  0.58318000  0.31234000  1.0
  C  C45  1  0.37666000  0.41682000  0.81234000  1.0
  C  C46  1  0.87666000  0.41681000  0.68766000  1.0
  C  C47  1  0.62334000  0.58318000  0.18766000  1.0
  C  C48  1  0.09883000  0.69475000  0.24368000  1.0
  C  C49  1  0.40117000  0.30525000  0.74368000  1.0
  C  C50  1  0.90117000  0.30524000  0.75632000  1.0
  C  C51  1  0.59883000  0.69475000  0.25632000  1.0
  N  N52  1  0.17037000  0.69750000  0.37280000  1.0
  N  N53  1  0.32963000  0.30250000  0.87280000  1.0
  N  N54  1  0.82962000  0.30250000  0.62720000  1.0
  N  N55  1  0.67038000  0.69750000  0.12720000  1.0
  N  N56  1  0.15264000  0.28553000  0.37369000  1.0
  N  N57  1  0.34736000  0.71447000  0.87369000  1.0
  N  N58  1  0.84736000  0.71447000  0.62631000  1.0
  N  N59  1  0.65264000  0.28553000  0.12631000  1.0
  O  O60  1  0.31166000  0.66508000  0.55612000  1.0
  O  O61  1  0.18833000  0.33493000  0.05612000  1.0
  O  O62  1  0.68833000  0.33492000  0.44388000  1.0
  O  O63  1  0.81167000  0.66508000  0.94388000  1.0
  O  O64  1  0.25863000  0.93252000  0.49437000  1.0
  O  O65  1  0.24137000  0.06748000  0.99437000  1.0
  O  O66  1  0.74136000  0.06748000  0.50563000  1.0
  O  O67  1  0.75864000  0.93252000  0.00563000  1.0
  O  O68  1  0.07648000  0.87246000  0.25149000  1.0
  O  O69  1  0.42352000  0.12754000  0.75149000  1.0
  O  O70  1  0.92352000  0.12754000  0.74851000  1.0
  O  O71  1  0.57648000  0.87246000  0.24851000  1.0
  O  O72  1  0.10803000  0.60318000  0.18538000  1.0
  O  O73  1  0.39197000  0.39682000  0.68538000  1.0
  O  O74  1  0.89197000  0.39681000  0.81462000  1.0
  O  O75  1  0.60803000  0.60318000  0.31462000  1.0
  O  O76  1  0.85808000  0.86082000  0.40822000  1.0
  O  O77  1  0.64192000  0.13918000  0.90822000  1.0
  O  O78  1  0.14192000  0.13918000  0.59178000  1.0
  O  O79  1  0.35808000  0.86082000  0.09178000  1.0
  O  O80  1  0.46217000  0.11347000  0.33876000  1.0
  O  O81  1  0.03783000  0.88654000  0.83876000  1.0
  O  O82  1  0.53783000  0.88653000  0.66124000  1.0
  O  O83  1  0.96217000  0.11346000  0.16124000  1.0
