# generated using pymatgen
data_ZnH11C15(NO2)2
_symmetry_space_group_name_H-M   'P 1'
_cell_length_a   7.75024000
_cell_length_b   14.86080000
_cell_length_c   16.10720000
_cell_angle_alpha   104.73800000
_cell_angle_beta   90.01070000
_cell_angle_gamma   105.10200000
_symmetry_Int_Tables_number   1
_chemical_formula_structural   ZnH11C15(NO2)2
_chemical_formula_sum   'Zn4 H44 C60 N8 O16'
_cell_volume   1727.75075318
_cell_formula_units_Z   4
loop_
 _symmetry_equiv_pos_site_id
 _symmetry_equiv_pos_as_xyz
  1  'x, y, z'
loop_
 _atom_site_type_symbol
 _atom_site_label
 _atom_site_symmetry_multiplicity
 _atom_site_fract_x
 _atom_site_fract_y
 _atom_site_fract_z
 _atom_site_occupancy
  Zn  Zn0  1  0.57137000  0.64106000  0.30424000  1.0
  Zn  Zn1  1  0.93005000  0.35878000  0.19566000  1.0
  Zn  Zn2  1  0.42863000  0.35894000  0.69576000  1.0
  Zn  Zn3  1  0.06995000  0.64122000  0.80434000  1.0
  H  H4  1  0.64991000  0.47582000  0.27986000  1.0
  H  H5  1  0.17382000  0.52408000  0.22011000  1.0
  H  H6  1  0.35008000  0.52418000  0.72014000  1.0
  H  H7  1  0.82618000  0.47593000  0.77989000  1.0
  H  H8  1  0.51168000  0.48827000  0.35826000  1.0
  H  H9  1  0.02296000  0.51170000  0.14177000  1.0
  H  H10  1  0.48832000  0.51173000  0.64174000  1.0
  H  H11  1  0.97705000  0.48831000  0.85823000  1.0
  H  H12  1  0.66075000  0.77187000  0.48638000  1.0
  H  H13  1  0.88874000  0.22806000  0.01348000  1.0
  H  H14  1  0.33924000  0.22813000  0.51362000  1.0
  H  H15  1  0.11127000  0.77194000  0.98652000  1.0
  H  H16  1  0.94003000  0.88530000  0.57080000  1.0
  H  H17  1  0.05473000  0.11468000  0.92906000  1.0
  H  H18  1  0.05996000  0.11469000  0.42920000  1.0
  H  H19  1  0.94526000  0.88532000  0.07094000  1.0
  H  H20  1  0.20075000  0.85454000  0.33115000  1.0
  H  H21  1  0.34654000  0.14549000  0.16868000  1.0
  H  H22  1  0.79925000  0.14546000  0.66886000  1.0
  H  H23  1  0.65347000  0.85451000  0.83132000  1.0
  H  H24  1  0.91411000  0.74503000  0.25893000  1.0
  H  H25  1  0.16936000  0.25504000  0.24091000  1.0
  H  H26  1  0.08589000  0.25497000  0.74107000  1.0
  H  H27  1  0.83064000  0.74496000  0.75908000  1.0
  H  H28  1  0.24708000  0.97715000  0.57530000  1.0
  H  H29  1  0.26992000  0.02281000  0.92458000  1.0
  H  H30  1  0.75292000  0.02284000  0.42471000  1.0
  H  H31  1  0.73007000  0.97719000  0.07542000  1.0
  H  H32  1  0.43869000  0.93568000  0.40730000  1.0
  H  H33  1  0.50300000  0.06438000  0.09264000  1.0
  H  H34  1  0.56131000  0.06431000  0.59271000  1.0
  H  H35  1  0.49700000  0.93561000  0.90736000  1.0
  H  H36  1  0.96321000  0.57366000  0.29820000  1.0
  H  H37  1  0.38909000  0.42619000  0.20178000  1.0
  H  H38  1  0.03679000  0.42634000  0.70180000  1.0
  H  H39  1  0.61091000  0.57381000  0.79822000  1.0
  H  H40  1  0.20005000  0.65265000  0.55756000  1.0
  H  H41  1  0.54676000  0.34725000  0.94239000  1.0
  H  H42  1  0.79995000  0.34736000  0.44244000  1.0
  H  H43  1  0.45325000  0.65275000  0.05761000  1.0
  H  H44  1  0.62734000  0.55216000  0.50854000  1.0
  H  H45  1  0.07466000  0.44784000  0.99143000  1.0
  H  H46  1  0.37266000  0.44785000  0.49146000  1.0
  H  H47  1  0.92535000  0.55217000  0.00857000  1.0
  C  C48  1  0.78381000  0.79476000  0.45561000  1.0
  C  C49  1  0.98904000  0.20522000  0.04424000  1.0
  C  C50  1  0.21618000  0.20524000  0.54439000  1.0
  C  C51  1  0.01096000  0.79477000  0.95576000  1.0
  C  C52  1  0.93945000  0.85701000  0.50130000  1.0
  C  C53  1  0.08257000  0.14305000  0.99854000  1.0
  C  C54  1  0.06054000  0.14298000  0.49870000  1.0
  C  C55  1  0.91743000  0.85695000  0.00146000  1.0
  C  C56  1  0.09631000  0.88155000  0.45865000  1.0
  C  C57  1  0.21489000  0.11851000  0.04119000  1.0
  C  C58  1  0.90369000  0.11845000  0.54135000  1.0
  C  C59  1  0.78511000  0.88149000  0.95880000  1.0
  C  C60  1  0.08502000  0.84094000  0.36901000  1.0
  C  C61  1  0.24434000  0.15910000  0.13084000  1.0
  C  C62  1  0.91498000  0.15906000  0.63100000  1.0
  C  C63  1  0.75566000  0.84090000  0.86916000  1.0
  C  C64  1  0.92497000  0.78005000  0.32762000  1.0
  C  C65  1  0.14513000  0.21997000  0.17222000  1.0
  C  C66  1  0.07503000  0.21995000  0.67237000  1.0
  C  C67  1  0.85487000  0.78003000  0.82778000  1.0
  C  C68  1  0.25900000  0.94549000  0.50706000  1.0
  C  C69  1  0.31358000  0.05454000  0.99281000  1.0
  C  C70  1  0.74100000  0.05450000  0.49295000  1.0
  C  C71  1  0.68642000  0.94546000  0.00719000  1.0
  C  C72  1  0.42191000  0.96792000  0.47480000  1.0
  C  C73  1  0.45398000  0.03210000  0.02515000  1.0
  C  C74  1  0.57809000  0.03207000  0.52521000  1.0
  C  C75  1  0.54601000  0.96790000  0.97485000  1.0
  C  C76  1  0.77972000  0.55568000  0.39643000  1.0
  C  C77  1  0.22355000  0.44423000  0.10354000  1.0
  C  C78  1  0.22028000  0.44432000  0.60357000  1.0
  C  C79  1  0.77645000  0.55577000  0.89646000  1.0
  C  C80  1  0.95088000  0.57965000  0.36662000  1.0
  C  C81  1  0.37072000  0.42020000  0.13335000  1.0
  C  C82  1  0.04912000  0.42035000  0.63338000  1.0
  C  C83  1  0.62929000  0.57981000  0.86665000  1.0
  C  C84  1  0.10228000  0.61459000  0.42456000  1.0
  C  C85  1  0.48710000  0.38521000  0.07539000  1.0
  C  C86  1  0.89772000  0.38541000  0.57544000  1.0
  C  C87  1  0.51291000  0.61480000  0.92461000  1.0
  C  C88  1  0.08209000  0.62686000  0.51272000  1.0
  C  C89  1  0.45462000  0.37302000  0.98725000  1.0
  C  C90  1  0.91791000  0.37315000  0.48728000  1.0
  C  C91  1  0.54539000  0.62698000  0.01275000  1.0
  C  C92  1  0.91153000  0.60406000  0.54271000  1.0
  C  C93  1  0.30695000  0.39593000  0.95727000  1.0
  C  C94  1  0.08847000  0.39594000  0.45729000  1.0
  C  C95  1  0.69306000  0.60407000  0.04273000  1.0
  C  C96  1  0.75992000  0.56880000  0.48443000  1.0
  C  C97  1  0.19058000  0.43117000  0.01554000  1.0
  C  C98  1  0.24007000  0.43120000  0.51557000  1.0
  C  C99  1  0.80942000  0.56883000  0.98446000  1.0
  C  C100  1  0.28769000  0.63628000  0.39503000  1.0
  C  C101  1  0.65088000  0.36348000  0.10484000  1.0
  C  C102  1  0.71231000  0.36372000  0.60497000  1.0
  C  C103  1  0.34913000  0.63652000  0.89516000  1.0
  C  C104  1  0.89169000  0.61313000  0.63701000  1.0
  C  C105  1  0.27840000  0.38699000  0.86298000  1.0
  C  C106  1  0.10831000  0.38687000  0.36299000  1.0
  C  C107  1  0.72161000  0.61302000  0.13702000  1.0
  N  N108  1  0.77580000  0.75686000  0.36975000  1.0
  N  N109  1  0.01899000  0.24311000  0.13011000  1.0
  N  N110  1  0.22420000  0.24314000  0.63024000  1.0
  N  N111  1  0.98101000  0.75688000  0.86989000  1.0
  N  N112  1  0.62741000  0.52342000  0.33545000  1.0
  N  N113  1  0.10359000  0.47651000  0.16453000  1.0
  N  N114  1  0.37259000  0.47658000  0.66455000  1.0
  N  N115  1  0.89641000  0.52349000  0.83547000  1.0
  O  O116  1  0.30675000  0.62653000  0.31280000  1.0
  O  O117  1  0.67983000  0.37319000  0.18706000  1.0
  O  O118  1  0.69326000  0.37347000  0.68720000  1.0
  O  O119  1  0.32018000  0.62681000  0.81294000  1.0
  O  O120  1  0.42029000  0.66185000  0.44859000  1.0
  O  O121  1  0.75787000  0.33800000  0.05123000  1.0
  O  O122  1  0.57970000  0.33815000  0.55141000  1.0
  O  O123  1  0.24213000  0.66200000  0.94877000  1.0
  O  O124  1  0.73943000  0.58884000  0.66457000  1.0
  O  O125  1  0.15063000  0.41138000  0.83533000  1.0
  O  O126  1  0.26057000  0.41116000  0.33543000  1.0
  O  O127  1  0.84938000  0.58862000  0.16467000  1.0
  O  O128  1  0.04114000  0.64713000  0.68470000  1.0
  O  O129  1  0.39402000  0.35303000  0.81540000  1.0
  O  O130  1  0.95886000  0.35287000  0.31530000  1.0
  O  O131  1  0.60599000  0.64697000  0.18460000  1.0
