# generated using pymatgen
data_Zn5H34C56(N2O9)2
_symmetry_space_group_name_H-M   'P 1'
_cell_length_a   11.25150000
_cell_length_b   11.36780000
_cell_length_c   12.34690000
_cell_angle_alpha   95.44420000
_cell_angle_beta   104.60500000
_cell_angle_gamma   118.79300000
_symmetry_Int_Tables_number   1
_chemical_formula_structural   Zn5H34C56(N2O9)2
_chemical_formula_sum   'Zn5 H34 C56 N4 O18'
_cell_volume   1294.95545157
_cell_formula_units_Z   1
loop_
 _symmetry_equiv_pos_site_id
 _symmetry_equiv_pos_as_xyz
  1  'x, y, z'
loop_
 _atom_site_type_symbol
 _atom_site_label
 _atom_site_symmetry_multiplicity
 _atom_site_fract_x
 _atom_site_fract_y
 _atom_site_fract_z
 _atom_site_occupancy
  Zn  Zn0  1  0.19303000  0.21898000  0.26639000  1.0
  Zn  Zn1  1  0.80697000  0.78102000  0.73361000  1.0
  Zn  Zn2  1  0.00000000  0.00000000  0.00000000  1.0
  Zn  Zn3  1  0.15671000  0.97229000  0.80525000  1.0
  Zn  Zn4  1  0.84329000  0.02771000  0.19475000  1.0
  H  H5  1  0.36269000  0.86085000  0.89044000  1.0
  H  H6  1  0.63731000  0.13915000  0.10955000  1.0
  H  H7  1  0.61437000  0.92705000  0.89398000  1.0
  H  H8  1  0.38564000  0.07295000  0.10602000  1.0
  H  H9  1  0.75012000  0.12914000  0.81898000  1.0
  H  H10  1  0.24988000  0.87086000  0.18102000  1.0
  H  H11  1  0.75859000  0.32515000  0.73275000  1.0
  H  H12  1  0.24141000  0.67485000  0.26725000  1.0
  H  H13  1  0.63970000  0.45030000  0.66004000  1.0
  H  H14  1  0.36030000  0.54971000  0.33997000  1.0
  H  H15  1  0.42490000  0.48004000  0.62660000  1.0
  H  H16  1  0.57510000  0.51996000  0.37340000  1.0
  H  H17  1  0.17891000  0.39505000  0.64064000  1.0
  H  H18  1  0.82108000  0.60495000  0.35936000  1.0
  H  H19  1  0.06140000  0.18241000  0.70945000  1.0
  H  H20  1  0.93860000  0.81759000  0.29055000  1.0
  H  H21  1  0.79100000  0.26601000  0.38702000  1.0
  H  H22  1  0.20900000  0.73399000  0.61299000  1.0
  H  H23  1  0.75436000  0.43752000  0.49712000  1.0
  H  H24  1  0.24565000  0.56248000  0.50288000  1.0
  H  H25  1  0.31123000  0.52076000  0.05398000  1.0
  H  H26  1  0.68877000  0.47925000  0.94602000  1.0
  H  H27  1  0.48974000  0.71283000  0.99200000  1.0
  H  H28  1  0.51026000  0.28717000  0.00800000  1.0
  H  H29  1  0.57753000  0.20491000  0.41737000  1.0
  H  H30  1  0.42246000  0.79509000  0.58263000  1.0
  H  H31  1  0.75959000  0.14989000  0.52511000  1.0
  H  H32  1  0.24041000  0.85011000  0.47489000  1.0
  H  H33  1  0.09700000  0.57918000  0.84332000  1.0
  H  H34  1  0.90300000  0.42082000  0.15668000  1.0
  H  H35  1  0.04022000  0.34613000  0.87711000  1.0
  H  H36  1  0.95978000  0.65387000  0.12289000  1.0
  H  H37  1  0.05071000  0.97991000  0.21314000  1.0
  H  H38  1  0.94929000  0.02009000  0.78686000  1.0
  C  C39  1  0.42755000  0.94852000  0.85923000  1.0
  C  C40  1  0.57245000  0.05148000  0.14077000  1.0
  C  C41  1  0.56656000  0.98566000  0.86056000  1.0
  C  C42  1  0.43344000  0.01434000  0.13944000  1.0
  C  C43  1  0.64267000  0.09877000  0.81999000  1.0
  C  C44  1  0.35733000  0.90123000  0.18000000  1.0
  C  C45  1  0.57953000  0.17391000  0.77729000  1.0
  C  C46  1  0.42047000  0.82608000  0.22270000  1.0
  C  C47  1  0.65007000  0.29134000  0.73289000  1.0
  C  C48  1  0.34993000  0.70866000  0.26711000  1.0
  C  C49  1  0.58381000  0.36004000  0.69214000  1.0
  C  C50  1  0.41619000  0.63996000  0.30785000  1.0
  C  C51  1  0.44204000  0.31729000  0.69351000  1.0
  C  C52  1  0.55796000  0.68271000  0.30649000  1.0
  C  C53  1  0.37120000  0.38851000  0.65820000  1.0
  C  C54  1  0.62880000  0.61149000  0.34180000  1.0
  C  C55  1  0.23609000  0.34203000  0.66603000  1.0
  C  C56  1  0.76390000  0.65797000  0.33397000  1.0
  C  C57  1  0.17009000  0.22347000  0.70678000  1.0
  C  C58  1  0.82991000  0.77653000  0.29322000  1.0
  C  C59  1  0.36857000  0.20073000  0.73619000  1.0
  C  C60  1  0.63143000  0.79927000  0.26381000  1.0
  C  C61  1  0.43856000  0.12839000  0.77875000  1.0
  C  C62  1  0.56144000  0.87161000  0.22124000  1.0
  C  C63  1  0.88145000  0.36879000  0.43737000  1.0
  C  C64  1  0.11855000  0.63122000  0.56263000  1.0
  C  C65  1  0.86133000  0.46351000  0.49774000  1.0
  C  C66  1  0.13867000  0.53649000  0.50226000  1.0
  C  C67  1  0.02006000  0.40425000  0.43984000  1.0
  C  C68  1  0.97994000  0.59575000  0.56016000  1.0
  C  C69  1  0.03947000  0.29823000  0.37842000  1.0
  C  C70  1  0.96054000  0.70177000  0.62158000  1.0
  C  C71  1  0.39387000  0.51235000  0.02966000  1.0
  C  C72  1  0.60613000  0.48765000  0.97033000  1.0
  C  C73  1  0.39956000  0.39234000  0.03391000  1.0
  C  C74  1  0.60044000  0.60767000  0.96609000  1.0
  C  C75  1  0.49384000  0.61937000  0.99586000  1.0
  C  C76  1  0.50616000  0.38063000  0.00414000  1.0
  C  C77  1  0.29784000  0.28230000  0.07790000  1.0
  C  C78  1  0.70216000  0.71770000  0.92211000  1.0
  C  C79  1  0.54526000  0.11582000  0.45447000  1.0
  C  C80  1  0.45474000  0.88417000  0.54553000  1.0
  C  C81  1  0.39923000  0.03065000  0.44057000  1.0
  C  C82  1  0.60077000  0.96935000  0.55944000  1.0
  C  C83  1  0.64546000  0.08521000  0.51331000  1.0
  C  C84  1  0.35454000  0.91479000  0.48669000  1.0
  C  C85  1  0.28873000  0.05675000  0.37080000  1.0
  C  C86  1  0.71127000  0.94325000  0.62920000  1.0
  C  C87  1  0.05493000  0.54392000  0.91206000  1.0
  C  C88  1  0.94507000  0.45608000  0.08793000  1.0
  C  C89  1  0.03202000  0.63068000  0.98135000  1.0
  C  C90  1  0.96798000  0.36932000  0.01865000  1.0
  C  C91  1  0.02317000  0.41457000  0.93057000  1.0
  C  C92  1  0.97683000  0.58543000  0.06943000  1.0
  C  C93  1  0.06470000  0.77027000  0.96151000  1.0
  C  C94  1  0.93530000  0.22973000  0.03849000  1.0
  N  N95  1  0.36622000  0.01878000  0.82067000  1.0
  N  N96  1  0.63378000  0.98122000  0.17932000  1.0
  N  N97  1  0.23482000  0.15490000  0.74129000  1.0
  N  N98  1  0.76517000  0.84510000  0.25871000  1.0
  O  O99  1  0.93862000  0.17244000  0.35257000  1.0
  O  O100  1  0.06139000  0.82756000  0.64743000  1.0
  O  O101  1  0.15845000  0.34367000  0.35828000  1.0
  O  O102  1  0.84156000  0.65634000  0.64172000  1.0
  O  O103  1  0.27783000  0.33107000  0.16536000  1.0
  O  O104  1  0.72217000  0.66894000  0.83464000  1.0
  O  O105  1  0.24233000  0.15492000  0.03160000  1.0
  O  O106  1  0.75767000  0.84509000  0.96841000  1.0
  O  O107  1  0.33415000  0.18320000  0.36368000  1.0
  O  O108  1  0.66585000  0.81680000  0.63632000  1.0
  O  O109  1  0.16149000  0.95476000  0.32168000  1.0
  O  O110  1  0.83851000  0.04524000  0.67832000  1.0
  O  O111  1  0.12521000  0.81059000  0.88659000  1.0
  O  O112  1  0.87479000  0.18941000  0.11341000  1.0
  O  O113  1  0.03019000  0.83723000  0.02239000  1.0
  O  O114  1  0.96981000  0.16277000  0.97761000  1.0
  O  O115  1  0.01877000  0.03673000  0.17191000  1.0
  O  O116  1  0.98124000  0.96327000  0.82809000  1.0
