# generated using pymatgen
data_Ni3H42C72N6O13
_symmetry_space_group_name_H-M   'P 1'
_cell_length_a   11.66360000
_cell_length_b   17.56277905
_cell_length_c   17.62960000
_cell_angle_alpha   115.32545064
_cell_angle_beta   103.03000000
_cell_angle_gamma   102.09535664
_symmetry_Int_Tables_number   1
_chemical_formula_structural   Ni3H42C72N6O13
_chemical_formula_sum   'Ni6 H84 C144 N12 O26'
_cell_volume   2982.06810239
_cell_formula_units_Z   2
loop_
 _symmetry_equiv_pos_site_id
 _symmetry_equiv_pos_as_xyz
  1  'x, y, z'
loop_
 _atom_site_type_symbol
 _atom_site_label
 _atom_site_symmetry_multiplicity
 _atom_site_fract_x
 _atom_site_fract_y
 _atom_site_fract_z
 _atom_site_occupancy
  Ni  Ni0  1  0.68425000  0.93488000  0.87272000  1.0
  Ni  Ni1  1  0.81279000  0.12234000  0.06080000  1.0
  Ni  Ni2  1  0.74652000  0.93411000  0.06133000  1.0
  Ni  Ni3  1  0.31696000  0.06600000  0.13044000  1.0
  Ni  Ni4  1  0.18870000  0.87726000  0.94084000  1.0
  Ni  Ni5  1  0.24959000  0.06323000  0.94009000  1.0
  H  H6  1  0.26006000  0.73141000  0.04513000  1.0
  H  H7  1  0.21605000  0.95917000  0.68846000  1.0
  H  H8  1  0.53241000  0.31577000  0.27515000  1.0
  H  H9  1  0.97275000  0.73055000  0.68746000  1.0
  H  H10  1  0.24438000  0.96060000  0.27276000  1.0
  H  H11  1  0.28512000  0.31220000  0.04449000  1.0
  H  H12  1  0.73976000  0.26807000  0.95742000  1.0
  H  H13  1  0.78392000  0.03826000  0.30959000  1.0
  H  H14  1  0.47276000  0.68930000  0.72887000  1.0
  H  H15  1  0.02419000  0.26658000  0.30600000  1.0
  H  H16  1  0.75393000  0.03913000  0.73068000  1.0
  H  H17  1  0.71562000  0.68870000  0.95776000  1.0
  H  H18  1  0.27694000  0.65189000  0.13355000  1.0
  H  H19  1  0.14414000  0.87130000  0.52057000  1.0
  H  H20  1  0.62531000  0.48338000  0.35181000  1.0
  H  H21  1  0.87808000  0.65181000  0.51966000  1.0
  H  H22  1  0.22834000  0.87063000  0.35060000  1.0
  H  H23  1  0.35828000  0.47989000  0.13340000  1.0
  H  H24  1  0.72576000  0.34814000  0.86936000  1.0
  H  H25  1  0.85508000  0.12526000  0.47706000  1.0
  H  H26  1  0.37703000  0.52180000  0.64805000  1.0
  H  H27  1  0.11949000  0.34802000  0.47381000  1.0
  H  H28  1  0.77085000  0.12645000  0.65053000  1.0
  H  H29  1  0.64288000  0.52122000  0.86903000  1.0
  H  H30  1  0.58866000  0.88377000  0.34786000  1.0
  H  H31  1  0.24280000  0.65501000  0.53791000  1.0
  H  H32  1  0.70348000  0.46058000  0.11733000  1.0
  H  H33  1  0.79655000  0.88567000  0.53810000  1.0
  H  H34  1  0.91447000  0.65949000  0.11787000  1.0
  H  H35  1  0.25916000  0.46208000  0.34754000  1.0
  H  H36  1  0.41332000  0.11743000  0.65416000  1.0
  H  H37  1  0.75675000  0.34192000  0.46043000  1.0
  H  H38  1  0.29446000  0.53861000  0.87942000  1.0
  H  H39  1  0.20383000  0.11624000  0.45961000  1.0
  H  H40  1  0.08435000  0.33926000  0.88240000  1.0
  H  H41  1  0.74347000  0.53920000  0.65544000  1.0
  H  H42  1  0.57172000  0.96124000  0.25893000  1.0
  H  H43  1  0.31438000  0.74331000  0.70434000  1.0
  H  H44  1  0.61214000  0.29426000  0.04263000  1.0
  H  H45  1  0.88940000  0.96240000  0.70440000  1.0
  H  H46  1  0.93017000  0.75037000  0.04219000  1.0
  H  H47  1  0.18574000  0.29590000  0.25830000  1.0
  H  H48  1  0.42797000  0.03938000  0.74257000  1.0
  H  H49  1  0.68645000  0.25478000  0.29451000  1.0
  H  H50  1  0.38844000  0.70477000  0.95831000  1.0
  H  H51  1  0.10888000  0.03658000  0.29364000  1.0
  H  H52  1  0.06782000  0.25112000  0.96048000  1.0
  H  H53  1  0.81694000  0.70537000  0.74474000  1.0
  H  H54  1  0.51725000  0.83916000  0.43058000  1.0
  H  H55  1  0.08847000  0.57398000  0.41145000  1.0
  H  H56  1  0.67597000  0.58897000  0.16091000  1.0
  H  H57  1  0.82421000  0.84008000  0.41013000  1.0
  H  H58  1  0.98633000  0.57495000  0.16164000  1.0
  H  H59  1  0.41440000  0.58902000  0.43057000  1.0
  H  H60  1  0.48614000  0.16194000  0.57233000  1.0
  H  H61  1  0.91021000  0.42282000  0.58730000  1.0
  H  H62  1  0.32434000  0.41248000  0.83510000  1.0
  H  H63  1  0.17539000  0.16197000  0.58573000  1.0
  H  H64  1  0.01134000  0.42237000  0.83740000  1.0
  H  H65  1  0.58727000  0.41219000  0.57230000  1.0
  H  H66  1  0.58662000  0.66884000  0.55890000  1.0
  H  H67  1  0.02861000  0.44596000  0.11359000  1.0
  H  H68  1  0.91341000  0.88701000  0.32971000  1.0
  H  H69  1  0.58567000  0.66894000  0.11197000  1.0
  H  H70  1  0.91846000  0.44811000  0.33251000  1.0
  H  H71  1  0.47214000  0.88716000  0.55762000  1.0
  H  H72  1  0.41828000  0.33303000  0.44388000  1.0
  H  H73  1  0.96738000  0.55025000  0.88481000  1.0
  H  H74  1  0.08477000  0.11614000  0.66645000  1.0
  H  H75  1  0.41571000  0.33242000  0.88283000  1.0
  H  H76  1  0.08045000  0.54972000  0.66728000  1.0
  H  H77  1  0.52715000  0.11269000  0.44471000  1.0
  H  H78  1  0.66550000  0.75778000  0.72632000  1.0
  H  H79  1  0.94001000  0.27841000  0.03489000  1.0
  H  H80  1  0.90374000  0.96509000  0.23988000  1.0
  H  H81  1  0.59303000  0.75704000  0.03238000  1.0
  H  H82  1  0.83711000  0.28031000  0.24368000  1.0
  H  H83  1  0.55918000  0.96635000  0.72533000  1.0
  H  H84  1  0.33952000  0.24446000  0.27658000  1.0
  H  H85  1  0.05529000  0.71839000  0.96434000  1.0
  H  H86  1  0.09290000  0.03826000  0.75713000  1.0
  H  H87  1  0.40714000  0.24425000  0.96319000  1.0
  H  H88  1  0.16181000  0.71805000  0.75712000  1.0
  H  H89  1  0.43983000  0.03370000  0.27730000  1.0
  C  C90  1  0.38461000  0.90262000  0.09883000  1.0
  C  C91  1  0.28936000  0.90331000  0.80539000  1.0
  C  C92  1  0.48740000  0.19619000  0.10271000  1.0
  C  C93  1  0.01475000  0.90248000  0.80524000  1.0
  C  C94  1  0.11551000  0.90836000  0.10127000  1.0
  C  C95  1  0.21308000  0.19466000  0.09792000  1.0
  C  C96  1  0.61363000  0.09779000  0.90419000  1.0
  C  C97  1  0.71320000  0.09404000  0.19254000  1.0
  C  C98  1  0.51763000  0.80590000  0.90067000  1.0
  C  C99  1  0.98209000  0.09573000  0.19027000  1.0
  C  C100  1  0.87973000  0.09282000  0.90234000  1.0
  C  C101  1  0.78871000  0.80685000  0.90488000  1.0
  C  C102  1  0.41295000  0.85201000  0.14721000  1.0
  C  C103  1  0.26764000  0.85599000  0.70652000  1.0
  C  C104  1  0.56420000  0.29491000  0.15350000  1.0
  C  C105  1  0.93863000  0.85181000  0.70628000  1.0
  C  C106  1  0.08970000  0.86039000  0.15210000  1.0
  C  C107  1  0.23366000  0.29348000  0.14659000  1.0
  C  C108  1  0.58677000  0.14800000  0.85488000  1.0
  C  C109  1  0.73328000  0.14166000  0.29132000  1.0
  C  C110  1  0.43946000  0.70746000  0.84940000  1.0
  C  C111  1  0.05856000  0.14597000  0.28923000  1.0
  C  C112  1  0.90787000  0.14031000  0.85140000  1.0
  C  C113  1  0.76794000  0.70783000  0.85612000  1.0
  C  C114  1  0.33292000  0.76349000  0.11106000  1.0
  C  C115  1  0.22309000  0.89295000  0.65454000  1.0
  C  C116  1  0.57185000  0.34835000  0.24180000  1.0
  C  C117  1  0.93188000  0.76320000  0.65386000  1.0
  C  C118  1  0.17114000  0.89510000  0.24013000  1.0
  C  C119  1  0.27836000  0.34589000  0.11057000  1.0
  C  C120  1  0.66760000  0.23634000  0.89124000  1.0
  C  C121  1  0.77700000  0.10452000  0.34340000  1.0
  C  C122  1  0.43183000  0.65544000  0.76069000  1.0
  C  C123  1  0.06550000  0.23492000  0.34063000  1.0
  C  C124  1  0.82722000  0.10448000  0.76279000  1.0
  C  C125  1  0.72275000  0.65520000  0.89182000  1.0
  C  C126  1  0.34172000  0.71950000  0.16030000  1.0
  C  C127  1  0.18254000  0.84410000  0.56147000  1.0
  C  C128  1  0.62260000  0.44137000  0.28418000  1.0
  C  C129  1  0.88019000  0.71969000  0.56078000  1.0
  C  C130  1  0.16300000  0.84499000  0.28315000  1.0
  C  C131  1  0.31973000  0.43902000  0.16008000  1.0
  C  C132  1  0.66032000  0.28063000  0.84223000  1.0
  C  C133  1  0.81714000  0.15298000  0.43655000  1.0
  C  C134  1  0.37934000  0.56240000  0.71591000  1.0
  C  C135  1  0.11785000  0.28002000  0.43379000  1.0
  C  C136  1  0.83599000  0.15318000  0.71835000  1.0
  C  C137  1  0.68154000  0.56206000  0.84235000  1.0
  C  C138  1  0.43079000  0.76286000  0.24759000  1.0
  C  C139  1  0.18502000  0.75661000  0.51774000  1.0
  C  C140  1  0.66690000  0.48360000  0.23922000  1.0
  C  C141  1  0.83425000  0.76381000  0.51729000  1.0
  C  C142  1  0.07348000  0.75820000  0.23896000  1.0
  C  C143  1  0.31797000  0.48281000  0.24745000  1.0
  C  C144  1  0.57168000  0.23780000  0.75488000  1.0
  C  C145  1  0.81481000  0.24044000  0.48082000  1.0
  C  C146  1  0.33307000  0.51838000  0.75878000  1.0
  C  C147  1  0.16504000  0.23739000  0.47863000  1.0
  C  C148  1  0.92549000  0.23982000  0.76143000  1.0
  C  C149  1  0.68380000  0.51829000  0.75515000  1.0
  C  C150  1  0.51473000  0.85000000  0.28191000  1.0
  C  C151  1  0.23487000  0.72132000  0.57023000  1.0
  C  C152  1  0.66426000  0.42958000  0.15214000  1.0
  C  C153  1  0.83647000  0.85129000  0.57014000  1.0
  C  C154  1  0.98852000  0.72510000  0.15209000  1.0
  C  C155  1  0.26744000  0.42997000  0.28162000  1.0
  C  C156  1  0.48703000  0.15076000  0.72016000  1.0
  C  C157  1  0.76523000  0.27578000  0.42819000  1.0
  C  C158  1  0.33536000  0.57092000  0.84617000  1.0
  C  C159  1  0.16280000  0.14959000  0.42673000  1.0
  C  C160  1  0.00994000  0.27390000  0.84881000  1.0
  C  C161  1  0.73470000  0.57126000  0.72121000  1.0
  C  C162  1  0.50624000  0.89396000  0.23234000  1.0
  C  C163  1  0.27580000  0.77043000  0.66350000  1.0
  C  C164  1  0.61381000  0.33638000  0.10985000  1.0
  C  C165  1  0.88778000  0.89469000  0.66346000  1.0
  C  C166  1  0.99622000  0.77564000  0.10925000  1.0
  C  C167  1  0.22556000  0.33653000  0.23185000  1.0
  C  C168  1  0.49424000  0.10650000  0.76950000  1.0
  C  C169  1  0.72500000  0.22716000  0.33483000  1.0
  C  C170  1  0.38757000  0.66425000  0.89091000  1.0
  C  C171  1  0.11018000  0.10443000  0.33336000  1.0
  C  C172  1  0.00164000  0.22479000  0.89316000  1.0
  C  C173  1  0.77658000  0.66473000  0.77103000  1.0
  C  C174  1  0.43033000  0.71705000  0.30124000  1.0
  C  C175  1  0.13126000  0.70343000  0.41860000  1.0
  C  C176  1  0.71152000  0.58279000  0.28375000  1.0
  C  C177  1  0.78910000  0.71811000  0.41804000  1.0
  C  C178  1  0.07398000  0.70400000  0.28406000  1.0
  C  C179  1  0.37253000  0.58214000  0.30120000  1.0
  C  C180  1  0.57261000  0.28397000  0.70160000  1.0
  C  C181  1  0.86821000  0.29339000  0.58025000  1.0
  C  C182  1  0.28805000  0.41907000  0.71254000  1.0
  C  C183  1  0.21062000  0.28401000  0.57799000  1.0
  C  C184  1  0.92510000  0.29317000  0.71521000  1.0
  C  C185  1  0.62973000  0.41892000  0.70155000  1.0
  C  C186  1  0.47731000  0.76614000  0.39538000  1.0
  C  C187  1  0.08407000  0.60935000  0.37365000  1.0
  C  C188  1  0.70924000  0.62725000  0.23393000  1.0
  C  C189  1  0.79102000  0.76697000  0.37262000  1.0
  C  C190  1  0.02646000  0.60988000  0.23467000  1.0
  C  C191  1  0.41944000  0.62694000  0.39536000  1.0
  C  C192  1  0.52568000  0.23497000  0.60745000  1.0
  C  C193  1  0.91478000  0.38756000  0.62522000  1.0
  C  C194  1  0.29074000  0.37438000  0.76206000  1.0
  C  C195  1  0.20884000  0.23507000  0.62334000  1.0
  C  C196  1  0.97183000  0.38733000  0.76434000  1.0
  C  C197  1  0.58270000  0.37415000  0.60740000  1.0
  C  C198  1  0.47253000  0.72071000  0.44384000  1.0
  C  C199  1  0.03092000  0.56112000  0.27990000  1.0
  C  C200  1  0.75001000  0.72114000  0.27876000  1.0
  C  C201  1  0.52994000  0.28033000  0.55892000  1.0
  C  C202  1  0.96729000  0.43597000  0.71900000  1.0
  C  C203  1  0.24998000  0.28061000  0.71712000  1.0
  C  C204  1  0.52172000  0.77026000  0.54284000  1.0
  C  C205  1  0.98112000  0.46218000  0.23058000  1.0
  C  C206  1  0.74957000  0.77029000  0.22871000  1.0
  C  C207  1  0.48048000  0.23069000  0.45989000  1.0
  C  C208  1  0.01648000  0.53504000  0.76855000  1.0
  C  C209  1  0.25016000  0.23161000  0.76718000  1.0
  C  C210  1  0.57547000  0.73380000  0.59228000  1.0
  C  C211  1  0.98470000  0.41257000  0.14484000  1.0
  C  C212  1  0.83834000  0.85572000  0.26478000  1.0
  C  C213  1  0.66026000  0.73364000  0.14291000  1.0
  C  C214  1  0.92816000  0.41374000  0.26747000  1.0
  C  C215  1  0.51673000  0.85602000  0.59159000  1.0
  C  C216  1  0.42813000  0.26761000  0.41045000  1.0
  C  C217  1  0.01187000  0.58409000  0.85412000  1.0
  C  C218  1  0.15994000  0.14677000  0.73121000  1.0
  C  C219  1  0.34032000  0.26825000  0.85267000  1.0
  C  C220  1  0.06998000  0.58384000  0.73209000  1.0
  C  C221  1  0.48374000  0.14440000  0.41093000  1.0
  C  C222  1  0.62057000  0.78278000  0.68555000  1.0
  C  C223  1  0.93645000  0.31928000  0.10064000  1.0
  C  C224  1  0.83464000  0.89986000  0.21550000  1.0
  C  C225  1  0.66275000  0.78209000  0.09794000  1.0
  C  C226  1  0.88172000  0.32040000  0.21845000  1.0
  C  C227  1  0.56407000  0.90078000  0.68489000  1.0
  C  C228  1  0.38303000  0.21883000  0.31720000  1.0
  C  C229  1  0.05960000  0.67746000  0.89877000  1.0
  C  C230  1  0.16279000  0.10308000  0.78095000  1.0
  C  C231  1  0.33712000  0.21994000  0.89781000  1.0
  C  C232  1  0.11619000  0.67722000  0.78138000  1.0
  C  C233  1  0.43622000  0.09974000  0.31765000  1.0
  N  N234  1  0.61513000  0.86486000  0.73127000  1.0
  N  N235  1  0.88557000  0.27352000  0.13640000  1.0
  N  N236  1  0.74834000  0.86391000  0.13347000  1.0
  N  N237  1  0.38673000  0.13619000  0.27130000  1.0
  N  N238  1  0.11095000  0.72295000  0.86307000  1.0
  N  N239  1  0.24974000  0.13913000  0.86252000  1.0
  N  N240  1  0.37868000  0.62679000  0.25549000  1.0
  N  N241  1  0.12573000  0.74953000  0.37430000  1.0
  N  N242  1  0.75037000  0.62782000  0.37401000  1.0
  N  N243  1  0.62401000  0.37428000  0.74734000  1.0
  N  N244  1  0.87394000  0.24742000  0.62482000  1.0
  N  N245  1  0.24917000  0.37443000  0.62218000  1.0
  O  O246  1  0.73296000  0.99705000  0.99814000  1.0
  O  O247  1  0.26819000  0.00297000  0.00525000  1.0
  O  O248  1  0.30868000  0.85239000  0.01780000  1.0
  O  O249  1  0.29183000  0.98428000  0.83727000  1.0
  O  O250  1  0.46136000  0.16371000  0.15182000  1.0
  O  O251  1  0.04457000  0.85362000  0.83723000  1.0
  O  O252  1  0.19343000  0.98874000  0.14999000  1.0
  O  O253  1  0.20406000  0.16298000  0.01602000  1.0
  O  O254  1  0.68724000  0.14719000  0.98541000  1.0
  O  O255  1  0.69929000  0.01097000  0.15887000  1.0
  O  O256  1  0.54378000  0.83724000  0.85099000  1.0
  O  O257  1  0.96299000  0.14523000  0.15689000  1.0
  O  O258  1  0.80472000  0.01184000  0.85280000  1.0
  O  O259  1  0.79331000  0.83750000  0.98581000  1.0
  O  O260  1  0.42757000  0.98760000  0.14284000  1.0
  O  O261  1  0.29277000  0.85826000  0.84515000  1.0
  O  O262  1  0.44811000  0.15760000  0.01809000  1.0
  O  O263  1  0.05058000  0.98732000  0.84566000  1.0
  O  O264  1  0.06746000  0.86351000  0.01648000  1.0
  O  O265  1  0.21765000  0.15383000  0.14222000  1.0
  O  O266  1  0.57084000  0.01245000  0.85951000  1.0
  O  O267  1  0.72240000  0.14067000  0.15438000  1.0
  O  O268  1  0.55882000  0.84581000  0.98562000  1.0
  O  O269  1  0.93501000  0.01064000  0.15083000  1.0
  O  O270  1  0.92165000  0.13767000  0.98728000  1.0
  O  O271  1  0.78820000  0.84849000  0.86142000  1.0
