# generated using pymatgen
data_KH5C4O3
_symmetry_space_group_name_H-M   'P 1'
_cell_length_a   3.89110000
_cell_length_b   8.81740000
_cell_length_c   15.39400000
_cell_angle_alpha   89.99960000
_cell_angle_beta   97.01920000
_cell_angle_gamma   89.99990000
_symmetry_Int_Tables_number   1
_chemical_formula_structural   KH5C4O3
_chemical_formula_sum   'K4 H20 C16 O12'
_cell_volume   524.20026135
_cell_formula_units_Z   4
loop_
 _symmetry_equiv_pos_site_id
 _symmetry_equiv_pos_as_xyz
  1  'x, y, z'
loop_
 _atom_site_type_symbol
 _atom_site_label
 _atom_site_symmetry_multiplicity
 _atom_site_fract_x
 _atom_site_fract_y
 _atom_site_fract_z
 _atom_site_occupancy
  K  K0  1  0.30602000  0.33170000  0.71627000  1.0
  K  K1  1  0.19401000  0.83170000  0.78372000  1.0
  K  K2  1  0.69399000  0.66829000  0.28373000  1.0
  K  K3  1  0.80601000  0.16829000  0.21628000  1.0
  H  H4  1  0.18247000  0.11007000  0.04176000  1.0
  H  H5  1  0.31753000  0.61007000  0.45824000  1.0
  H  H6  1  0.81754000  0.88992000  0.95825000  1.0
  H  H7  1  0.68245000  0.38992000  0.54175000  1.0
  H  H8  1  0.57151000  0.18890000  0.01393000  1.0
  H  H9  1  0.92848000  0.68890000  0.48607000  1.0
  H  H10  1  0.42849000  0.81110000  0.98607000  1.0
  H  H11  1  0.07151000  0.31110000  0.51393000  1.0
  H  H12  1  0.24037000  0.13750000  0.92999000  1.0
  H  H13  1  0.25962000  0.63750000  0.57001000  1.0
  H  H14  1  0.75962000  0.86251000  0.07001000  1.0
  H  H15  1  0.74038000  0.36251000  0.42998000  1.0
  H  H16  1  0.76210000  0.56137000  0.75624000  1.0
  H  H17  1  0.73791000  0.06137000  0.74376000  1.0
  H  H18  1  0.23791000  0.43863000  0.24377000  1.0
  H  H19  1  0.26209000  0.93863000  0.25623000  1.0
  H  H20  1  0.72705000  0.64437000  0.66526000  1.0
  H  H21  1  0.77295000  0.14437000  0.83474000  1.0
  H  H22  1  0.27294000  0.35563000  0.33474000  1.0
  H  H23  1  0.22706000  0.85564000  0.16526000  1.0
  C  C24  1  0.28939000  0.18694000  0.99557000  1.0
  C  C25  1  0.21061000  0.68694000  0.50443000  1.0
  C  C26  1  0.71062000  0.81306000  0.00444000  1.0
  C  C27  1  0.78938000  0.31306000  0.49556000  1.0
  C  C28  1  0.14222000  0.34425000  0.99676000  1.0
  C  C29  1  0.35779000  0.84424000  0.50324000  1.0
  C  C30  1  0.85782000  0.65576000  0.00325000  1.0
  C  C31  1  0.64218000  0.15576000  0.49675000  1.0
  C  C32  1  0.94963000  0.40781000  0.92217000  1.0
  C  C33  1  0.55036000  0.90782000  0.57783000  1.0
  C  C34  1  0.05037000  0.59219000  0.07784000  1.0
  C  C35  1  0.44964000  0.09218000  0.42216000  1.0
  C  C36  1  0.81319000  0.57089000  0.92525000  1.0
  C  C37  1  0.68682000  0.07089000  0.57475000  1.0
  C  C38  1  0.18683000  0.42911000  0.07476000  1.0
  C  C39  1  0.31316000  0.92911000  0.42524000  1.0
  O  O40  1  0.87603000  0.33748000  0.84979000  1.0
  O  O41  1  0.62399000  0.83748000  0.65021000  1.0
  O  O42  1  0.12403000  0.66253000  0.15022000  1.0
  O  O43  1  0.37598000  0.16252000  0.34977000  1.0
  O  O44  1  0.66250000  0.62602000  0.85363000  1.0
  O  O45  1  0.83750000  0.12602000  0.64637000  1.0
  O  O46  1  0.33752000  0.37398000  0.14638000  1.0
  O  O47  1  0.16248000  0.87398000  0.35362000  1.0
  O  O48  1  0.81127000  0.54843000  0.69420000  1.0
  O  O49  1  0.68873000  0.04843000  0.80580000  1.0
  O  O50  1  0.18872000  0.45158000  0.30581000  1.0
  O  O51  1  0.31127000  0.95158000  0.19419000  1.0
