# generated using pymatgen
data_ZnH14C29N2(OF)6
_symmetry_space_group_name_H-M   'P 1'
_cell_length_a   16.41590000
_cell_length_b   22.48420000
_cell_length_c   30.39880000
_cell_angle_alpha   90.00010000
_cell_angle_beta   90.00010000
_cell_angle_gamma   89.99990000
_symmetry_Int_Tables_number   1
_chemical_formula_structural   ZnH14C29N2(OF)6
_chemical_formula_sum   'Zn8 H112 C232 N16 O48 F48'
_cell_volume   11220.14779681
_cell_formula_units_Z   8
loop_
 _symmetry_equiv_pos_site_id
 _symmetry_equiv_pos_as_xyz
  1  'x, y, z'
loop_
 _atom_site_type_symbol
 _atom_site_label
 _atom_site_symmetry_multiplicity
 _atom_site_fract_x
 _atom_site_fract_y
 _atom_site_fract_z
 _atom_site_occupancy
  Zn  Zn0  1  0.93312000  0.53080000  0.78023000  1.0
  Zn  Zn1  1  0.56688000  0.96920000  0.28023000  1.0
  Zn  Zn2  1  0.43312000  0.96920000  0.21977000  1.0
  Zn  Zn3  1  0.06688000  0.53080000  0.71977000  1.0
  Zn  Zn4  1  0.06688000  0.46920000  0.21977000  1.0
  Zn  Zn5  1  0.43312000  0.03080000  0.71977000  1.0
  Zn  Zn6  1  0.56688000  0.03080000  0.78023000  1.0
  Zn  Zn7  1  0.93312000  0.46920000  0.28023000  1.0
  H  H8  1  0.90922000  0.47494000  0.86666000  1.0
  H  H9  1  0.59079000  0.02506000  0.36666000  1.0
  H  H10  1  0.40922000  0.02506000  0.13334000  1.0
  H  H11  1  0.09079000  0.47494000  0.63334000  1.0
  H  H12  1  0.09079000  0.52506000  0.13334000  1.0
  H  H13  1  0.40921000  0.97494000  0.63334000  1.0
  H  H14  1  0.59079000  0.97494000  0.86666000  1.0
  H  H15  1  0.90921000  0.52506000  0.36666000  1.0
  H  H16  1  0.79853000  0.46513000  0.92378000  1.0
  H  H17  1  0.70147000  0.03487000  0.42378000  1.0
  H  H18  1  0.29853000  0.03487000  0.07622000  1.0
  H  H19  1  0.20147000  0.46513000  0.57622000  1.0
  H  H20  1  0.20147000  0.53487000  0.07622000  1.0
  H  H21  1  0.29853000  0.96513000  0.57622000  1.0
  H  H22  1  0.70147000  0.96513000  0.92378000  1.0
  H  H23  1  0.79853000  0.53487000  0.42378000  1.0
  H  H24  1  0.64846000  0.57745000  0.84190000  1.0
  H  H25  1  0.85154000  0.92255000  0.34190000  1.0
  H  H26  1  0.14846000  0.92255000  0.15810000  1.0
  H  H27  1  0.35154000  0.57745000  0.65810000  1.0
  H  H28  1  0.35154000  0.42255000  0.15810000  1.0
  H  H29  1  0.14846000  0.07745000  0.65810000  1.0
  H  H30  1  0.85154000  0.07745000  0.84190000  1.0
  H  H31  1  0.64846000  0.42255000  0.34190000  1.0
  H  H32  1  0.76617000  0.58295000  0.78859000  1.0
  H  H33  1  0.73383000  0.91705000  0.28859000  1.0
  H  H34  1  0.26617000  0.91705000  0.21141000  1.0
  H  H35  1  0.23383000  0.58295000  0.71141000  1.0
  H  H36  1  0.23383000  0.41705000  0.21141000  1.0
  H  H37  1  0.26617000  0.08295000  0.71141000  1.0
  H  H38  1  0.73383000  0.08295000  0.78859000  1.0
  H  H39  1  0.76617000  0.41705000  0.28859000  1.0
  H  H40  1  0.54935000  0.35740000  0.95329000  1.0
  H  H41  1  0.95065000  0.14260000  0.45329000  1.0
  H  H42  1  0.04935000  0.14260000  0.04671000  1.0
  H  H43  1  0.45065000  0.35740000  0.54671000  1.0
  H  H44  1  0.45065000  0.64260000  0.04671000  1.0
  H  H45  1  0.04935000  0.85740000  0.54671000  1.0
  H  H46  1  0.95065000  0.85740000  0.95329000  1.0
  H  H47  1  0.54935000  0.64260000  0.45329000  1.0
  H  H48  1  0.55687000  0.65357000  0.98706000  1.0
  H  H49  1  0.94313000  0.84643000  0.48706000  1.0
  H  H50  1  0.05687000  0.84643000  0.01294000  1.0
  H  H51  1  0.44313000  0.65357000  0.51294000  1.0
  H  H52  1  0.44313000  0.34643000  0.01294000  1.0
  H  H53  1  0.05687000  0.15357000  0.51294000  1.0
  H  H54  1  0.94313000  0.15357000  0.98706000  1.0
  H  H55  1  0.55687000  0.34643000  0.48706000  1.0
  H  H56  1  0.51289000  0.89465000  0.62937000  1.0
  H  H57  1  0.98711000  0.60535000  0.12937000  1.0
  H  H58  1  0.01289000  0.60535000  0.37063000  1.0
  H  H59  1  0.48711000  0.89465000  0.87063000  1.0
  H  H60  1  0.48711000  0.10534000  0.37063000  1.0
  H  H61  1  0.01289000  0.39465000  0.87063000  1.0
  H  H62  1  0.98711000  0.39466000  0.62937000  1.0
  H  H63  1  0.51289000  0.10534000  0.12937000  1.0
  H  H64  1  0.58158000  0.82162000  0.58163000  1.0
  H  H65  1  0.91842000  0.67838000  0.08163000  1.0
  H  H66  1  0.08158000  0.67838000  0.41837000  1.0
  H  H67  1  0.41843000  0.82162000  0.91837000  1.0
  H  H68  1  0.41843000  0.17838000  0.41837000  1.0
  H  H69  1  0.08158000  0.32162000  0.91837000  1.0
  H  H70  1  0.91842000  0.32162000  0.58163000  1.0
  H  H71  1  0.58157000  0.17838000  0.08163000  1.0
  H  H72  1  0.79388000  0.83006000  0.66529000  1.0
  H  H73  1  0.70612000  0.66994000  0.16529000  1.0
  H  H74  1  0.29388000  0.66994000  0.33471000  1.0
  H  H75  1  0.20612000  0.83006000  0.83471000  1.0
  H  H76  1  0.20612000  0.16994000  0.33471000  1.0
  H  H77  1  0.29388000  0.33006000  0.83471000  1.0
  H  H78  1  0.70612000  0.33006000  0.66529000  1.0
  H  H79  1  0.79388000  0.16994000  0.16529000  1.0
  H  H80  1  0.72367000  0.90468000  0.71220000  1.0
  H  H81  1  0.77633000  0.59532000  0.21220000  1.0
  H  H82  1  0.22367000  0.59532000  0.28780000  1.0
  H  H83  1  0.27633000  0.90468000  0.78780000  1.0
  H  H84  1  0.27633000  0.09532000  0.28780000  1.0
  H  H85  1  0.22367000  0.40468000  0.78780000  1.0
  H  H86  1  0.77633000  0.40468000  0.71220000  1.0
  H  H87  1  0.72367000  0.09532000  0.21220000  1.0
  H  H88  1  0.97480000  0.66361000  0.63165000  1.0
  H  H89  1  0.52520000  0.83639000  0.13165000  1.0
  H  H90  1  0.47480000  0.83639000  0.36835000  1.0
  H  H91  1  0.02520000  0.66361000  0.86835000  1.0
  H  H92  1  0.02520000  0.33639000  0.36835000  1.0
  H  H93  1  0.47480000  0.16361000  0.86835000  1.0
  H  H94  1  0.52520000  0.16361000  0.63165000  1.0
  H  H95  1  0.97480000  0.33639000  0.13165000  1.0
  H  H96  1  0.90195000  0.73276000  0.58236000  1.0
  H  H97  1  0.59805000  0.76725000  0.08236000  1.0
  H  H98  1  0.40194000  0.76725000  0.41764000  1.0
  H  H99  1  0.09805000  0.73276000  0.91764000  1.0
  H  H100  1  0.09806000  0.26725000  0.41764000  1.0
  H  H101  1  0.40195000  0.23275000  0.91764000  1.0
  H  H102  1  0.59805000  0.23276000  0.58236000  1.0
  H  H103  1  0.90194000  0.26724000  0.08236000  1.0
  H  H104  1  0.69072000  0.72218000  0.66666667  1.0
  H  H105  1  0.80927000  0.77782000  0.16670000  1.0
  H  H106  1  0.19073000  0.77782000  0.33333333  1.0
  H  H107  1  0.30928000  0.72218000  0.83330000  1.0
  H  H108  1  0.30928000  0.27782000  0.33333333  1.0
  H  H109  1  0.19073000  0.22218000  0.83330000  1.0
  H  H110  1  0.80928000  0.22218000  0.66666667  1.0
  H  H111  1  0.69072000  0.27782000  0.16670000  1.0
  H  H112  1  0.76527000  0.65215000  0.71522000  1.0
  H  H113  1  0.73473000  0.84785000  0.21522000  1.0
  H  H114  1  0.26527000  0.84785000  0.28478000  1.0
  H  H115  1  0.23473000  0.65215000  0.78478000  1.0
  H  H116  1  0.23473000  0.34785000  0.28478000  1.0
  H  H117  1  0.26527000  0.15215000  0.78478000  1.0
  H  H118  1  0.73473000  0.15215000  0.71522000  1.0
  H  H119  1  0.76527000  0.34785000  0.21522000  1.0
  C  C120  1  0.85040000  0.49688000  0.86304000  1.0
  C  C121  1  0.64960000  0.00312000  0.36304000  1.0
  C  C122  1  0.35040000  0.00312000  0.13696000  1.0
  C  C123  1  0.14960000  0.49688000  0.63696000  1.0
  C  C124  1  0.14960000  0.50312000  0.13696000  1.0
  C  C125  1  0.35040000  0.99688000  0.63696000  1.0
  C  C126  1  0.64960000  0.99688000  0.86304000  1.0
  C  C127  1  0.85040000  0.50312000  0.36304000  1.0
  C  C128  1  0.78910000  0.49162000  0.89426000  1.0
  C  C129  1  0.71090000  0.00838000  0.39426000  1.0
  C  C130  1  0.28910000  0.00838000  0.10574000  1.0
  C  C131  1  0.21090000  0.49162000  0.60574000  1.0
  C  C132  1  0.21090000  0.50838000  0.10574000  1.0
  C  C133  1  0.28910000  0.99162000  0.60574000  1.0
  C  C134  1  0.71090000  0.99162000  0.89426000  1.0
  C  C135  1  0.78910000  0.50838000  0.39426000  1.0
  C  C136  1  0.71533000  0.52048000  0.88658000  1.0
  C  C137  1  0.78467000  0.97953000  0.38658000  1.0
  C  C138  1  0.21533000  0.97953000  0.11342000  1.0
  C  C139  1  0.28467000  0.52048000  0.61342000  1.0
  C  C140  1  0.28467000  0.47952000  0.11342000  1.0
  C  C141  1  0.21533000  0.02047000  0.61343000  1.0
  C  C142  1  0.78467000  0.02048000  0.88658000  1.0
  C  C143  1  0.71533000  0.47953000  0.38657000  1.0
  C  C144  1  0.70523000  0.55413000  0.84848000  1.0
  C  C145  1  0.79477000  0.94587000  0.34848000  1.0
  C  C146  1  0.20523000  0.94587000  0.15152000  1.0
  C  C147  1  0.29477000  0.55413000  0.65152000  1.0
  C  C148  1  0.29477000  0.44587000  0.15152000  1.0
  C  C149  1  0.20523000  0.05413000  0.65152000  1.0
  C  C150  1  0.79477000  0.05413000  0.84848000  1.0
  C  C151  1  0.70523000  0.44587000  0.34848000  1.0
  C  C152  1  0.76984000  0.55734000  0.81898000  1.0
  C  C153  1  0.73016000  0.94266000  0.31898000  1.0
  C  C154  1  0.26984000  0.94266000  0.18102000  1.0
  C  C155  1  0.23016000  0.55734000  0.68102000  1.0
  C  C156  1  0.23016000  0.44266000  0.18102000  1.0
  C  C157  1  0.26984000  0.05734000  0.68102000  1.0
  C  C158  1  0.73016000  0.05734000  0.81898000  1.0
  C  C159  1  0.76984000  0.44266000  0.31898000  1.0
  C  C160  1  0.62050000  0.45698000  0.92606000  1.0
  C  C161  1  0.87950000  0.04302000  0.42606000  1.0
  C  C162  1  0.12050000  0.04302000  0.07394000  1.0
  C  C163  1  0.37950000  0.45698000  0.57394000  1.0
  C  C164  1  0.37950000  0.54302000  0.07394000  1.0
  C  C165  1  0.12050000  0.95698000  0.57394000  1.0
  C  C166  1  0.87950000  0.95698000  0.92606000  1.0
  C  C167  1  0.62050000  0.54302000  0.42606000  1.0
  C  C168  1  0.55781000  0.45176000  0.96078000  1.0
  C  C169  1  0.94219000  0.04824000  0.46078000  1.0
  C  C170  1  0.05781000  0.04824000  0.03922000  1.0
  C  C171  1  0.44219000  0.45176000  0.53922000  1.0
  C  C172  1  0.44219000  0.54824000  0.03922000  1.0
  C  C173  1  0.05781000  0.95176000  0.53922000  1.0
  C  C174  1  0.94219000  0.95176000  0.96078000  1.0
  C  C175  1  0.55781000  0.54824000  0.46078000  1.0
  C  C176  1  0.53002000  0.50309000  0.98323000  1.0
  C  C177  1  0.96999000  0.99691000  0.48323000  1.0
  C  C178  1  0.03001000  0.99691000  0.01677000  1.0
  C  C179  1  0.46999000  0.50309000  0.51677000  1.0
  C  C180  1  0.46999000  0.49691000  0.01677000  1.0
  C  C181  1  0.03001000  0.00309000  0.51677000  1.0
  C  C182  1  0.96999000  0.00309000  0.98323000  1.0
  C  C183  1  0.53001000  0.49691000  0.48323000  1.0
  C  C184  1  0.56036000  0.56045000  0.97306000  1.0
  C  C185  1  0.93964000  0.93955000  0.47306000  1.0
  C  C186  1  0.06036000  0.93955000  0.02694000  1.0
  C  C187  1  0.43964000  0.56045000  0.52694000  1.0
  C  C188  1  0.43964000  0.43955000  0.02694000  1.0
  C  C189  1  0.06036000  0.06045000  0.52694000  1.0
  C  C190  1  0.93964000  0.06045000  0.97306000  1.0
  C  C191  1  0.56036000  0.43955000  0.47306000  1.0
  C  C192  1  0.62346000  0.56807000  0.93876000  1.0
  C  C193  1  0.87654000  0.93193000  0.43876000  1.0
  C  C194  1  0.12346000  0.93193000  0.06125000  1.0
  C  C195  1  0.37654000  0.56807000  0.56124000  1.0
  C  C196  1  0.37654000  0.43193000  0.06124000  1.0
  C  C197  1  0.12346000  0.06807000  0.56125000  1.0
  C  C198  1  0.87654000  0.06807000  0.93876000  1.0
  C  C199  1  0.62346000  0.43193000  0.43875000  1.0
  C  C200  1  0.52690000  0.39600000  0.97129000  1.0
  C  C201  1  0.97311000  0.10400000  0.47129000  1.0
  C  C202  1  0.02690000  0.10400000  0.02871000  1.0
  C  C203  1  0.47310000  0.39600000  0.52871000  1.0
  C  C204  1  0.47310000  0.60400000  0.02871000  1.0
  C  C205  1  0.02689000  0.89600000  0.52871000  1.0
  C  C206  1  0.97310000  0.89600000  0.97129000  1.0
  C  C207  1  0.52690000  0.60400000  0.47129000  1.0
  C  C208  1  0.53201000  0.61012000  0.99555000  1.0
  C  C209  1  0.96799000  0.88989000  0.49555000  1.0
  C  C210  1  0.03201000  0.88989000  0.00445000  1.0
  C  C211  1  0.46799000  0.61012000  0.50445000  1.0
  C  C212  1  0.46799000  0.38988000  0.00445000  1.0
  C  C213  1  0.03201000  0.11011000  0.50445000  1.0
  C  C214  1  0.96799000  0.11012000  0.99555000  1.0
  C  C215  1  0.53201000  0.38989000  0.49555000  1.0
  C  C216  1  0.57146000  0.94939000  0.70192000  1.0
  C  C217  1  0.92854000  0.55061000  0.20192000  1.0
  C  C218  1  0.07146000  0.55061000  0.29808000  1.0
  C  C219  1  0.42854000  0.94939000  0.79808000  1.0
  C  C220  1  0.42854000  0.05061000  0.29808000  1.0
  C  C221  1  0.07146000  0.44939000  0.79808000  1.0
  C  C222  1  0.92854000  0.44939000  0.70192000  1.0
  C  C223  1  0.57146000  0.05061000  0.20192000  1.0
  C  C224  1  0.61391000  0.90429000  0.67366000  1.0
  C  C225  1  0.88609000  0.59571000  0.17366000  1.0
  C  C226  1  0.11391000  0.59571000  0.32634000  1.0
  C  C227  1  0.38609000  0.90429000  0.82634000  1.0
  C  C228  1  0.38609000  0.09571000  0.32634000  1.0
  C  C229  1  0.11391000  0.40429000  0.82634000  1.0
  C  C230  1  0.88609000  0.40429000  0.67366000  1.0
  C  C231  1  0.61391000  0.09571000  0.17366000  1.0
  C  C232  1  0.57475000  0.88038000  0.63684000  1.0
  C  C233  1  0.92525000  0.61962000  0.13684000  1.0
  C  C234  1  0.07475000  0.61962000  0.36316000  1.0
  C  C235  1  0.42525000  0.88038000  0.86316000  1.0
  C  C236  1  0.42525000  0.11962000  0.36316000  1.0
  C  C237  1  0.07475000  0.38038000  0.86316000  1.0
  C  C238  1  0.92525000  0.38038000  0.63684000  1.0
  C  C239  1  0.57475000  0.11962000  0.13684000  1.0
  C  C240  1  0.61376000  0.83886000  0.61017000  1.0
  C  C241  1  0.88624000  0.66114000  0.11017000  1.0
  C  C242  1  0.11376000  0.66114000  0.38983000  1.0
  C  C243  1  0.38625000  0.83886000  0.88983000  1.0
  C  C244  1  0.38625000  0.16114000  0.38983000  1.0
  C  C245  1  0.11376000  0.33886000  0.88983000  1.0
  C  C246  1  0.88624000  0.33886000  0.61017000  1.0
  C  C247  1  0.61375000  0.16114000  0.11017000  1.0
  C  C248  1  0.69288000  0.81992000  0.62019000  1.0
  C  C249  1  0.80712000  0.68008000  0.12019000  1.0
  C  C250  1  0.19288000  0.68009000  0.37981000  1.0
  C  C251  1  0.30712000  0.81991000  0.87981000  1.0
  C  C252  1  0.30712000  0.18008000  0.37981000  1.0
  C  C253  1  0.19288000  0.31992000  0.87981000  1.0
  C  C254  1  0.80712000  0.31991000  0.62019000  1.0
  C  C255  1  0.69288000  0.18009000  0.12019000  1.0
  C  C256  1  0.73237000  0.84434000  0.65699000  1.0
  C  C257  1  0.76763000  0.65566000  0.15699000  1.0
  C  C258  1  0.23236000  0.65566000  0.34301000  1.0
  C  C259  1  0.26764000  0.84434000  0.84301000  1.0
  C  C260  1  0.26764000  0.15566000  0.34301000  1.0
  C  C261  1  0.23236000  0.34434000  0.84301000  1.0
  C  C262  1  0.76763000  0.34434000  0.65699000  1.0
  C  C263  1  0.73236000  0.15566000  0.15699000  1.0
  C  C264  1  0.69335000  0.88599000  0.68347000  1.0
  C  C265  1  0.80665000  0.61401000  0.18347000  1.0
  C  C266  1  0.19335000  0.61401000  0.31653000  1.0
  C  C267  1  0.30665000  0.88599000  0.81653000  1.0
  C  C268  1  0.30665000  0.11401000  0.31653000  1.0
  C  C269  1  0.19335000  0.38599000  0.81653000  1.0
  C  C270  1  0.80665000  0.38599000  0.68347000  1.0
  C  C271  1  0.69335000  0.11401000  0.18347000  1.0
  C  C272  1  0.91895000  0.61068000  0.70563000  1.0
  C  C273  1  0.58105000  0.88932000  0.20563000  1.0
  C  C274  1  0.41895000  0.88932000  0.29437000  1.0
  C  C275  1  0.08105000  0.61068000  0.79437000  1.0
  C  C276  1  0.08105000  0.38932000  0.29437000  1.0
  C  C277  1  0.41895000  0.11068000  0.79437000  1.0
  C  C278  1  0.58105000  0.11068000  0.70563000  1.0
  C  C279  1  0.91895000  0.38932000  0.20563000  1.0
  C  C280  1  0.87461000  0.65353000  0.67636000  1.0
  C  C281  1  0.62539000  0.84647000  0.17636000  1.0
  C  C282  1  0.37461000  0.84647000  0.32365000  1.0
  C  C283  1  0.12539000  0.65353000  0.82365000  1.0
  C  C284  1  0.12539000  0.34647000  0.32364000  1.0
  C  C285  1  0.37461000  0.15353000  0.82365000  1.0
  C  C286  1  0.62539000  0.15353000  0.67635000  1.0
  C  C287  1  0.87461000  0.34647000  0.17635000  1.0
  C  C288  1  0.91234000  0.67672000  0.63888000  1.0
  C  C289  1  0.58765000  0.82328000  0.13888000  1.0
  C  C290  1  0.41235000  0.82328000  0.36112000  1.0
  C  C291  1  0.08766000  0.67672000  0.86112000  1.0
  C  C292  1  0.08766000  0.32329000  0.36112000  1.0
  C  C293  1  0.41234000  0.17671000  0.86112000  1.0
  C  C294  1  0.58766000  0.17672000  0.63888000  1.0
  C  C295  1  0.91234000  0.32328000  0.13888000  1.0
  C  C296  1  0.87079000  0.71584000  0.61131000  1.0
  C  C297  1  0.62921000  0.78416000  0.11131000  1.0
  C  C298  1  0.37079000  0.78416000  0.38869000  1.0
  C  C299  1  0.12921000  0.71584000  0.88869000  1.0
  C  C300  1  0.12921000  0.28416000  0.38869000  1.0
  C  C301  1  0.37079000  0.21584000  0.88869000  1.0
  C  C302  1  0.62921000  0.21584000  0.61131000  1.0
  C  C303  1  0.87079000  0.28416000  0.11131000  1.0
  C  C304  1  0.79065000  0.73280000  0.62093000  1.0
  C  C305  1  0.70935000  0.76720000  0.12093000  1.0
  C  C306  1  0.29065000  0.76720000  0.37907000  1.0
  C  C307  1  0.20935000  0.73280000  0.87907000  1.0
  C  C308  1  0.20935000  0.26720000  0.37907000  1.0
  C  C309  1  0.29065000  0.23280000  0.87907000  1.0
  C  C310  1  0.70935000  0.23280000  0.62093000  1.0
  C  C311  1  0.79065000  0.26720000  0.12093000  1.0
  C  C312  1  0.75284000  0.70923000  0.65853000  1.0
  C  C313  1  0.74716000  0.79077000  0.15853000  1.0
  C  C314  1  0.25284000  0.79077000  0.34147000  1.0
  C  C315  1  0.24716000  0.70923000  0.84147000  1.0
  C  C316  1  0.24716000  0.29077000  0.34147000  1.0
  C  C317  1  0.25284000  0.20923000  0.84147000  1.0
  C  C318  1  0.74716000  0.20923000  0.65853000  1.0
  C  C319  1  0.75284000  0.29077000  0.15853000  1.0
  C  C320  1  0.79437000  0.67015000  0.68592000  1.0
  C  C321  1  0.70562000  0.82985000  0.18592000  1.0
  C  C322  1  0.29438000  0.82985000  0.31408000  1.0
  C  C323  1  0.20563000  0.67015000  0.81408000  1.0
  C  C324  1  0.20562000  0.32985000  0.31408000  1.0
  C  C325  1  0.29438000  0.17015000  0.81408000  1.0
  C  C326  1  0.70563000  0.17015000  0.68592000  1.0
  C  C327  1  0.79438000  0.32985000  0.18592000  1.0
  C  C328  1  0.74012000  0.77493000  0.59172000  1.0
  C  C329  1  0.75988000  0.72507000  0.09172000  1.0
  C  C330  1  0.24012000  0.72507000  0.40828000  1.0
  C  C331  1  0.25988000  0.77493000  0.90828000  1.0
  C  C332  1  0.25988000  0.22507000  0.40828000  1.0
  C  C333  1  0.24012000  0.27493000  0.90828000  1.0
  C  C334  1  0.75988000  0.27493000  0.59172000  1.0
  C  C335  1  0.74011000  0.22507000  0.09172000  1.0
  C  C336  1  0.68271000  0.73430000  0.56370000  1.0
  C  C337  1  0.81729000  0.76570000  0.06370000  1.0
  C  C338  1  0.18271000  0.76570000  0.43630000  1.0
  C  C339  1  0.31729000  0.73430000  0.93630000  1.0
  C  C340  1  0.31729000  0.26570000  0.43630000  1.0
  C  C341  1  0.18271000  0.23430000  0.93630000  1.0
  C  C342  1  0.81729000  0.23430000  0.56370000  1.0
  C  C343  1  0.68270000  0.26570000  0.06370000  1.0
  C  C344  1  0.79404000  0.81247000  0.55983000  1.0
  C  C345  1  0.70596000  0.68752000  0.05983000  1.0
  C  C346  1  0.29404000  0.68753000  0.44017000  1.0
  C  C347  1  0.20596000  0.81247000  0.94017000  1.0
  C  C348  1  0.20596000  0.18753000  0.44017000  1.0
  C  C349  1  0.29404000  0.31247000  0.94017000  1.0
  C  C350  1  0.70596000  0.31247000  0.55983000  1.0
  C  C351  1  0.79404000  0.18753000  0.05983000  1.0
  N  N352  1  0.84082000  0.52902000  0.82606000  1.0
  N  N353  1  0.65918000  0.97098000  0.32606000  1.0
  N  N354  1  0.34082000  0.97098000  0.17394000  1.0
  N  N355  1  0.15918000  0.52901000  0.67394000  1.0
  N  N356  1  0.15918000  0.47099000  0.17394000  1.0
  N  N357  1  0.34082000  0.02901000  0.67394000  1.0
  N  N358  1  0.65918000  0.02901000  0.82606000  1.0
  N  N359  1  0.84082000  0.47098000  0.32606000  1.0
  N  N360  1  0.65077000  0.51512000  0.91810000  1.0
  N  N361  1  0.84923000  0.98489000  0.41810000  1.0
  N  N362  1  0.15077000  0.98488000  0.08190000  1.0
  N  N363  1  0.34923000  0.51512000  0.58189000  1.0
  N  N364  1  0.34923000  0.48488000  0.08190000  1.0
  N  N365  1  0.15077000  0.01512000  0.58190000  1.0
  N  N366  1  0.84923000  0.01512000  0.91810000  1.0
  N  N367  1  0.65076000  0.48488000  0.41810000  1.0
  O  O368  1  0.64598000  0.41441000  0.90487000  1.0
  O  O369  1  0.85404000  0.08558000  0.40487000  1.0
  O  O370  1  0.14597000  0.08559000  0.09513000  1.0
  O  O371  1  0.35403000  0.41441000  0.59513000  1.0
  O  O372  1  0.35403000  0.58559000  0.09513000  1.0
  O  O373  1  0.14597000  0.91441000  0.59513000  1.0
  O  O374  1  0.85403000  0.91441000  0.90487000  1.0
  O  O375  1  0.64597000  0.58559000  0.40487000  1.0
  O  O376  1  0.65221000  0.61651000  0.92856000  1.0
  O  O377  1  0.84779000  0.88349000  0.42856000  1.0
  O  O378  1  0.15220000  0.88349000  0.07144000  1.0
  O  O379  1  0.34779000  0.61651000  0.57144000  1.0
  O  O380  1  0.34779000  0.38349000  0.07144000  1.0
  O  O381  1  0.15221000  0.11651000  0.57144000  1.0
  O  O382  1  0.84779000  0.11651000  0.92856000  1.0
  O  O383  1  0.65221000  0.38349000  0.42856000  1.0
  O  O384  1  0.50113000  0.96616000  0.68915000  1.0
  O  O385  1  0.99887000  0.53384000  0.18915000  1.0
  O  O386  1  0.00113000  0.53384000  0.31085000  1.0
  O  O387  1  0.49887000  0.96616000  0.81085000  1.0
  O  O388  1  0.49887000  0.03384000  0.31085000  1.0
  O  O389  1  0.00113000  0.46616000  0.81085000  1.0
  O  O390  1  0.99886000  0.46616000  0.68915000  1.0
  O  O391  1  0.50114000  0.03384000  0.18915000  1.0
  O  O392  1  0.60873000  0.96749000  0.73600000  1.0
  O  O393  1  0.89126000  0.53251000  0.23600000  1.0
  O  O394  1  0.10874000  0.53251000  0.26400000  1.0
  O  O395  1  0.39126000  0.96749000  0.76400000  1.0
  O  O396  1  0.39126000  0.03251000  0.26400000  1.0
  O  O397  1  0.10874000  0.46749000  0.76400000  1.0
  O  O398  1  0.89126000  0.46749000  0.73600000  1.0
  O  O399  1  0.60874000  0.03251000  0.23600000  1.0
  O  O400  1  0.88211000  0.59422000  0.74049000  1.0
  O  O401  1  0.61789000  0.90578000  0.24049000  1.0
  O  O402  1  0.38211000  0.90578000  0.25951000  1.0
  O  O403  1  0.11789000  0.59422000  0.75951000  1.0
  O  O404  1  0.11789000  0.40578000  0.25951000  1.0
  O  O405  1  0.38211000  0.09422000  0.75951000  1.0
  O  O406  1  0.61789000  0.09422000  0.74049000  1.0
  O  O407  1  0.88211000  0.40578000  0.24049000  1.0
  O  O408  1  0.98917000  0.59381000  0.69316000  1.0
  O  O409  1  0.51084000  0.90619000  0.19316000  1.0
  O  O410  1  0.48917000  0.90619000  0.30684000  1.0
  O  O411  1  0.01084000  0.59381000  0.80684000  1.0
  O  O412  1  0.01084000  0.40619000  0.30684000  1.0
  O  O413  1  0.48916000  0.09381000  0.80684000  1.0
  O  O414  1  0.51083000  0.09381000  0.69316000  1.0
  O  O415  1  0.98917000  0.40619000  0.19316000  1.0
  F  F416  1  0.64491000  0.76351000  0.52995000  1.0
  F  F417  1  0.85509000  0.73649000  0.02995000  1.0
  F  F418  1  0.14491000  0.73649000  0.47005000  1.0
  F  F419  1  0.35509000  0.76351000  0.97005000  1.0
  F  F420  1  0.35509000  0.23649000  0.47005000  1.0
  F  F421  1  0.14491000  0.26351000  0.97005000  1.0
  F  F422  1  0.85509000  0.26351000  0.52995000  1.0
  F  F423  1  0.64490000  0.23649000  0.02995000  1.0
  F  F424  1  0.62285000  0.71011000  0.58916000  1.0
  F  F425  1  0.87715000  0.78989000  0.08916000  1.0
  F  F426  1  0.12285000  0.78989000  0.41084000  1.0
  F  F427  1  0.37715000  0.71011000  0.91084000  1.0
  F  F428  1  0.37715000  0.28989000  0.41084000  1.0
  F  F429  1  0.12285000  0.21011000  0.91084000  1.0
  F  F430  1  0.87715000  0.21011000  0.58916000  1.0
  F  F431  1  0.62285000  0.28989000  0.08916000  1.0
  F  F432  1  0.72401000  0.68816000  0.54527000  1.0
  F  F433  1  0.77599000  0.81184000  0.04527000  1.0
  F  F434  1  0.22401000  0.81184000  0.45473000  1.0
  F  F435  1  0.27599000  0.68816000  0.95473000  1.0
  F  F436  1  0.27599000  0.31184000  0.45473000  1.0
  F  F437  1  0.22401000  0.18817000  0.95473000  1.0
  F  F438  1  0.77599000  0.18816000  0.54527000  1.0
  F  F439  1  0.72401000  0.31183000  0.04527000  1.0
  F  F440  1  0.83002000  0.77935000  0.52748000  1.0
  F  F441  1  0.66998000  0.72064000  0.02748000  1.0
  F  F442  1  0.33002000  0.72064000  0.47252000  1.0
  F  F443  1  0.16998000  0.77936000  0.97252000  1.0
  F  F444  1  0.16998000  0.22065000  0.47252000  1.0
  F  F445  1  0.33002000  0.27936000  0.97252000  1.0
  F  F446  1  0.66998000  0.27936000  0.52748000  1.0
  F  F447  1  0.83002000  0.22064000  0.02748000  1.0
  F  F448  1  0.85511000  0.84042000  0.58224000  1.0
  F  F449  1  0.64489000  0.65958000  0.08224000  1.0
  F  F450  1  0.35511000  0.65958000  0.41776000  1.0
  F  F451  1  0.14489000  0.84042000  0.91776000  1.0
  F  F452  1  0.14489000  0.15958000  0.41776000  1.0
  F  F453  1  0.35511000  0.34042000  0.91776000  1.0
  F  F454  1  0.64489000  0.34042000  0.58224000  1.0
  F  F455  1  0.85511000  0.15958000  0.08224000  1.0
  F  F456  1  0.75052000  0.85568000  0.53923000  1.0
  F  F457  1  0.74948000  0.64432000  0.03923000  1.0
  F  F458  1  0.25052000  0.64432000  0.46077000  1.0
  F  F459  1  0.24948000  0.85568000  0.96077000  1.0
  F  F460  1  0.24948000  0.14432000  0.46077000  1.0
  F  F461  1  0.25052000  0.35568000  0.96077000  1.0
  F  F462  1  0.74948000  0.35568000  0.53923000  1.0
  F  F463  1  0.75051000  0.14432000  0.03923000  1.0
