# generated using pymatgen
data_DyH18C18(NO2)4
_symmetry_space_group_name_H-M   'P 1'
_cell_length_a   9.86552000
_cell_length_b   10.30710000
_cell_length_c   11.01660000
_cell_angle_alpha   77.34500000
_cell_angle_beta   76.48910000
_cell_angle_gamma   65.72790000
_symmetry_Int_Tables_number   1
_chemical_formula_structural   DyH18C18(NO2)4
_chemical_formula_sum   'Dy2 H36 C36 N8 O16'
_cell_volume   983.32392531
_cell_formula_units_Z   2
loop_
 _symmetry_equiv_pos_site_id
 _symmetry_equiv_pos_as_xyz
  1  'x, y, z'
loop_
 _atom_site_type_symbol
 _atom_site_label
 _atom_site_symmetry_multiplicity
 _atom_site_fract_x
 _atom_site_fract_y
 _atom_site_fract_z
 _atom_site_occupancy
  Dy  Dy0  1  0.05553000  0.77198000  0.17616000  1.0
  Dy  Dy1  1  0.94447000  0.22802000  0.82384000  1.0
  H  H2  1  0.96672000  0.38117000  0.06246000  1.0
  H  H3  1  0.03328000  0.61883000  0.93754000  1.0
  H  H4  1  0.07798000  0.46218000  0.36462000  1.0
  H  H5  1  0.92202000  0.53783000  0.63537000  1.0
  H  H6  1  0.28341000  0.85295000  0.74867000  1.0
  H  H7  1  0.71659000  0.14705000  0.25133000  1.0
  H  H8  1  0.44797000  0.63335000  0.06588000  1.0
  H  H9  1  0.55203000  0.36665000  0.93412000  1.0
  H  H10  1  0.70598000  0.08245000  0.49466000  1.0
  H  H11  1  0.29402000  0.91754000  0.50534000  1.0
  H  H12  1  0.55142000  0.79815000  0.38526000  1.0
  H  H13  1  0.44858000  0.20184000  0.61474000  1.0
  H  H14  1  0.56592000  0.58968000  0.27455000  1.0
  H  H15  1  0.43408000  0.41033000  0.72545000  1.0
  H  H16  1  0.24342000  0.49627000  0.58151000  1.0
  H  H17  1  0.75658000  0.50373000  0.41849000  1.0
  H  H18  1  0.39275000  0.87162000  0.19116000  1.0
  H  H19  1  0.60725000  0.12838000  0.80885000  1.0
  H  H20  1  0.33690000  0.15149000  0.83965000  1.0
  H  H21  1  0.66310000  0.84851000  0.16035000  1.0
  H  H22  1  0.98195000  0.25331000  0.45020000  1.0
  H  H23  1  0.01805000  0.74669000  0.54980000  1.0
  H  H24  1  0.15921000  0.18460000  0.34961000  1.0
  H  H25  1  0.84079000  0.81540000  0.65039000  1.0
  H  H26  1  0.00644000  0.14852000  0.22706000  1.0
  H  H27  1  0.99356000  0.85148000  0.77294000  1.0
  H  H28  1  0.84164000  0.29249000  0.28341000  1.0
  H  H29  1  0.15836000  0.70751000  0.71659000  1.0
  H  H30  1  0.53445000  0.86010000  0.73385000  1.0
  H  H31  1  0.46555000  0.13991000  0.26615000  1.0
  H  H32  1  0.58148000  0.69288000  0.68215000  1.0
  H  H33  1  0.41852000  0.30712000  0.31785000  1.0
  H  H34  1  0.67327000  0.56739000  0.87260000  1.0
  H  H35  1  0.32674000  0.43261000  0.12740000  1.0
  H  H36  1  0.63820000  0.73486000  0.91880000  1.0
  H  H37  1  0.36180000  0.26514000  0.08120000  1.0
  C  C38  1  0.64388000  0.93315000  0.43260000  1.0
  C  C39  1  0.35612000  0.06684000  0.56741000  1.0
  C  C40  1  0.61518000  0.04675000  0.49785000  1.0
  C  C41  1  0.38482000  0.95325000  0.50215000  1.0
  C  C42  1  0.52775000  0.88679000  0.43565000  1.0
  C  C43  1  0.47224000  0.11321000  0.56435000  1.0
  C  C44  1  0.79434000  0.86750000  0.35368000  1.0
  C  C45  1  0.20566000  0.13250000  0.64632000  1.0
  C  C46  1  0.39282000  0.54968000  0.41956000  1.0
  C  C47  1  0.60718000  0.45033000  0.58044000  1.0
  C  C48  1  0.53812000  0.54966000  0.37341000  1.0
  C  C49  1  0.46188000  0.45034000  0.62659000  1.0
  C  C50  1  0.35519000  0.49919000  0.54676000  1.0
  C  C51  1  0.64481000  0.50082000  0.45324000  1.0
  C  C52  1  0.27793000  0.60691000  0.33387000  1.0
  C  C53  1  0.72207000  0.39309000  0.66613000  1.0
  C  C54  1  0.35070000  0.01300000  0.01750000  1.0
  C  C55  1  0.64930000  0.98700000  0.98250000  1.0
  C  C56  1  0.44117000  0.92803000  0.10866000  1.0
  C  C57  1  0.55883000  0.07197000  0.89135000  1.0
  C  C58  1  0.40979000  0.08520000  0.90881000  1.0
  C  C59  1  0.59021000  0.91479000  0.09119000  1.0
  C  C60  1  0.19234000  0.02263000  0.03363000  1.0
  C  C61  1  0.80766000  0.97737000  0.96637000  1.0
  C  C62  1  0.03049000  0.45486000  0.19298000  1.0
  C  C63  1  0.96951000  0.54514000  0.80702000  1.0
  C  C64  1  0.04286000  0.26544000  0.35438000  1.0
  C  C65  1  0.95715000  0.73456000  0.64562000  1.0
  C  C66  1  0.96446000  0.25641000  0.25282000  1.0
  C  C67  1  0.03554000  0.74359000  0.74718000  1.0
  C  C68  1  0.32924000  0.72667000  0.91814000  1.0
  C  C69  1  0.67076000  0.27333000  0.08186000  1.0
  C  C70  1  0.52379000  0.75528000  0.76106000  1.0
  C  C71  1  0.47621000  0.24472000  0.23894000  1.0
  C  C72  1  0.58788000  0.67513000  0.88457000  1.0
  C  C73  1  0.41212000  0.32487000  0.11543000  1.0
  N  N74  1  0.00037000  0.35893000  0.14828000  1.0
  N  N75  1  0.99963000  0.64107000  0.85172000  1.0
  N  N76  1  0.04320000  0.41051000  0.31661000  1.0
  N  N77  1  0.95680000  0.58949000  0.68339000  1.0
  N  N78  1  0.36538000  0.77180000  0.79295000  1.0
  N  N79  1  0.63462000  0.22820000  0.20705000  1.0
  N  N80  1  0.45515000  0.66639000  0.97116000  1.0
  N  N81  1  0.54485000  0.33361000  0.02883000  1.0
  O  O82  1  0.82968000  0.74830000  0.31505000  1.0
  O  O83  1  0.17032000  0.25169000  0.68495000  1.0
  O  O84  1  0.88260000  0.93704000  0.32169000  1.0
  O  O85  1  0.11740000  0.06296000  0.67831000  1.0
  O  O86  1  0.31637000  0.64604000  0.21692000  1.0
  O  O87  1  0.68363000  0.35396000  0.78308000  1.0
  O  O88  1  0.14089000  0.62130000  0.37667000  1.0
  O  O89  1  0.85911000  0.37870000  0.62333000  1.0
  O  O90  1  0.14328000  0.95274000  0.13168000  1.0
  O  O91  1  0.85672000  0.04726000  0.86832000  1.0
  O  O92  1  0.11666000  0.09913000  0.94740000  1.0
  O  O93  1  0.88334000  0.90087000  0.05260000  1.0
  O  O94  1  0.04760000  0.56691000  0.12813000  1.0
  O  O95  1  0.95240000  0.43309000  0.87187000  1.0
  O  O96  1  0.19829000  0.73805000  0.97312000  1.0
  O  O97  1  0.80171000  0.26195000  0.02688000  1.0
