# generated using pymatgen
data_CdH12C16(NO4)2
_symmetry_space_group_name_H-M   'P 1'
_cell_length_a   7.81398000
_cell_length_b   7.90745000
_cell_length_c   14.44180000
_cell_angle_alpha   77.01100000
_cell_angle_beta   89.99970000
_cell_angle_gamma   89.99990000
_symmetry_Int_Tables_number   1
_chemical_formula_structural   CdH12C16(NO4)2
_chemical_formula_sum   'Cd2 H24 C32 N4 O16'
_cell_volume   869.50733490
_cell_formula_units_Z   2
loop_
 _symmetry_equiv_pos_site_id
 _symmetry_equiv_pos_as_xyz
  1  'x, y, z'
loop_
 _atom_site_type_symbol
 _atom_site_label
 _atom_site_symmetry_multiplicity
 _atom_site_fract_x
 _atom_site_fract_y
 _atom_site_fract_z
 _atom_site_occupancy
  Cd  Cd0  1  0.30745000  0.50000000  0.75000000  1.0
  Cd  Cd1  1  0.69256000  0.50000000  0.25000000  1.0
  H  H2  1  0.80148000  0.74157000  0.69785000  1.0
  H  H3  1  0.80148000  0.25843000  0.80215000  1.0
  H  H4  1  0.19852000  0.25843000  0.30215000  1.0
  H  H5  1  0.19852000  0.74157000  0.19785000  1.0
  H  H6  1  0.53178000  0.91429000  0.64569000  1.0
  H  H7  1  0.53178000  0.08571000  0.85431000  1.0
  H  H8  1  0.46822000  0.08571000  0.35431000  1.0
  H  H9  1  0.46822000  0.91429000  0.14570000  1.0
  H  H10  1  0.81319000  0.35609000  0.52792000  1.0
  H  H11  1  0.81320000  0.64391000  0.97208000  1.0
  H  H12  1  0.18680000  0.64391000  0.47208000  1.0
  H  H13  1  0.18680000  0.35609000  0.02792000  1.0
  H  H14  1  0.09356000  0.20263000  0.57733000  1.0
  H  H15  1  0.09356000  0.79737000  0.92267000  1.0
  H  H16  1  0.90644000  0.79737000  0.42267000  1.0
  H  H17  1  0.90644000  0.20263000  0.07733000  1.0
  H  H18  1  0.41209000  0.13285000  0.54568000  1.0
  H  H19  1  0.41210000  0.86715000  0.95432000  1.0
  H  H20  1  0.58791000  0.86715000  0.45432000  1.0
  H  H21  1  0.58790000  0.13285000  0.04568000  1.0
  H  H22  1  0.53673000  0.30994000  0.47867000  1.0
  H  H23  1  0.53673000  0.69006000  0.02133000  1.0
  H  H24  1  0.46327000  0.69006000  0.52133000  1.0
  H  H25  1  0.46327000  0.30994000  0.97867000  1.0
  C  C26  1  0.12983000  0.84930000  0.65953000  1.0
  C  C27  1  0.12983000  0.15070000  0.84046000  1.0
  C  C28  1  0.87017000  0.15070000  0.34047000  1.0
  C  C29  1  0.87017000  0.84930000  0.15954000  1.0
  C  C30  1  0.96780000  0.95704000  0.63763000  1.0
  C  C31  1  0.96780000  0.04296000  0.86237000  1.0
  C  C32  1  0.03220000  0.04296000  0.36237000  1.0
  C  C33  1  0.03220000  0.95704000  0.13764000  1.0
  C  C34  1  0.80878000  0.87663000  0.65967000  1.0
  C  C35  1  0.80877000  0.12338000  0.84033000  1.0
  C  C36  1  0.19123000  0.12338000  0.34033000  1.0
  C  C37  1  0.19122000  0.87662000  0.15968000  1.0
  C  C38  1  0.66012000  0.96904000  0.63230000  1.0
  C  C39  1  0.66012000  0.03095000  0.86770000  1.0
  C  C40  1  0.33988000  0.03095000  0.36770000  1.0
  C  C41  1  0.33987000  0.96904000  0.13230000  1.0
  C  C42  1  0.82083000  0.22084000  0.56629000  1.0
  C  C43  1  0.82084000  0.77916000  0.93372000  1.0
  C  C44  1  0.17916000  0.77916000  0.43372000  1.0
  C  C45  1  0.17916000  0.22084000  0.06628000  1.0
  C  C46  1  0.97261000  0.13337000  0.59267000  1.0
  C  C47  1  0.97261000  0.86664000  0.90732000  1.0
  C  C48  1  0.02739000  0.86663000  0.40732000  1.0
  C  C49  1  0.02739000  0.13336000  0.09267000  1.0
  C  C50  1  0.51099000  0.22958000  0.54947000  1.0
  C  C51  1  0.51100000  0.77041000  0.95053000  1.0
  C  C52  1  0.48900000  0.77042000  0.45053000  1.0
  C  C53  1  0.48900000  0.22959000  0.04947000  1.0
  C  C54  1  0.44331000  0.34291000  0.61402000  1.0
  C  C55  1  0.44331000  0.65709000  0.88598000  1.0
  C  C56  1  0.55669000  0.65710000  0.38598000  1.0
  C  C57  1  0.55669000  0.34290000  0.11402000  1.0
  N  N58  1  0.66920000  0.13681000  0.58425000  1.0
  N  N59  1  0.66920000  0.86319000  0.91575000  1.0
  N  N60  1  0.33080000  0.86319000  0.41575000  1.0
  N  N61  1  0.33080000  0.13681000  0.08425000  1.0
  O  O62  1  0.26606000  0.90726000  0.61820000  1.0
  O  O63  1  0.26607000  0.09273000  0.88179000  1.0
  O  O64  1  0.73394000  0.09274000  0.38179000  1.0
  O  O65  1  0.73393000  0.90727000  0.11821000  1.0
  O  O66  1  0.10657000  0.70333000  0.71748000  1.0
  O  O67  1  0.10657000  0.29667000  0.78252000  1.0
  O  O68  1  0.89344000  0.29667000  0.28252000  1.0
  O  O69  1  0.89343000  0.70333000  0.21748000  1.0
  O  O70  1  0.51740000  0.33806000  0.69293000  1.0
  O  O71  1  0.51740000  0.66194000  0.80707000  1.0
  O  O72  1  0.48260000  0.66194000  0.30707000  1.0
  O  O73  1  0.48260000  0.33806000  0.19293000  1.0
  O  O74  1  0.31222000  0.43307000  0.58417000  1.0
  O  O75  1  0.31222000  0.56693000  0.91583000  1.0
  O  O76  1  0.68778000  0.56693000  0.41583000  1.0
  O  O77  1  0.68778000  0.43306000  0.08417000  1.0
