# generated using pymatgen
data_AlH6(C5O4)2
_symmetry_space_group_name_H-M   'P 1'
_cell_length_a   6.58441000
_cell_length_b   10.98410000
_cell_length_c   11.00920000
_cell_angle_alpha   83.07450000
_cell_angle_beta   73.46090000
_cell_angle_gamma   73.22660000
_symmetry_Int_Tables_number   1
_chemical_formula_structural   AlH6(C5O4)2
_chemical_formula_sum   'Al2 H12 C20 O16'
_cell_volume   730.16825720
_cell_formula_units_Z   2
loop_
 _symmetry_equiv_pos_site_id
 _symmetry_equiv_pos_as_xyz
  1  'x, y, z'
loop_
 _atom_site_type_symbol
 _atom_site_label
 _atom_site_symmetry_multiplicity
 _atom_site_fract_x
 _atom_site_fract_y
 _atom_site_fract_z
 _atom_site_occupancy
  Al  Al0  1  0.51037000  0.49675000  0.53602000  1.0
  Al  Al1  1  0.01246000  0.49434000  0.53316000  1.0
  H  H2  1  0.21766000  0.42544000  0.68527000  1.0
  H  H3  1  0.78522000  0.59324000  0.39179000  1.0
  H  H4  1  0.89968000  0.39160000  0.91931000  1.0
  H  H5  1  0.13189000  0.60544000  0.14914000  1.0
  H  H6  1  0.78798000  0.38830000  0.15611000  1.0
  H  H7  1  0.24454000  0.61002000  0.91165000  1.0
  H  H8  1  0.76710000  0.78193000  0.58528000  1.0
  H  H9  1  0.56019000  0.21184000  0.57832000  1.0
  H  H10  1  0.46636000  0.70582000  0.37574000  1.0
  H  H11  1  0.74816000  0.78946000  0.14914000  1.0
  H  H12  1  0.50549000  0.23199000  0.11972000  1.0
  H  H13  1  0.15718000  0.31077000  0.33567000  1.0
  C  C14  1  0.88888000  0.26729000  0.50022000  1.0
  C  C15  1  0.64260000  0.50092000  0.76120000  1.0
  C  C16  1  0.14054000  0.73056000  0.51469000  1.0
  C  C17  1  0.38475000  0.49326000  0.30653000  1.0
  C  C18  1  0.57842000  0.50078000  0.90190000  1.0
  C  C19  1  0.45279000  0.49663000  0.16592000  1.0
  C  C20  1  0.73264000  0.43943000  0.97020000  1.0
  C  C21  1  0.29907000  0.55866000  0.09765000  1.0
  C  C22  1  0.67045000  0.43741000  0.10202000  1.0
  C  C23  1  0.36137000  0.56094000  0.96610000  1.0
  C  C24  1  0.94438000  0.13583000  0.46311000  1.0
  C  C25  1  0.15440000  0.07103000  0.38096000  1.0
  C  C26  1  0.78846000  0.06712000  0.51943000  1.0
  C  C27  1  0.27984000  0.13728000  0.28477000  1.0
  C  C28  1  0.47668000  0.07529000  0.20090000  1.0
  C  C29  1  0.07755000  0.86448000  0.47250000  1.0
  C  C30  1  0.85508000  0.93033000  0.52244000  1.0
  C  C31  1  0.22633000  0.93335000  0.38821000  1.0
  C  C32  1  0.42588000  0.87423000  0.30105000  1.0
  C  C33  1  0.55083000  0.94294000  0.21015000  1.0
  O  O34  1  0.68447000  0.32407000  0.55085000  1.0
  O  O35  1  0.84712000  0.47583000  0.70399000  1.0
  O  O36  1  0.98920000  0.67137000  0.56060000  1.0
  O  O37  1  0.53526000  0.46673000  0.36448000  1.0
  O  O38  1  0.34381000  0.67242000  0.50975000  1.0
  O  O39  1  0.17910000  0.51785000  0.36196000  1.0
  O  O40  1  0.04123000  0.32318000  0.48944000  1.0
  O  O41  1  0.48806000  0.52524000  0.70612000  1.0
  O  O42  1  0.26121000  0.43700000  0.59349000  1.0
  O  O43  1  0.76000000  0.55578000  0.47747000  1.0
  O  O44  1  0.69607000  0.87606000  0.58620000  1.0
  O  O45  1  0.58035000  0.11761000  0.58325000  1.0
  O  O46  1  0.51145000  0.74475000  0.28858000  1.0
  O  O47  1  0.73865000  0.87982000  0.12704000  1.0
  O  O48  1  0.59030000  0.14261000  0.10818000  1.0
  O  O49  1  0.21451000  0.26592000  0.25498000  1.0
