# generated using pymatgen
data_BiH10C10N11
_symmetry_space_group_name_H-M   'P 1'
_cell_length_a   6.31294000
_cell_length_b   10.77770000
_cell_length_c   12.15251111
_cell_angle_alpha   63.76862888
_cell_angle_beta   89.99967097
_cell_angle_gamma   89.99850000
_symmetry_Int_Tables_number   1
_chemical_formula_structural   BiH10C10N11
_chemical_formula_sum   'Bi2 H20 C20 N22'
_cell_volume   741.69305007
_cell_formula_units_Z   2
loop_
 _symmetry_equiv_pos_site_id
 _symmetry_equiv_pos_as_xyz
  1  'x, y, z'
loop_
 _atom_site_type_symbol
 _atom_site_label
 _atom_site_symmetry_multiplicity
 _atom_site_fract_x
 _atom_site_fract_y
 _atom_site_fract_z
 _atom_site_occupancy
  Bi  Bi0  1  0.11799000  0.63094000  0.99996000  1.0
  Bi  Bi1  1  0.61799000  0.36907000  0.00003000  1.0
  H  H2  1  0.91645000  0.56971000  0.29074000  1.0
  H  H3  1  0.41643000  0.43029000  0.70926000  1.0
  H  H4  1  0.41685000  0.13904000  0.29125000  1.0
  H  H5  1  0.91686000  0.86097000  0.70875000  1.0
  H  H6  1  0.02539000  0.58090000  0.48548000  1.0
  H  H7  1  0.52537000  0.41909000  0.51452000  1.0
  H  H8  1  0.52745000  0.93409000  0.48569000  1.0
  H  H9  1  0.02743000  0.06591000  0.51431000  1.0
  H  H10  1  0.37321000  0.68791000  0.49203000  1.0
  H  H11  1  0.87320000  0.31208000  0.50797000  1.0
  H  H12  1  0.87541000  0.82094000  0.49129000  1.0
  H  H13  1  0.37539000  0.17906000  0.50871000  1.0
  H  H14  1  0.60609000  0.77626000  0.30324000  1.0
  H  H15  1  0.10610000  0.22374000  0.69676000  1.0
  H  H16  1  0.10656000  0.92098000  0.30199000  1.0
  H  H17  1  0.60654000  0.07903000  0.69800000  1.0
  H  H18  1  0.48057000  0.75120000  0.12000000  1.0
  H  H19  1  0.98057000  0.24880000  0.88000000  1.0
  H  H20  1  0.97993000  0.12887000  0.11915000  1.0
  H  H21  1  0.47993000  0.87114000  0.88084000  1.0
  C  C22  1  0.06843000  0.61390000  0.29820000  1.0
  C  C23  1  0.56841000  0.38610000  0.70180000  1.0
  C  C24  1  0.56903000  0.08770000  0.29835000  1.0
  C  C25  1  0.06902000  0.91230000  0.70165000  1.0
  C  C26  1  0.12885000  0.62048000  0.40565000  1.0
  C  C27  1  0.62884000  0.37950000  0.59436000  1.0
  C  C28  1  0.63021000  0.97409000  0.40564000  1.0
  C  C29  1  0.13020000  0.02591000  0.59436000  1.0
  C  C30  1  0.32389000  0.68001000  0.40922000  1.0
  C  C31  1  0.82389000  0.31999000  0.59078000  1.0
  C  C32  1  0.82529000  0.91133000  0.40867000  1.0
  C  C33  1  0.32527000  0.08867000  0.59133000  1.0
  C  C34  1  0.45294000  0.72885000  0.30543000  1.0
  C  C35  1  0.95294000  0.27115000  0.69457000  1.0
  C  C36  1  0.95348000  0.96605000  0.30451000  1.0
  C  C37  1  0.45347000  0.03395000  0.69548000  1.0
  C  C38  1  0.38229000  0.71680000  0.20205000  1.0
  C  C39  1  0.88228000  0.28320000  0.79795000  1.0
  C  C40  1  0.88224000  0.08119000  0.20143000  1.0
  C  C41  1  0.38223000  0.91882000  0.79857000  1.0
  N  N42  1  0.81119000  0.75034000  0.00032000  1.0
  N  N43  1  0.31117000  0.24967000  0.99969000  1.0
  N  N44  1  0.83726000  0.86259000  0.99979000  1.0
  N  N45  1  0.33725000  0.13741000  0.00021000  1.0
  N  N46  1  0.84966000  0.97041000  0.99931000  1.0
  N  N47  1  0.34965000  0.02961000  0.00069000  1.0
  N  N48  1  0.92205000  0.43450000  0.13171000  1.0
  N  N49  1  0.42205000  0.56551000  0.86829000  1.0
  N  N50  1  0.42168000  0.43335000  0.13263000  1.0
  N  N51  1  0.92168000  0.56665000  0.86738000  1.0
  N  N52  1  0.99217000  0.35453000  0.23047000  1.0
  N  N53  1  0.49216000  0.64548000  0.76952000  1.0
  N  N54  1  0.49336000  0.41439000  0.23117000  1.0
  N  N55  1  0.99336000  0.58561000  0.76883000  1.0
  N  N56  1  0.05244000  0.27500000  0.32605000  1.0
  N  N57  1  0.55243000  0.72500000  0.67394000  1.0
  N  N58  1  0.55637000  0.39784000  0.32650000  1.0
  N  N59  1  0.05638000  0.60215000  0.67351000  1.0
  N  N60  1  0.19367000  0.66114000  0.19825000  1.0
  N  N61  1  0.69366000  0.33885000  0.80176000  1.0
  N  N62  1  0.69357000  0.14037000  0.19812000  1.0
  N  N63  1  0.19357000  0.85963000  0.80188000  1.0
