# generated using pymatgen
data_CuH20C24N4O5
_symmetry_space_group_name_H-M   'P 1'
_cell_length_a   12.05100000
_cell_length_b   13.75140000
_cell_length_c   14.73440000
_cell_angle_alpha   89.99890000
_cell_angle_beta   100.73900000
_cell_angle_gamma   89.99960000
_symmetry_Int_Tables_number   1
_chemical_formula_structural   CuH20C24N4O5
_chemical_formula_sum   'Cu4 H80 C96 N16 O20'
_cell_volume   2398.99261685
_cell_formula_units_Z   4
loop_
 _symmetry_equiv_pos_site_id
 _symmetry_equiv_pos_as_xyz
  1  'x, y, z'
loop_
 _atom_site_type_symbol
 _atom_site_label
 _atom_site_symmetry_multiplicity
 _atom_site_fract_x
 _atom_site_fract_y
 _atom_site_fract_z
 _atom_site_occupancy
  Cu  Cu0  1  0.58032000  0.40637000  0.78965000  1.0
  Cu  Cu1  1  0.91969000  0.90640000  0.71037000  1.0
  Cu  Cu2  1  0.41963000  0.59360000  0.21034000  1.0
  Cu  Cu3  1  0.08036000  0.09366000  0.28966000  1.0
  H  H4  1  0.25781000  0.52208000  0.94612000  1.0
  H  H5  1  0.24219000  0.02206000  0.55388000  1.0
  H  H6  1  0.74216000  0.47793000  0.05391000  1.0
  H  H7  1  0.75780000  0.97794000  0.44605000  1.0
  H  H8  1  0.72057000  0.67269000  0.60264000  1.0
  H  H9  1  0.77945000  0.17273000  0.89736000  1.0
  H  H10  1  0.27942000  0.32726000  0.39734000  1.0
  H  H11  1  0.22055000  0.82729000  0.10265000  1.0
  H  H12  1  0.39698000  0.10441000  0.72574000  1.0
  H  H13  1  0.10303000  0.60440000  0.77427000  1.0
  H  H14  1  0.60298000  0.89558000  0.27426000  1.0
  H  H15  1  0.89702000  0.39561000  0.22574000  1.0
  H  H16  1  0.42080000  0.12752000  0.84649000  1.0
  H  H17  1  0.07922000  0.62754000  0.65351000  1.0
  H  H18  1  0.57918000  0.87248000  0.15351000  1.0
  H  H19  1  0.92079000  0.37250000  0.34648000  1.0
  H  H20  1  0.23171000  0.21509000  0.70082000  1.0
  H  H21  1  0.26827000  0.71514000  0.79918000  1.0
  H  H22  1  0.76825000  0.78490000  0.29917000  1.0
  H  H23  1  0.73173000  0.28494000  0.20080000  1.0
  H  H24  1  0.21229000  0.11513000  0.77505000  1.0
  H  H25  1  0.28774000  0.61513000  0.72498000  1.0
  H  H26  1  0.78768000  0.88486000  0.22495000  1.0
  H  H27  1  0.71232000  0.38486000  0.27505000  1.0
  H  H28  1  0.19926000  0.36210000  0.96676000  1.0
  H  H29  1  0.30077000  0.86216000  0.53326000  1.0
  H  H30  1  0.80072000  0.63789000  0.03324000  1.0
  H  H31  1  0.69925000  0.13792000  0.46675000  1.0
  H  H32  1  0.00988000  0.42966000  0.97376000  1.0
  H  H33  1  0.49015000  0.92969000  0.52627000  1.0
  H  H34  1  0.99009000  0.57032000  0.02626000  1.0
  H  H35  1  0.50990000  0.07037000  0.47374000  1.0
  H  H36  1  0.87230000  0.28391000  0.71999000  1.0
  H  H37  1  0.62771000  0.78384000  0.78003000  1.0
  H  H38  1  0.12767000  0.71614000  0.27998000  1.0
  H  H39  1  0.37234000  0.21614000  0.22000000  1.0
  H  H40  1  0.05887000  0.21683000  0.71153000  1.0
  H  H41  1  0.44111000  0.71682000  0.78850000  1.0
  H  H42  1  0.94109000  0.78321000  0.28844000  1.0
  H  H43  1  0.55893000  0.28318000  0.21154000  1.0
  H  H44  1  0.32931000  0.38545000  0.85123000  1.0
  H  H45  1  0.17070000  0.88544000  0.64875000  1.0
  H  H46  1  0.67061000  0.61454000  0.14876000  1.0
  H  H47  1  0.82936000  0.11453000  0.35119000  1.0
  H  H48  1  0.67240000  0.59736000  0.88130000  1.0
  H  H49  1  0.82761000  0.09737000  0.61872000  1.0
  H  H50  1  0.32758000  0.40256000  0.11873000  1.0
  H  H51  1  0.17243000  0.90258000  0.38129000  1.0
  H  H52  1  0.67166000  0.76036000  0.95759000  1.0
  H  H53  1  0.82837000  0.26037000  0.54242000  1.0
  H  H54  1  0.32837000  0.23957000  0.04242000  1.0
  H  H55  1  0.17165000  0.73959000  0.45759000  1.0
  H  H56  1  0.50323000  0.81915000  0.01325000  1.0
  H  H57  1  0.99677000  0.31916000  0.48675000  1.0
  H  H58  1  0.49680000  0.18082000  0.98678000  1.0
  H  H59  1  0.00321000  0.68083000  0.51322000  1.0
  H  H60  1  0.33146000  0.71503000  0.00255000  1.0
  H  H61  1  0.16855000  0.21504000  0.49744000  1.0
  H  H62  1  0.66855000  0.28495000  0.99748000  1.0
  H  H63  1  0.83144000  0.78494000  0.50249000  1.0
  H  H64  1  0.76512000  0.55625000  0.73697000  1.0
  H  H65  1  0.73487000  0.05629000  0.76303000  1.0
  H  H66  1  0.23486000  0.44370000  0.26301000  1.0
  H  H67  1  0.26511000  0.94375000  0.23699000  1.0
  H  H68  1  0.35717000  0.46352000  0.64738000  1.0
  H  H69  1  0.14284000  0.96354000  0.85260000  1.0
  H  H70  1  0.64280000  0.53646000  0.35258000  1.0
  H  H71  1  0.85716000  0.03649000  0.14740000  1.0
  H  H72  1  0.23821000  0.54285000  0.50934000  1.0
  H  H73  1  0.26179000  0.04283000  0.99064000  1.0
  H  H74  1  0.76178000  0.45715000  0.49061000  1.0
  H  H75  1  0.73819000  0.95718000  0.00938000  1.0
  H  H76  1  0.32233000  0.65843000  0.41248000  1.0
  H  H77  1  0.17769000  0.15841000  0.08751000  1.0
  H  H78  1  0.67769000  0.34156000  0.58748000  1.0
  H  H79  1  0.82228000  0.84160000  0.91251000  1.0
  H  H80  1  0.52431000  0.70615000  0.45347000  1.0
  H  H81  1  0.97572000  0.20616000  0.04652000  1.0
  H  H82  1  0.47571000  0.29383000  0.54651000  1.0
  H  H83  1  0.02426000  0.79387000  0.95349000  1.0
  C  C84  1  0.45129000  0.25066000  0.76188000  1.0
  C  C85  1  0.04870000  0.75065000  0.73812000  1.0
  C  C86  1  0.54868000  0.74932000  0.23811000  1.0
  C  C87  1  0.95131000  0.24934000  0.26188000  1.0
  C  C88  1  0.38678000  0.15876000  0.77849000  1.0
  C  C89  1  0.11324000  0.65876000  0.72152000  1.0
  C  C90  1  0.61320000  0.84123000  0.22151000  1.0
  C  C91  1  0.88679000  0.34126000  0.27848000  1.0
  C  C92  1  0.26191000  0.18109000  0.76837000  1.0
  C  C93  1  0.23811000  0.68110000  0.73165000  1.0
  C  C94  1  0.73806000  0.81890000  0.23163000  1.0
  C  C95  1  0.76193000  0.31891000  0.26836000  1.0
  C  C96  1  0.14204000  0.28537000  0.83867000  1.0
  C  C97  1  0.35798000  0.78540000  0.66136000  1.0
  C  C98  1  0.85793000  0.71463000  0.16133000  1.0
  C  C99  1  0.64208000  0.21465000  0.33866000  1.0
  C  C100  1  0.12765000  0.34725000  0.91158000  1.0
  C  C101  1  0.37237000  0.84728000  0.58844000  1.0
  C  C102  1  0.87232000  0.65274000  0.08841000  1.0
  C  C103  1  0.62766000  0.15277000  0.41158000  1.0
  C  C104  1  0.02135000  0.38423000  0.91567000  1.0
  C  C105  1  0.47868000  0.88425000  0.58435000  1.0
  C  C106  1  0.97862000  0.61576000  0.08435000  1.0
  C  C107  1  0.52136000  0.11580000  0.41564000  1.0
  C  C108  1  0.92767000  0.36106000  0.84718000  1.0
  C  C109  1  0.57237000  0.86105000  0.65285000  1.0
  C  C110  1  0.07230000  0.63894000  0.15283000  1.0
  C  C111  1  0.42768000  0.13896000  0.34716000  1.0
  C  C112  1  0.94440000  0.30203000  0.77345000  1.0
  C  C113  1  0.55561000  0.80199000  0.72659000  1.0
  C  C114  1  0.05557000  0.69800000  0.22655000  1.0
  C  C115  1  0.44444000  0.19800000  0.27344000  1.0
  C  C116  1  0.04986000  0.26406000  0.76866000  1.0
  C  C117  1  0.45015000  0.76406000  0.73136000  1.0
  C  C118  1  0.95011000  0.73597000  0.23132000  1.0
  C  C119  1  0.54989000  0.23596000  0.26867000  1.0
  C  C120  1  0.81094000  0.39375000  0.85349000  1.0
  C  C121  1  0.68910000  0.89371000  0.64656000  1.0
  C  C122  1  0.18902000  0.60624000  0.14651000  1.0
  C  C123  1  0.31096000  0.10628000  0.35347000  1.0
  C  C124  1  0.37193000  0.45382000  0.87113000  1.0
  C  C125  1  0.12808000  0.95381000  0.62887000  1.0
  C  C126  1  0.62801000  0.54616000  0.12888000  1.0
  C  C127  1  0.87197000  0.04616000  0.37109000  1.0
  C  C128  1  0.49977000  0.56822000  0.89536000  1.0
  C  C129  1  0.00023000  0.06822000  0.60465000  1.0
  C  C130  1  0.50019000  0.43175000  0.10465000  1.0
  C  C131  1  0.99981000  0.93176000  0.39536000  1.0
  C  C132  1  0.59784000  0.62470000  0.90479000  1.0
  C  C133  1  0.90218000  0.12470000  0.59521000  1.0
  C  C134  1  0.40215000  0.37525000  0.09522000  1.0
  C  C135  1  0.09786000  0.87528000  0.40479000  1.0
  C  C136  1  0.59645000  0.71480000  0.94767000  1.0
  C  C137  1  0.90356000  0.21480000  0.55233000  1.0
  C  C138  1  0.40354000  0.28516000  0.05233000  1.0
  C  C139  1  0.09647000  0.78519000  0.44768000  1.0
  C  C140  1  0.50062000  0.74829000  0.98010000  1.0
  C  C141  1  0.99939000  0.24830000  0.51989000  1.0
  C  C142  1  0.49939000  0.25169000  0.01991000  1.0
  C  C143  1  0.00062000  0.75171000  0.48009000  1.0
  C  C144  1  0.40401000  0.69154000  0.97407000  1.0
  C  C145  1  0.09600000  0.19154000  0.52594000  1.0
  C  C146  1  0.59599000  0.30844000  0.02595000  1.0
  C  C147  1  0.90401000  0.80845000  0.47404000  1.0
  C  C148  1  0.40607000  0.60077000  0.93240000  1.0
  C  C149  1  0.09395000  0.10078000  0.56760000  1.0
  C  C150  1  0.59391000  0.39921000  0.06761000  1.0
  C  C151  1  0.90607000  0.89922000  0.43238000  1.0
  C  C152  1  0.68313000  0.56370000  0.69241000  1.0
  C  C153  1  0.81685000  0.06373000  0.80759000  1.0
  C  C154  1  0.31684000  0.43627000  0.30758000  1.0
  C  C155  1  0.18314000  0.93632000  0.19241000  1.0
  C  C156  1  0.50475000  0.54678000  0.63117000  1.0
  C  C157  1  0.99524000  0.04679000  0.86883000  1.0
  C  C158  1  0.49522000  0.45321000  0.36882000  1.0
  C  C159  1  0.00476000  0.95326000  0.13117000  1.0
  C  C160  1  0.39113000  0.51945000  0.60792000  1.0
  C  C161  1  0.10887000  0.01945000  0.89206000  1.0
  C  C162  1  0.60885000  0.48054000  0.39205000  1.0
  C  C163  1  0.89112000  0.98059000  0.10795000  1.0
  C  C164  1  0.32699000  0.56272000  0.52995000  1.0
  C  C165  1  0.17302000  0.06271000  0.97004000  1.0
  C  C166  1  0.67301000  0.43728000  0.47001000  1.0
  C  C167  1  0.82697000  0.93731000  0.02999000  1.0
  C  C168  1  0.37420000  0.62957000  0.47533000  1.0
  C  C169  1  0.12582000  0.12956000  0.02467000  1.0
  C  C170  1  0.62581000  0.37042000  0.52465000  1.0
  C  C171  1  0.87416000  0.87046000  0.97535000  1.0
  C  C172  1  0.48707000  0.65731000  0.49769000  1.0
  C  C173  1  0.01294000  0.15732000  0.00231000  1.0
  C  C174  1  0.51293000  0.34267000  0.50229000  1.0
  C  C175  1  0.98704000  0.84270000  0.99771000  1.0
  C  C176  1  0.55066000  0.61572000  0.57691000  1.0
  C  C177  1  0.94934000  0.11573000  0.92309000  1.0
  C  C178  1  0.44932000  0.38426000  0.42308000  1.0
  C  C179  1  0.05066000  0.88431000  0.07691000  1.0
  N  N180  1  0.47430000  0.47652000  0.85635000  1.0
  N  N181  1  0.02571000  0.97652000  0.64365000  1.0
  N  N182  1  0.52565000  0.52345000  0.14366000  1.0
  N  N183  1  0.97434000  0.02346000  0.35634000  1.0
  N  N184  1  0.32734000  0.52645000  0.91589000  1.0
  N  N185  1  0.17267000  0.02645000  0.58412000  1.0
  N  N186  1  0.67263000  0.47354000  0.08413000  1.0
  N  N187  1  0.82736000  0.97355000  0.41584000  1.0
  N  N188  1  0.59070000  0.51548000  0.70221000  1.0
  N  N189  1  0.90930000  0.01550000  0.79779000  1.0
  N  N190  1  0.40927000  0.48450000  0.29778000  1.0
  N  N191  1  0.09071000  0.98455000  0.20220000  1.0
  N  N192  1  0.66350000  0.62432000  0.61848000  1.0
  N  N193  1  0.83651000  0.12434000  0.88152000  1.0
  N  N194  1  0.33648000  0.37566000  0.38151000  1.0
  N  N195  1  0.16349000  0.87569000  0.11848000  1.0
  O  O196  1  0.54119000  0.27058000  0.82198000  1.0
  O  O197  1  0.95878000  0.77059000  0.67802000  1.0
  O  O198  1  0.45876000  0.72942000  0.17802000  1.0
  O  O199  1  0.04119000  0.22944000  0.32200000  1.0
  O  O200  1  0.41390000  0.30423000  0.69412000  1.0
  O  O201  1  0.08609000  0.80422000  0.80589000  1.0
  O  O202  1  0.58608000  0.69574000  0.30586000  1.0
  O  O203  1  0.91395000  0.19579000  0.19411000  1.0
  O  O204  1  0.24789000  0.24839000  0.84085000  1.0
  O  O205  1  0.25213000  0.74842000  0.65919000  1.0
  O  O206  1  0.75207000  0.75159000  0.15916000  1.0
  O  O207  1  0.74794000  0.25162000  0.34084000  1.0
  O  O208  1  0.79167000  0.44485000  0.91979000  1.0
  O  O209  1  0.70843000  0.94479000  0.58027000  1.0
  O  O210  1  0.20829000  0.55518000  0.08019000  1.0
  O  O211  1  0.29168000  0.05520000  0.41978000  1.0
  O  O212  1  0.73384000  0.36366000  0.78519000  1.0
  O  O213  1  0.76619000  0.86365000  0.71489000  1.0
  O  O214  1  0.26612000  0.63630000  0.21483000  1.0
  O  O215  1  0.23387000  0.13636000  0.28516000  1.0
