# generated using pymatgen
data_MgH9C18O5
_symmetry_space_group_name_H-M   'P 1'
_cell_length_a   6.91732000
_cell_length_b   43.61600000
_cell_length_c   43.61880000
_cell_angle_alpha   119.72700000
_cell_angle_beta   93.03490000
_cell_angle_gamma   93.02710000
_symmetry_Int_Tables_number   1
_chemical_formula_structural   MgH9C18O5
_chemical_formula_sum   'Mg6 H54 C108 O30'
_cell_volume   11364.60007986
_cell_formula_units_Z   6
loop_
 _symmetry_equiv_pos_site_id
 _symmetry_equiv_pos_as_xyz
  1  'x, y, z'
loop_
 _atom_site_type_symbol
 _atom_site_label
 _atom_site_symmetry_multiplicity
 _atom_site_fract_x
 _atom_site_fract_y
 _atom_site_fract_z
 _atom_site_occupancy
  Mg  Mg0  1  0.98700000  0.67030000  0.31142000  1.0
  Mg  Mg1  1  0.67563000  0.68858000  0.35888000  1.0
  Mg  Mg2  1  0.31660000  0.64111000  0.32971000  1.0
  Mg  Mg3  1  0.70553000  0.33745000  0.69235000  1.0
  Mg  Mg4  1  0.01330000  0.30768000  0.64509000  1.0
  Mg  Mg5  1  0.36818000  0.35496000  0.66258000  1.0
  H  H6  1  0.87721000  0.98785000  0.62445000  1.0
  H  H7  1  0.25360000  0.37554000  0.36341000  1.0
  H  H8  1  0.89001000  0.63656000  0.01218000  1.0
  H  H9  1  0.30101000  0.97234000  0.55397000  1.0
  H  H10  1  0.74748000  0.44594000  0.41826000  1.0
  H  H11  1  0.32895000  0.58171000  0.02770000  1.0
  H  H12  1  0.38679000  0.84998000  0.46558000  1.0
  H  H13  1  0.92187000  0.53445000  0.38436000  1.0
  H  H14  1  0.53739000  0.61561000  0.15006000  1.0
  H  H15  1  0.68181000  0.83456000  0.42509000  1.0
  H  H16  1  0.25722000  0.57489000  0.40953000  1.0
  H  H17  1  0.84764000  0.59043000  0.16535000  1.0
  H  H18  1  0.82355000  0.89021000  0.47843000  1.0
  H  H19  1  0.34590000  0.52155000  0.41179000  1.0
  H  H20  1  0.93402000  0.58811000  0.10972000  1.0
  H  H21  1  0.71611000  0.77211000  0.37977000  1.0
  H  H22  1  0.33654000  0.62022000  0.39240000  1.0
  H  H23  1  0.94375000  0.60767000  0.22782000  1.0
  H  H24  1  0.41764000  0.78718000  0.42042000  1.0
  H  H25  1  0.99735000  0.57963000  0.36676000  1.0
  H  H26  1  0.63057000  0.63322000  0.21290000  1.0
  H  H27  1  0.46975000  0.86641000  0.51491000  1.0
  H  H28  1  0.95563000  0.48512000  0.35154000  1.0
  H  H29  1  0.60351000  0.64851000  0.13361000  1.0
  H  H30  1  0.79541000  0.89195000  0.54701000  1.0
  H  H31  1  0.24914000  0.45299000  0.34497000  1.0
  H  H32  1  0.90377000  0.65502000  0.10807000  1.0
  H  H33  1  0.00412000  0.94920000  0.56257000  1.0
  H  H34  1  0.44217000  0.43740000  0.38658000  1.0
  H  H35  1  0.05528000  0.61337000  0.05085000  1.0
  H  H36  1  0.45802000  0.01898000  0.55861000  1.0
  H  H37  1  0.89967000  0.44135000  0.46030000  1.0
  H  H38  1  0.43896000  0.53970000  0.98107000  1.0
  H  H39  1  0.28752000  0.14584000  0.59976000  1.0
  H  H40  1  0.68754000  0.40020000  0.54601000  1.0
  H  H41  1  0.14123000  0.45403000  0.85419000  1.0
  H  H42  1  0.00499000  0.17087000  0.63180000  1.0
  H  H43  1  0.37299000  0.36816000  0.53900000  1.0
  H  H44  1  0.83378000  0.46095000  0.82915000  1.0
  H  H45  1  0.84603000  0.11069000  0.60932000  1.0
  H  H46  1  0.23654000  0.39065000  0.50131000  1.0
  H  H47  1  0.73515000  0.49860000  0.88935000  1.0
  H  H48  1  0.97893000  0.23464000  0.65221000  1.0
  H  H49  1  0.32660000  0.34777000  0.58237000  1.0
  H  H50  1  0.74402000  0.41761000  0.76540000  1.0
  H  H51  1  0.26728000  0.21006000  0.61704000  1.0
  H  H52  1  0.65034000  0.38302000  0.59303000  1.0
  H  H53  1  0.05685000  0.40706000  0.78998000  1.0
  H  H54  1  0.64822000  0.11178000  0.65823000  1.0
  H  H55  1  0.98990000  0.34172000  0.45348000  1.0
  H  H56  1  0.53668000  0.54645000  0.88825000  1.0
  H  H57  1  0.80426000  0.07409000  0.67878000  1.0
  H  H58  1  0.12593000  0.32120000  0.39530000  1.0
  H  H59  1  0.73095000  0.60464000  0.92592000  1.0
  C  C60  1  0.72636000  0.02565000  0.63002000  1.0
  C  C61  1  0.09700000  0.36997000  0.39562000  1.0
  C  C62  1  0.70144000  0.60433000  0.97436000  1.0
  C  C63  1  0.62278000  0.00886000  0.59576000  1.0
  C  C64  1  0.02754000  0.40422000  0.41307000  1.0
  C  C65  1  0.61429000  0.58690000  0.99116000  1.0
  C  C66  1  0.58965000  0.96986000  0.57260000  1.0
  C  C67  1  0.01775000  0.42738000  0.39724000  1.0
  C  C68  1  0.62013000  0.60276000  0.03016000  1.0
  C  C69  1  0.41089000  0.95481000  0.55261000  1.0
  C  C70  1  0.85895000  0.44734000  0.40216000  1.0
  C  C71  1  0.45646000  0.59784000  0.04521000  1.0
  C  C72  1  0.36615000  0.91806000  0.52998000  1.0
  C  C73  1  0.83682000  0.47000000  0.38806000  1.0
  C  C74  1  0.44840000  0.61193000  0.08195000  1.0
  C  C75  1  0.17261000  0.90753000  0.51013000  1.0
  C  C76  1  0.66304000  0.48983000  0.39735000  1.0
  C  C77  1  0.26543000  0.60260000  0.09248000  1.0
  C  C78  1  0.11305000  0.87343000  0.47681000  1.0
  C  C79  1  0.63688000  0.52314000  0.39657000  1.0
  C  C80  1  0.24018000  0.60336000  0.12657000  1.0
  C  C81  1  0.23121000  0.84656000  0.45810000  1.0
  C  C82  1  0.77372000  0.54190000  0.38845000  1.0
  C  C83  1  0.38518000  0.61152000  0.15345000  1.0
  C  C84  1  0.15243000  0.81365000  0.42874000  1.0
  C  C85  1  0.72410000  0.57128000  0.38494000  1.0
  C  C86  1  0.33910000  0.61506000  0.18635000  1.0
  C  C87  1  0.94966000  0.80882000  0.41681000  1.0
  C  C88  1  0.53326000  0.58321000  0.39206000  1.0
  C  C89  1  0.14105000  0.60795000  0.19114000  1.0
  C  C90  1  0.83455000  0.83765000  0.43470000  1.0
  C  C91  1  0.40039000  0.56530000  0.40299000  1.0
  C  C92  1  0.99729000  0.59699000  0.16229000  1.0
  C  C93  1  0.91241000  0.86845000  0.46395000  1.0
  C  C94  1  0.44909000  0.53603000  0.40449000  1.0
  C  C95  1  0.04450000  0.59544000  0.13151000  1.0
  C  C96  1  0.87010000  0.77584000  0.38874000  1.0
  C  C97  1  0.48158000  0.61127000  0.38715000  1.0
  C  C98  1  0.09411000  0.61287000  0.22411000  1.0
  C  C99  1  0.97799000  0.74665000  0.37276000  1.0
  C  C100  1  0.60520000  0.62725000  0.37390000  1.0
  C  C101  1  0.23101000  0.62610000  0.25334000  1.0
  C  C102  1  0.18343000  0.75136000  0.38458000  1.0
  C  C103  1  0.79881000  0.61544000  0.36678000  1.0
  C  C104  1  0.43182000  0.63324000  0.24867000  1.0
  C  C105  1  0.26396000  0.78451000  0.41158000  1.0
  C  C106  1  0.85256000  0.58847000  0.37296000  1.0
  C  C107  1  0.47951000  0.62705000  0.21552000  1.0
  C  C108  1  0.30985000  0.72179000  0.37074000  1.0
  C  C109  1  0.93904000  0.62928000  0.35107000  1.0
  C  C110  1  0.58787000  0.64894000  0.27824000  1.0
  C  C111  1  0.50417000  0.89500000  0.52898000  1.0
  C  C112  1  0.97598000  0.47104000  0.36606000  1.0
  C  C113  1  0.60952000  0.63396000  0.10501000  1.0
  C  C114  1  0.68468000  0.90913000  0.54774000  1.0
  C  C115  1  0.13770000  0.45227000  0.36142000  1.0
  C  C116  1  0.77591000  0.63858000  0.09088000  1.0
  C  C117  1  0.73078000  0.94594000  0.56786000  1.0
  C  C118  1  0.16365000  0.43212000  0.37808000  1.0
  C  C119  1  0.78524000  0.62190000  0.05407000  1.0
  C  C120  1  0.53521000  0.03069000  0.58493000  1.0
  C  C121  1  0.95053000  0.41503000  0.44569000  1.0
  C  C122  1  0.50465000  0.55428000  0.96934000  1.0
  C  C123  1  0.54652000  0.06751000  0.60631000  1.0
  C  C124  1  0.94041000  0.39366000  0.46114000  1.0
  C  C125  1  0.47917000  0.53881000  0.93251000  1.0
  C  C126  1  0.45505000  0.08904000  0.59257000  1.0
  C  C127  1  0.86248000  0.40739000  0.49640000  1.0
  C  C128  1  0.36585000  0.50358000  0.91098000  1.0
  C  C129  1  0.55335000  0.12503000  0.60458000  1.0
  C  C130  1  0.94862000  0.39541000  0.52041000  1.0
  C  C131  1  0.42799000  0.47959000  0.87499000  1.0
  C  C132  1  0.44378000  0.15185000  0.60735000  1.0
  C  C133  1  0.83627000  0.39265000  0.54445000  1.0
  C  C134  1  0.29150000  0.45559000  0.84818000  1.0
  C  C135  1  0.53095000  0.18670000  0.62046000  1.0
  C  C136  1  0.91038000  0.37954000  0.56621000  1.0
  C  C137  1  0.34385000  0.43383000  0.81333000  1.0
  C  C138  1  0.73727000  0.19398000  0.63019000  1.0
  C  C139  1  0.10690000  0.36978000  0.56373000  1.0
  C  C140  1  0.54290000  0.43629000  0.80605000  1.0
  C  C141  1  0.84788000  0.16559000  0.62526000  1.0
  C  C142  1  0.22239000  0.37469000  0.54025000  1.0
  C  C143  1  0.68193000  0.45972000  0.83444000  1.0
  C  C144  1  0.75875000  0.13219000  0.61304000  1.0
  C  C145  1  0.14554000  0.38693000  0.51908000  1.0
  C  C146  1  0.62630000  0.48087000  0.86786000  1.0
  C  C147  1  0.82292000  0.22884000  0.64460000  1.0
  C  C148  1  0.17827000  0.35541000  0.58421000  1.0
  C  C149  1  0.59380000  0.41582000  0.77120000  1.0
  C  C150  1  0.71566000  0.25693000  0.65010000  1.0
  C  C151  1  0.06561000  0.34994000  0.60683000  1.0
  C  C152  1  0.45847000  0.39323000  0.74310000  1.0
  C  C153  1  0.50815000  0.24955000  0.63945000  1.0
  C  C154  1  0.86875000  0.36060000  0.61011000  1.0
  C  C155  1  0.25832000  0.38995000  0.75048000  1.0
  C  C156  1  0.42308000  0.21503000  0.62505000  1.0
  C  C157  1  0.79805000  0.37499000  0.58998000  1.0
  C  C158  1  0.20767000  0.41008000  0.78500000  1.0
  C  C159  1  0.38211000  0.27727000  0.64271000  1.0
  C  C160  1  0.73948000  0.35735000  0.63458000  1.0
  C  C161  1  0.10466000  0.36548000  0.72276000  1.0
  C  C162  1  0.64204000  0.08318000  0.64066000  1.0
  C  C163  1  0.00151000  0.35930000  0.44246000  1.0
  C  C164  1  0.55917000  0.55748000  0.91684000  1.0
  C  C165  1  0.72852000  0.06246000  0.65235000  1.0
  C  C166  1  0.07656000  0.34763000  0.41008000  1.0
  C  C167  1  0.66666667  0.58985000  0.93755000  1.0
  O  O168  1  0.48819000  0.72647000  0.38220000  1.0
  O  O169  1  0.10589000  0.61781000  0.34428000  1.0
  O  O170  1  0.76152000  0.65572000  0.27356000  1.0
  O  O171  1  0.23363000  0.69066000  0.34667000  1.0
  O  O172  1  0.88706000  0.65337000  0.34404000  1.0
  O  O173  1  0.54285000  0.65596000  0.30935000  1.0
  O  O174  1  0.88498000  0.71546000  0.34794000  1.0
  O  O175  1  0.53690000  0.65208000  0.36755000  1.0
  O  O176  1  0.16905000  0.63244000  0.28451000  1.0
  O  O177  1  0.20289000  0.26976000  0.63137000  1.0
  O  O178  1  0.57171000  0.36874000  0.63845000  1.0
  O  O179  1  0.93296000  0.36161000  0.73026000  1.0
  O  O180  1  0.45982000  0.30959000  0.65772000  1.0
  O  O181  1  0.80215000  0.34230000  0.65186000  1.0
  O  O182  1  0.15010000  0.34820000  0.69044000  1.0
  O  O183  1  0.80904000  0.28958000  0.66485000  1.0
  O  O184  1  0.14432000  0.33518000  0.62470000  1.0
  O  O185  1  0.51928000  0.37534000  0.71047000  1.0
  O  O186  1  0.81959000  0.00799000  0.64380000  1.0
  O  O187  1  0.17672000  0.35618000  0.36421000  1.0
  O  O188  1  0.81254000  0.63574000  0.99200000  1.0
  O  O189  1  0.04512000  0.92904000  0.52182000  1.0
  O  O190  1  0.52374000  0.47814000  0.40714000  1.0
  O  O191  1  0.11636000  0.59280000  0.07099000  1.0
  O  O192  1  0.91695000  0.95900000  0.58269000  1.0
  O  O193  1  0.33489000  0.41726000  0.37628000  1.0
  O  O194  1  0.95835000  0.62369000  0.04103000  1.0
  O  O195  1  0.30450000  0.07771000  0.57217000  1.0
  O  O196  1  0.73230000  0.42778000  0.50542000  1.0
  O  O197  1  0.22647000  0.49455000  0.92230000  1.0
