# generated using pymatgen
data_Zn3H13(C13O6)2
_symmetry_space_group_name_H-M   'P 1'
_cell_length_a   18.88890000
_cell_length_b   18.92060000
_cell_length_c   18.88990000
_cell_angle_alpha   109.36200000
_cell_angle_beta   109.25900000
_cell_angle_gamma   109.36000000
_symmetry_Int_Tables_number   1
_chemical_formula_structural   Zn3H13(C13O6)2
_chemical_formula_sum   'Zn6 H26 C52 O24'
_cell_volume   5224.52101751
_cell_formula_units_Z   2
loop_
 _symmetry_equiv_pos_site_id
 _symmetry_equiv_pos_as_xyz
  1  'x, y, z'
loop_
 _atom_site_type_symbol
 _atom_site_label
 _atom_site_symmetry_multiplicity
 _atom_site_fract_x
 _atom_site_fract_y
 _atom_site_fract_z
 _atom_site_occupancy
  Zn  Zn0  1  0.94070000  0.44276000  0.00032000  1.0
  Zn  Zn1  1  0.05868000  0.55748000  0.99950000  1.0
  Zn  Zn2  1  0.50046000  0.44245000  0.44132000  1.0
  Zn  Zn3  1  0.49962000  0.55717000  0.55929000  1.0
  Zn  Zn4  1  0.94173000  0.00007000  0.44197000  1.0
  Zn  Zn5  1  0.05799000  0.99981000  0.55820000  1.0
  H  H6  1  0.26308000  0.50757000  0.13034000  1.0
  H  H7  1  0.99221000  0.61986000  0.26029000  1.0
  H  H8  1  0.88042000  0.50437000  0.73886000  1.0
  H  H9  1  0.76116000  0.49572000  0.61962000  1.0
  H  H10  1  0.62483000  0.50188000  0.76212000  1.0
  H  H11  1  0.73787000  0.49804000  0.87514000  1.0
  H  H12  1  0.13721000  0.37647000  0.87455000  1.0
  H  H13  1  0.13784000  0.25966000  0.76230000  1.0
  H  H14  1  0.86043000  0.12467000  0.62194000  1.0
  H  H15  1  0.85989000  0.23521000  0.74050000  1.0
  H  H16  1  0.75944000  0.76476000  0.64010000  1.0
  H  H17  1  0.05617000  0.50882000  0.22491000  1.0
  H  H18  1  0.87802000  0.87528000  0.63954000  1.0
  H  H19  1  0.73763000  0.74024000  0.36215000  1.0
  H  H20  1  0.62536000  0.62347000  0.36279000  1.0
  H  H21  1  0.23958000  0.38002000  0.50772000  1.0
  H  H22  1  0.12155000  0.26088000  0.50006000  1.0
  H  H23  1  0.26175000  0.12241000  0.49786000  1.0
  H  H24  1  0.37340000  0.23560000  0.49281000  1.0
  H  H25  1  0.04235000  0.50541000  0.34911000  1.0
  H  H26  1  0.27501000  0.49097000  0.44371000  1.0
  H  H27  1  0.36968000  0.49244000  0.23694000  1.0
  H  H28  1  0.00714000  0.76433000  0.12654000  1.0
  H  H29  1  0.00208000  0.87749000  0.23820000  1.0
  H  H30  1  0.99985000  0.73897000  0.37833000  1.0
  H  H31  1  0.15075000  0.49427000  0.45749000  1.0
  C  C32  1  0.99699000  0.61559000  0.11806000  1.0
  C  C33  1  0.17448000  0.50183000  0.26164000  1.0
  C  C34  1  0.18548000  0.50505000  0.19121000  1.0
  C  C35  1  0.25570000  0.50382000  0.18405000  1.0
  C  C36  1  0.31597000  0.49616000  0.24431000  1.0
  C  C37  1  0.30878000  0.49489000  0.31449000  1.0
  C  C38  1  0.00363000  0.75858000  0.18095000  1.0
  C  C39  1  0.00178000  0.82170000  0.24326000  1.0
  C  C40  1  0.00073000  0.81454000  0.31450000  1.0
  C  C41  1  0.99952000  0.74290000  0.32199000  1.0
  C  C42  1  0.99611000  0.67735000  0.25705000  1.0
  C  C43  1  0.11985000  0.50559000  0.12081000  1.0
  C  C44  1  0.99907000  0.68535000  0.18677000  1.0
  C  C45  1  0.82332000  0.50210000  0.74232000  1.0
  C  C46  1  0.75768000  0.49795000  0.67669000  1.0
  C  C47  1  0.68648000  0.49844000  0.68431000  1.0
  C  C48  1  0.68013000  0.50056000  0.75684000  1.0
  C  C49  1  0.74315000  0.49937000  0.81984000  1.0
  C  C50  1  0.81570000  0.50154000  0.81350000  1.0
  C  C51  1  0.07706000  0.32006000  0.81996000  1.0
  C  C52  1  0.07738000  0.25579000  0.75730000  1.0
  C  C53  1  0.99907000  0.18560000  0.68569000  1.0
  C  C54  1  0.99865000  0.38006000  0.88293000  1.0
  C  C55  1  0.92058000  0.17913000  0.67846000  1.0
  C  C56  1  0.92030000  0.24073000  0.74379000  1.0
  C  C57  1  0.99855000  0.31201000  0.81426000  1.0
  C  C58  1  0.61700000  0.61988000  0.50136000  1.0
  C  C59  1  0.37917000  0.49433000  0.38012000  1.0
  C  C60  1  0.38186000  0.38432000  0.50297000  1.0
  C  C61  1  0.61778000  0.49776000  0.61582000  1.0
  C  C62  1  0.88258000  0.88234000  0.50070000  1.0
  C  C63  1  0.00045000  0.88284000  0.38242000  1.0
  C  C64  1  0.11752000  0.11705000  0.49949000  1.0
  C  C65  1  0.88420000  0.50221000  0.88219000  1.0
  C  C66  1  0.99927000  0.11755000  0.61737000  1.0
  C  C67  1  0.75614000  0.75923000  0.57968000  1.0
  C  C68  1  0.82149000  0.82082000  0.57939000  1.0
  C  C69  1  0.81425000  0.81431000  0.50089000  1.0
  C  C70  1  0.74263000  0.74412000  0.42260000  1.0
  C  C71  1  0.67996000  0.67987000  0.42292000  1.0
  C  C72  1  0.68566000  0.68793000  0.50143000  1.0
  C  C73  1  0.24284000  0.32254000  0.50382000  1.0
  C  C74  1  0.17790000  0.25696000  0.50041000  1.0
  C  C75  1  0.18541000  0.18533000  0.49921000  1.0
  C  C76  1  0.10436000  0.50504000  0.27246000  1.0
  C  C77  1  0.25668000  0.17820000  0.49818000  1.0
  C  C78  1  0.31898000  0.24133000  0.49632000  1.0
  C  C79  1  0.31313000  0.31455000  0.50087000  1.0
  C  C80  1  0.09653000  0.50285000  0.34180000  1.0
  C  C81  1  0.15808000  0.49689000  0.40335000  1.0
  C  C82  1  0.22747000  0.49479000  0.39557000  1.0
  C  C83  1  0.23831000  0.49803000  0.32546000  1.0
  O  O84  1  0.95924000  0.53917000  0.10590000  1.0
  O  O85  1  0.60364000  0.64248000  0.56541000  1.0
  O  O86  1  0.39609000  0.43369000  0.35387000  1.0
  O  O87  1  0.41854000  0.55635000  0.45752000  1.0
  O  O88  1  0.42374000  0.36277000  0.46708000  1.0
  O  O89  1  0.39402000  0.46074000  0.54072000  1.0
  O  O90  1  0.60565000  0.46272000  0.53902000  1.0
  O  O91  1  0.57615000  0.53280000  0.63941000  1.0
  O  O92  1  0.85976000  0.89410000  0.43569000  1.0
  O  O93  1  0.95882000  0.92398000  0.56547000  1.0
  O  O94  1  0.96578000  0.92477000  0.35915000  1.0
  O  O95  1  0.03288000  0.63714000  0.07618000  1.0
  O  O96  1  0.03464000  0.89413000  0.45889000  1.0
  O  O97  1  0.04104000  0.10574000  0.46532000  1.0
  O  O98  1  0.14080000  0.07512000  0.53415000  1.0
  O  O99  1  0.93448000  0.07591000  0.54114000  1.0
  O  O100  1  0.06427000  0.10578000  0.64019000  1.0
  O  O101  1  0.04245000  0.44356000  0.08143000  1.0
  O  O102  1  0.14611000  0.56623000  0.10389000  1.0
  O  O103  1  0.93460000  0.35746000  0.89630000  1.0
  O  O104  1  0.06294000  0.45630000  0.92322000  1.0
  O  O105  1  0.86059000  0.46714000  0.92379000  1.0
  O  O106  1  0.96100000  0.53724000  0.89431000  1.0
  O  O107  1  0.57673000  0.54364000  0.43707000  1.0
