# generated using pymatgen
data_AlH7C16Cl2O5
_symmetry_space_group_name_H-M   'P 1'
_cell_length_a   6.62698000
_cell_length_b   23.94310000
_cell_length_c   25.14140000
_cell_angle_alpha   89.99510000
_cell_angle_beta   90.41160000
_cell_angle_gamma   89.70090000
_symmetry_Int_Tables_number   1
_chemical_formula_structural   AlH7C16Cl2O5
_chemical_formula_sum   'Al4 H28 C64 Cl8 O20'
_cell_volume   3989.03980368
_cell_formula_units_Z   4
loop_
 _symmetry_equiv_pos_site_id
 _symmetry_equiv_pos_as_xyz
  1  'x, y, z'
loop_
 _atom_site_type_symbol
 _atom_site_label
 _atom_site_symmetry_multiplicity
 _atom_site_fract_x
 _atom_site_fract_y
 _atom_site_fract_z
 _atom_site_occupancy
  Al  Al0  1  0.86677000  0.99786000  0.49843000  1.0
  Al  Al1  1  0.36640000  0.00400000  0.49886000  1.0
  Al  Al2  1  0.14359000  0.49699000  0.00319000  1.0
  Al  Al3  1  0.64247000  0.50450000  0.00145000  1.0
  H  H4  1  0.10164000  0.06852000  0.52368000  1.0
  H  H5  1  0.60426000  0.93193000  0.52079000  1.0
  H  H6  1  0.40829000  0.43353000  0.97624000  1.0
  H  H7  1  0.91118000  0.57105000  0.98320000  1.0
  H  H8  1  0.54056000  0.37840000  0.09189000  1.0
  H  H9  1  0.48476000  0.30278000  0.15886000  1.0
  H  H10  1  0.15916000  0.39223000  0.14374000  1.0
  H  H11  1  0.33601000  0.09942000  0.35555000  1.0
  H  H12  1  0.95161000  0.12755000  0.40444000  1.0
  H  H13  1  0.98423000  0.20108000  0.33431000  1.0
  H  H14  1  0.04476000  0.62169000  0.90637000  1.0
  H  H15  1  0.98017000  0.69304000  0.83611000  1.0
  H  H16  1  0.65979000  0.60515000  0.85472000  1.0
  H  H17  1  0.83527000  0.90445000  0.64503000  1.0
  H  H18  1  0.43555000  0.86613000  0.59146000  1.0
  H  H19  1  0.46917000  0.79352000  0.66217000  1.0
  H  H20  1  0.65406000  0.64649000  0.10337000  1.0
  H  H21  1  0.60310000  0.72019000  0.17253000  1.0
  H  H22  1  0.07588000  0.57668000  0.14150000  1.0
  H  H23  1  0.43924000  0.92572000  0.36052000  1.0
  H  H24  1  0.86138000  0.85436000  0.39647000  1.0
  H  H25  1  0.91912000  0.78069000  0.32758000  1.0
  H  H26  1  0.57125000  0.36806000  0.91225000  1.0
  H  H27  1  0.52364000  0.29574000  0.84209000  1.0
  H  H28  1  0.17024000  0.40007000  0.85496000  1.0
  H  H29  1  0.34292000  0.10116000  0.64673000  1.0
  H  H30  1  0.94318000  0.13209000  0.58983000  1.0
  H  H31  1  0.99434000  0.20293000  0.66116000  1.0
  C  C32  1  0.61616000  0.07017000  0.57031000  1.0
  C  C33  1  0.62784000  0.06730000  0.42754000  1.0
  C  C34  1  0.12986000  0.93540000  0.42686000  1.0
  C  C35  1  0.11588000  0.93175000  0.57019000  1.0
  C  C36  1  0.89462000  0.43151000  0.93072000  1.0
  C  C37  1  0.87738000  0.43346000  0.07249000  1.0
  C  C38  1  0.38130000  0.56614000  0.07397000  1.0
  C  C39  1  0.38859000  0.56918000  0.93017000  1.0
  C  C40  1  0.85296000  0.38918000  0.11351000  1.0
  C  C41  1  0.66224000  0.36440000  0.11813000  1.0
  C  C42  1  0.63102000  0.32288000  0.15540000  1.0
  C  C43  1  0.78653000  0.30651000  0.19094000  1.0
  C  C44  1  0.97680000  0.33287000  0.18636000  1.0
  C  C45  1  0.01147000  0.37282000  0.14724000  1.0
  C  C46  1  0.74941000  0.26553000  0.22988000  1.0
  C  C47  1  0.71096000  0.23004000  0.26312000  1.0
  C  C48  1  0.68347000  0.18982000  0.30336000  1.0
  C  C49  1  0.50114000  0.15987000  0.30954000  1.0
  C  C50  1  0.47826000  0.12139000  0.35061000  1.0
  C  C51  1  0.64175000  0.10979000  0.38449000  1.0
  C  C52  1  0.82552000  0.13782000  0.37809000  1.0
  C  C53  1  0.84404000  0.17819000  0.33906000  1.0
  C  C54  1  0.35664000  0.60988000  0.88579000  1.0
  C  C55  1  0.16459000  0.63422000  0.87965000  1.0
  C  C56  1  0.12830000  0.67371000  0.84059000  1.0
  C  C57  1  0.28180000  0.68949000  0.80506000  1.0
  C  C58  1  0.47303000  0.66313000  0.81042000  1.0
  C  C59  1  0.51118000  0.62443000  0.85072000  1.0
  C  C60  1  0.24209000  0.73055000  0.76617000  1.0
  C  C61  1  0.20109000  0.76702000  0.73386000  1.0
  C  C62  1  0.17377000  0.80826000  0.69439000  1.0
  C  C63  1  0.99515000  0.84069000  0.68921000  1.0
  C  C64  1  0.97401000  0.88017000  0.64884000  1.0
  C  C65  1  0.13324000  0.88939000  0.61357000  1.0
  C  C66  1  0.31259000  0.85841000  0.61890000  1.0
  C  C67  1  0.33151000  0.81818000  0.65812000  1.0
  C  C68  1  0.36637000  0.60782000  0.11776000  1.0
  C  C69  1  0.51705000  0.64762000  0.12705000  1.0
  C  C70  1  0.48886000  0.68843000  0.16559000  1.0
  C  C71  1  0.31208000  0.68998000  0.19676000  1.0
  C  C72  1  0.16616000  0.64770000  0.18834000  1.0
  C  C73  1  0.19147000  0.60790000  0.14885000  1.0
  C  C74  1  0.27941000  0.73251000  0.23452000  1.0
  C  C75  1  0.24505000  0.76958000  0.26657000  1.0
  C  C76  1  0.20973000  0.81196000  0.30429000  1.0
  C  C77  1  0.35378000  0.85459000  0.31325000  1.0
  C  C78  1  0.32494000  0.89428000  0.35266000  1.0
  C  C79  1  0.14820000  0.89386000  0.38303000  1.0
  C  C80  1  0.99951000  0.85365000  0.37323000  1.0
  C  C81  1  0.03146000  0.81289000  0.33487000  1.0
  C  C82  1  0.87313000  0.38850000  0.88807000  1.0
  C  C83  1  0.69091000  0.35907000  0.88408000  1.0
  C  C84  1  0.66418000  0.31891000  0.84520000  1.0
  C  C85  1  0.81726000  0.30745000  0.80789000  1.0
  C  C86  1  0.00003000  0.33774000  0.81214000  1.0
  C  C87  1  0.02867000  0.37728000  0.85212000  1.0
  C  C88  1  0.78187000  0.26709000  0.76814000  1.0
  C  C89  1  0.73639000  0.23179000  0.73518000  1.0
  C  C90  1  0.69996000  0.19184000  0.69510000  1.0
  C  C91  1  0.51588000  0.16224000  0.69044000  1.0
  C  C92  1  0.48539000  0.12347000  0.64986000  1.0
  C  C93  1  0.64004000  0.11240000  0.61361000  1.0
  C  C94  1  0.82384000  0.14106000  0.61809000  1.0
  C  C95  1  0.85263000  0.18038000  0.65766000  1.0
  Cl  Cl96  1  0.16771000  0.31535000  0.23049000  1.0
  Cl  Cl97  1  0.30538000  0.17101000  0.26505000  1.0
  Cl  Cl98  1  0.66126000  0.67986000  0.76610000  1.0
  Cl  Cl99  1  0.80145000  0.83106000  0.73380000  1.0
  Cl  Cl100  1  0.95211000  0.64598000  0.22705000  1.0
  Cl  Cl101  1  0.56954000  0.85692000  0.27525000  1.0
  Cl  Cl102  1  0.18985000  0.32545000  0.76687000  1.0
  Cl  Cl103  1  0.32674000  0.17438000  0.73593000  1.0
  O  O104  1  0.77837000  0.05638000  0.54666000  1.0
  O  O105  1  0.45872000  0.05993000  0.45027000  1.0
  O  O106  1  0.29018000  0.96188000  0.43842000  1.0
  O  O107  1  0.94083000  0.95103000  0.55883000  1.0
  O  O108  1  0.96124000  0.94106000  0.45054000  1.0
  O  O109  1  0.27975000  0.94492000  0.54715000  1.0
  O  O110  1  0.44050000  0.05142000  0.55948000  1.0
  O  O111  1  0.79183000  0.04202000  0.43903000  1.0
  O  O112  1  0.11259000  0.03578000  0.50121000  1.0
  O  O113  1  0.61301000  0.96622000  0.50050000  1.0
  O  O114  1  0.07007000  0.44984000  0.94231000  1.0
  O  O115  1  0.71729000  0.46051000  0.06103000  1.0
  O  O116  1  0.54715000  0.56135000  0.04882000  1.0
  O  O117  1  0.23001000  0.55601000  0.95557000  1.0
  O  O118  1  0.22169000  0.53864000  0.06388000  1.0
  O  O119  1  0.56660000  0.55125000  0.94039000  1.0
  O  O120  1  0.73093000  0.44621000  0.95316000  1.0
  O  O121  1  0.04953000  0.44053000  0.05113000  1.0
  O  O122  1  0.39803000  0.46559000  0.99961000  1.0
  O  O123  1  0.89731000  0.53537000  0.00091000  1.0
