# generated using pymatgen
data_UAgH9(C3O2)4
_symmetry_space_group_name_H-M   'P 1'
_cell_length_a   8.17471000
_cell_length_b   10.17330000
_cell_length_c   18.32460000
_cell_angle_alpha   82.63740000
_cell_angle_beta   77.12050000
_cell_angle_gamma   66.32180000
_symmetry_Int_Tables_number   1
_chemical_formula_structural   UAgH9(C3O2)4
_chemical_formula_sum   'U4 Ag4 H36 C48 O32'
_cell_volume   1359.26304236
_cell_formula_units_Z   4
loop_
 _symmetry_equiv_pos_site_id
 _symmetry_equiv_pos_as_xyz
  1  'x, y, z'
loop_
 _atom_site_type_symbol
 _atom_site_label
 _atom_site_symmetry_multiplicity
 _atom_site_fract_x
 _atom_site_fract_y
 _atom_site_fract_z
 _atom_site_occupancy
  U  U0  1  0.66424000  0.70761000  0.02497000  1.0
  U  U1  1  0.39705000  0.79218000  0.47505000  1.0
  U  U2  1  0.33575000  0.29239000  0.97503000  1.0
  U  U3  1  0.60295000  0.20782000  0.52494000  1.0
  Ag  Ag4  1  0.11044000  0.00222000  0.07313000  1.0
  Ag  Ag5  1  0.18585000  0.49773000  0.42683000  1.0
  Ag  Ag6  1  0.88956000  0.99778000  0.92688000  1.0
  Ag  Ag7  1  0.81415000  0.50226000  0.57317000  1.0
  H  H8  1  0.17060000  0.86142000  0.30336000  1.0
  H  H9  1  0.33549000  0.63863000  0.19661000  1.0
  H  H10  1  0.82940000  0.13858000  0.69664000  1.0
  H  H11  1  0.66451000  0.36137000  0.80339000  1.0
  H  H12  1  0.63450000  0.05320000  0.25118000  1.0
  H  H13  1  0.93872000  0.44692000  0.24880000  1.0
  H  H14  1  0.36551000  0.94680000  0.74882000  1.0
  H  H15  1  0.06129000  0.55308000  0.75120000  1.0
  H  H16  1  0.03852000  0.22324000  0.14473000  1.0
  H  H17  1  0.40647000  0.27665000  0.35516000  1.0
  H  H18  1  0.96148000  0.77677000  0.85527000  1.0
  H  H19  1  0.59353000  0.72334000  0.64484000  1.0
  H  H20  1  0.38391000  0.98337000  0.25475000  1.0
  H  H21  1  0.62217000  0.51645000  0.24531000  1.0
  H  H22  1  0.61609000  0.01663000  0.74525000  1.0
  H  H23  1  0.37783000  0.48355000  0.75469000  1.0
  H  H24  1  0.34680000  0.11324000  0.17936000  1.0
  H  H25  1  0.63917000  0.38659000  0.32068000  1.0
  H  H26  1  0.65320000  0.88676000  0.82064000  1.0
  H  H27  1  0.36084000  0.61341000  0.67932000  1.0
  H  H28  1  0.95477000  0.75923000  0.35820000  1.0
  H  H29  1  0.07211000  0.74093000  0.14182000  1.0
  H  H30  1  0.04524000  0.24077000  0.64180000  1.0
  H  H31  1  0.92789000  0.25907000  0.85819000  1.0
  H  H32  1  0.75926000  0.80115000  0.32108000  1.0
  H  H33  1  0.88146000  0.69892000  0.17890000  1.0
  H  H34  1  0.24075000  0.19884000  0.67892000  1.0
  H  H35  1  0.11854000  0.30108000  0.82110000  1.0
  H  H36  1  0.70201000  0.35484000  0.13507000  1.0
  H  H37  1  0.19147000  0.14524000  0.36489000  1.0
  H  H38  1  0.29799000  0.64516000  0.86494000  1.0
  H  H39  1  0.80853000  0.85475000  0.63511000  1.0
  H  H40  1  0.54680000  0.27546000  0.17626000  1.0
  H  H41  1  0.99815000  0.22475000  0.32369000  1.0
  H  H42  1  0.45320000  0.72455000  0.82375000  1.0
  H  H43  1  0.00185000  0.77524000  0.67631000  1.0
  C  C44  1  0.13160000  0.03315000  0.21837000  1.0
  C  C45  1  0.38314000  0.46679000  0.28153000  1.0
  C  C46  1  0.86840000  0.96685000  0.78163000  1.0
  C  C47  1  0.61686000  0.53321000  0.71847000  1.0
  C  C48  1  0.07472000  0.94043000  0.27103000  1.0
  C  C49  1  0.28618000  0.55965000  0.22892000  1.0
  C  C50  1  0.92528000  0.05957000  0.72897000  1.0
  C  C51  1  0.71382000  0.44035000  0.77109000  1.0
  C  C52  1  0.89613000  0.94841000  0.28405000  1.0
  C  C53  1  0.12850000  0.55173000  0.21593000  1.0
  C  C54  1  0.10388000  0.05159000  0.71595000  1.0
  C  C55  1  0.87150000  0.44827000  0.78408000  1.0
  C  C56  1  0.77290000  0.04908000  0.24230000  1.0
  C  C57  1  0.06419000  0.45104000  0.25763000  1.0
  C  C58  1  0.22710000  0.95092000  0.75770000  1.0
  C  C59  1  0.93581000  0.54896000  0.74236000  1.0
  C  C60  1  0.82213000  0.14535000  0.18973000  1.0
  C  C61  1  0.15720000  0.35466000  0.31016000  1.0
  C  C62  1  0.17787000  0.85465000  0.81027000  1.0
  C  C63  1  0.84281000  0.64534000  0.68984000  1.0
  C  C64  1  0.00327000  0.13816000  0.17854000  1.0
  C  C65  1  0.32002000  0.36173000  0.32131000  1.0
  C  C66  1  0.99673000  0.86185000  0.82146000  1.0
  C  C67  1  0.67998000  0.63827000  0.67869000  1.0
  C  C68  1  0.32895000  0.01366000  0.20270000  1.0
  C  C69  1  0.54526000  0.48621000  0.29731000  1.0
  C  C70  1  0.67105000  0.98634000  0.79730000  1.0
  C  C71  1  0.45474000  0.51379000  0.70269000  1.0
  C  C72  1  0.45102000  0.89809000  0.14698000  1.0
  C  C73  1  0.49607000  0.60172000  0.35306000  1.0
  C  C74  1  0.54898000  0.10190000  0.85302000  1.0
  C  C75  1  0.50394000  0.39828000  0.64694000  1.0
  C  C76  1  0.83672000  0.85032000  0.34205000  1.0
  C  C77  1  0.02903000  0.64980000  0.15793000  1.0
  C  C78  1  0.16329000  0.14967000  0.65795000  1.0
  C  C79  1  0.97096000  0.35021000  0.84208000  1.0
  C  C80  1  0.72042000  0.92091000  0.41432000  1.0
  C  C81  1  0.05566000  0.57915000  0.08567000  1.0
  C  C82  1  0.27958000  0.07908000  0.58568000  1.0
  C  C83  1  0.94434000  0.42086000  0.91433000  1.0
  C  C84  1  0.68639000  0.25100000  0.14529000  1.0
  C  C85  1  0.08245000  0.24916000  0.35462000  1.0
  C  C86  1  0.31361000  0.74900000  0.85471000  1.0
  C  C87  1  0.91755000  0.75084000  0.64537000  1.0
  C  C88  1  0.69342000  0.20720000  0.06768000  1.0
  C  C89  1  0.96822000  0.29304000  0.43224000  1.0
  C  C90  1  0.30657000  0.79281000  0.93232000  1.0
  C  C91  1  0.03179000  0.70696000  0.56776000  1.0
  O  O92  1  0.66492000  0.55730000  0.09000000  1.0
  O  O93  1  0.31243000  0.94248000  0.41003000  1.0
  O  O94  1  0.33508000  0.44270000  0.90999000  1.0
  O  O95  1  0.68757000  0.05751000  0.58997000  1.0
  O  O96  1  0.67318000  0.86143000  0.96366000  1.0
  O  O97  1  0.49854000  0.63837000  0.53636000  1.0
  O  O98  1  0.32680000  0.13859000  0.03634000  1.0
  O  O99  1  0.50146000  0.36162000  0.46364000  1.0
  O  O100  1  0.38047000  0.84098000  0.11013000  1.0
  O  O101  1  0.33151000  0.65895000  0.38981000  1.0
  O  O102  1  0.61953000  0.15902000  0.88988000  1.0
  O  O103  1  0.66850000  0.34106000  0.61019000  1.0
  O  O104  1  0.62257000  0.85716000  0.13512000  1.0
  O  O105  1  0.61484000  0.64256000  0.36502000  1.0
  O  O106  1  0.37743000  0.14283000  0.86489000  1.0
  O  O107  1  0.38517000  0.35743000  0.63499000  1.0
  O  O108  1  0.65092000  0.84449000  0.46187000  1.0
  O  O109  1  0.95722000  0.65548000  0.03812000  1.0
  O  O110  1  0.34909000  0.15551000  0.53813000  1.0
  O  O111  1  0.04278000  0.34453000  0.96188000  1.0
  O  O112  1  0.69837000  0.04761000  0.42523000  1.0
  O  O113  1  0.17133000  0.45251000  0.07475000  1.0
  O  O114  1  0.30163000  0.95238000  0.57477000  1.0
  O  O115  1  0.82866000  0.54750000  0.92525000  1.0
  O  O116  1  0.56056000  0.28434000  0.03469000  1.0
  O  O117  1  0.87904000  0.21619000  0.46518000  1.0
  O  O118  1  0.43944000  0.71566000  0.96531000  1.0
  O  O119  1  0.12096000  0.78381000  0.53482000  1.0
  O  O120  1  0.82744000  0.10202000  0.03774000  1.0
  O  O121  1  0.96758000  0.39797000  0.46224000  1.0
  O  O122  1  0.17256000  0.89799000  0.96226000  1.0
  O  O123  1  0.03242000  0.60203000  0.53776000  1.0
