# generated using pymatgen
data_Zn2H14C29N8Cl
_symmetry_space_group_name_H-M   'P 1'
_cell_length_a   18.50900000
_cell_length_b   18.52120000
_cell_length_c   18.55930000
_cell_angle_alpha   109.81200000
_cell_angle_beta   101.12600000
_cell_angle_gamma   111.11900000
_symmetry_Int_Tables_number   1
_chemical_formula_structural   Zn2H14C29N8Cl
_chemical_formula_sum   'Zn4 H28 C58 N16 Cl2'
_cell_volume   5211.39666850
_cell_formula_units_Z   2
loop_
 _symmetry_equiv_pos_site_id
 _symmetry_equiv_pos_as_xyz
  1  'x, y, z'
loop_
 _atom_site_type_symbol
 _atom_site_label
 _atom_site_symmetry_multiplicity
 _atom_site_fract_x
 _atom_site_fract_y
 _atom_site_fract_z
 _atom_site_occupancy
  Zn  Zn0  1  0.99449000  0.10404000  0.61677000  1.0
  Zn  Zn1  1  0.00842000  0.89173000  0.41063000  1.0
  Zn  Zn2  1  0.88751000  0.88691000  0.51761000  1.0
  Zn  Zn3  1  0.10845000  0.10540000  0.49836000  1.0
  H  H4  1  0.10857000  0.12144000  0.78389000  1.0
  H  H5  1  0.03197000  0.85313000  0.23015000  1.0
  H  H6  1  0.54517000  0.44311000  0.11331000  1.0
  H  H7  1  0.51771000  0.52883000  0.89083000  1.0
  H  H8  1  0.13888000  0.85260000  0.50904000  1.0
  H  H9  1  0.84452000  0.14448000  0.67417000  1.0
  H  H10  1  0.83673000  0.68216000  0.50350000  1.0
  H  H11  1  0.01105000  0.14871000  0.36936000  1.0
  H  H12  1  0.99246000  0.69289000  0.35649000  1.0
  H  H13  1  0.86386000  0.14783000  0.52521000  1.0
  H  H14  1  0.14493000  0.25731000  0.79106000  1.0
  H  H15  1  0.88980000  0.83288000  0.23653000  1.0
  H  H16  1  0.27679000  0.13231000  0.61951000  1.0
  H  H17  1  0.70858000  0.86570000  0.53426000  1.0
  H  H18  1  0.97545000  0.84188000  0.64846000  1.0
  H  H19  1  0.15722000  0.13315000  0.34119000  1.0
  H  H20  1  0.54574000  0.35322000  0.95658000  1.0
  H  H21  1  0.51649000  0.61933000  0.04849000  1.0
  H  H22  1  0.63196000  0.38224000  0.86900000  1.0
  H  H23  1  0.61575000  0.45118000  0.82801000  1.0
  H  H24  1  0.71657000  0.46007000  0.86141000  1.0
  H  H25  1  0.70751000  0.58085000  0.96807000  1.0
  H  H26  1  0.72125000  0.51047000  0.00745000  1.0
  H  H27  1  0.45079000  0.49249000  0.17529000  1.0
  H  H28  1  0.43884000  0.57578000  0.15608000  1.0
  H  H29  1  0.35249000  0.49110000  0.15448000  1.0
  H  H30  1  0.34248000  0.46485000  0.00920000  1.0
  H  H31  1  0.35568000  0.38317000  0.02973000  1.0
  C  C32  1  0.07102000  0.05462000  0.73818000  1.0
  C  C33  1  0.06135000  0.92203000  0.27041000  1.0
  C  C34  1  0.24075000  0.99085000  0.57717000  1.0
  C  C35  1  0.74369000  0.00608000  0.60781000  1.0
  C  C36  1  0.90998000  0.65018000  0.42440000  1.0
  C  C37  1  0.92283000  0.16885000  0.43343000  1.0
  C  C38  1  0.24721000  0.28588000  0.74045000  1.0
  C  C39  1  0.77890000  0.76921000  0.26673000  1.0
  C  C40  1  0.60025000  0.50034000  0.98186000  1.0
  C  C41  1  0.46238000  0.47197000  0.02341000  1.0
  C  C42  1  0.53911000  0.41254000  0.97700000  1.0
  C  C43  1  0.52196000  0.55941000  0.02697000  1.0
  C  C44  1  0.32231000  0.32968000  0.80756000  1.0
  C  C45  1  0.71956000  0.69384000  0.19587000  1.0
  C  C46  1  0.52455000  0.51101000  0.94133000  1.0
  C  C47  1  0.53867000  0.46213000  0.06358000  1.0
  C  C48  1  0.46216000  0.42204000  0.93452000  1.0
  C  C49  1  0.59959000  0.55181000  0.06994000  1.0
  C  C50  1  0.38790000  0.36501000  0.86514000  1.0
  C  C51  1  0.66704000  0.62476000  0.13858000  1.0
  C  C52  1  0.31658000  0.98874000  0.59773000  1.0
  C  C53  1  0.66961000  0.00684000  0.61314000  1.0
  C  C54  1  0.15997000  0.92161000  0.53086000  1.0
  C  C55  1  0.82414000  0.07587000  0.63918000  1.0
  C  C56  1  0.38546000  0.99161000  0.60771000  1.0
  C  C57  1  0.60249000  0.00376000  0.61507000  1.0
  C  C58  1  0.46015000  0.99533000  0.61363000  1.0
  C  C59  1  0.52885000  0.99979000  0.61544000  1.0
  C  C60  1  0.89894000  0.22400000  0.41057000  1.0
  C  C61  1  0.89965000  0.56774000  0.41236000  1.0
  C  C62  1  0.88894000  0.28266000  0.40056000  1.0
  C  C63  1  0.89188000  0.49617000  0.40401000  1.0
  C  C64  1  0.88467000  0.35196000  0.39628000  1.0
  C  C65  1  0.88641000  0.42002000  0.39810000  1.0
  C  C66  1  0.07207000  0.97445000  0.82350000  1.0
  C  C67  1  0.09770000  0.98796000  0.17542000  1.0
  C  C68  1  0.08244000  0.97487000  0.89122000  1.0
  C  C69  1  0.09662000  0.98392000  0.10761000  1.0
  C  C70  1  0.08986000  0.97669000  0.96518000  1.0
  C  C71  1  0.09394000  0.97986000  0.03359000  1.0
  C  C72  1  0.87708000  0.69940000  0.47030000  1.0
  C  C73  1  0.98130000  0.14127000  0.41320000  1.0
  C  C74  1  0.23461000  0.26094000  0.65640000  1.0
  C  C75  1  0.77368000  0.79883000  0.34555000  1.0
  C  C76  1  0.95662000  0.70479000  0.39493000  1.0
  C  C77  1  0.90591000  0.14089000  0.49304000  1.0
  C  C78  1  0.16520000  0.25143000  0.73912000  1.0
  C  C79  1  0.85902000  0.82950000  0.28039000  1.0
  C  C80  1  0.23016000  0.06506000  0.58760000  1.0
  C  C81  1  0.75466000  0.93317000  0.56781000  1.0
  C  C82  1  0.00285000  0.91129000  0.66917000  1.0
  C  C83  1  0.12555000  0.06530000  0.32713000  1.0
  C  C84  1  0.05298000  0.97890000  0.74887000  1.0
  C  C85  1  0.09586000  0.99165000  0.25154000  1.0
  C  C86  1  0.67714000  0.51440000  0.96134000  1.0
  C  C87  1  0.65946000  0.44846000  0.87516000  1.0
  C  C88  1  0.38680000  0.45291000  0.04646000  1.0
  C  C89  1  0.40824000  0.50604000  0.13812000  1.0
  N  N90  1  0.03295000  0.03299000  0.65924000  1.0
  N  N91  1  0.06965000  0.95195000  0.34985000  1.0
  N  N92  1  0.10708000  0.95306000  0.51395000  1.0
  N  N93  1  0.87768000  0.04645000  0.61968000  1.0
  N  N94  1  0.90224000  0.77585000  0.46809000  1.0
  N  N95  1  0.99886000  0.10291000  0.45908000  1.0
  N  N96  1  0.15349000  0.21361000  0.60946000  1.0
  N  N97  1  0.84448000  0.86893000  0.40083000  1.0
  N  N98  1  0.95151000  0.77923000  0.42117000  1.0
  N  N99  1  0.95268000  0.10261000  0.50811000  1.0
  N  N100  1  0.11003000  0.20816000  0.66173000  1.0
  N  N101  1  0.89824000  0.88781000  0.36068000  1.0
  N  N102  1  0.15018000  0.04105000  0.54875000  1.0
  N  N103  1  0.83432000  0.95773000  0.57513000  1.0
  N  N104  1  0.99108000  0.94517000  0.61691000  1.0
  N  N105  1  0.10970000  0.04095000  0.38507000  1.0
  Cl  Cl106  1  0.30744000  0.28308000  0.61230000  1.0
  Cl  Cl107  1  0.69324000  0.75260000  0.37355000  1.0
