# generated using pymatgen
data_MnZn2H20C22NO11
_symmetry_space_group_name_H-M   'P 1'
_cell_length_a   10.34980000
_cell_length_b   11.77660000
_cell_length_c   20.55180000
_cell_angle_alpha   90.00000000
_cell_angle_beta   90.00000000
_cell_angle_gamma   90.00000000
_symmetry_Int_Tables_number   1
_chemical_formula_structural   MnZn2H20C22NO11
_chemical_formula_sum   'Mn4 Zn8 H80 C88 N4 O44'
_cell_volume   2504.96548749
_cell_formula_units_Z   4
loop_
 _symmetry_equiv_pos_site_id
 _symmetry_equiv_pos_as_xyz
  1  'x, y, z'
loop_
 _atom_site_type_symbol
 _atom_site_label
 _atom_site_symmetry_multiplicity
 _atom_site_fract_x
 _atom_site_fract_y
 _atom_site_fract_z
 _atom_site_occupancy
  Mn  Mn0  1  0.73266000  0.45386000  0.31136000  1.0
  Mn  Mn1  1  0.76734000  0.54614000  0.81137000  1.0
  Mn  Mn2  1  0.26734000  0.95386000  0.18864000  1.0
  Mn  Mn3  1  0.23266000  0.04614000  0.68864000  1.0
  Zn  Zn4  1  0.44938000  0.42509000  0.01098000  1.0
  Zn  Zn5  1  0.05062000  0.57491000  0.51098000  1.0
  Zn  Zn6  1  0.55062000  0.92509000  0.48902000  1.0
  Zn  Zn7  1  0.94938000  0.07491000  0.98902000  1.0
  Zn  Zn8  1  0.13877000  0.32229000  0.00857000  1.0
  Zn  Zn9  1  0.36123000  0.67771000  0.50856000  1.0
  Zn  Zn10  1  0.86123000  0.82229000  0.49143000  1.0
  Zn  Zn11  1  0.63877000  0.17771000  0.99143000  1.0
  H  H12  1  0.23702000  0.01611000  0.98372000  1.0
  H  H13  1  0.26298000  0.98389000  0.48372000  1.0
  H  H14  1  0.76298000  0.51611000  0.51628000  1.0
  H  H15  1  0.73703000  0.48389000  0.01628000  1.0
  H  H16  1  0.14289000  0.04243000  0.87518000  1.0
  H  H17  1  0.35711000  0.95757000  0.37518000  1.0
  H  H18  1  0.85711000  0.54243000  0.62482000  1.0
  H  H19  1  0.64289000  0.45757000  0.12482000  1.0
  H  H20  1  0.31330000  0.06728000  0.87033000  1.0
  H  H21  1  0.18670000  0.93272000  0.37033000  1.0
  H  H22  1  0.68670000  0.56728000  0.62967000  1.0
  H  H23  1  0.81330000  0.43272000  0.12967000  1.0
  H  H24  1  0.20359000  0.18379000  0.87062000  1.0
  H  H25  1  0.29641000  0.81621000  0.37062000  1.0
  H  H26  1  0.79641000  0.68379000  0.62938000  1.0
  H  H27  1  0.70359000  0.31621000  0.12938000  1.0
  H  H28  1  0.11884000  0.32922000  0.21775000  1.0
  H  H29  1  0.38116000  0.67078000  0.71775000  1.0
  H  H30  1  0.88116000  0.82922000  0.28225000  1.0
  H  H31  1  0.61884000  0.17078000  0.78225000  1.0
  H  H32  1  0.10939000  0.37889000  0.33571000  1.0
  H  H33  1  0.39061000  0.62111000  0.83571000  1.0
  H  H34  1  0.89061000  0.87889000  0.16429000  1.0
  H  H35  1  0.60939000  0.12111000  0.66429000  1.0
  H  H36  1  0.38204000  0.64874000  0.30428000  1.0
  H  H37  1  0.11796000  0.35126000  0.80428000  1.0
  H  H38  1  0.61796000  0.14874000  0.19572000  1.0
  H  H39  1  0.88204000  0.85126000  0.69572000  1.0
  H  H40  1  0.39090000  0.59833000  0.18581000  1.0
  H  H41  1  0.10910000  0.40167000  0.68582000  1.0
  H  H42  1  0.60910000  0.09833000  0.31419000  1.0
  H  H43  1  0.89090000  0.90167000  0.81419000  1.0
  H  H44  1  0.48661000  0.65590000  0.93205000  1.0
  H  H45  1  0.01339000  0.34410000  0.43206000  1.0
  H  H46  1  0.51339000  0.15590000  0.56794000  1.0
  H  H47  1  0.98661000  0.84410000  0.06795000  1.0
  H  H48  1  0.59857000  0.85626000  0.07858000  1.0
  H  H49  1  0.90143000  0.14374000  0.57858000  1.0
  H  H50  1  0.40143000  0.35626000  0.42142000  1.0
  H  H51  1  0.09857000  0.64374000  0.92142000  1.0
  H  H52  1  0.74838000  0.83185000  0.03772000  1.0
  H  H53  1  0.75162000  0.16815000  0.53772000  1.0
  H  H54  1  0.25162000  0.33185000  0.46228000  1.0
  H  H55  1  0.24838000  0.66815000  0.96228000  1.0
  H  H56  1  0.66678000  0.71635000  0.07734000  1.0
  H  H57  1  0.83322000  0.28365000  0.57734000  1.0
  H  H58  1  0.33322000  0.21635000  0.42266000  1.0
  H  H59  1  0.16678000  0.78365000  0.92266000  1.0
  H  H60  1  0.67305000  0.88481000  0.92613000  1.0
  H  H61  1  0.82695000  0.11519000  0.42613000  1.0
  H  H62  1  0.32695000  0.38481000  0.57387000  1.0
  H  H63  1  0.17305000  0.61519000  0.07387000  1.0
  H  H64  1  0.52324000  0.93160000  0.96063000  1.0
  H  H65  1  0.97677000  0.06840000  0.46063000  1.0
  H  H66  1  0.47677000  0.43160000  0.53937000  1.0
  H  H67  1  0.02324000  0.56840000  0.03937000  1.0
  H  H68  1  0.52459000  0.82576000  0.89809000  1.0
  H  H69  1  0.97541000  0.17424000  0.39809000  1.0
  H  H70  1  0.47541000  0.32576000  0.60191000  1.0
  H  H71  1  0.02459000  0.67424000  0.10191000  1.0
  H  H72  1  0.60477000  0.61156000  0.22439000  1.0
  H  H73  1  0.89522000  0.38844000  0.72439000  1.0
  H  H74  1  0.39522000  0.11156000  0.27561000  1.0
  H  H75  1  0.10478000  0.88844000  0.77561000  1.0
  H  H76  1  0.85453000  0.56097000  0.19913000  1.0
  H  H77  1  0.64547000  0.43903000  0.69913000  1.0
  H  H78  1  0.14547000  0.06097000  0.30087000  1.0
  H  H79  1  0.35453000  0.93903000  0.80087000  1.0
  H  H80  1  0.98469000  0.56372000  0.31321000  1.0
  H  H81  1  0.51531000  0.43629000  0.81321000  1.0
  H  H82  1  0.01531000  0.06372000  0.18679000  1.0
  H  H83  1  0.48469000  0.93628000  0.68679000  1.0
  H  H84  1  0.81866000  0.61799000  0.40808000  1.0
  H  H85  1  0.68134000  0.38201000  0.90808000  1.0
  H  H86  1  0.18134000  0.11799000  0.09192000  1.0
  H  H87  1  0.31866000  0.88201000  0.59192000  1.0
  H  H88  1  0.58108000  0.64690000  0.35412000  1.0
  H  H89  1  0.91892000  0.35310000  0.85412000  1.0
  H  H90  1  0.41892000  0.14690000  0.14588000  1.0
  H  H91  1  0.08108000  0.85310000  0.64588000  1.0
  C  C92  1  0.35105000  0.16629000  0.98511000  1.0
  C  C93  1  0.14895000  0.83371000  0.48511000  1.0
  C  C94  1  0.64895000  0.66629000  0.51489000  1.0
  C  C95  1  0.85105000  0.33371000  0.01489000  1.0
  C  C96  1  0.22798000  0.10326000  0.96486000  1.0
  C  C97  1  0.27202000  0.89674000  0.46486000  1.0
  C  C98  1  0.77202000  0.60326000  0.53514000  1.0
  C  C99  1  0.72798000  0.39674000  0.03514000  1.0
  C  C100  1  0.22185000  0.09870000  0.89042000  1.0
  C  C101  1  0.27815000  0.90130000  0.39042000  1.0
  C  C102  1  0.77815000  0.59870000  0.60958000  1.0
  C  C103  1  0.72185000  0.40129000  0.10958000  1.0
  C  C104  1  0.26462000  0.42915000  0.12476000  1.0
  C  C105  1  0.23538000  0.57085000  0.62476000  1.0
  C  C106  1  0.73538000  0.92915000  0.37524000  1.0
  C  C107  1  0.76462000  0.07085000  0.87524000  1.0
  C  C108  1  0.25654000  0.46037000  0.19521000  1.0
  C  C109  1  0.24346000  0.53963000  0.69521000  1.0
  C  C110  1  0.74346000  0.96037000  0.30479000  1.0
  C  C111  1  0.75654000  0.03963000  0.80479000  1.0
  C  C112  1  0.17637000  0.39873000  0.23717000  1.0
  C  C113  1  0.32363000  0.60127000  0.73717000  1.0
  C  C114  1  0.82363000  0.89873000  0.26283000  1.0
  C  C115  1  0.67637000  0.10127000  0.76283000  1.0
  C  C116  1  0.17152000  0.42655000  0.30286000  1.0
  C  C117  1  0.32848000  0.57345000  0.80286000  1.0
  C  C118  1  0.82848000  0.92655000  0.19714000  1.0
  C  C119  1  0.67152000  0.07345000  0.69714000  1.0
  C  C120  1  0.24593000  0.51636000  0.32740000  1.0
  C  C121  1  0.25407000  0.48365000  0.82740000  1.0
  C  C122  1  0.75407000  0.01636000  0.17260000  1.0
  C  C123  1  0.74593000  0.98365000  0.67260000  1.0
  C  C124  1  0.32572000  0.57816000  0.28523000  1.0
  C  C125  1  0.17428000  0.42184000  0.78523000  1.0
  C  C126  1  0.67428000  0.07816000  0.21477000  1.0
  C  C127  1  0.82572000  0.92184000  0.71477000  1.0
  C  C128  1  0.33056000  0.55049000  0.21952000  1.0
  C  C129  1  0.16944000  0.44951000  0.71952000  1.0
  C  C130  1  0.66944000  0.05049000  0.28048000  1.0
  C  C131  1  0.83056000  0.94951000  0.78048000  1.0
  C  C132  1  0.23673000  0.54869000  0.39766000  1.0
  C  C133  1  0.26326000  0.45131000  0.89766000  1.0
  C  C134  1  0.76326000  0.04869000  0.10234000  1.0
  C  C135  1  0.73673000  0.95131000  0.60234000  1.0
  C  C136  1  0.53448000  0.66655000  0.97961000  1.0
  C  C137  1  0.96552000  0.33345000  0.47961000  1.0
  C  C138  1  0.46552000  0.16655000  0.52039000  1.0
  C  C139  1  0.03448000  0.83345000  0.02039000  1.0
  C  C140  1  0.65390000  0.79481000  0.04956000  1.0
  C  C141  1  0.84610000  0.20519000  0.54956000  1.0
  C  C142  1  0.34611000  0.29481000  0.45044000  1.0
  C  C143  1  0.15389000  0.70519000  0.95044000  1.0
  C  C144  1  0.57571000  0.85810000  0.94100000  1.0
  C  C145  1  0.92429000  0.14191000  0.44100000  1.0
  C  C146  1  0.42429000  0.35809000  0.55900000  1.0
  C  C147  1  0.07571000  0.64190000  0.05900000  1.0
  C  C148  1  0.68193000  0.60622000  0.25996000  1.0
  C  C149  1  0.81806000  0.39378000  0.75996000  1.0
  C  C150  1  0.31806000  0.10622000  0.24004000  1.0
  C  C151  1  0.18194000  0.89378000  0.74004000  1.0
  C  C152  1  0.81341000  0.57898000  0.24651000  1.0
  C  C153  1  0.68660000  0.42102000  0.74651000  1.0
  C  C154  1  0.18660000  0.07898000  0.25349000  1.0
  C  C155  1  0.31340000  0.92102000  0.75349000  1.0
  C  C156  1  0.88256000  0.58088000  0.30681000  1.0
  C  C157  1  0.61744000  0.41912000  0.80681000  1.0
  C  C158  1  0.11744000  0.08088000  0.19319000  1.0
  C  C159  1  0.38256000  0.91912000  0.69319000  1.0
  C  C160  1  0.79389000  0.60926000  0.35697000  1.0
  C  C161  1  0.70611000  0.39074000  0.85697000  1.0
  C  C162  1  0.20611000  0.10926000  0.14303000  1.0
  C  C163  1  0.29389000  0.89074000  0.64303000  1.0
  C  C164  1  0.66911000  0.62509000  0.32830000  1.0
  C  C165  1  0.83089000  0.37491000  0.82830000  1.0
  C  C166  1  0.33089000  0.12509000  0.17170000  1.0
  C  C167  1  0.16911000  0.87491000  0.67170000  1.0
  C  C168  1  0.60279000  0.37889000  0.27500000  1.0
  C  C169  1  0.89721000  0.62111000  0.77500000  1.0
  C  C170  1  0.39721000  0.87889000  0.22500000  1.0
  C  C171  1  0.10279000  0.12111000  0.72500000  1.0
  C  C172  1  0.83897000  0.34056000  0.29286000  1.0
  C  C173  1  0.66103000  0.65944000  0.79286000  1.0
  C  C174  1  0.16103000  0.84056000  0.20714000  1.0
  C  C175  1  0.33898000  0.15945000  0.70714000  1.0
  C  C176  1  0.69207000  0.39533000  0.38795000  1.0
  C  C177  1  0.80793000  0.60467000  0.88795000  1.0
  C  C178  1  0.30793000  0.89533000  0.11205000  1.0
  C  C179  1  0.19207000  0.10467000  0.61205000  1.0
  N  N180  1  0.58561000  0.76873000  0.98958000  1.0
  N  N181  1  0.91439000  0.23127000  0.48958000  1.0
  N  N182  1  0.41439000  0.26873000  0.51042000  1.0
  N  N183  1  0.08561000  0.73127000  0.01042000  1.0
  O  O184  1  0.33879000  0.26883000  0.00472000  1.0
  O  O185  1  0.16121000  0.73117000  0.50472000  1.0
  O  O186  1  0.66121000  0.76883000  0.49528000  1.0
  O  O187  1  0.83879000  0.23116000  0.99528000  1.0
  O  O188  1  0.45674000  0.11362000  0.98002000  1.0
  O  O189  1  0.04326000  0.88638000  0.48002000  1.0
  O  O190  1  0.54326000  0.61362000  0.51998000  1.0
  O  O191  1  0.95674000  0.38638000  0.01998000  1.0
  O  O192  1  0.11615000  0.15602000  0.99166000  1.0
  O  O193  1  0.38385000  0.84398000  0.49167000  1.0
  O  O194  1  0.88385000  0.65602000  0.50833000  1.0
  O  O195  1  0.61615000  0.34398000  0.00833000  1.0
  O  O196  1  0.36415000  0.46489000  0.09439000  1.0
  O  O197  1  0.13585000  0.53511000  0.59439000  1.0
  O  O198  1  0.63585000  0.96489000  0.40561000  1.0
  O  O199  1  0.86415000  0.03511000  0.90561000  1.0
  O  O200  1  0.17147000  0.37216000  0.10111000  1.0
  O  O201  1  0.32853000  0.62784000  0.60111000  1.0
  O  O202  1  0.82853000  0.87216000  0.39889000  1.0
  O  O203  1  0.67147000  0.12784000  0.89889000  1.0
  O  O204  1  0.12964000  0.52616000  0.42590000  1.0
  O  O205  1  0.37036000  0.47384000  0.92590000  1.0
  O  O206  1  0.87036000  0.02616000  0.07410000  1.0
  O  O207  1  0.62964000  0.97384000  0.57410000  1.0
  O  O208  1  0.33567000  0.59474000  0.42316000  1.0
  O  O209  1  0.16433000  0.40526000  0.92316000  1.0
  O  O210  1  0.66433000  0.09474000  0.07684000  1.0
  O  O211  1  0.83567000  0.90526000  0.57684000  1.0
  O  O212  1  0.53949000  0.58664000  0.02001000  1.0
  O  O213  1  0.96051000  0.41336000  0.52001000  1.0
  O  O214  1  0.46051000  0.08664000  0.47999000  1.0
  O  O215  1  0.03949000  0.91336000  0.97999000  1.0
  O  O216  1  0.51813000  0.32671000  0.25189000  1.0
  O  O217  1  0.98187000  0.67329000  0.75189000  1.0
  O  O218  1  0.48187000  0.82671000  0.24811000  1.0
  O  O219  1  0.01813000  0.17329000  0.74811000  1.0
  O  O220  1  0.90870000  0.26492000  0.28071000  1.0
  O  O221  1  0.59130000  0.73508000  0.78071000  1.0
  O  O222  1  0.09130000  0.76492000  0.21929000  1.0
  O  O223  1  0.40870000  0.23508000  0.71929000  1.0
  O  O224  1  0.66371000  0.35720000  0.43868000  1.0
  O  O225  1  0.83629000  0.64280000  0.93869000  1.0
  O  O226  1  0.33629000  0.85720000  0.06131000  1.0
  O  O227  1  0.16371000  0.14280000  0.56132000  1.0
