# generated using pymatgen
data_UH10C6(NO4)2
_symmetry_space_group_name_H-M   'P 1'
_cell_length_a   6.98888000
_cell_length_b   11.14050000
_cell_length_c   14.49340000
_cell_angle_alpha   92.03730000
_cell_angle_beta   90.00000000
_cell_angle_gamma   90.00000000
_symmetry_Int_Tables_number   1
_chemical_formula_structural   UH10C6(NO4)2
_chemical_formula_sum   'U4 H40 C24 N8 O32'
_cell_volume   1127.73728350
_cell_formula_units_Z   4
loop_
 _symmetry_equiv_pos_site_id
 _symmetry_equiv_pos_as_xyz
  1  'x, y, z'
loop_
 _atom_site_type_symbol
 _atom_site_label
 _atom_site_symmetry_multiplicity
 _atom_site_fract_x
 _atom_site_fract_y
 _atom_site_fract_z
 _atom_site_occupancy
  U  U0  1  0.45605000  0.45305000  0.71986000  1.0
  U  U1  1  0.95604000  0.04695000  0.78012000  1.0
  U  U2  1  0.54395000  0.54695000  0.28014000  1.0
  U  U3  1  0.04396000  0.95305000  0.21988000  1.0
  H  H4  1  0.19042000  0.65944000  0.77332000  1.0
  H  H5  1  0.69041000  0.84056000  0.72668000  1.0
  H  H6  1  0.80958000  0.34056000  0.22668000  1.0
  H  H7  1  0.30959000  0.15944000  0.27332000  1.0
  H  H8  1  0.36685000  0.72255000  0.71536000  1.0
  H  H9  1  0.86685000  0.77745000  0.78463000  1.0
  H  H10  1  0.63315000  0.27745000  0.28463000  1.0
  H  H11  1  0.13314000  0.22255000  0.21537000  1.0
  H  H12  1  0.29504000  0.43251000  0.48957000  1.0
  H  H13  1  0.79504000  0.06749000  0.01042000  1.0
  H  H14  1  0.70496000  0.56749000  0.51042000  1.0
  H  H15  1  0.20496000  0.93251000  0.98957000  1.0
  H  H16  1  0.84421000  0.29238000  0.63072000  1.0
  H  H17  1  0.34421000  0.20762000  0.86928000  1.0
  H  H18  1  0.15579000  0.70761000  0.36928000  1.0
  H  H19  1  0.65579000  0.79239000  0.13072000  1.0
  H  H20  1  0.81444000  0.46477000  0.93752000  1.0
  H  H21  1  0.31443000  0.03524000  0.56248000  1.0
  H  H22  1  0.18557000  0.53523000  0.06249000  1.0
  H  H23  1  0.68557000  0.96476000  0.43752000  1.0
  H  H24  1  0.05316000  0.46344000  0.89487000  1.0
  H  H25  1  0.55316000  0.03656000  0.60513000  1.0
  H  H26  1  0.94684000  0.53656000  0.10513000  1.0
  H  H27  1  0.44684000  0.96344000  0.39487000  1.0
  H  H28  1  0.16336000  0.24201000  0.40529000  1.0
  H  H29  1  0.66336000  0.25799000  0.09470000  1.0
  H  H30  1  0.83665000  0.75799000  0.59471000  1.0
  H  H31  1  0.33665000  0.74201000  0.90529000  1.0
  H  H32  1  0.03278000  0.36966000  0.36976000  1.0
  H  H33  1  0.53278000  0.13034000  0.13024000  1.0
  H  H34  1  0.96722000  0.63034000  0.63024000  1.0
  H  H35  1  0.46723000  0.86966000  0.86976000  1.0
  H  H36  1  0.75840000  0.31160000  0.45482000  1.0
  H  H37  1  0.25840000  0.18840000  0.04518000  1.0
  H  H38  1  0.24160000  0.68841000  0.54518000  1.0
  H  H39  1  0.74160000  0.81159000  0.95482000  1.0
  H  H40  1  0.87750000  0.17337000  0.47507000  1.0
  H  H41  1  0.37750000  0.32664000  0.02493000  1.0
  H  H42  1  0.12250000  0.82663000  0.52493000  1.0
  H  H43  1  0.62250000  0.67337000  0.97506000  1.0
  C  C44  1  0.90252000  0.46366000  0.87421000  1.0
  C  C45  1  0.40252000  0.03635000  0.62579000  1.0
  C  C46  1  0.09748000  0.53634000  0.12579000  1.0
  C  C47  1  0.59748000  0.96365000  0.37421000  1.0
  C  C48  1  0.85846000  0.34634000  0.82176000  1.0
  C  C49  1  0.35846000  0.15367000  0.67824000  1.0
  C  C50  1  0.14154000  0.65366000  0.17824000  1.0
  C  C51  1  0.64154000  0.84633000  0.32176000  1.0
  C  C52  1  0.85380000  0.57681000  0.82402000  1.0
  C  C53  1  0.35380000  0.92319000  0.67598000  1.0
  C  C54  1  0.14620000  0.42319000  0.17598000  1.0
  C  C55  1  0.64620000  0.07681000  0.32402000  1.0
  C  C56  1  0.08617000  0.37887000  0.58355000  1.0
  C  C57  1  0.58618000  0.12113000  0.91645000  1.0
  C  C58  1  0.91383000  0.62112000  0.41645000  1.0
  C  C59  1  0.41383000  0.87888000  0.08355000  1.0
  C  C60  1  0.07100000  0.31656000  0.42922000  1.0
  C  C61  1  0.57100000  0.18344000  0.07078000  1.0
  C  C62  1  0.92900000  0.68344000  0.57078000  1.0
  C  C63  1  0.42900000  0.81656000  0.92922000  1.0
  C  C64  1  0.89095000  0.27154000  0.48056000  1.0
  C  C65  1  0.39095000  0.22846000  0.01944000  1.0
  C  C66  1  0.10905000  0.72846000  0.51944000  1.0
  C  C67  1  0.60905000  0.77154000  0.98056000  1.0
  N  N68  1  0.16811000  0.39020000  0.50035000  1.0
  N  N69  1  0.66811000  0.10980000  0.99964000  1.0
  N  N70  1  0.83189000  0.60980000  0.49964000  1.0
  N  N71  1  0.33189000  0.89020000  0.00036000  1.0
  N  N72  1  0.92814000  0.31106000  0.57568000  1.0
  N  N73  1  0.42814000  0.18894000  0.92432000  1.0
  N  N74  1  0.07186000  0.68893000  0.42431000  1.0
  N  N75  1  0.57186000  0.81106000  0.07568000  1.0
  O  O76  1  0.54152000  0.49084000  0.60586000  1.0
  O  O77  1  0.04152000  0.00917000  0.89414000  1.0
  O  O78  1  0.45848000  0.50917000  0.39414000  1.0
  O  O79  1  0.95848000  0.99083000  0.10587000  1.0
  O  O80  1  0.36752000  0.42142000  0.83418000  1.0
  O  O81  1  0.86752000  0.07858000  0.66582000  1.0
  O  O82  1  0.63247000  0.57858000  0.16582000  1.0
  O  O83  1  0.13248000  0.92142000  0.33418000  1.0
  O  O84  1  0.73705000  0.34561000  0.75579000  1.0
  O  O85  1  0.23705000  0.15440000  0.74420000  1.0
  O  O86  1  0.26295000  0.65439000  0.24421000  1.0
  O  O87  1  0.76295000  0.84560000  0.25580000  1.0
  O  O88  1  0.94510000  0.25346000  0.84672000  1.0
  O  O89  1  0.44510000  0.24654000  0.65328000  1.0
  O  O90  1  0.05491000  0.74654000  0.15328000  1.0
  O  O91  1  0.55490000  0.75346000  0.34672000  1.0
  O  O92  1  0.69179000  0.58395000  0.78387000  1.0
  O  O93  1  0.19179000  0.91606000  0.71613000  1.0
  O  O94  1  0.30821000  0.41605000  0.21613000  1.0
  O  O95  1  0.80821000  0.08395000  0.28387000  1.0
  O  O96  1  0.97180000  0.66359000  0.82639000  1.0
  O  O97  1  0.47180000  0.83641000  0.67360000  1.0
  O  O98  1  0.02821000  0.33641000  0.17361000  1.0
  O  O99  1  0.52820000  0.16359000  0.32640000  1.0
  O  O100  1  0.14666000  0.42520000  0.66033000  1.0
  O  O101  1  0.64666000  0.07481000  0.83967000  1.0
  O  O102  1  0.85334000  0.57480000  0.33967000  1.0
  O  O103  1  0.35334000  0.92520000  0.16033000  1.0
  O  O104  1  0.30937000  0.64470000  0.73714000  1.0
  O  O105  1  0.80936000  0.85530000  0.76285000  1.0
  O  O106  1  0.69063000  0.35530000  0.26286000  1.0
  O  O107  1  0.19064000  0.14470000  0.23715000  1.0
