# generated using pymatgen
data_CuH6C8O5
_symmetry_space_group_name_H-M   'P 1'
_cell_length_a   6.60536000
_cell_length_b   19.28480000
_cell_length_c   19.30600000
_cell_angle_alpha   90.25560000
_cell_angle_beta   89.86750000
_cell_angle_gamma   89.65030000
_symmetry_Int_Tables_number   1
_chemical_formula_structural   CuH6C8O5
_chemical_formula_sum   'Cu8 H48 C64 O40'
_cell_volume   2459.18008831
_cell_formula_units_Z   8
loop_
 _symmetry_equiv_pos_site_id
 _symmetry_equiv_pos_as_xyz
  1  'x, y, z'
loop_
 _atom_site_type_symbol
 _atom_site_label
 _atom_site_symmetry_multiplicity
 _atom_site_fract_x
 _atom_site_fract_y
 _atom_site_fract_z
 _atom_site_occupancy
  Cu  Cu0  1  0.14734000  0.52961000  0.52931000  1.0
  Cu  Cu1  1  0.14726000  0.97006000  0.97004000  1.0
  Cu  Cu2  1  0.14758000  0.97029000  0.52962000  1.0
  Cu  Cu3  1  0.14878000  0.52962000  0.97009000  1.0
  Cu  Cu4  1  0.85138000  0.47035000  0.02973000  1.0
  Cu  Cu5  1  0.85241000  0.02979000  0.47051000  1.0
  Cu  Cu6  1  0.85241000  0.02995000  0.03009000  1.0
  Cu  Cu7  1  0.85303000  0.47047000  0.47056000  1.0
  H  H8  1  0.54829000  0.55906000  0.36129000  1.0
  H  H9  1  0.54629000  0.93808000  0.13757000  1.0
  H  H10  1  0.55115000  0.13719000  0.55995000  1.0
  H  H11  1  0.54321000  0.36030000  0.93789000  1.0
  H  H12  1  0.45184000  0.44127000  0.86160000  1.0
  H  H13  1  0.45394000  0.06280000  0.63949000  1.0
  H  H14  1  0.44834000  0.86288000  0.05959000  1.0
  H  H15  1  0.45490000  0.63953000  0.43926000  1.0
  H  H16  1  0.45214000  0.44103000  0.63849000  1.0
  H  H17  1  0.45332000  0.06188000  0.86249000  1.0
  H  H18  1  0.44890000  0.86286000  0.44013000  1.0
  H  H19  1  0.45674000  0.63957000  0.06195000  1.0
  H  H20  1  0.54841000  0.55858000  0.13819000  1.0
  H  H21  1  0.54583000  0.93715000  0.36061000  1.0
  H  H22  1  0.55154000  0.13701000  0.94057000  1.0
  H  H23  1  0.54530000  0.36052000  0.56075000  1.0
  H  H24  1  0.72669000  0.57967000  0.24961000  1.0
  H  H25  1  0.72269000  0.91496000  0.24878000  1.0
  H  H26  1  0.72543000  0.24937000  0.58212000  1.0
  H  H27  1  0.72492000  0.24901000  0.91748000  1.0
  H  H28  1  0.27366000  0.42026000  0.75013000  1.0
  H  H29  1  0.27701000  0.08499000  0.75129000  1.0
  H  H30  1  0.27502000  0.75084000  0.08252000  1.0
  H  H31  1  0.27465000  0.75068000  0.41794000  1.0
  H  H32  1  0.01342000  0.49713000  0.24996000  1.0
  H  H33  1  0.02025000  0.01061000  0.25003000  1.0
  H  H34  1  0.01857000  0.24786000  0.49268000  1.0
  H  H35  1  0.01678000  0.24809000  0.00688000  1.0
  H  H36  1  0.98677000  0.50298000  0.74993000  1.0
  H  H37  1  0.97981000  0.98961000  0.75011000  1.0
  H  H38  1  0.98319000  0.75192000  0.99316000  1.0
  H  H39  1  0.98140000  0.75222000  0.50752000  1.0
  H  H40  1  0.40160000  0.62729000  0.57669000  1.0
  H  H41  1  0.40664000  0.92386000  0.87196000  1.0
  H  H42  1  0.40263000  0.92582000  0.62833000  1.0
  H  H43  1  0.40254000  0.62832000  0.92628000  1.0
  H  H44  1  0.59697000  0.37147000  0.07268000  1.0
  H  H45  1  0.59678000  0.07334000  0.37165000  1.0
  H  H46  1  0.59275000  0.07551000  0.12824000  1.0
  H  H47  1  0.59890000  0.37281000  0.42309000  1.0
  H  H48  1  0.52944000  0.56892000  0.54134000  1.0
  H  H49  1  0.52953000  0.95800000  0.93155000  1.0
  H  H50  1  0.52865000  0.95888000  0.56902000  1.0
  H  H51  1  0.53093000  0.56917000  0.95910000  1.0
  H  H52  1  0.46868000  0.43129000  0.04112000  1.0
  H  H53  1  0.47096000  0.04149000  0.43162000  1.0
  H  H54  1  0.47001000  0.04216000  0.06820000  1.0
  H  H55  1  0.47094000  0.43098000  0.45873000  1.0
  C  C56  1  0.26867000  0.52853000  0.31261000  1.0
  C  C57  1  0.27173000  0.97550000  0.18699000  1.0
  C  C58  1  0.27244000  0.18580000  0.52702000  1.0
  C  C59  1  0.26863000  0.31126000  0.97410000  1.0
  C  C60  1  0.73143000  0.47177000  0.81275000  1.0
  C  C61  1  0.72833000  0.02501000  0.68795000  1.0
  C  C62  1  0.72822000  0.81415000  0.02712000  1.0
  C  C63  1  0.72939000  0.68883000  0.47512000  1.0
  C  C64  1  0.73165000  0.47157000  0.68724000  1.0
  C  C65  1  0.72809000  0.02456000  0.81311000  1.0
  C  C66  1  0.72754000  0.81427000  0.47313000  1.0
  C  C67  1  0.73123000  0.68865000  0.02585000  1.0
  C  C68  1  0.26872000  0.52820000  0.18710000  1.0
  C  C69  1  0.27159000  0.97509000  0.31216000  1.0
  C  C70  1  0.27175000  0.18578000  0.97297000  1.0
  C  C71  1  0.27069000  0.31125000  0.52499000  1.0
  C  C72  1  0.47002000  0.55154000  0.31231000  1.0
  C  C73  1  0.46997000  0.94852000  0.18666000  1.0
  C  C74  1  0.47256000  0.18618000  0.55149000  1.0
  C  C75  1  0.46783000  0.31128000  0.94818000  1.0
  C  C76  1  0.53018000  0.44865000  0.81257000  1.0
  C  C77  1  0.53004000  0.05198000  0.68833000  1.0
  C  C78  1  0.52767000  0.81389000  0.05151000  1.0
  C  C79  1  0.53060000  0.68864000  0.44917000  1.0
  C  C80  1  0.53034000  0.44851000  0.68748000  1.0
  C  C81  1  0.52974000  0.05147000  0.81343000  1.0
  C  C82  1  0.52746000  0.81389000  0.44860000  1.0
  C  C83  1  0.53208000  0.68862000  0.05176000  1.0
  C  C84  1  0.47008000  0.55126000  0.18724000  1.0
  C  C85  1  0.46976000  0.94803000  0.31177000  1.0
  C  C86  1  0.47229000  0.18602000  0.94861000  1.0
  C  C87  1  0.46951000  0.31142000  0.55089000  1.0
  C  C88  1  0.56961000  0.56265000  0.24973000  1.0
  C  C89  1  0.56852000  0.93551000  0.24904000  1.0
  C  C90  1  0.57002000  0.24893000  0.56326000  1.0
  C  C91  1  0.56922000  0.24870000  0.93637000  1.0
  C  C92  1  0.43070000  0.43732000  0.75004000  1.0
  C  C93  1  0.43125000  0.06449000  0.75103000  1.0
  C  C94  1  0.43074000  0.75119000  0.06366000  1.0
  C  C95  1  0.43007000  0.75113000  0.43683000  1.0
  C  C96  1  0.16838000  0.51612000  0.24990000  1.0
  C  C97  1  0.17330000  0.98937000  0.24976000  1.0
  C  C98  1  0.17243000  0.24826000  0.51281000  1.0
  C  C99  1  0.17086000  0.24835000  0.98674000  1.0
  C  C100  1  0.83182000  0.48396000  0.74997000  1.0
  C  C101  1  0.82664000  0.01077000  0.75036000  1.0
  C  C102  1  0.82908000  0.75160000  0.01329000  1.0
  C  C103  1  0.82758000  0.75183000  0.48737000  1.0
  C  C104  1  0.16478000  0.51746000  0.38061000  1.0
  C  C105  1  0.16537000  0.98827000  0.12004000  1.0
  C  C106  1  0.16781000  0.11817000  0.51667000  1.0
  C  C107  1  0.16189000  0.37884000  0.98733000  1.0
  C  C108  1  0.83540000  0.48308000  0.88083000  1.0
  C  C109  1  0.83462000  0.01237000  0.62062000  1.0
  C  C110  1  0.83272000  0.88176000  0.01665000  1.0
  C  C111  1  0.83517000  0.62137000  0.48854000  1.0
  C  C112  1  0.83559000  0.48266000  0.61925000  1.0
  C  C113  1  0.83432000  0.01177000  0.88009000  1.0
  C  C114  1  0.83223000  0.88190000  0.48343000  1.0
  C  C115  1  0.83799000  0.62110000  0.01260000  1.0
  C  C116  1  0.16460000  0.51686000  0.11904000  1.0
  C  C117  1  0.16529000  0.98771000  0.37951000  1.0
  C  C118  1  0.16722000  0.11821000  0.98348000  1.0
  C  C119  1  0.16508000  0.37870000  0.51146000  1.0
  O  O120  1  0.99474000  0.48639000  0.38111000  1.0
  O  O121  1  0.99090000  0.01620000  0.12137000  1.0
  O  O122  1  0.99605000  0.11821000  0.48657000  1.0
  O  O123  1  0.98808000  0.37794000  0.01528000  1.0
  O  O124  1  0.00502000  0.51426000  0.88079000  1.0
  O  O125  1  0.01018000  0.98526000  0.62146000  1.0
  O  O126  1  0.00336000  0.88161000  0.98555000  1.0
  O  O127  1  0.00931000  0.62207000  0.51616000  1.0
  O  O128  1  0.00598000  0.51351000  0.61878000  1.0
  O  O129  1  0.00957000  0.98441000  0.87873000  1.0
  O  O130  1  0.00291000  0.88195000  0.51425000  1.0
  O  O131  1  0.01279000  0.62209000  0.98537000  1.0
  O  O132  1  0.99368000  0.48654000  0.11915000  1.0
  O  O133  1  0.99076000  0.01559000  0.37872000  1.0
  O  O134  1  0.99582000  0.11843000  0.01408000  1.0
  O  O135  1  0.99074000  0.37798000  0.48400000  1.0
  O  O136  1  0.25659000  0.54080000  0.43419000  1.0
  O  O137  1  0.26307000  0.96963000  0.06526000  1.0
  O  O138  1  0.26058000  0.06455000  0.53978000  1.0
  O  O139  1  0.26000000  0.43323000  0.96907000  1.0
  O  O140  1  0.74292000  0.45968000  0.93409000  1.0
  O  O141  1  0.73583000  0.03011000  0.56609000  1.0
  O  O142  1  0.74116000  0.93546000  0.04073000  1.0
  O  O143  1  0.73705000  0.56661000  0.47086000  1.0
  O  O144  1  0.74342000  0.45952000  0.56565000  1.0
  O  O145  1  0.73583000  0.02979000  0.93491000  1.0
  O  O146  1  0.74074000  0.93542000  0.45953000  1.0
  O  O147  1  0.73906000  0.56660000  0.03001000  1.0
  O  O148  1  0.25848000  0.53943000  0.06568000  1.0
  O  O149  1  0.26312000  0.96916000  0.43396000  1.0
  O  O150  1  0.25959000  0.06442000  0.95993000  1.0
  O  O151  1  0.26357000  0.43348000  0.52885000  1.0
  O  O152  1  0.42218000  0.57727000  0.57597000  1.0
  O  O153  1  0.42472000  0.92318000  0.92196000  1.0
  O  O154  1  0.42360000  0.92412000  0.57843000  1.0
  O  O155  1  0.42471000  0.57839000  0.92461000  1.0
  O  O156  1  0.57529000  0.42139000  0.07524000  1.0
  O  O157  1  0.57636000  0.07589000  0.42154000  1.0
  O  O158  1  0.57502000  0.07675000  0.07823000  1.0
  O  O159  1  0.57809000  0.42281000  0.42401000  1.0
