# generated using pymatgen
data_CuH16C16S2I
_symmetry_space_group_name_H-M   'P 1'
_cell_length_a   11.31090000
_cell_length_b   12.90180000
_cell_length_c   12.90190000
_cell_angle_alpha   72.38100000
_cell_angle_beta   89.99970000
_cell_angle_gamma   89.99940000
_symmetry_Int_Tables_number   1
_chemical_formula_structural   CuH16C16S2I
_chemical_formula_sum   'Cu4 H64 C64 S8 I4'
_cell_volume   1794.46590007
_cell_formula_units_Z   4
loop_
 _symmetry_equiv_pos_site_id
 _symmetry_equiv_pos_as_xyz
  1  'x, y, z'
loop_
 _atom_site_type_symbol
 _atom_site_label
 _atom_site_symmetry_multiplicity
 _atom_site_fract_x
 _atom_site_fract_y
 _atom_site_fract_z
 _atom_site_occupancy
  Cu  Cu0  1  0.71231000  0.56105000  0.43895000  1.0
  Cu  Cu1  1  0.21231000  0.43895000  0.56105000  1.0
  Cu  Cu2  1  0.73611000  0.75201000  0.24799000  1.0
  Cu  Cu3  1  0.23611000  0.24799000  0.75201000  1.0
  H  H4  1  0.81695000  0.42928000  0.69123000  1.0
  H  H5  1  0.31694000  0.57073000  0.30877000  1.0
  H  H6  1  0.81694000  0.30876000  0.57073000  1.0
  H  H7  1  0.31695000  0.69123000  0.42928000  1.0
  H  H8  1  0.66043000  0.41270000  0.71023000  1.0
  H  H9  1  0.16042000  0.58730000  0.28977000  1.0
  H  H10  1  0.66042000  0.28977000  0.58730000  1.0
  H  H11  1  0.16043000  0.71023000  0.41270000  1.0
  H  H12  1  0.58973000  0.39129000  0.88827000  1.0
  H  H13  1  0.08973000  0.60871000  0.11173000  1.0
  H  H14  1  0.58972000  0.11173000  0.60871000  1.0
  H  H15  1  0.08973000  0.88827000  0.39129000  1.0
  H  H16  1  0.59068000  0.44512000  0.05716000  1.0
  H  H17  1  0.09069000  0.55488000  0.94284000  1.0
  H  H18  1  0.59069000  0.94284000  0.55488000  1.0
  H  H19  1  0.09069000  0.05716000  0.44512000  1.0
  H  H20  1  0.90617000  0.63306000  0.95038000  1.0
  H  H21  1  0.40617000  0.36694000  0.04961000  1.0
  H  H22  1  0.90617000  0.04961000  0.36694000  1.0
  H  H23  1  0.40617000  0.95038000  0.63306000  1.0
  H  H24  1  0.90475000  0.58015000  0.78224000  1.0
  H  H25  1  0.40475000  0.41985000  0.21776000  1.0
  H  H26  1  0.90475000  0.21776000  0.41986000  1.0
  H  H27  1  0.40475000  0.78224000  0.58015000  1.0
  H  H28  1  0.81587000  0.83307000  0.43788000  1.0
  H  H29  1  0.31586000  0.16693000  0.56212000  1.0
  H  H30  1  0.81586000  0.56212000  0.16693000  1.0
  H  H31  1  0.31586000  0.43788000  0.83307000  1.0
  H  H32  1  0.65964000  0.83905000  0.44636000  1.0
  H  H33  1  0.15963000  0.16095000  0.55365000  1.0
  H  H34  1  0.65963000  0.55364000  0.16095000  1.0
  H  H35  1  0.15963000  0.44636000  0.83905000  1.0
  H  H36  1  0.51084000  0.57475000  0.63717000  1.0
  H  H37  1  0.01084000  0.42525000  0.36283000  1.0
  H  H38  1  0.51083000  0.36283000  0.42525000  1.0
  H  H39  1  0.01084000  0.63717000  0.57475000  1.0
  H  H40  1  0.55501000  0.70264000  0.55013000  1.0
  H  H41  1  0.05500000  0.29736000  0.44987000  1.0
  H  H42  1  0.55501000  0.44987000  0.29736000  1.0
  H  H43  1  0.05501000  0.55013000  0.70264000  1.0
  H  H44  1  0.41636000  0.59286000  0.79375000  1.0
  H  H45  1  0.91636000  0.40714000  0.20625000  1.0
  H  H46  1  0.41636000  0.20625000  0.40714000  1.0
  H  H47  1  0.91636000  0.79375000  0.59286000  1.0
  H  H48  1  0.42081000  0.64795000  0.96188000  1.0
  H  H49  1  0.92082000  0.35205000  0.03812000  1.0
  H  H50  1  0.42082000  0.03812000  0.35205000  1.0
  H  H51  1  0.92082000  0.96188000  0.64796000  1.0
  H  H52  1  0.72467000  0.84927000  0.83873000  1.0
  H  H53  1  0.22468000  0.15073000  0.16127000  1.0
  H  H54  1  0.72468000  0.16127000  0.15073000  1.0
  H  H55  1  0.22468000  0.83873000  0.84927000  1.0
  H  H56  1  0.72129000  0.79172000  0.67379000  1.0
  H  H57  1  0.22129000  0.20828000  0.32621000  1.0
  H  H58  1  0.72129000  0.32622000  0.20828000  1.0
  H  H59  1  0.22129000  0.67379000  0.79172000  1.0
  H  H60  1  0.58450000  0.98456000  0.14233000  1.0
  H  H61  1  0.08449000  0.01544000  0.85767000  1.0
  H  H62  1  0.58449000  0.85767000  0.01544000  1.0
  H  H63  1  0.08450000  0.14233000  0.98456000  1.0
  H  H64  1  0.52457000  0.91828000  0.27287000  1.0
  H  H65  1  0.02456000  0.08172000  0.72714000  1.0
  H  H66  1  0.52456000  0.72713000  0.08172000  1.0
  H  H67  1  0.02456000  0.27287000  0.91828000  1.0
  C  C68  1  0.73604000  0.28641000  0.53510000  1.0
  C  C69  1  0.23605000  0.71358000  0.46490000  1.0
  C  C70  1  0.73605000  0.46490000  0.71358000  1.0
  C  C71  1  0.23605000  0.53510000  0.28642000  1.0
  C  C72  1  0.74686000  0.17708000  0.51747000  1.0
  C  C73  1  0.24686000  0.82292000  0.48253000  1.0
  C  C74  1  0.74687000  0.48253000  0.82292000  1.0
  C  C75  1  0.24686000  0.51747000  0.17708000  1.0
  C  C76  1  0.66111000  0.09699000  0.55788000  1.0
  C  C77  1  0.16112000  0.90301000  0.44212000  1.0
  C  C78  1  0.66111000  0.44212000  0.90301000  1.0
  C  C79  1  0.16112000  0.55788000  0.09699000  1.0
  C  C80  1  0.66162000  0.00196000  0.52752000  1.0
  C  C81  1  0.16163000  0.99805000  0.47247000  1.0
  C  C82  1  0.66163000  0.47247000  0.99804000  1.0
  C  C83  1  0.16163000  0.52753000  0.00196000  1.0
  C  C84  1  0.74781000  0.98436000  0.45699000  1.0
  C  C85  1  0.24781000  0.01564000  0.54301000  1.0
  C  C86  1  0.74781000  0.54300000  0.01564000  1.0
  C  C87  1  0.24781000  0.45699000  0.98436000  1.0
  C  C88  1  0.83857000  0.57717000  0.93882000  1.0
  C  C89  1  0.33857000  0.42283000  0.06119000  1.0
  C  C90  1  0.83857000  0.06119000  0.42283000  1.0
  C  C91  1  0.33857000  0.93882000  0.57717000  1.0
  C  C92  1  0.83800000  0.54711000  0.84415000  1.0
  C  C93  1  0.33800000  0.45289000  0.15585000  1.0
  C  C94  1  0.83799000  0.15585000  0.45289000  1.0
  C  C95  1  0.33800000  0.84415000  0.54711000  1.0
  C  C96  1  0.73894000  0.88772000  0.41552000  1.0
  C  C97  1  0.23893000  0.11228000  0.58448000  1.0
  C  C98  1  0.73894000  0.58448000  0.11227000  1.0
  C  C99  1  0.23894000  0.41552000  0.88773000  1.0
  C  C100  1  0.57471000  0.64108000  0.62829000  1.0
  C  C101  1  0.07471000  0.35892000  0.37171000  1.0
  C  C102  1  0.57471000  0.37171000  0.35892000  1.0
  C  C103  1  0.07471000  0.62829000  0.64108000  1.0
  C  C104  1  0.56963000  0.68640000  0.72289000  1.0
  C  C105  1  0.06964000  0.31360000  0.27711000  1.0
  C  C106  1  0.56963000  0.27711000  0.31359000  1.0
  C  C107  1  0.06964000  0.72289000  0.68641000  1.0
  C  C108  1  0.48288000  0.65057000  0.80313000  1.0
  C  C109  1  0.98288000  0.34943000  0.19687000  1.0
  C  C110  1  0.48288000  0.19687000  0.34943000  1.0
  C  C111  1  0.98287000  0.80313000  0.65057000  1.0
  C  C112  1  0.48506000  0.68238000  0.89742000  1.0
  C  C113  1  0.98506000  0.31762000  0.10258000  1.0
  C  C114  1  0.48507000  0.10258000  0.31762000  1.0
  C  C115  1  0.98506000  0.89743000  0.68239000  1.0
  C  C116  1  0.57417000  0.75136000  0.91307000  1.0
  C  C117  1  0.07417000  0.24864000  0.08693000  1.0
  C  C118  1  0.57417000  0.08694000  0.24864000  1.0
  C  C119  1  0.07417000  0.91306000  0.75136000  1.0
  C  C120  1  0.65486000  0.79479000  0.82843000  1.0
  C  C121  1  0.15486000  0.20521000  0.17157000  1.0
  C  C122  1  0.65486000  0.17158000  0.20521000  1.0
  C  C123  1  0.15486000  0.82843000  0.79479000  1.0
  C  C124  1  0.65292000  0.76234000  0.73516000  1.0
  C  C125  1  0.15292000  0.23766000  0.26484000  1.0
  C  C126  1  0.65292000  0.26484000  0.23766000  1.0
  C  C127  1  0.15292000  0.73516000  0.76234000  1.0
  C  C128  1  0.59011000  0.97864000  0.22912000  1.0
  C  C129  1  0.09011000  0.02136000  0.77088000  1.0
  C  C130  1  0.59011000  0.77088000  0.02136000  1.0
  C  C131  1  0.09011000  0.22912000  0.97864000  1.0
  S  S132  1  0.72073000  0.39750000  0.40723000  1.0
  S  S133  1  0.22073000  0.60249000  0.59277000  1.0
  S  S134  1  0.72073000  0.59277000  0.60250000  1.0
  S  S135  1  0.22073000  0.40723000  0.39750000  1.0
  S  S136  1  0.73807000  0.92003000  0.26709000  1.0
  S  S137  1  0.23807000  0.07996000  0.73291000  1.0
  S  S138  1  0.73807000  0.73291000  0.07996000  1.0
  S  S139  1  0.23807000  0.26709000  0.92003000  1.0
  I  I140  1  0.92326000  0.65110000  0.34890000  1.0
  I  I141  1  0.42326000  0.34890000  0.65110000  1.0
  I  I142  1  0.52930000  0.66757000  0.33243000  1.0
  I  I143  1  0.02930000  0.33243000  0.66757000  1.0
