# generated using pymatgen
data_CuH16C16(NO)4
_symmetry_space_group_name_H-M   'P 1'
_cell_length_a   4.53618000
_cell_length_b   9.34108000
_cell_length_c   10.78720000
_cell_angle_alpha   73.67550000
_cell_angle_beta   85.78090000
_cell_angle_gamma   78.35880000
_symmetry_Int_Tables_number   1
_chemical_formula_structural   CuH16C16(NO)4
_chemical_formula_sum   'Cu1 H16 C16 N4 O4'
_cell_volume   429.56476099
_cell_formula_units_Z   1
loop_
 _symmetry_equiv_pos_site_id
 _symmetry_equiv_pos_as_xyz
  1  'x, y, z'
loop_
 _atom_site_type_symbol
 _atom_site_label
 _atom_site_symmetry_multiplicity
 _atom_site_fract_x
 _atom_site_fract_y
 _atom_site_fract_z
 _atom_site_occupancy
  Cu  Cu0  1  0.50000000  0.50000000  0.50000000  1.0
  H  H1  1  0.57003000  0.96499000  0.65646000  1.0
  H  H2  1  0.42997000  0.03501000  0.34354000  1.0
  H  H3  1  0.18835000  0.05995000  0.61887000  1.0
  H  H4  1  0.81166000  0.94006000  0.38113000  1.0
  H  H5  1  0.32065000  0.01151000  0.78017000  1.0
  H  H6  1  0.67935000  0.98850000  0.21983000  1.0
  H  H7  1  0.35485000  0.78864000  0.60600000  1.0
  H  H8  1  0.64515000  0.21135000  0.39401000  1.0
  H  H9  1  0.95514000  0.80577000  0.80963000  1.0
  H  H10  1  0.04487000  0.19422000  0.19038000  1.0
  H  H11  1  0.97478000  0.39406000  0.70985000  1.0
  H  H12  1  0.02521000  0.60594000  0.29015000  1.0
  H  H13  1  0.69170000  0.73808000  0.96876000  1.0
  H  H14  1  0.30830000  0.26192000  0.03123000  1.0
  H  H15  1  0.64796000  0.33623000  0.85062000  1.0
  H  H16  1  0.35204000  0.66376000  0.14938000  1.0
  C  C17  1  0.38212000  0.04997000  0.67748000  1.0
  C  C18  1  0.61790000  0.95003000  0.32251000  1.0
  C  C19  1  0.48792000  0.20012000  0.65070000  1.0
  C  C20  1  0.51209000  0.79988000  0.34929000  1.0
  C  C21  1  0.21369000  0.71034000  0.65804000  1.0
  C  C22  1  0.78630000  0.28966000  0.34196000  1.0
  C  C23  1  0.01627000  0.71921000  0.75882000  1.0
  C  C24  1  0.98373000  0.28079000  0.24118000  1.0
  C  C25  1  0.02915000  0.50214000  0.70986000  1.0
  C  C26  1  0.97084000  0.49786000  0.29014000  1.0
  C  C27  1  0.60730000  0.63387000  0.98062000  1.0
  C  C28  1  0.39269000  0.36613000  0.01937000  1.0
  C  C29  1  0.58855000  0.40826000  0.91618000  1.0
  C  C30  1  0.41144000  0.59174000  0.08382000  1.0
  C  C31  1  0.69693000  0.54309000  0.89611000  1.0
  C  C32  1  0.30305000  0.45691000  0.10388000  1.0
  N  N33  1  0.22116000  0.57477000  0.62907000  1.0
  N  N34  1  0.77883000  0.42523000  0.37094000  1.0
  N  N35  1  0.89905000  0.58675000  0.79146000  1.0
  N  N36  1  0.10095000  0.41325000  0.20854000  1.0
  O  O37  1  0.68527000  0.21443000  0.71923000  1.0
  O  O38  1  0.31474000  0.78557000  0.28076000  1.0
  O  O39  1  0.36148000  0.30480000  0.55263000  1.0
  O  O40  1  0.63852000  0.69520000  0.44737000  1.0
