# generated using pymatgen
data_ZnH8C4(BrO)2
_symmetry_space_group_name_H-M   'P 1'
_cell_length_a   7.12921000
_cell_length_b   9.81301000
_cell_length_c   11.91740000
_cell_angle_alpha   90.00000000
_cell_angle_beta   89.99990000
_cell_angle_gamma   99.63850000
_symmetry_Int_Tables_number   1
_chemical_formula_structural   ZnH8C4(BrO)2
_chemical_formula_sum   'Zn4 H32 C16 Br8 O8'
_cell_volume   821.96036342
_cell_formula_units_Z   4
loop_
 _symmetry_equiv_pos_site_id
 _symmetry_equiv_pos_as_xyz
  1  'x, y, z'
loop_
 _atom_site_type_symbol
 _atom_site_label
 _atom_site_symmetry_multiplicity
 _atom_site_fract_x
 _atom_site_fract_y
 _atom_site_fract_z
 _atom_site_occupancy
  Zn  Zn0  1  0.66111000  0.27040000  0.81426000  1.0
  Zn  Zn1  1  0.16111000  0.77040000  0.68574000  1.0
  Zn  Zn2  1  0.33889000  0.72960000  0.18574000  1.0
  Zn  Zn3  1  0.83889000  0.22960000  0.31426000  1.0
  H  H4  1  0.38470000  0.47874000  0.80914000  1.0
  H  H5  1  0.88469000  0.97874000  0.69086000  1.0
  H  H6  1  0.61530000  0.52126000  0.19086000  1.0
  H  H7  1  0.11530000  0.02126000  0.30914000  1.0
  H  H8  1  0.57637000  0.60443000  0.86209000  1.0
  H  H9  1  0.07637000  0.10443000  0.63791000  1.0
  H  H10  1  0.42363000  0.39557000  0.13791000  1.0
  H  H11  1  0.92363000  0.89557000  0.36209000  1.0
  H  H12  1  0.77912000  0.53186000  0.00541000  1.0
  H  H13  1  0.27912000  0.03186000  0.49459000  1.0
  H  H14  1  0.22088000  0.46815000  0.99459000  1.0
  H  H15  1  0.72088000  0.96814000  0.50541000  1.0
  H  H16  1  0.73062000  0.35607000  0.05208000  1.0
  H  H17  1  0.23062000  0.85607000  0.44792000  1.0
  H  H18  1  0.26938000  0.64393000  0.94792000  1.0
  H  H19  1  0.76938000  0.14393000  0.55208000  1.0
  H  H20  1  0.32909000  0.97677000  0.86969000  1.0
  H  H21  1  0.82908000  0.47677000  0.63031000  1.0
  H  H22  1  0.67091000  0.02323000  0.13031000  1.0
  H  H23  1  0.17092000  0.52323000  0.36969000  1.0
  H  H24  1  0.28868000  0.14235000  0.91893000  1.0
  H  H25  1  0.78868000  0.64235000  0.58107000  1.0
  H  H26  1  0.71132000  0.85765000  0.08107000  1.0
  H  H27  1  0.21132000  0.35765000  0.41893000  1.0
  H  H28  1  0.82950000  0.05235000  0.94376000  1.0
  H  H29  1  0.32950000  0.55235000  0.55624000  1.0
  H  H30  1  0.17050000  0.94765000  0.05623000  1.0
  H  H31  1  0.67050000  0.44765000  0.44376000  1.0
  H  H32  1  0.64827000  0.92319000  0.88394000  1.0
  H  H33  1  0.14827000  0.42319000  0.61605000  1.0
  H  H34  1  0.35173000  0.07681000  0.11605000  1.0
  H  H35  1  0.85173000  0.57681000  0.38394000  1.0
  C  C36  1  0.46514000  0.51677000  0.88445000  1.0
  C  C37  1  0.96514000  0.01677000  0.61555000  1.0
  C  C38  1  0.53486000  0.48323000  0.11555000  1.0
  C  C39  1  0.03486000  0.98323000  0.38445000  1.0
  C  C40  1  0.66571000  0.44473000  0.02588000  1.0
  C  C41  1  0.16571000  0.94473000  0.47412000  1.0
  C  C42  1  0.33429000  0.55527000  0.97412000  1.0
  C  C43  1  0.83429000  0.05527000  0.52588000  1.0
  C  C44  1  0.36525000  0.05616000  0.93499000  1.0
  C  C45  1  0.86525000  0.55616000  0.56501000  1.0
  C  C46  1  0.63475000  0.94384000  0.06501000  1.0
  C  C47  1  0.13475000  0.44384000  0.43500000  1.0
  C  C48  1  0.68003000  0.00294000  0.94939000  1.0
  C  C49  1  0.18003000  0.50294000  0.55061000  1.0
  C  C50  1  0.31997000  0.99706000  0.05061000  1.0
  C  C51  1  0.81997000  0.49706000  0.44939000  1.0
  Br  Br52  1  0.99181000  0.30027000  0.81932000  1.0
  Br  Br53  1  0.49180000  0.80027000  0.68068000  1.0
  Br  Br54  1  0.00820000  0.69973000  0.18068000  1.0
  Br  Br55  1  0.50820000  0.19973000  0.31932000  1.0
  Br  Br56  1  0.47021000  0.25640000  0.65476000  1.0
  Br  Br57  1  0.97021000  0.75640000  0.84524000  1.0
  Br  Br58  1  0.52979000  0.74360000  0.34524000  1.0
  Br  Br59  1  0.02979000  0.24360000  0.15476000  1.0
  O  O60  1  0.55601000  0.40362000  0.92462000  1.0
  O  O61  1  0.05601000  0.90362000  0.57538000  1.0
  O  O62  1  0.44399000  0.59638000  0.07538000  1.0
  O  O63  1  0.94399000  0.09638000  0.42462000  1.0
  O  O64  1  0.56765000  0.11119000  0.92766000  1.0
  O  O65  1  0.06765000  0.61119000  0.57234000  1.0
  O  O66  1  0.43235000  0.88881000  0.07234000  1.0
  O  O67  1  0.93235000  0.38881000  0.42766000  1.0
