# generated using pymatgen
data_Dy2PH19C11NO16
_symmetry_space_group_name_H-M   'P 1'
_cell_length_a   9.52790000
_cell_length_b   10.60420000
_cell_length_c   11.81310000
_cell_angle_alpha   71.22540000
_cell_angle_beta   69.02190000
_cell_angle_gamma   65.41630000
_symmetry_Int_Tables_number   1
_chemical_formula_structural   Dy2PH19C11NO16
_chemical_formula_sum   'Dy4 P2 H38 C22 N2 O32'
_cell_volume   992.18070568
_cell_formula_units_Z   2
loop_
 _symmetry_equiv_pos_site_id
 _symmetry_equiv_pos_as_xyz
  1  'x, y, z'
loop_
 _atom_site_type_symbol
 _atom_site_label
 _atom_site_symmetry_multiplicity
 _atom_site_fract_x
 _atom_site_fract_y
 _atom_site_fract_z
 _atom_site_occupancy
  Dy  Dy0  1  0.58025000  0.84162000  0.21501000  1.0
  Dy  Dy1  1  0.41975000  0.15837000  0.78498000  1.0
  Dy  Dy2  1  0.93788000  0.19574000  0.25053000  1.0
  Dy  Dy3  1  0.06212000  0.80426000  0.74948000  1.0
  P  P4  1  0.34160000  0.19205000  0.09751000  1.0
  P  P5  1  0.65840000  0.80795000  0.90249000  1.0
  H  H6  1  0.14906000  0.40377000  0.24188000  1.0
  H  H7  1  0.85093000  0.59624000  0.75812000  1.0
  H  H8  1  0.47671000  0.35541000  0.07628000  1.0
  H  H9  1  0.52327000  0.64460000  0.92371000  1.0
  H  H10  1  0.29543000  0.44416000  0.02828000  1.0
  H  H11  1  0.70457000  0.55584000  0.97172000  1.0
  H  H12  1  0.46310000  0.31790000  0.29456000  1.0
  H  H13  1  0.53690000  0.68211000  0.70544000  1.0
  H  H14  1  0.35733000  0.20106000  0.32143000  1.0
  H  H15  1  0.64268000  0.79894000  0.67856000  1.0
  H  H16  1  0.12886000  0.33605000  0.46809000  1.0
  H  H17  1  0.87114000  0.66395000  0.53191000  1.0
  H  H18  1  0.30550000  0.27821000  0.51490000  1.0
  H  H19  1  0.69449000  0.72178000  0.48510000  1.0
  H  H20  1  0.14038000  0.53713000  0.52563000  1.0
  H  H21  1  0.85962000  0.46286000  0.47438000  1.0
  H  H22  1  0.33521000  0.51402000  0.42622000  1.0
  H  H23  1  0.66478000  0.48598000  0.57378000  1.0
  H  H24  1  0.14095000  0.71295000  0.32179000  1.0
  H  H25  1  0.85904000  0.28705000  0.67821000  1.0
  H  H26  1  0.02510000  0.60795000  0.34854000  1.0
  H  H27  1  0.97490000  0.39205000  0.65146000  1.0
  H  H28  1  0.18661000  0.62198000  0.13471000  1.0
  H  H29  1  0.81339000  0.37803000  0.86529000  1.0
  H  H30  1  0.36644000  0.56413000  0.18307000  1.0
  H  H31  1  0.63356000  0.43587000  0.81693000  1.0
  H  H32  1  0.32825000  0.76698000  0.44444000  1.0
  H  H33  1  0.67175000  0.23303000  0.55556000  1.0
  H  H34  1  0.39156000  0.85676000  0.48295000  1.0
  H  H35  1  0.60844000  0.14324000  0.51704000  1.0
  H  H36  1  0.34642000  0.91095000  0.07233000  1.0
  H  H37  1  0.65357000  0.08905000  0.92768000  1.0
  H  H38  1  0.23994000  0.90665000  0.21281000  1.0
  H  H39  1  0.76005000  0.09335000  0.78719000  1.0
  H  H40  1  0.10116000  0.29024000  0.99910000  1.0
  H  H41  1  0.89883000  0.70976000  0.00090000  1.0
  H  H42  1  0.00624000  0.20921000  0.99276000  1.0
  H  H43  1  0.99376000  0.79078000  0.00725000  1.0
  C  C44  1  0.35202000  0.36198000  0.09863000  1.0
  C  C45  1  0.64798000  0.63803000  0.90136000  1.0
  C  C46  1  0.34413000  0.30901000  0.32062000  1.0
  C  C47  1  0.65588000  0.69099000  0.67937000  1.0
  C  C48  1  0.24443000  0.35137000  0.44380000  1.0
  C  C49  1  0.75557000  0.64864000  0.55620000  1.0
  C  C50  1  0.21940000  0.50487000  0.43854000  1.0
  C  C51  1  0.78060000  0.49513000  0.56146000  1.0
  C  C52  1  0.14793000  0.60422000  0.33149000  1.0
  C  C53  1  0.85207000  0.39578000  0.66851000  1.0
  C  C54  1  0.24601000  0.55853000  0.20914000  1.0
  C  C55  1  0.75399000  0.44147000  0.79085000  1.0
  C  C56  1  0.82485000  0.52581000  0.25451000  1.0
  C  C57  1  0.17516000  0.47419000  0.74550000  1.0
  C  C58  1  0.67460000  0.50326000  0.25376000  1.0
  C  C59  1  0.32541000  0.49674000  0.74624000  1.0
  C  C60  1  0.70982000  0.01250000  0.30987000  1.0
  C  C61  1  0.29017000  0.98749000  0.69013000  1.0
  C  C62  1  0.83263000  0.98630000  0.18354000  1.0
  C  C63  1  0.16738000  0.01369000  0.81646000  1.0
  C  C64  1  0.04870000  0.93547000  0.46786000  1.0
  C  C65  1  0.95130000  0.06453000  0.53215000  1.0
  N  N66  1  0.26516000  0.40694000  0.21944000  1.0
  N  N67  1  0.73484000  0.59306000  0.78055000  1.0
  O  O68  1  0.50121000  0.07534000  0.10961000  1.0
  O  O69  1  0.49879000  0.92466000  0.89038000  1.0
  O  O70  1  0.19879000  0.16956000  0.20398000  1.0
  O  O71  1  0.80121000  0.83044000  0.79602000  1.0
  O  O72  1  0.69005000  0.77929000  0.02892000  1.0
  O  O73  1  0.30994000  0.22072000  0.97108000  1.0
  O  O74  1  0.80929000  0.64749000  0.26049000  1.0
  O  O75  1  0.19073000  0.35251000  0.73951000  1.0
  O  O76  1  0.95246000  0.41799000  0.24952000  1.0
  O  O77  1  0.04755000  0.58200000  0.75049000  1.0
  O  O78  1  0.54947000  0.61004000  0.25588000  1.0
  O  O79  1  0.45053000  0.38996000  0.74412000  1.0
  O  O80  1  0.69140000  0.37843000  0.25111000  1.0
  O  O81  1  0.30861000  0.62157000  0.74889000  1.0
  O  O82  1  0.72584000  0.09015000  0.36361000  1.0
  O  O83  1  0.27416000  0.90984000  0.63638000  1.0
  O  O84  1  0.60465000  0.95467000  0.34815000  1.0
  O  O85  1  0.39536000  0.04532000  0.65185000  1.0
  O  O86  1  0.93784000  0.04506000  0.14477000  1.0
  O  O87  1  0.06217000  0.95492000  0.85524000  1.0
  O  O88  1  0.81757000  0.90917000  0.12994000  1.0
  O  O89  1  0.18244000  0.09083000  0.87005000  1.0
  O  O90  1  0.06801000  0.95985000  0.35244000  1.0
  O  O91  1  0.93199000  0.04014000  0.64757000  1.0
  O  O92  1  0.89773000  0.18404000  0.46399000  1.0
  O  O93  1  0.10226000  0.81596000  0.53603000  1.0
  O  O94  1  0.41411000  0.80676000  0.41706000  1.0
  O  O95  1  0.58588000  0.19325000  0.58293000  1.0
  O  O96  1  0.34618000  0.86576000  0.15913000  1.0
  O  O97  1  0.65382000  0.13424000  0.84087000  1.0
  O  O98  1  0.99020000  0.28762000  0.02910000  1.0
  O  O99  1  0.00980000  0.71237000  0.97090000  1.0
