# generated using pymatgen
data_AgH15C17SN4O5
_symmetry_space_group_name_H-M   'P 1'
_cell_length_a   8.29328000
_cell_length_b   10.27160000
_cell_length_c   11.38450000
_cell_angle_alpha   79.37820000
_cell_angle_beta   77.70980000
_cell_angle_gamma   83.42970000
_symmetry_Int_Tables_number   1
_chemical_formula_structural   AgH15C17SN4O5
_chemical_formula_sum   'Ag2 H30 C34 S2 N8 O10'
_cell_volume   928.47089961
_cell_formula_units_Z   2
loop_
 _symmetry_equiv_pos_site_id
 _symmetry_equiv_pos_as_xyz
  1  'x, y, z'
loop_
 _atom_site_type_symbol
 _atom_site_label
 _atom_site_symmetry_multiplicity
 _atom_site_fract_x
 _atom_site_fract_y
 _atom_site_fract_z
 _atom_site_occupancy
  Ag  Ag0  1  0.32936000  0.41214000  0.53794000  1.0
  Ag  Ag1  1  0.67063000  0.58788000  0.46206000  1.0
  H  H2  1  0.79682000  0.01902000  0.08392000  1.0
  H  H3  1  0.20318000  0.98099000  0.91608000  1.0
  H  H4  1  0.68655000  0.17303000  0.05730000  1.0
  H  H5  1  0.31345000  0.82699000  0.94268000  1.0
  H  H6  1  0.84866000  0.80927000  0.99504000  1.0
  H  H7  1  0.15134000  0.19072000  0.00496000  1.0
  H  H8  1  0.96446000  0.65421000  0.02972000  1.0
  H  H9  1  0.03555000  0.34578000  0.97029000  1.0
  H  H10  1  0.44042000  0.45322000  0.76957000  1.0
  H  H11  1  0.55958000  0.54679000  0.23041000  1.0
  H  H12  1  0.58695000  0.31756000  0.92657000  1.0
  H  H13  1  0.41304000  0.68245000  0.07343000  1.0
  H  H14  1  0.55698000  0.97443000  0.76400000  1.0
  H  H15  1  0.44303000  0.02557000  0.23599000  1.0
  H  H16  1  0.41050000  0.12362000  0.61505000  1.0
  H  H17  1  0.58949000  0.87638000  0.38495000  1.0
  H  H18  1  0.20014000  0.36989000  0.31130000  1.0
  H  H19  1  0.79986000  0.63011000  0.68870000  1.0
  H  H20  1  0.04869000  0.50457000  0.15859000  1.0
  H  H21  1  0.95133000  0.49542000  0.84140000  1.0
  H  H22  1  0.03465000  0.83906000  0.34165000  1.0
  H  H23  1  0.96534000  0.16094000  0.65835000  1.0
  H  H24  1  0.18572000  0.68771000  0.49138000  1.0
  H  H25  1  0.81426000  0.31229000  0.50862000  1.0
  H  H26  1  0.65775000  0.01801000  0.51812000  1.0
  H  H27  1  0.34226000  0.98196000  0.48188000  1.0
  H  H28  1  0.98864000  0.24715000  0.23188000  1.0
  H  H29  1  0.01136000  0.75284000  0.76813000  1.0
  H  H30  1  0.76979000  0.86075000  0.67925000  1.0
  H  H31  1  0.23021000  0.13923000  0.32074000  1.0
  C  C32  1  0.46917000  0.34644000  0.77286000  1.0
  C  C33  1  0.53082000  0.65357000  0.22714000  1.0
  C  C34  1  0.55117000  0.26940000  0.85937000  1.0
  C  C35  1  0.44881000  0.73060000  0.14064000  1.0
  C  C36  1  0.58823000  0.13348000  0.85590000  1.0
  C  C37  1  0.41176000  0.86653000  0.14411000  1.0
  C  C38  1  0.53477000  0.07993000  0.76806000  1.0
  C  C39  1  0.46522000  0.92007000  0.23195000  1.0
  C  C40  1  0.45297000  0.16246000  0.68497000  1.0
  C  C41  1  0.54702000  0.83755000  0.31503000  1.0
  C  C42  1  0.68698000  0.04048000  0.93746000  1.0
  C  C43  1  0.31301000  0.95952000  0.06254000  1.0
  C  C44  1  0.16071000  0.47413000  0.31505000  1.0
  C  C45  1  0.83928000  0.52587000  0.68495000  1.0
  C  C46  1  0.07739000  0.55149000  0.22929000  1.0
  C  C47  1  0.92261000  0.44851000  0.77070000  1.0
  C  C48  1  0.03138000  0.68538000  0.23754000  1.0
  C  C49  1  0.96861000  0.31461000  0.76246000  1.0
  C  C50  1  0.06940000  0.73526000  0.33366000  1.0
  C  C51  1  0.93060000  0.26473000  0.66632000  1.0
  C  C52  1  0.15160000  0.65230000  0.41629000  1.0
  C  C53  1  0.84840000  0.34770000  0.58370000  1.0
  C  C54  1  0.94272000  0.78223000  0.15168000  1.0
  C  C55  1  0.05728000  0.21778000  0.84832000  1.0
  C  C56  1  0.80863000  0.14255000  0.37294000  1.0
  C  C57  1  0.19138000  0.85744000  0.62707000  1.0
  C  C58  1  0.78212000  0.04585000  0.47533000  1.0
  C  C59  1  0.21789000  0.95416000  0.52467000  1.0
  C  C60  1  0.91771000  0.98179000  0.52753000  1.0
  C  C61  1  0.08227000  0.01821000  0.47249000  1.0
  C  C62  1  0.97138000  0.17485000  0.31571000  1.0
  C  C63  1  0.02863000  0.82514000  0.68431000  1.0
  C  C64  1  0.89507000  0.88533000  0.63540000  1.0
  C  C65  1  0.10493000  0.11468000  0.36461000  1.0
  S  S66  1  0.63789000  0.24325000  0.32067000  1.0
  S  S67  1  0.36212000  0.75674000  0.67934000  1.0
  N  N68  1  0.42306000  0.29409000  0.68566000  1.0
  N  N69  1  0.57692000  0.70591000  0.31434000  1.0
  N  N70  1  0.19736000  0.52361000  0.40713000  1.0
  N  N71  1  0.80265000  0.47639000  0.59286000  1.0
  N  N72  1  0.73077000  0.08536000  0.02790000  1.0
  N  N73  1  0.26923000  0.91465000  0.97210000  1.0
  N  N74  1  0.91430000  0.74268000  0.05258000  1.0
  N  N75  1  0.08570000  0.25732000  0.94742000  1.0
  O  O76  1  0.72681000  0.92420000  0.91570000  1.0
  O  O77  1  0.27321000  0.07582000  0.08429000  1.0
  O  O78  1  0.89703000  0.89534000  0.17743000  1.0
  O  O79  1  0.10298000  0.10466000  0.82256000  1.0
  O  O80  1  0.49231000  0.16609000  0.36433000  1.0
  O  O81  1  0.50770000  0.83390000  0.63569000  1.0
  O  O82  1  0.62481000  0.36207000  0.38001000  1.0
  O  O83  1  0.37523000  0.63792000  0.62000000  1.0
  O  O84  1  0.68495000  0.27734000  0.18724000  1.0
  O  O85  1  0.31505000  0.72266000  0.81276000  1.0
