# generated using pymatgen
data_CuH8C12(NO2)2
_symmetry_space_group_name_H-M   'P 1'
_cell_length_a   8.25534000
_cell_length_b   8.98850000
_cell_length_c   9.72061060
_cell_angle_alpha   108.86960295
_cell_angle_beta   114.98066851
_cell_angle_gamma   76.98700000
_symmetry_Int_Tables_number   1
_chemical_formula_structural   CuH8C12(NO2)2
_chemical_formula_sum   'Cu2 H16 C24 N4 O8'
_cell_volume   615.37525714
_cell_formula_units_Z   2
loop_
 _symmetry_equiv_pos_site_id
 _symmetry_equiv_pos_as_xyz
  1  'x, y, z'
loop_
 _atom_site_type_symbol
 _atom_site_label
 _atom_site_symmetry_multiplicity
 _atom_site_fract_x
 _atom_site_fract_y
 _atom_site_fract_z
 _atom_site_occupancy
  Cu  Cu0  1  0.16175000  0.28046000  0.18346000  1.0
  Cu  Cu1  1  0.83826000  0.71954000  0.81654000  1.0
  H  H2  1  0.95626000  0.59019000  0.29505000  1.0
  H  H3  1  0.04374000  0.40981000  0.70495000  1.0
  H  H4  1  0.00381000  0.79081000  0.55801000  1.0
  H  H5  1  0.99618000  0.20919000  0.44199000  1.0
  H  H6  1  0.26724000  0.74196000  0.79123000  1.0
  H  H7  1  0.73275000  0.25803000  0.20877000  1.0
  H  H8  1  0.48734000  0.50374000  0.76018000  1.0
  H  H9  1  0.51265000  0.49625000  0.23981000  1.0
  H  H10  1  0.64918000  0.29094000  0.71148000  1.0
  H  H11  1  0.35082000  0.70906000  0.28852000  1.0
  H  H12  1  0.83162000  0.04304000  0.62926000  1.0
  H  H13  1  0.16839000  0.95697000  0.37074000  1.0
  H  H14  1  0.73119000  0.89742000  0.34056000  1.0
  H  H15  1  0.26883000  0.10259000  0.65945000  1.0
  H  H16  1  0.44468000  0.00251000  0.15185000  1.0
  H  H17  1  0.55533000  0.99749000  0.84815000  1.0
  C  C18  1  0.07194000  0.57687000  0.40115000  1.0
  C  C19  1  0.92806000  0.42313000  0.59885000  1.0
  C  C20  1  0.09828000  0.68631000  0.54561000  1.0
  C  C21  1  0.90172000  0.31368000  0.45440000  1.0
  C  C22  1  0.24704000  0.65867000  0.67693000  1.0
  C  C23  1  0.75295000  0.34132000  0.32307000  1.0
  C  C24  1  0.36690000  0.52416000  0.65975000  1.0
  C  C25  1  0.63310000  0.47582000  0.34025000  1.0
  C  C26  1  0.33289000  0.41945000  0.51064000  1.0
  C  C27  1  0.66711000  0.58054000  0.48935000  1.0
  C  C28  1  0.45096000  0.27509000  0.47592000  1.0
  C  C29  1  0.54904000  0.72491000  0.52407000  1.0
  C  C30  1  0.60745000  0.22334000  0.58885000  1.0
  C  C31  1  0.39255000  0.77666000  0.41114000  1.0
  C  C32  1  0.71016000  0.08587000  0.54188000  1.0
  C  C33  1  0.28984000  0.91413000  0.45812000  1.0
  C  C34  1  0.65408000  0.00404000  0.38335000  1.0
  C  C35  1  0.34592000  0.99596000  0.61665000  1.0
  C  C36  1  0.49597000  0.06139000  0.27693000  1.0
  C  C37  1  0.50403000  0.93861000  0.72307000  1.0
  C  C38  1  0.90943000  0.47582000  0.99019000  1.0
  C  C39  1  0.09058000  0.52419000  0.00981000  1.0
  C  C40  1  0.03881000  0.00555000  0.94118000  1.0
  C  C41  1  0.96117000  0.99445000  0.05882000  1.0
  N  N42  1  0.18591000  0.44637000  0.38457000  1.0
  N  N43  1  0.81409000  0.55363000  0.61543000  1.0
  N  N44  1  0.39713000  0.19301000  0.32249000  1.0
  N  N45  1  0.60288000  0.80699000  0.67751000  1.0
  O  O46  1  0.91979000  0.37521000  0.06224000  1.0
  O  O47  1  0.08021000  0.62480000  0.93776000  1.0
  O  O48  1  0.14931000  0.10840000  0.98980000  1.0
  O  O49  1  0.85067000  0.89160000  0.01020000  1.0
  O  O50  1  0.76490000  0.53787000  0.90630000  1.0
  O  O51  1  0.23510000  0.46214000  0.09370000  1.0
  O  O52  1  0.00983000  0.08688000  0.19373000  1.0
  O  O53  1  0.99016000  0.91313000  0.80628000  1.0
