# generated using pymatgen
data_CuH18C12Br2(N3O2)2
_symmetry_space_group_name_H-M   'P 1'
_cell_length_a   3.99589000
_cell_length_b   6.69063000
_cell_length_c   16.87743339
_cell_angle_alpha   80.38430854
_cell_angle_beta   83.74996000
_cell_angle_gamma   82.56170000
_symmetry_Int_Tables_number   1
_chemical_formula_structural   CuH18C12Br2(N3O2)2
_chemical_formula_sum   'Cu1 H18 C12 Br2 N6 O4'
_cell_volume   439.37539638
_cell_formula_units_Z   1
loop_
 _symmetry_equiv_pos_site_id
 _symmetry_equiv_pos_as_xyz
  1  'x, y, z'
loop_
 _atom_site_type_symbol
 _atom_site_label
 _atom_site_symmetry_multiplicity
 _atom_site_fract_x
 _atom_site_fract_y
 _atom_site_fract_z
 _atom_site_occupancy
  Cu  Cu0  1  0.99999000  0.50000000  0.50000000  1.0
  H  H1  1  0.17212000  0.86532000  0.57101000  1.0
  H  H2  1  0.82785000  0.13469000  0.42898000  1.0
  H  H3  1  0.95368000  0.97235000  0.78355000  1.0
  H  H4  1  0.04634000  0.02766000  0.21645000  1.0
  H  H5  1  0.15729000  0.07785000  0.69052000  1.0
  H  H6  1  0.84271000  0.92215000  0.30948000  1.0
  H  H7  1  0.55884000  0.38323000  0.95844000  1.0
  H  H8  1  0.44118000  0.61676000  0.04156000  1.0
  H  H9  1  0.16135000  0.51510000  0.93151000  1.0
  H  H10  1  0.83867000  0.48489000  0.06849000  1.0
  H  H11  1  0.41379000  0.06479000  0.91475000  1.0
  H  H12  1  0.58623000  0.93519000  0.08525000  1.0
  H  H13  1  0.01713000  0.19634000  0.88678000  1.0
  H  H14  1  0.98287000  0.80365000  0.11322000  1.0
  H  H15  1  0.10678000  0.15058000  0.98977000  1.0
  H  H16  1  0.89323000  0.84942000  0.01023000  1.0
  H  H17  1  0.67523000  0.37558000  0.67711000  1.0
  H  H18  1  0.32475000  0.62442000  0.32289000  1.0
  C  C19  1  0.77891000  0.51937000  0.67255000  1.0
  C  C20  1  0.22108000  0.48064000  0.32745000  1.0
  C  C21  1  0.77403000  0.64604000  0.73162000  1.0
  C  C22  1  0.22598000  0.35396000  0.26837000  1.0
  C  C23  1  0.94123000  0.81498000  0.69273000  1.0
  C  C24  1  0.05876000  0.18502000  0.30727000  1.0
  C  C25  1  0.64138000  0.61547000  0.81524000  1.0
  C  C26  1  0.35862000  0.38455000  0.18477000  1.0
  C  C27  1  0.35703000  0.39063000  0.91857000  1.0
  C  C28  1  0.64298000  0.60937000  0.08143000  1.0
  C  C29  1  0.21667000  0.18848000  0.92742000  1.0
  C  C30  1  0.78335000  0.81151000  0.07258000  1.0
  Br  Br31  1  0.43494000  0.22077000  0.55545000  1.0
  Br  Br32  1  0.56506000  0.77923000  0.44455000  1.0
  N  N33  1  0.93357000  0.60091000  0.60330000  1.0
  N  N34  1  0.06641000  0.39909000  0.39670000  1.0
  N  N35  1  0.03028000  0.78211000  0.61576000  1.0
  N  N36  1  0.96971000  0.21790000  0.38423000  1.0
  N  N37  1  0.99774000  0.98064000  0.72272000  1.0
  N  N38  1  0.00227000  0.01936000  0.27727000  1.0
  O  O39  1  0.65970000  0.73357000  0.86345000  1.0
  O  O40  1  0.34029000  0.26641000  0.13655000  1.0
  O  O41  1  0.49637000  0.43908000  0.83524000  1.0
  O  O42  1  0.50364000  0.56091000  0.16476000  1.0
