# generated using pymatgen
data_Cu2SiH16C7(SI)2
_symmetry_space_group_name_H-M   'P 1'
_cell_length_a   6.78070000
_cell_length_b   8.24767000
_cell_length_c   24.94970000
_cell_angle_alpha   94.99970000
_cell_angle_beta   89.99970000
_cell_angle_gamma   90.00000000
_symmetry_Int_Tables_number   1
_chemical_formula_structural   Cu2SiH16C7(SI)2
_chemical_formula_sum   'Cu8 Si4 H64 C28 S8 I8'
_cell_volume   1390.00242861
_cell_formula_units_Z   4
loop_
 _symmetry_equiv_pos_site_id
 _symmetry_equiv_pos_as_xyz
  1  'x, y, z'
loop_
 _atom_site_type_symbol
 _atom_site_label
 _atom_site_symmetry_multiplicity
 _atom_site_fract_x
 _atom_site_fract_y
 _atom_site_fract_z
 _atom_site_occupancy
  Cu  Cu0  1  0.04021000  0.48851000  0.55231000  1.0
  Cu  Cu1  1  0.54020000  0.01150000  0.94770000  1.0
  Cu  Cu2  1  0.95980000  0.51150000  0.44769000  1.0
  Cu  Cu3  1  0.45978000  0.98850000  0.05230000  1.0
  Cu  Cu4  1  0.44692000  0.48964000  0.56822000  1.0
  Cu  Cu5  1  0.94691000  0.01037000  0.93178000  1.0
  Cu  Cu6  1  0.55309000  0.51037000  0.43178000  1.0
  Cu  Cu7  1  0.05307000  0.98963000  0.06822000  1.0
  Si  Si8  1  0.81927000  0.48155000  0.70653000  1.0
  Si  Si9  1  0.31926000  0.01846000  0.79347000  1.0
  Si  Si10  1  0.18074000  0.51845000  0.29347000  1.0
  Si  Si11  1  0.68073000  0.98154000  0.20653000  1.0
  H  H12  1  0.78088000  0.77116000  0.69384000  1.0
  H  H13  1  0.28087000  0.72884000  0.80616000  1.0
  H  H14  1  0.21914000  0.22884000  0.30616000  1.0
  H  H15  1  0.71912000  0.27116000  0.19384000  1.0
  H  H16  1  0.91821000  0.97629000  0.62183000  1.0
  H  H17  1  0.41822000  0.52371000  0.87818000  1.0
  H  H18  1  0.08180000  0.02371000  0.37818000  1.0
  H  H19  1  0.58177000  0.47629000  0.12182000  1.0
  H  H20  1  0.99077000  0.89398000  0.55685000  1.0
  H  H21  1  0.49076000  0.60602000  0.94315000  1.0
  H  H22  1  0.00925000  0.10603000  0.44315000  1.0
  H  H23  1  0.50923000  0.39397000  0.05685000  1.0
  H  H24  1  0.65266000  0.00231000  0.55490000  1.0
  H  H25  1  0.15266000  0.49771000  0.94511000  1.0
  H  H26  1  0.34736000  0.99771000  0.44511000  1.0
  H  H27  1  0.84733000  0.50230000  0.05490000  1.0
  H  H28  1  0.65301000  0.79059000  0.53702000  1.0
  H  H29  1  0.15301000  0.70942000  0.96298000  1.0
  H  H30  1  0.34701000  0.20942000  0.46298000  1.0
  H  H31  1  0.84699000  0.29058000  0.03702000  1.0
  H  H32  1  0.37296000  0.88159000  0.59846000  1.0
  H  H33  1  0.87296000  0.61841000  0.90154000  1.0
  H  H34  1  0.62706000  0.11842000  0.40154000  1.0
  H  H35  1  0.12703000  0.38159000  0.09846000  1.0
  H  H36  1  0.54263000  0.95470000  0.64906000  1.0
  H  H37  1  0.04264000  0.54530000  0.85094000  1.0
  H  H38  1  0.45738000  0.04530000  0.35094000  1.0
  H  H39  1  0.95735000  0.45470000  0.14906000  1.0
  H  H40  1  0.12169000  0.38910000  0.74931000  1.0
  H  H41  1  0.62166000  0.11091000  0.75068000  1.0
  H  H42  1  0.87832000  0.61089000  0.25069000  1.0
  H  H43  1  0.37832000  0.88909000  0.24931000  1.0
  H  H44  1  0.13136000  0.60284000  0.74320000  1.0
  H  H45  1  0.63135000  0.89717000  0.75679000  1.0
  H  H46  1  0.86865000  0.39715000  0.25679000  1.0
  H  H47  1  0.36864000  0.10283000  0.24321000  1.0
  H  H48  1  0.17919000  0.46249000  0.68625000  1.0
  H  H49  1  0.67919000  0.03753000  0.81374000  1.0
  H  H50  1  0.82081000  0.53751000  0.31375000  1.0
  H  H51  1  0.32080000  0.96247000  0.18626000  1.0
  H  H52  1  0.51150000  0.52725000  0.75970000  1.0
  H  H53  1  0.01149000  0.97273000  0.74030000  1.0
  H  H54  1  0.48851000  0.47275000  0.24030000  1.0
  H  H55  1  0.98849000  0.02725000  0.25970000  1.0
  H  H56  1  0.71171000  0.63611000  0.79225000  1.0
  H  H57  1  0.21171000  0.86387000  0.70775000  1.0
  H  H58  1  0.28829000  0.36388000  0.20775000  1.0
  H  H59  1  0.78828000  0.13612000  0.29225000  1.0
  H  H60  1  0.69030000  0.42290000  0.79615000  1.0
  H  H61  1  0.19028000  0.07708000  0.70385000  1.0
  H  H62  1  0.30970000  0.57709000  0.20385000  1.0
  H  H63  1  0.80970000  0.92291000  0.29615000  1.0
  H  H64  1  0.58216000  0.27342000  0.66651000  1.0
  H  H65  1  0.08216000  0.22658000  0.83349000  1.0
  H  H66  1  0.41783000  0.72658000  0.33349000  1.0
  H  H67  1  0.91784000  0.77342000  0.16651000  1.0
  H  H68  1  0.80570000  0.18395000  0.68816000  1.0
  H  H69  1  0.30570000  0.31606000  0.81184000  1.0
  H  H70  1  0.19429000  0.81605000  0.31184000  1.0
  H  H71  1  0.69431000  0.68394000  0.18816000  1.0
  H  H72  1  0.80013000  0.27856000  0.62706000  1.0
  H  H73  1  0.30013000  0.22144000  0.87294000  1.0
  H  H74  1  0.19986000  0.72144000  0.37295000  1.0
  H  H75  1  0.69987000  0.77855000  0.12706000  1.0
  C  C76  1  0.77201000  0.66267000  0.66468000  1.0
  C  C77  1  0.27201000  0.83733000  0.83532000  1.0
  C  C78  1  0.22801000  0.33733000  0.33532000  1.0
  C  C79  1  0.72799000  0.16267000  0.16468000  1.0
  C  C80  1  0.88833000  0.87836000  0.59012000  1.0
  C  C81  1  0.38833000  0.62164000  0.90988000  1.0
  C  C82  1  0.11169000  0.12164000  0.40989000  1.0
  C  C83  1  0.61166000  0.37835000  0.09012000  1.0
  C  C84  1  0.67609000  0.88324000  0.57084000  1.0
  C  C85  1  0.17610000  0.61676000  0.92916000  1.0
  C  C86  1  0.32392000  0.11677000  0.42916000  1.0
  C  C87  1  0.82390000  0.38323000  0.07084000  1.0
  C  C88  1  0.52213000  0.86523000  0.61416000  1.0
  C  C89  1  0.02213000  0.63478000  0.88584000  1.0
  C  C90  1  0.47789000  0.13478000  0.38584000  1.0
  C  C91  1  0.97786000  0.36522000  0.11416000  1.0
  C  C92  1  0.08882000  0.48479000  0.72266000  1.0
  C  C93  1  0.58882000  0.01521000  0.77733000  1.0
  C  C94  1  0.91118000  0.51520000  0.27734000  1.0
  C  C95  1  0.41117000  0.98478000  0.22266000  1.0
  C  C96  1  0.66928000  0.52119000  0.76951000  1.0
  C  C97  1  0.16926000  0.97880000  0.73049000  1.0
  C  C98  1  0.33073000  0.47880000  0.23048000  1.0
  C  C99  1  0.83073000  0.02119000  0.26951000  1.0
  C  C100  1  0.74343000  0.28646000  0.66841000  1.0
  C  C101  1  0.24343000  0.21354000  0.83159000  1.0
  C  C102  1  0.25656000  0.71354000  0.33159000  1.0
  C  C103  1  0.75658000  0.78646000  0.16841000  1.0
  S  S104  1  0.96742000  0.68998000  0.61677000  1.0
  S  S105  1  0.46742000  0.81002000  0.88323000  1.0
  S  S106  1  0.03260000  0.31002000  0.38323000  1.0
  S  S107  1  0.53258000  0.18997000  0.11677000  1.0
  S  S108  1  0.52012000  0.66453000  0.63930000  1.0
  S  S109  1  0.02012000  0.83548000  0.86070000  1.0
  S  S110  1  0.47990000  0.33548000  0.36070000  1.0
  S  S111  1  0.97987000  0.16453000  0.13930000  1.0
  I  I112  1  0.72832000  0.33887000  0.50760000  1.0
  I  I113  1  0.22832000  0.16115000  0.99241000  1.0
  I  I114  1  0.27168000  0.66115000  0.49240000  1.0
  I  I115  1  0.77167000  0.83886000  0.00759000  1.0
  I  I116  1  0.23228000  0.23885000  0.58506000  1.0
  I  I117  1  0.73227000  0.26117000  0.91494000  1.0
  I  I118  1  0.76773000  0.76116000  0.41494000  1.0
  I  I119  1  0.26773000  0.73883000  0.08505000  1.0
