# generated using pymatgen
data_ZnH12C16(N5O2)2
_symmetry_space_group_name_H-M   'P 1'
_cell_length_a   8.57817000
_cell_length_b   9.77350000
_cell_length_c   12.03526696
_cell_angle_alpha   68.11216868
_cell_angle_beta   69.12241242
_cell_angle_gamma   89.99900000
_symmetry_Int_Tables_number   1
_chemical_formula_structural   ZnH12C16(N5O2)2
_chemical_formula_sum   'Zn2 H24 C32 N20 O8'
_cell_volume   864.48506989
_cell_formula_units_Z   2
loop_
 _symmetry_equiv_pos_site_id
 _symmetry_equiv_pos_as_xyz
  1  'x, y, z'
loop_
 _atom_site_type_symbol
 _atom_site_label
 _atom_site_symmetry_multiplicity
 _atom_site_fract_x
 _atom_site_fract_y
 _atom_site_fract_z
 _atom_site_occupancy
  Zn  Zn0  1  0.54668000  0.75003000  0.99999000  1.0
  Zn  Zn1  1  0.45331000  0.24997000  0.00001000  1.0
  H  H2  1  0.86821000  0.26567000  0.83997000  1.0
  H  H3  1  0.70796000  0.23424000  0.16002000  1.0
  H  H4  1  0.13180000  0.73433000  0.16002000  1.0
  H  H5  1  0.29205000  0.76576000  0.83998000  1.0
  H  H6  1  0.95935000  0.15482000  0.94940000  1.0
  H  H7  1  0.90854000  0.34510000  0.05057000  1.0
  H  H8  1  0.04064000  0.84518000  0.05061000  1.0
  H  H9  1  0.09146000  0.65490000  0.94943000  1.0
  H  H10  1  0.01805000  0.25891000  0.42771000  1.0
  H  H11  1  0.44567000  0.24084000  0.57242000  1.0
  H  H12  1  0.98195000  0.74109000  0.57229000  1.0
  H  H13  1  0.55433000  0.75916000  0.42758000  1.0
  H  H14  1  0.15669000  0.31719000  0.19054000  1.0
  H  H15  1  0.34731000  0.18282000  0.80953000  1.0
  H  H16  1  0.84331000  0.68281000  0.80946000  1.0
  H  H17  1  0.65269000  0.81718000  0.19047000  1.0
  H  H18  1  0.50400000  0.03393000  0.24649000  1.0
  H  H19  1  0.75062000  0.46623000  0.75331000  1.0
  H  H20  1  0.49600000  0.96607000  0.75351000  1.0
  H  H21  1  0.24938000  0.53377000  0.24669000  1.0
  H  H22  1  0.38188000  0.96340000  0.48662000  1.0
  H  H23  1  0.86848000  0.53656000  0.51322000  1.0
  H  H24  1  0.61812000  0.03660000  0.51338000  1.0
  H  H25  1  0.13153000  0.46344000  0.48678000  1.0
  C  C26  1  0.73301000  0.03901000  0.96855000  1.0
  C  C27  1  0.70141000  0.46090000  0.03148000  1.0
  C  C28  1  0.26699000  0.96098000  0.03145000  1.0
  C  C29  1  0.29859000  0.53911000  0.96852000  1.0
  C  C30  1  0.89538000  0.15381000  0.88522000  1.0
  C  C31  1  0.78035000  0.34607000  0.11477000  1.0
  C  C32  1  0.10462000  0.84618000  0.11478000  1.0
  C  C33  1  0.21965000  0.65393000  0.88523000  1.0
  C  C34  1  0.12966000  0.08627000  0.61256000  1.0
  C  C35  1  0.74203000  0.41354000  0.38746000  1.0
  C  C36  1  0.87034000  0.91373000  0.38744000  1.0
  C  C37  1  0.25797000  0.58646000  0.61254000  1.0
  C  C38  1  0.19227000  0.10926000  0.47625000  1.0
  C  C39  1  0.66840000  0.39060000  0.52376000  1.0
  C  C40  1  0.80773000  0.89074000  0.52375000  1.0
  C  C41  1  0.33160000  0.60940000  0.47624000  1.0
  C  C42  1  0.12563000  0.20650000  0.39145000  1.0
  C  C43  1  0.51698000  0.29338000  0.60860000  1.0
  C  C44  1  0.87437000  0.79350000  0.60855000  1.0
  C  C45  1  0.48301000  0.70662000  0.39141000  1.0
  C  C46  1  0.20232000  0.23956000  0.25967000  1.0
  C  C47  1  0.46200000  0.26046000  0.74034000  1.0
  C  C48  1  0.79768000  0.76044000  0.74033000  1.0
  C  C49  1  0.53800000  0.73954000  0.25966000  1.0
  C  C50  1  0.39696000  0.08164000  0.29108000  1.0
  C  C51  1  0.68808000  0.41844000  0.70882000  1.0
  C  C52  1  0.60304000  0.91836000  0.70892000  1.0
  C  C53  1  0.31192000  0.58156000  0.29118000  1.0
  C  C54  1  0.32824000  0.04242000  0.42425000  1.0
  C  C55  1  0.75247000  0.45754000  0.57564000  1.0
  C  C56  1  0.67176000  0.95758000  0.57575000  1.0
  C  C57  1  0.24753000  0.54246000  0.42436000  1.0
  N  N58  1  0.01094000  0.15792000  0.66600000  1.0
  N  N59  1  0.67673000  0.34189000  0.33401000  1.0
  N  N60  1  0.98906000  0.84208000  0.33400000  1.0
  N  N61  1  0.32327000  0.65811000  0.66599000  1.0
  N  N62  1  0.01056000  0.11386000  0.78460000  1.0
  N  N63  1  0.79494000  0.38603000  0.21543000  1.0
  N  N64  1  0.98944000  0.88614000  0.21540000  1.0
  N  N65  1  0.20506000  0.61397000  0.78457000  1.0
  N  N66  1  0.11901000  0.01919000  0.80681000  1.0
  N  N67  1  0.92562000  0.48066000  0.19321000  1.0
  N  N68  1  0.88099000  0.98081000  0.19319000  1.0
  N  N69  1  0.07438000  0.51934000  0.80679000  1.0
  N  N70  1  0.19616000  0.00107000  0.69821000  1.0
  N  N71  1  0.89415000  0.49877000  0.30184000  1.0
  N  N72  1  0.80384000  0.99893000  0.30179000  1.0
  N  N73  1  0.10585000  0.50123000  0.69816000  1.0
  N  N74  1  0.33870000  0.18146000  0.20898000  1.0
  N  N75  1  0.54770000  0.31860000  0.79098000  1.0
  N  N76  1  0.66130000  0.81854000  0.79102000  1.0
  N  N77  1  0.45230000  0.68140000  0.20902000  1.0
  O  O78  1  0.74238000  0.91049000  0.96741000  1.0
  O  O79  1  0.70993000  0.58949000  0.03246000  1.0
  O  O80  1  0.25761000  0.08951000  0.03259000  1.0
  O  O81  1  0.29007000  0.41051000  0.96754000  1.0
  O  O82  1  0.60860000  0.08063000  0.03613000  1.0
  O  O83  1  0.64449000  0.41926000  0.96396000  1.0
  O  O84  1  0.39140000  0.91937000  0.96387000  1.0
  O  O85  1  0.35551000  0.58074000  0.03604000  1.0
