# generated using pymatgen
data_Zn3C24Br8(NO3)4
_symmetry_space_group_name_H-M   'P 1'
_cell_length_a   18.48390000
_cell_length_b   18.48380000
_cell_length_c   23.31573190
_cell_angle_alpha   113.34173697
_cell_angle_beta   113.36516847
_cell_angle_gamma   89.99130000
_symmetry_Int_Tables_number   1
_chemical_formula_structural   Zn3C24Br8(NO3)4
_chemical_formula_sum   'Zn6 C48 Br16 N8 O24'
_cell_volume   6596.68558552
_cell_formula_units_Z   2
loop_
 _symmetry_equiv_pos_site_id
 _symmetry_equiv_pos_as_xyz
  1  'x, y, z'
loop_
 _atom_site_type_symbol
 _atom_site_label
 _atom_site_symmetry_multiplicity
 _atom_site_fract_x
 _atom_site_fract_y
 _atom_site_fract_z
 _atom_site_occupancy
  Zn  Zn0  1  0.92947000  0.50002000  0.99999000  1.0
  Zn  Zn1  1  0.96610000  0.96622000  0.93230000  1.0
  Zn  Zn2  1  0.03393000  0.03382000  0.06772000  1.0
  Zn  Zn3  1  0.50002000  0.07052000  0.00002000  1.0
  Zn  Zn4  1  0.07050000  0.50000000  0.99998000  1.0
  Zn  Zn5  1  0.50003000  0.92950000  0.00001000  1.0
  C  C6  1  0.99998000  0.63890000  0.99992000  1.0
  C  C7  1  0.78299000  0.28297000  0.56605000  1.0
  C  C8  1  0.71692000  0.21693000  0.43396000  1.0
  C  C9  1  0.21693000  0.71706000  0.43393000  1.0
  C  C10  1  0.28313000  0.78296000  0.56604000  1.0
  C  C11  1  0.06678000  0.56682000  0.13334000  1.0
  C  C12  1  0.56662000  0.06659000  0.13338000  1.0
  C  C13  1  0.93322000  0.43326000  0.86663000  1.0
  C  C14  1  0.63897000  0.00008000  0.00008000  1.0
  C  C15  1  0.43349000  0.93345000  0.86665000  1.0
  C  C16  1  0.99996000  0.71677000  0.99990000  1.0
  C  C17  1  0.71686000  0.00009000  0.00011000  1.0
  C  C18  1  0.00002000  0.28327000  0.00010000  1.0
  C  C19  1  0.28317000  0.99993000  0.99990000  1.0
  C  C20  1  0.99998000  0.36114000  0.00008000  1.0
  C  C21  1  0.99990000  0.78254000  0.99993000  1.0
  C  C22  1  0.78262000  0.00000000  0.00009000  1.0
  C  C23  1  0.00007000  0.21749000  0.00007000  1.0
  C  C24  1  0.21743000  0.00001000  0.99994000  1.0
  C  C25  1  0.36106000  0.99990000  0.99992000  1.0
  C  C26  1  0.14958000  0.68452000  0.24778000  1.0
  C  C27  1  0.68418000  0.09795000  0.24785000  1.0
  C  C28  1  0.09808000  0.56365000  0.24775000  1.0
  C  C29  1  0.56342000  0.14971000  0.24780000  1.0
  C  C30  1  0.90178000  0.31559000  0.75222000  1.0
  C  C31  1  0.43665000  0.90203000  0.75219000  1.0
  C  C32  1  0.85027000  0.43641000  0.75216000  1.0
  C  C33  1  0.31602000  0.85011000  0.75224000  1.0
  C  C34  1  0.18706000  0.72030000  0.32040000  1.0
  C  C35  1  0.72001000  0.13311000  0.32046000  1.0
  C  C36  1  0.13313000  0.60047000  0.32036000  1.0
  C  C37  1  0.60023000  0.18721000  0.32042000  1.0
  C  C38  1  0.86669000  0.27980000  0.67961000  1.0
  C  C39  1  0.39983000  0.86681000  0.67957000  1.0
  C  C40  1  0.81278000  0.39963000  0.67955000  1.0
  C  C41  1  0.28022000  0.81256000  0.67963000  1.0
  C  C42  1  0.17837000  0.67868000  0.35697000  1.0
  C  C43  1  0.67841000  0.17847000  0.35701000  1.0
  C  C44  1  0.82147000  0.32142000  0.64300000  1.0
  C  C45  1  0.32173000  0.82137000  0.64301000  1.0
  C  C46  1  0.13958000  1.00000000  0.99999000  1.0
  C  C47  1  0.99998000  0.86042000  0.99997000  1.0
  C  C48  1  0.86046000  0.00001000  0.00004000  1.0
  C  C49  1  0.00002000  0.13961000  0.00003000  1.0
  C  C50  1  0.10578000  0.60595000  0.21152000  1.0
  C  C51  1  0.60568000  0.10570000  0.21158000  1.0
  C  C52  1  0.89413000  0.39412000  0.78843000  1.0
  C  C53  1  0.39444000  0.89427000  0.78846000  1.0
  Br  Br54  1  0.15574000  0.74125000  0.19737000  1.0
  Br  Br55  1  0.74065000  0.04090000  0.19739000  1.0
  Br  Br56  1  0.04121000  0.45666000  0.19729000  1.0
  Br  Br57  1  0.45640000  0.15620000  0.19734000  1.0
  Br  Br58  1  0.95855000  0.25895000  0.80268000  1.0
  Br  Br59  1  0.54361000  0.95903000  0.80260000  1.0
  Br  Br60  1  0.84404000  0.54349000  0.80259000  1.0
  Br  Br61  1  0.25958000  0.84351000  0.80272000  1.0
  Br  Br62  1  0.25228000  0.82356000  0.37031000  1.0
  Br  Br63  1  0.82325000  0.11766000  0.37035000  1.0
  Br  Br64  1  0.11778000  0.54707000  0.37023000  1.0
  Br  Br65  1  0.54689000  0.25246000  0.37031000  1.0
  Br  Br66  1  0.88199000  0.17651000  0.62972000  1.0
  Br  Br67  1  0.45309000  0.88223000  0.62963000  1.0
  Br  Br68  1  0.74759000  0.45305000  0.62965000  1.0
  Br  Br69  1  0.17705000  0.74719000  0.62977000  1.0
  N  N70  1  0.18687000  0.77880000  0.46577000  1.0
  N  N71  1  0.68683000  0.18693000  0.46572000  1.0
  N  N72  1  0.27878000  0.68698000  0.46560000  1.0
  N  N73  1  0.77877000  0.27869000  0.46570000  1.0
  N  N74  1  0.72116000  0.22121000  0.53432000  1.0
  N  N75  1  0.22123000  0.81300000  0.53437000  1.0
  N  N76  1  0.81308000  0.31299000  0.53430000  1.0
  N  N77  1  0.31318000  0.72122000  0.53421000  1.0
  O  O78  1  0.93425000  0.60397000  0.99096000  1.0
  O  O79  1  0.60397000  0.05680000  0.99104000  1.0
  O  O80  1  0.05671000  0.38712000  0.99108000  1.0
  O  O81  1  0.38700000  0.93415000  0.99087000  1.0
  O  O82  1  0.94323000  0.39609000  0.00907000  1.0
  O  O83  1  0.61303000  0.94335000  0.00910000  1.0
  O  O84  1  0.06571000  0.61291000  0.00890000  1.0
  O  O85  1  0.39607000  0.06565000  0.00897000  1.0
  O  O86  1  0.99149000  0.56315000  0.10405000  1.0
  O  O87  1  0.56310000  0.11261000  0.10413000  1.0
  O  O88  1  0.11283000  0.54120000  0.10413000  1.0
  O  O89  1  0.54093000  0.99134000  0.10411000  1.0
  O  O90  1  0.88721000  0.43689000  0.89589000  1.0
  O  O91  1  0.45918000  0.88746000  0.89594000  1.0
  O  O92  1  0.00849000  0.45890000  0.89587000  1.0
  O  O93  1  0.43699000  0.00870000  0.89587000  1.0
  O  O94  1  0.13879000  0.02941000  0.05933000  1.0
  O  O95  1  0.02949000  0.92056000  0.05931000  1.0
  O  O96  1  0.92069000  0.02985000  0.05934000  1.0
  O  O97  1  0.02989000  0.13867000  0.05933000  1.0
  O  O98  1  0.07935000  0.97057000  0.94069000  1.0
  O  O99  1  0.97009000  0.07947000  0.94069000  1.0
  O  O100  1  0.86126000  0.97018000  0.94070000  1.0
  O  O101  1  0.97051000  0.86135000  0.94067000  1.0
