# generated using pymatgen
data_ZnH7C12N3O4
_symmetry_space_group_name_H-M   'P 1'
_cell_length_a   7.99592000
_cell_length_b   12.64750000
_cell_length_c   17.28721353
_cell_angle_alpha   111.46050890
_cell_angle_beta   101.07240730
_cell_angle_gamma   89.97480000
_symmetry_Int_Tables_number   1
_chemical_formula_structural   ZnH7C12N3O4
_chemical_formula_sum   'Zn4 H28 C48 N12 O16'
_cell_volume   1592.06414574
_cell_formula_units_Z   4
loop_
 _symmetry_equiv_pos_site_id
 _symmetry_equiv_pos_as_xyz
  1  'x, y, z'
loop_
 _atom_site_type_symbol
 _atom_site_label
 _atom_site_symmetry_multiplicity
 _atom_site_fract_x
 _atom_site_fract_y
 _atom_site_fract_z
 _atom_site_occupancy
  Zn  Zn0  1  0.01565000  0.85135000  0.60454000  1.0
  Zn  Zn1  1  0.48476000  0.24698000  0.39549000  1.0
  Zn  Zn2  1  0.98435000  0.14865000  0.39547000  1.0
  Zn  Zn3  1  0.51524000  0.75302000  0.60451000  1.0
  H  H4  1  0.81524000  0.42314000  0.71520000  1.0
  H  H5  1  0.68500000  0.70797000  0.28501000  1.0
  H  H6  1  0.18476000  0.57686000  0.28480000  1.0
  H  H7  1  0.31501000  0.29202000  0.71499000  1.0
  H  H8  1  0.60875000  0.27793000  0.59265000  1.0
  H  H9  1  0.89171000  0.68533000  0.40753000  1.0
  H  H10  1  0.39126000  0.72207000  0.40735000  1.0
  H  H11  1  0.10830000  0.31467000  0.59247000  1.0
  H  H12  1  0.11883000  0.70809000  0.72014000  1.0
  H  H13  1  0.38130000  0.98832000  0.27994000  1.0
  H  H14  1  0.88116000  0.29191000  0.27985000  1.0
  H  H15  1  0.61869000  0.01168000  0.72005000  1.0
  H  H16  1  0.31281000  0.74480000  0.85984000  1.0
  H  H17  1  0.18718000  0.88535000  0.14030000  1.0
  H  H18  1  0.68719000  0.25519000  0.14016000  1.0
  H  H19  1  0.81281000  0.11466000  0.85970000  1.0
  H  H20  1  0.34406000  0.10235000  0.89637000  1.0
  H  H21  1  0.15601000  0.20622000  0.10350000  1.0
  H  H22  1  0.65595000  0.89764000  0.10363000  1.0
  H  H23  1  0.84401000  0.79379000  0.89650000  1.0
  H  H24  1  0.14529000  0.05034000  0.75631000  1.0
  H  H25  1  0.35482000  0.29430000  0.24359000  1.0
  H  H26  1  0.85470000  0.94966000  0.24369000  1.0
  H  H27  1  0.64520000  0.70570000  0.75641000  1.0
  H  H28  1  0.48625000  0.87349000  0.98865000  1.0
  H  H29  1  0.01369000  0.88504000  0.01166000  1.0
  H  H30  1  0.51374000  0.12651000  0.01135000  1.0
  H  H31  1  0.98631000  0.11497000  0.98834000  1.0
  C  C32  1  0.69529000  0.45402000  0.50258000  1.0
  C  C33  1  0.80517000  0.95158000  0.49755000  1.0
  C  C34  1  0.30471000  0.54598000  0.49742000  1.0
  C  C35  1  0.19482000  0.04841000  0.50245000  1.0
  C  C36  1  0.79852000  0.53842000  0.57280000  1.0
  C  C37  1  0.70182000  0.96573000  0.42732000  1.0
  C  C38  1  0.20148000  0.46158000  0.42720000  1.0
  C  C39  1  0.29818000  0.03427000  0.57268000  1.0
  C  C40  1  0.77706000  0.43407000  0.65464000  1.0
  C  C41  1  0.72324000  0.77948000  0.34554000  1.0
  C  C42  1  0.22295000  0.56593000  0.34536000  1.0
  C  C43  1  0.27676000  0.22052000  0.65446000  1.0
  C  C44  1  0.66430000  0.35273000  0.58727000  1.0
  C  C45  1  0.83609000  0.76551000  0.41290000  1.0
  C  C46  1  0.33570000  0.64727000  0.41273000  1.0
  C  C47  1  0.16391000  0.23449000  0.58710000  1.0
  C  C48  1  0.65589000  0.45754000  0.41416000  1.0
  C  C49  1  0.84488000  0.04353000  0.58596000  1.0
  C  C50  1  0.34410000  0.54247000  0.58584000  1.0
  C  C51  1  0.15512000  0.95647000  0.41404000  1.0
  C  C52  1  0.86164000  0.65041000  0.57271000  1.0
  C  C53  1  0.63827000  0.07771000  0.42731000  1.0
  C  C54  1  0.13837000  0.34958000  0.42729000  1.0
  C  C55  1  0.36173000  0.92229000  0.57269000  1.0
  C  C56  1  0.16932000  0.79443000  0.76191000  1.0
  C  C57  1  0.33079000  0.03288000  0.23815000  1.0
  C  C58  1  0.83067000  0.20556000  0.23808000  1.0
  C  C59  1  0.66922000  0.96712000  0.76185000  1.0
  C  C60  1  0.27818000  0.81586000  0.84005000  1.0
  C  C61  1  0.22188000  0.97617000  0.16004000  1.0
  C  C62  1  0.72182000  0.18413000  0.15995000  1.0
  C  C63  1  0.77812000  0.02384000  0.83996000  1.0
  C  C64  1  0.34603000  0.92743000  0.89164000  1.0
  C  C65  1  0.15405000  0.03611000  0.10840000  1.0
  C  C66  1  0.65397000  0.07256000  0.10836000  1.0
  C  C67  1  0.84596000  0.96390000  0.89160000  1.0
  C  C68  1  0.29664000  0.01370000  0.86054000  1.0
  C  C69  1  0.20344000  0.15343000  0.13939000  1.0
  C  C70  1  0.70336000  0.98630000  0.13946000  1.0
  C  C71  1  0.79658000  0.84658000  0.86062000  1.0
  C  C72  1  0.18647000  0.98604000  0.78258000  1.0
  C  C73  1  0.31363000  0.20377000  0.21737000  1.0
  C  C74  1  0.81353000  0.01396000  0.21742000  1.0
  C  C75  1  0.68638000  0.79624000  0.78263000  1.0
  C  C76  1  0.46182000  0.94885000  0.97264000  1.0
  C  C77  1  0.03820000  0.97635000  0.02746000  1.0
  C  C78  1  0.53817000  0.05114000  0.02736000  1.0
  C  C79  1  0.96180000  0.02366000  0.97254000  1.0
  N  N80  1  0.62706000  0.36368000  0.51199000  1.0
  N  N81  1  0.87334000  0.85177000  0.48815000  1.0
  N  N82  1  0.37294000  0.63632000  0.48801000  1.0
  N  N83  1  0.12666000  0.14823000  0.51185000  1.0
  N  N84  1  0.84202000  0.52746000  0.64846000  1.0
  N  N85  1  0.65823000  0.87906000  0.35170000  1.0
  N  N86  1  0.15798000  0.47254000  0.35154000  1.0
  N  N87  1  0.34176000  0.12094000  0.64829000  1.0
  N  N88  1  0.12356000  0.87811000  0.73346000  1.0
  N  N89  1  0.37653000  0.14498000  0.26653000  1.0
  N  N90  1  0.87644000  0.12189000  0.26654000  1.0
  N  N91  1  0.62347000  0.85502000  0.73347000  1.0
  O  O92  1  0.56460000  0.37055000  0.35618000  1.0
  O  O93  1  0.93593000  0.01434000  0.64392000  1.0
  O  O94  1  0.43539000  0.62946000  0.64383000  1.0
  O  O95  1  0.06407000  0.98566000  0.35608000  1.0
  O  O96  1  0.71235000  0.54264000  0.40459000  1.0
  O  O97  1  0.78896000  0.13840000  0.59554000  1.0
  O  O98  1  0.28765000  0.45737000  0.59541000  1.0
  O  O99  1  0.21103000  0.86160000  0.40445000  1.0
  O  O100  1  0.01318000  0.66688000  0.56638000  1.0
  O  O101  1  0.48675000  0.10047000  0.43378000  1.0
  O  O102  1  0.98682000  0.33312000  0.43363000  1.0
  O  O103  1  0.51324000  0.89953000  0.56622000  1.0
  O  O104  1  0.76451000  0.73279000  0.59080000  1.0
  O  O105  1  0.73492000  0.14197000  0.40897000  1.0
  O  O106  1  0.23549000  0.26721000  0.40920000  1.0
  O  O107  1  0.26507000  0.85802000  0.59102000  1.0
