# generated using pymatgen
data_ZnH13C19N5O4
_symmetry_space_group_name_H-M   'P 1'
_cell_length_a   9.26897000
_cell_length_b   10.83640000
_cell_length_c   11.22150000
_cell_angle_alpha   86.14970000
_cell_angle_beta   72.83700000
_cell_angle_gamma   69.66800000
_symmetry_Int_Tables_number   1
_chemical_formula_structural   ZnH13C19N5O4
_chemical_formula_sum   'Zn2 H26 C38 N10 O8'
_cell_volume   1009.03622040
_cell_formula_units_Z   2
loop_
 _symmetry_equiv_pos_site_id
 _symmetry_equiv_pos_as_xyz
  1  'x, y, z'
loop_
 _atom_site_type_symbol
 _atom_site_label
 _atom_site_symmetry_multiplicity
 _atom_site_fract_x
 _atom_site_fract_y
 _atom_site_fract_z
 _atom_site_occupancy
  Zn  Zn0  1  0.58814000  0.71752000  0.68122000  1.0
  Zn  Zn1  1  0.41186000  0.28248000  0.31878000  1.0
  H  H2  1  0.61659000  0.62830000  0.95883000  1.0
  H  H3  1  0.38341000  0.37170000  0.04117000  1.0
  H  H4  1  0.86653000  0.43134000  0.60585000  1.0
  H  H5  1  0.13346000  0.56866000  0.39415000  1.0
  H  H6  1  0.99797000  0.28284000  0.77873000  1.0
  H  H7  1  0.00203000  0.71716000  0.22127000  1.0
  H  H8  1  0.08730000  0.25745000  0.93444000  1.0
  H  H9  1  0.91270000  0.74255000  0.06556000  1.0
  H  H10  1  0.15273000  0.21596000  0.13678000  1.0
  H  H11  1  0.84727000  0.78404000  0.86322000  1.0
  H  H12  1  0.95927000  0.35121000  0.32749000  1.0
  H  H13  1  0.04074000  0.64878000  0.67251000  1.0
  H  H14  1  0.84522000  0.54251000  0.43643000  1.0
  H  H15  1  0.15478000  0.45750000  0.56357000  1.0
  H  H16  1  0.45995000  0.60162000  0.28317000  1.0
  H  H17  1  0.54005000  0.39838000  0.71683000  1.0
  H  H18  1  0.34438000  0.73342000  0.51718000  1.0
  H  H19  1  0.65562000  0.26658000  0.48282000  1.0
  H  H20  1  0.20032000  0.90029000  0.11690000  1.0
  H  H21  1  0.79968000  0.09971000  0.88310000  1.0
  H  H22  1  0.08634000  0.96569000  0.76888000  1.0
  H  H23  1  0.91366000  0.03431000  0.23112000  1.0
  H  H24  1  0.12831000  0.77348000  0.40498000  1.0
  H  H25  1  0.87168000  0.22652000  0.59502000  1.0
  H  H26  1  0.73159000  0.06102000  0.65890000  1.0
  H  H27  1  0.26840000  0.93899000  0.34110000  1.0
  C  C28  1  0.69976000  0.55476000  0.88688000  1.0
  C  C29  1  0.30025000  0.44524000  0.11312000  1.0
  C  C30  1  0.83075000  0.45064000  0.70562000  1.0
  C  C31  1  0.16925000  0.54936000  0.29438000  1.0
  C  C32  1  0.90058000  0.37627000  0.79022000  1.0
  C  C33  1  0.09942000  0.62373000  0.20978000  1.0
  C  C34  1  0.85884000  0.41179000  0.01810000  1.0
  C  C35  1  0.14116000  0.58821000  0.98190000  1.0
  C  C36  1  0.00455000  0.31440000  0.01850000  1.0
  C  C37  1  0.99545000  0.68560000  0.98150000  1.0
  C  C38  1  0.04110000  0.29191000  0.13161000  1.0
  C  C39  1  0.95890000  0.70809000  0.86839000  1.0
  C  C40  1  0.93405000  0.36685000  0.23786000  1.0
  C  C41  1  0.06595000  0.63315000  0.76214000  1.0
  C  C42  1  0.79361000  0.46286000  0.22472000  1.0
  C  C43  1  0.20640000  0.53714000  0.77528000  1.0
  C  C44  1  0.72350000  0.57309000  0.43000000  1.0
  C  C45  1  0.27650000  0.42691000  0.57000000  1.0
  C  C46  1  0.51926000  0.60929000  0.35078000  1.0
  C  C47  1  0.48074000  0.39071000  0.64922000  1.0
  C  C48  1  0.46491000  0.67263000  0.46563000  1.0
  C  C49  1  0.53509000  0.32736000  0.53437000  1.0
  C  C50  1  0.32884000  0.84171000  0.87169000  1.0
  C  C51  1  0.67116000  0.15830000  0.12831000  1.0
  C  C52  1  0.15912000  0.92542000  0.93688000  1.0
  C  C53  1  0.84088000  0.07459000  0.06312000  1.0
  C  C54  1  0.11089000  0.94423000  0.06709000  1.0
  C  C55  1  0.88911000  0.05577000  0.93291000  1.0
  C  C56  1  0.04735000  0.98204000  0.86995000  1.0
  C  C57  1  0.95265000  0.01796000  0.13005000  1.0
  C  C58  1  0.84048000  0.80728000  0.57353000  1.0
  C  C59  1  0.15951000  0.19273000  0.42647000  1.0
  C  C60  1  0.92228000  0.90741000  0.53591000  1.0
  C  C61  1  0.07771000  0.09259000  0.46409000  1.0
  C  C62  1  0.07322000  0.87307000  0.44625000  1.0
  C  C63  1  0.92678000  0.12692000  0.55375000  1.0
  C  C64  1  0.84920000  0.03539000  0.58965000  1.0
  C  C65  1  0.15080000  0.96461000  0.41035000  1.0
  N  N66  1  0.70610000  0.56099000  0.76682000  1.0
  N  N67  1  0.29390000  0.43901000  0.23318000  1.0
  N  N68  1  0.81702000  0.44312000  0.90511000  1.0
  N  N69  1  0.18298000  0.55689000  0.09489000  1.0
  N  N70  1  0.75418000  0.48530000  0.11847000  1.0
  N  N71  1  0.24582000  0.51470000  0.88152000  1.0
  N  N72  1  0.68354000  0.54526000  0.32972000  1.0
  N  N73  1  0.31646000  0.45474000  0.67028000  1.0
  N  N74  1  0.59352000  0.64961000  0.51336000  1.0
  N  N75  1  0.40647000  0.35039000  0.48664000  1.0
  O  O76  1  0.35663000  0.80981000  0.75508000  1.0
  O  O77  1  0.64337000  0.19019000  0.24492000  1.0
  O  O78  1  0.43232000  0.80626000  0.92949000  1.0
  O  O79  1  0.56768000  0.19374000  0.07051000  1.0
  O  O80  1  0.69547000  0.85054000  0.64681000  1.0
  O  O81  1  0.30453000  0.14946000  0.35319000  1.0
  O  O82  1  0.91531000  0.68909000  0.53456000  1.0
  O  O83  1  0.08468000  0.31091000  0.46544000  1.0
