# generated using pymatgen
data_Cu2H6C9N6O7
_symmetry_space_group_name_H-M   'P 1'
_cell_length_a   6.42828000
_cell_length_b   14.97870000
_cell_length_c   15.49930000
_cell_angle_alpha   89.99980000
_cell_angle_beta   89.99950000
_cell_angle_gamma   89.99900000
_symmetry_Int_Tables_number   1
_chemical_formula_structural   Cu2H6C9N6O7
_chemical_formula_sum   'Cu8 H24 C36 N24 O28'
_cell_volume   1492.38540197
_cell_formula_units_Z   4
loop_
 _symmetry_equiv_pos_site_id
 _symmetry_equiv_pos_as_xyz
  1  'x, y, z'
loop_
 _atom_site_type_symbol
 _atom_site_label
 _atom_site_symmetry_multiplicity
 _atom_site_fract_x
 _atom_site_fract_y
 _atom_site_fract_z
 _atom_site_occupancy
  Cu  Cu0  1  0.26324000  0.41053000  0.86737000  1.0
  Cu  Cu1  1  0.51193000  0.24942000  0.99897000  1.0
  Cu  Cu2  1  0.23676000  0.58947000  0.36738000  1.0
  Cu  Cu3  1  0.98806000  0.75058000  0.49897000  1.0
  Cu  Cu4  1  0.73675000  0.91052000  0.63262000  1.0
  Cu  Cu5  1  0.48807000  0.74942000  0.50103000  1.0
  Cu  Cu6  1  0.76324000  0.08947000  0.13262000  1.0
  Cu  Cu7  1  0.01193000  0.25059000  0.00103000  1.0
  H  H8  1  0.25572000  0.24423000  0.87312000  1.0
  H  H9  1  0.63616000  0.52228000  0.75314000  1.0
  H  H10  1  0.90427000  0.52586000  0.76030000  1.0
  H  H11  1  0.26488000  0.57551000  0.10770000  1.0
  H  H12  1  0.26414000  0.86279000  0.12577000  1.0
  H  H13  1  0.27203000  0.73382000  0.87612000  1.0
  H  H14  1  0.24428000  0.75577000  0.37312000  1.0
  H  H15  1  0.86384000  0.47773000  0.25314000  1.0
  H  H16  1  0.59574000  0.47415000  0.26030000  1.0
  H  H17  1  0.23514000  0.42448000  0.60770000  1.0
  H  H18  1  0.23586000  0.13720000  0.62577000  1.0
  H  H19  1  0.22797000  0.26618000  0.37611000  1.0
  H  H20  1  0.74428000  0.74423000  0.62688000  1.0
  H  H21  1  0.36383000  0.02227000  0.74686000  1.0
  H  H22  1  0.09570000  0.02585000  0.73970000  1.0
  H  H23  1  0.73510000  0.07551000  0.39229000  1.0
  H  H24  1  0.73589000  0.36279000  0.37424000  1.0
  H  H25  1  0.72796000  0.23381000  0.62389000  1.0
  H  H26  1  0.75571000  0.25577000  0.12688000  1.0
  H  H27  1  0.13615000  0.97773000  0.24686000  1.0
  H  H28  1  0.40427000  0.97415000  0.23971000  1.0
  H  H29  1  0.76487000  0.92449000  0.89230000  1.0
  H  H30  1  0.76412000  0.63721000  0.87423000  1.0
  H  H31  1  0.77204000  0.76619000  0.12389000  1.0
  C  C32  1  0.76422000  0.43781000  0.84071000  1.0
  C  C33  1  0.26910000  0.64577000  0.98655000  1.0
  C  C34  1  0.26682000  0.64054000  0.07644000  1.0
  C  C35  1  0.26452000  0.71828000  0.12693000  1.0
  C  C36  1  0.26644000  0.80190000  0.08727000  1.0
  C  C37  1  0.27005000  0.80535000  0.99720000  1.0
  C  C38  1  0.27083000  0.72919000  0.94609000  1.0
  C  C39  1  0.26688000  0.56350000  0.93209000  1.0
  C  C40  1  0.25547000  0.71001000  0.22369000  1.0
  C  C41  1  0.73579000  0.56220000  0.34071000  1.0
  C  C42  1  0.23092000  0.35423000  0.48655000  1.0
  C  C43  1  0.23319000  0.35946000  0.57644000  1.0
  C  C44  1  0.23549000  0.28172000  0.62693000  1.0
  C  C45  1  0.23357000  0.19809000  0.58727000  1.0
  C  C46  1  0.22995000  0.19465000  0.49720000  1.0
  C  C47  1  0.22918000  0.27081000  0.44609000  1.0
  C  C48  1  0.23314000  0.43650000  0.43209000  1.0
  C  C49  1  0.24454000  0.28998000  0.72369000  1.0
  C  C50  1  0.23576000  0.93781000  0.65929000  1.0
  C  C51  1  0.73089000  0.14576000  0.51344000  1.0
  C  C52  1  0.73316000  0.14053000  0.42356000  1.0
  C  C53  1  0.73548000  0.21827000  0.37307000  1.0
  C  C54  1  0.73357000  0.30190000  0.41273000  1.0
  C  C55  1  0.72996000  0.30535000  0.50280000  1.0
  C  C56  1  0.72917000  0.22918000  0.55391000  1.0
  C  C57  1  0.73311000  0.06350000  0.56791000  1.0
  C  C58  1  0.74454000  0.21001000  0.27631000  1.0
  C  C59  1  0.26422000  0.06220000  0.15928000  1.0
  C  C60  1  0.76911000  0.85423000  0.01345000  1.0
  C  C61  1  0.76683000  0.85946000  0.92356000  1.0
  C  C62  1  0.76451000  0.78172000  0.87307000  1.0
  C  C63  1  0.76643000  0.69810000  0.91273000  1.0
  C  C64  1  0.77004000  0.69465000  0.00280000  1.0
  C  C65  1  0.77084000  0.77082000  0.05391000  1.0
  C  C66  1  0.76689000  0.93651000  0.06791000  1.0
  C  C67  1  0.75545000  0.78999000  0.77631000  1.0
  N  N68  1  0.59077000  0.39788000  0.87290000  1.0
  N  N69  1  0.66113000  0.33697000  0.92853000  1.0
  N  N70  1  0.86376000  0.33801000  0.93030000  1.0
  N  N71  1  0.93612000  0.39936000  0.87578000  1.0
  N  N72  1  0.76656000  0.50822000  0.78724000  1.0
  N  N73  1  0.27146000  0.89278000  0.95390000  1.0
  N  N74  1  0.90924000  0.60213000  0.37290000  1.0
  N  N75  1  0.83888000  0.66303000  0.42854000  1.0
  N  N76  1  0.63624000  0.66199000  0.43030000  1.0
  N  N77  1  0.56388000  0.60064000  0.37579000  1.0
  N  N78  1  0.73344000  0.49179000  0.28725000  1.0
  N  N79  1  0.22854000  0.10722000  0.45389000  1.0
  N  N80  1  0.40921000  0.89787000  0.62710000  1.0
  N  N81  1  0.33887000  0.83697000  0.57147000  1.0
  N  N82  1  0.13623000  0.83801000  0.56971000  1.0
  N  N83  1  0.06387000  0.89936000  0.62421000  1.0
  N  N84  1  0.23342000  0.00821000  0.71275000  1.0
  N  N85  1  0.72856000  0.39277000  0.54611000  1.0
  N  N86  1  0.09077000  0.10212000  0.12710000  1.0
  N  N87  1  0.16112000  0.16303000  0.07146000  1.0
  N  N88  1  0.36376000  0.16199000  0.06970000  1.0
  N  N89  1  0.43611000  0.10064000  0.12422000  1.0
  N  N90  1  0.26656000  0.99178000  0.21276000  1.0
  N  N91  1  0.77145000  0.60723000  0.04611000  1.0
  O  O92  1  0.26885000  0.48725000  0.97138000  1.0
  O  O93  1  0.26225000  0.56915000  0.85082000  1.0
  O  O94  1  0.24418000  0.62838000  0.24955000  1.0
  O  O95  1  0.25804000  0.77843000  0.27097000  1.0
  O  O96  1  0.26469000  0.96058000  0.99960000  1.0
  O  O97  1  0.27958000  0.89400000  0.87384000  1.0
  O  O98  1  0.26090000  0.27389000  0.93257000  1.0
  O  O99  1  0.23116000  0.51275000  0.47138000  1.0
  O  O100  1  0.23777000  0.43086000  0.35081000  1.0
  O  O101  1  0.25583000  0.37162000  0.74955000  1.0
  O  O102  1  0.24195000  0.22157000  0.77097000  1.0
  O  O103  1  0.23530000  0.03942000  0.49959000  1.0
  O  O104  1  0.22041000  0.10600000  0.37384000  1.0
  O  O105  1  0.23910000  0.72612000  0.43257000  1.0
  O  O106  1  0.73114000  0.98724000  0.52862000  1.0
  O  O107  1  0.73774000  0.06913000  0.64918000  1.0
  O  O108  1  0.75582000  0.12838000  0.25044000  1.0
  O  O109  1  0.74197000  0.27843000  0.22903000  1.0
  O  O110  1  0.73531000  0.46057000  0.50041000  1.0
  O  O111  1  0.72044000  0.39398000  0.62616000  1.0
  O  O112  1  0.73909000  0.77388000  0.56743000  1.0
  O  O113  1  0.76884000  0.01276000  0.02862000  1.0
  O  O114  1  0.76227000  0.93086000  0.14918000  1.0
  O  O115  1  0.74417000  0.87162000  0.75044000  1.0
  O  O116  1  0.75804000  0.72157000  0.72903000  1.0
  O  O117  1  0.76469000  0.53942000  0.00041000  1.0
  O  O118  1  0.77959000  0.60601000  0.12617000  1.0
  O  O119  1  0.76090000  0.22612000  0.06743000  1.0
