# generated using pymatgen
data_CuH4(C2N)3
_symmetry_space_group_name_H-M   'P 1'
_cell_length_a   27.05110000
_cell_length_b   27.26440000
_cell_length_c   27.50360000
_cell_angle_alpha   90.70250000
_cell_angle_beta   92.04610000
_cell_angle_gamma   95.48100000
_symmetry_Int_Tables_number   1
_chemical_formula_structural   CuH4(C2N)3
_chemical_formula_sum   'Cu12 H48 C72 N36'
_cell_volume   20176.66400245
_cell_formula_units_Z   12
loop_
 _symmetry_equiv_pos_site_id
 _symmetry_equiv_pos_as_xyz
  1  'x, y, z'
loop_
 _atom_site_type_symbol
 _atom_site_label
 _atom_site_symmetry_multiplicity
 _atom_site_fract_x
 _atom_site_fract_y
 _atom_site_fract_z
 _atom_site_occupancy
  Cu  Cu0  1  0.34156000  0.38298000  0.42435000  1.0
  Cu  Cu1  1  0.39639000  0.30936000  0.35875000  1.0
  Cu  Cu2  1  0.36641000  0.40900000  0.31734000  1.0
  Cu  Cu3  1  0.83582000  0.64368000  0.08103000  1.0
  Cu  Cu4  1  0.93475000  0.68864000  0.13510000  1.0
  Cu  Cu5  1  0.88204000  0.58654000  0.16954000  1.0
  Cu  Cu6  1  0.16559000  0.85821000  0.59192000  1.0
  Cu  Cu7  1  0.05324000  0.83887000  0.61207000  1.0
  Cu  Cu8  1  0.12990000  0.89762000  0.68973000  1.0
  Cu  Cu9  1  0.68574000  0.13771000  0.91846000  1.0
  Cu  Cu10  1  0.58867000  0.17575000  0.86982000  1.0
  Cu  Cu11  1  0.62887000  0.07802000  0.82984000  1.0
  H  H12  1  0.35855000  0.33539000  0.52852000  1.0
  H  H13  1  0.40339000  0.22171000  0.43266000  1.0
  H  H14  1  0.28313000  0.48110000  0.29169000  1.0
  H  H15  1  0.25720000  0.45400000  0.44408000  1.0
  H  H16  1  0.45976000  0.27308000  0.27059000  1.0
  H  H17  1  0.44385000  0.42477000  0.23279000  1.0
  H  H18  1  0.81900000  0.72817000  0.00491000  1.0
  H  H19  1  0.96842000  0.77361000  0.06067000  1.0
  H  H20  1  0.80218000  0.49322000  0.17378000  1.0
  H  H21  1  0.74996000  0.56336000  0.04374000  1.0
  H  H22  1  0.01509000  0.71094000  0.22156000  1.0
  H  H23  1  0.95638000  0.56270000  0.25675000  1.0
  H  H24  1  0.17780000  0.77184000  0.51578000  1.0
  H  H25  1  0.01754000  0.76097000  0.52541000  1.0
  H  H26  1  0.22289000  0.97572000  0.72177000  1.0
  H  H27  1  0.26033000  0.93358000  0.57612000  1.0
  H  H28  1  0.95219000  0.85498000  0.66243000  1.0
  H  H29  1  0.05900000  0.90137000  0.77901000  1.0
  H  H30  1  0.71423000  0.22291000  0.99794000  1.0
  H  H31  1  0.57042000  0.26133000  0.94481000  1.0
  H  H32  1  0.69823000  0.99164000  0.81651000  1.0
  H  H33  1  0.76592000  0.06387000  0.94695000  1.0
  H  H34  1  0.50127000  0.18780000  0.79151000  1.0
  H  H35  1  0.54256000  0.04332000  0.75170000  1.0
  H  H36  1  0.93825000  0.81219000  0.96521000  1.0
  H  H37  1  0.82680000  0.82413000  0.97427000  1.0
  H  H38  1  0.39656000  0.24905000  0.57529000  1.0
  H  H39  1  0.36341000  0.16440000  0.50254000  1.0
  H  H40  1  0.68138000  0.31345000  0.03762000  1.0
  H  H41  1  0.56738000  0.29393000  0.03917000  1.0
  H  H42  1  0.05776000  0.70328000  0.44657000  1.0
  H  H43  1  0.16063000  0.68092000  0.48759000  1.0
  H  H44  1  0.79163000  0.96515000  0.92712000  1.0
  H  H45  1  0.79511000  0.95709000  0.81555000  1.0
  H  H46  1  0.19530000  0.51799000  0.32831000  1.0
  H  H47  1  0.21424000  0.53637000  0.43848000  1.0
  H  H48  1  0.31287000  0.02617000  0.68585000  1.0
  H  H49  1  0.30178000  0.02311000  0.57389000  1.0
  H  H50  1  0.70901000  0.45948000  0.06087000  1.0
  H  H51  1  0.69937000  0.46495000  0.17196000  1.0
  H  H52  1  0.91219000  0.89346000  0.75096000  1.0
  H  H53  1  0.98230000  0.86243000  0.83331000  1.0
  H  H54  1  0.50524000  0.31006000  0.17846000  1.0
  H  H55  1  0.53868000  0.41748000  0.20931000  1.0
  H  H56  1  0.04753000  0.67343000  0.31528000  1.0
  H  H57  1  0.05234000  0.56239000  0.29667000  1.0
  H  H58  1  0.45156000  0.06862000  0.70850000  1.0
  H  H59  1  0.45931000  0.18142000  0.69812000  1.0
  C  C60  1  0.36898000  0.31290000  0.49842000  1.0
  C  C61  1  0.38272000  0.26443000  0.49852000  1.0
  C  C62  1  0.39059000  0.25431000  0.44924000  1.0
  C  C63  1  0.28324000  0.46926000  0.32922000  1.0
  C  C64  1  0.25257000  0.48131000  0.36697000  1.0
  C  C65  1  0.27064000  0.45630000  0.40740000  1.0
  C  C66  1  0.44990000  0.31059000  0.26734000  1.0
  C  C67  1  0.46703000  0.34747000  0.23500000  1.0
  C  C68  1  0.44274000  0.38855000  0.24888000  1.0
  C  C69  1  0.85429000  0.73379000  0.02517000  1.0
  C  C70  1  0.89558000  0.76793000  0.01735000  1.0
  C  C71  1  0.93114000  0.75626000  0.05288000  1.0
  C  C72  1  0.79514000  0.51742000  0.14378000  1.0
  C  C73  1  0.75918000  0.51086000  0.10545000  1.0
  C  C74  1  0.76924000  0.55258000  0.07661000  1.0
  C  C75  1  0.99481000  0.67475000  0.22367000  1.0
  C  C76  1  0.00156000  0.63670000  0.25662000  1.0
  C  C77  1  0.96557000  0.59855000  0.24095000  1.0
  C  C78  1  0.13947000  0.77495000  0.52473000  1.0
  C  C79  1  0.09568000  0.74889000  0.50513000  1.0
  C  C80  1  0.05746000  0.77015000  0.52879000  1.0
  C  C81  1  0.22550000  0.95904000  0.68603000  1.0
  C  C82  1  0.25946000  0.97153000  0.64951000  1.0
  C  C83  1  0.24412000  0.93816000  0.61122000  1.0
  C  C84  1  0.98486000  0.86587000  0.68555000  1.0
  C  C85  1  0.98802000  0.87968000  0.73508000  1.0
  C  C86  1  0.03948000  0.88831000  0.74548000  1.0
  C  C87  1  0.67891000  0.22614000  0.97884000  1.0
  C  C88  1  0.64282000  0.25873000  0.98773000  1.0
  C  C89  1  0.60490000  0.24506000  0.95240000  1.0
  C  C90  1  0.70996000  0.01598000  0.84715000  1.0
  C  C91  1  0.74710000  0.01139000  0.88349000  1.0
  C  C92  1  0.74368000  0.05229000  0.91447000  1.0
  C  C93  1  0.51838000  0.15369000  0.78708000  1.0
  C  C94  1  0.50448000  0.11330000  0.75553000  1.0
  C  C95  1  0.53896000  0.07944000  0.76751000  1.0
  C  C96  1  0.86958000  0.85954000  0.91737000  1.0
  C  C97  1  0.83594000  0.91221000  0.86479000  1.0
  C  C98  1  0.90780000  0.88009000  0.84706000  1.0
  C  C99  1  0.37977000  0.14995000  0.57795000  1.0
  C  C100  1  0.40862000  0.13147000  0.65350000  1.0
  C  C101  1  0.35293000  0.07704000  0.61217000  1.0
  C  C102  1  0.60847000  0.34935000  0.08568000  1.0
  C  C103  1  0.65106000  0.41351000  0.12738000  1.0
  C  C104  1  0.57537000  0.38178000  0.15246000  1.0
  C  C105  1  0.12550000  0.63959000  0.42654000  1.0
  C  C106  1  0.09327000  0.60170000  0.35670000  1.0
  C  C107  1  0.15770000  0.57103000  0.39792000  1.0
  C  C108  1  0.90118000  0.80414000  0.97948000  1.0
  C  C109  1  0.86389000  0.82779000  0.95950000  1.0
  C  C110  1  0.38661000  0.23218000  0.53956000  1.0
  C  C111  1  0.37727000  0.18263000  0.53657000  1.0
  C  C112  1  0.64468000  0.29669000  0.02514000  1.0
  C  C113  1  0.60469000  0.31189000  0.04698000  1.0
  C  C114  1  0.09174000  0.70923000  0.46945000  1.0
  C  C115  1  0.12769000  0.67874000  0.46325000  1.0
  C  C116  1  0.78059000  0.97345000  0.88967000  1.0
  C  C117  1  0.80055000  0.94826000  0.85386000  1.0
  C  C118  1  0.21254000  0.51266000  0.36419000  1.0
  C  C119  1  0.19607000  0.53719000  0.40246000  1.0
  C  C120  1  0.29868000  0.01141000  0.65036000  1.0
  C  C121  1  0.31706000  0.03359000  0.61021000  1.0
  C  C122  1  0.71952000  0.47152000  0.09821000  1.0
  C  C123  1  0.69329000  0.45077000  0.13472000  1.0
  C  C124  1  0.94741000  0.88384000  0.76721000  1.0
  C  C125  1  0.94951000  0.87572000  0.81557000  1.0
  C  C126  1  0.50342000  0.34503000  0.19790000  1.0
  C  C127  1  0.53660000  0.38342000  0.18774000  1.0
  C  C128  1  0.03678000  0.63770000  0.29750000  1.0
  C  C129  1  0.05803000  0.59833000  0.31500000  1.0
  C  C130  1  0.46518000  0.10662000  0.71846000  1.0
  C  C131  1  0.44525000  0.14273000  0.69336000  1.0
  N  N132  1  0.38211000  0.29359000  0.42214000  1.0
  N  N133  1  0.36805000  0.32989000  0.45263000  1.0
  N  N134  1  0.30889000  0.43148000  0.39454000  1.0
  N  N135  1  0.31708000  0.43992000  0.34605000  1.0
  N  N136  1  0.41359000  0.37691000  0.28643000  1.0
  N  N137  1  0.41856000  0.32866000  0.29849000  1.0
  N  N138  1  0.91224000  0.71865000  0.07992000  1.0
  N  N139  1  0.86474000  0.70414000  0.06212000  1.0
  N  N140  1  0.80763000  0.58197000  0.09671000  1.0
  N  N141  1  0.82425000  0.55970000  0.13801000  1.0
  N  N142  1  0.93951000  0.61299000  0.20194000  1.0
  N  N143  1  0.95820000  0.66011000  0.19071000  1.0
  N  N144  1  0.07709000  0.80551000  0.56038000  1.0
  N  N145  1  0.12806000  0.80879000  0.55733000  1.0
  N  N146  1  0.20426000  0.90855000  0.62400000  1.0
  N  N147  1  0.19221000  0.92179000  0.67034000  1.0
  N  N148  1  0.06473000  0.88029000  0.70530000  1.0
  N  N149  1  0.03073000  0.86563000  0.66811000  1.0
  N  N150  1  0.61759000  0.20743000  0.92486000  1.0
  N  N151  1  0.66329000  0.19510000  0.94175000  1.0
  N  N152  1  0.70778000  0.07927000  0.89756000  1.0
  N  N153  1  0.68632000  0.05624000  0.85611000  1.0
  N  N154  1  0.57114000  0.09849000  0.80280000  1.0
  N  N155  1  0.55786000  0.14436000  0.81548000  1.0
  N  N156  1  0.83298000  0.88857000  0.90763000  1.0
  N  N157  1  0.87025000  0.90608000  0.83151000  1.0
  N  N158  1  0.90978000  0.85702000  0.89001000  1.0
  N  N159  1  0.40642000  0.16565000  0.61859000  1.0
  N  N160  1  0.38113000  0.08749000  0.65298000  1.0
  N  N161  1  0.35399000  0.10524000  0.57210000  1.0
  N  N162  1  0.64953000  0.38176000  0.08937000  1.0
  N  N163  1  0.61528000  0.41494000  0.16016000  1.0
  N  N164  1  0.57004000  0.34816000  0.11579000  1.0
  N  N165  1  0.09210000  0.63919000  0.38896000  1.0
  N  N166  1  0.12534000  0.56674000  0.35927000  1.0
  N  N167  1  0.15858000  0.60597000  0.43320000  1.0
