# generated using pymatgen
data_MnH4C5N2O5
_symmetry_space_group_name_H-M   'P 1'
_cell_length_a   7.06283000
_cell_length_b   7.50285000
_cell_length_c   7.56466000
_cell_angle_alpha   89.99980000
_cell_angle_beta   117.23100000
_cell_angle_gamma   90.00000000
_symmetry_Int_Tables_number   1
_chemical_formula_structural   MnH4C5N2O5
_chemical_formula_sum   'Mn2 H8 C10 N4 O10'
_cell_volume   356.43365874
_cell_formula_units_Z   2
loop_
 _symmetry_equiv_pos_site_id
 _symmetry_equiv_pos_as_xyz
  1  'x, y, z'
loop_
 _atom_site_type_symbol
 _atom_site_label
 _atom_site_symmetry_multiplicity
 _atom_site_fract_x
 _atom_site_fract_y
 _atom_site_fract_z
 _atom_site_occupancy
  Mn  Mn0  1  0.28082000  0.74166000  0.15706000  1.0
  Mn  Mn1  1  0.71918000  0.24166000  0.84294000  1.0
  H  H2  1  0.84655000  0.63223000  0.28337000  1.0
  H  H3  1  0.15345000  0.13223000  0.71663000  1.0
  H  H4  1  0.95105000  0.53540000  0.63599000  1.0
  H  H5  1  0.04895000  0.03540000  0.36401000  1.0
  H  H6  1  0.86108000  0.86060000  0.95464000  1.0
  H  H7  1  0.13892000  0.36060000  0.04535000  1.0
  H  H8  1  0.87755000  0.67348000  0.86033000  1.0
  H  H9  1  0.12245000  0.17348000  0.13967000  1.0
  C  C10  1  0.00913000  0.60743000  0.39384000  1.0
  C  C11  1  0.99087000  0.10743000  0.60616000  1.0
  C  C12  1  0.56518000  0.57139000  0.55439000  1.0
  C  C13  1  0.43482000  0.07139000  0.44561000  1.0
  C  C14  1  0.35200000  0.56594000  0.54541000  1.0
  C  C15  1  0.64800000  0.06594000  0.45459000  1.0
  C  C16  1  0.27637000  0.52527000  0.68202000  1.0
  C  C17  1  0.72363000  0.02527000  0.31798000  1.0
  C  C18  1  0.37690000  0.46867000  0.89280000  1.0
  C  C19  1  0.62310000  0.96867000  0.10720000  1.0
  N  N20  1  0.18326000  0.61900000  0.36890000  1.0
  N  N21  1  0.81674000  0.11900000  0.63110000  1.0
  N  N22  1  0.05982000  0.55436000  0.58093000  1.0
  N  N23  1  0.94018000  0.05436000  0.41907000  1.0
  O  O24  1  0.57944000  0.64525000  0.41047000  1.0
  O  O25  1  0.42055000  0.14525000  0.58953000  1.0
  O  O26  1  0.72793000  0.50348000  0.70429000  1.0
  O  O27  1  0.27207000  0.00348000  0.29571000  1.0
  O  O28  1  0.55173000  0.38519000  0.96810000  1.0
  O  O29  1  0.44827000  0.88519000  0.03190000  1.0
  O  O30  1  0.27205000  0.50754000  0.98931000  1.0
  O  O31  1  0.72795000  0.00754000  0.01069000  1.0
  O  O32  1  0.96094000  0.77779000  0.93612000  1.0
  O  O33  1  0.03906000  0.27779000  0.06387000  1.0
