# generated using pymatgen
data_Zn4P3H13C9(NO2)6
_symmetry_space_group_name_H-M   'P 1'
_cell_length_a   9.62573000
_cell_length_b   9.85963000
_cell_length_c   12.30430000
_cell_angle_alpha   76.57660000
_cell_angle_beta   77.39080000
_cell_angle_gamma   68.17250000
_symmetry_Int_Tables_number   1
_chemical_formula_structural   Zn4P3H13C9(NO2)6
_chemical_formula_sum   'Zn8 P6 H26 C18 N12 O24'
_cell_volume   1043.09453700
_cell_formula_units_Z   2
loop_
 _symmetry_equiv_pos_site_id
 _symmetry_equiv_pos_as_xyz
  1  'x, y, z'
loop_
 _atom_site_type_symbol
 _atom_site_label
 _atom_site_symmetry_multiplicity
 _atom_site_fract_x
 _atom_site_fract_y
 _atom_site_fract_z
 _atom_site_occupancy
  Zn  Zn0  1  0.13695000  0.72591000  0.63505000  1.0
  Zn  Zn1  1  0.86305000  0.27410000  0.36495000  1.0
  Zn  Zn2  1  0.14697000  0.29907000  0.07368000  1.0
  Zn  Zn3  1  0.85303000  0.70093000  0.92632000  1.0
  Zn  Zn4  1  0.01329000  0.81717000  0.10416000  1.0
  Zn  Zn5  1  0.98671000  0.18283000  0.89584000  1.0
  Zn  Zn6  1  0.34092000  0.52337000  0.90411000  1.0
  Zn  Zn7  1  0.65908000  0.47663000  0.09589000  1.0
  P  P8  1  0.11215000  0.44681000  0.81184000  1.0
  P  P9  1  0.88785000  0.55319000  0.18816000  1.0
  P  P10  1  0.10867000  0.84393000  0.84651000  1.0
  P  P11  1  0.89133000  0.15607000  0.15349000  1.0
  P  P12  1  0.32324000  0.59045000  0.15670000  1.0
  P  P13  1  0.67677000  0.40955000  0.84330000  1.0
  H  H14  1  0.17176000  0.47449000  0.24476000  1.0
  H  H15  1  0.82824000  0.52551000  0.75524000  1.0
  H  H16  1  0.60560000  0.60703000  0.34719000  1.0
  H  H17  1  0.39439000  0.39297000  0.65281000  1.0
  H  H18  1  0.84506000  0.77795000  0.32386000  1.0
  H  H19  1  0.15494000  0.22205000  0.67614000  1.0
  H  H20  1  0.68559000  0.02438000  0.14233000  1.0
  H  H21  1  0.31441000  0.97562000  0.85767000  1.0
  H  H22  1  0.31408000  0.69377000  0.37823000  1.0
  H  H23  1  0.68592000  0.30623000  0.62177000  1.0
  H  H24  1  0.70616000  0.62728000  0.51346000  1.0
  H  H25  1  0.29383000  0.37272000  0.48654000  1.0
  H  H26  1  0.45306000  0.71763000  0.67458000  1.0
  H  H27  1  0.54694000  0.28237000  0.32542000  1.0
  H  H28  1  0.07949000  0.63522000  0.41064000  1.0
  H  H29  1  0.92051000  0.36478000  0.58936000  1.0
  H  H30  1  0.65922000  0.98296000  0.43935000  1.0
  H  H31  1  0.34077000  0.01704000  0.56065000  1.0
  H  H32  1  0.80597000  0.94904000  0.62151000  1.0
  H  H33  1  0.19403000  0.05096000  0.37849000  1.0
  H  H34  1  0.47834000  0.27428000  0.10446000  1.0
  H  H35  1  0.52166000  0.72572000  0.89554000  1.0
  H  H36  1  0.58272000  0.80832000  0.16879000  1.0
  H  H37  1  0.41728000  0.19168000  0.83122000  1.0
  H  H38  1  0.28306000  0.94282000  0.13876000  1.0
  H  H39  1  0.71694000  0.05718000  0.86125000  1.0
  C  C40  1  0.38335000  0.69116000  0.43772000  1.0
  C  C41  1  0.61665000  0.30884000  0.56227000  1.0
  C  C42  1  0.58713000  0.65779000  0.50978000  1.0
  C  C43  1  0.41286000  0.34221000  0.49022000  1.0
  C  C44  1  0.46208000  0.70291000  0.58848000  1.0
  C  C45  1  0.53792000  0.29709000  0.41152000  1.0
  C  C46  1  0.98602000  0.72326000  0.44644000  1.0
  C  C47  1  0.01398000  0.27674000  0.55356000  1.0
  C  C48  1  0.76685000  0.90598000  0.46212000  1.0
  C  C49  1  0.23314000  0.09402000  0.53789000  1.0
  C  C50  1  0.83970000  0.88893000  0.55134000  1.0
  C  C51  1  0.16030000  0.11107000  0.44866000  1.0
  C  C52  1  0.46459000  0.16712000  0.11874000  1.0
  C  C53  1  0.53540000  0.83288000  0.88126000  1.0
  C  C54  1  0.51549000  0.92445000  0.15291000  1.0
  C  C55  1  0.48451000  0.07555000  0.84709000  1.0
  C  C56  1  0.36668000  0.99286000  0.13735000  1.0
  C  C57  1  0.63332000  0.00714000  0.86266000  1.0
  N  N58  1  0.33514000  0.72329000  0.54238000  1.0
  N  N59  1  0.66486000  0.27672000  0.45762000  1.0
  N  N60  1  0.53517000  0.65181000  0.41578000  1.0
  N  N61  1  0.46482000  0.34819000  0.58422000  1.0
  N  N62  1  0.97661000  0.77421000  0.54043000  1.0
  N  N63  1  0.02339000  0.22579000  0.45957000  1.0
  N  N64  1  0.86063000  0.80068000  0.39783000  1.0
  N  N65  1  0.13937000  0.19932000  0.60217000  1.0
  N  N66  1  0.33627000  0.14495000  0.11591000  1.0
  N  N67  1  0.66373000  0.85505000  0.88409000  1.0
  N  N68  1  0.57425000  0.03600000  0.14130000  1.0
  N  N69  1  0.42575000  0.96400000  0.85870000  1.0
  O  O70  1  0.20839000  0.51075000  0.71052000  1.0
  O  O71  1  0.79161000  0.48925000  0.28948000  1.0
  O  O72  1  0.03782000  0.86713000  0.74018000  1.0
  O  O73  1  0.96218000  0.13287000  0.25982000  1.0
  O  O74  1  0.18335000  0.42476000  0.92126000  1.0
  O  O75  1  0.81666000  0.57524000  0.07874000  1.0
  O  O76  1  0.00061000  0.78830000  0.95067000  1.0
  O  O77  1  0.99939000  0.21170000  0.04934000  1.0
  O  O78  1  0.94671000  0.55493000  0.82397000  1.0
  O  O79  1  0.05329000  0.44507000  0.17603000  1.0
  O  O80  1  0.11644000  0.29397000  0.79668000  1.0
  O  O81  1  0.88356000  0.70603000  0.20332000  1.0
  O  O82  1  0.12015000  0.98725000  0.86873000  1.0
  O  O83  1  0.87985000  0.01275000  0.13127000  1.0
  O  O84  1  0.21782000  0.75245000  0.13243000  1.0
  O  O85  1  0.78218000  0.24755000  0.86757000  1.0
  O  O86  1  0.47298000  0.58732000  0.18388000  1.0
  O  O87  1  0.52702000  0.41268000  0.81612000  1.0
  O  O88  1  0.27017000  0.73049000  0.83838000  1.0
  O  O89  1  0.72983000  0.26951000  0.16162000  1.0
  O  O90  1  0.34775000  0.49975000  0.06415000  1.0
  O  O91  1  0.65225000  0.50024000  0.93585000  1.0
  O  O92  1  0.24596000  0.50736000  0.26874000  1.0
  O  O93  1  0.75404000  0.49264000  0.73126000  1.0
