# generated using pymatgen
data_CdH20C19(NO)4
_symmetry_space_group_name_H-M   'P 1'
_cell_length_a   9.75465000
_cell_length_b   10.73910000
_cell_length_c   23.45210000
_cell_angle_alpha   90.00010000
_cell_angle_beta   90.00010000
_cell_angle_gamma   77.34200000
_symmetry_Int_Tables_number   1
_chemical_formula_structural   CdH20C19(NO)4
_chemical_formula_sum   'Cd4 H80 C76 N16 O16'
_cell_volume   2397.04170043
_cell_formula_units_Z   4
loop_
 _symmetry_equiv_pos_site_id
 _symmetry_equiv_pos_as_xyz
  1  'x, y, z'
loop_
 _atom_site_type_symbol
 _atom_site_label
 _atom_site_symmetry_multiplicity
 _atom_site_fract_x
 _atom_site_fract_y
 _atom_site_fract_z
 _atom_site_occupancy
  Cd  Cd0  1  0.52586000  0.31934000  0.89490000  1.0
  Cd  Cd1  1  0.97414000  0.68066000  0.39490000  1.0
  Cd  Cd2  1  0.47414000  0.68066000  0.10510000  1.0
  Cd  Cd3  1  0.02586000  0.31934000  0.60510000  1.0
  H  H4  1  0.75751000  0.96870000  0.01451000  1.0
  H  H5  1  0.74249000  0.03131000  0.51451000  1.0
  H  H6  1  0.24250000  0.03131000  0.98550000  1.0
  H  H7  1  0.25751000  0.96869000  0.48549000  1.0
  H  H8  1  0.04093000  0.16982000  0.93422000  1.0
  H  H9  1  0.45907000  0.83018000  0.43422000  1.0
  H  H10  1  0.95907000  0.83018000  0.06578000  1.0
  H  H11  1  0.54093000  0.16982000  0.56578000  1.0
  H  H12  1  0.22229000  0.53328000  0.04275000  1.0
  H  H13  1  0.27771000  0.46672000  0.54275000  1.0
  H  H14  1  0.77770000  0.46672000  0.95725000  1.0
  H  H15  1  0.72229000  0.53328000  0.45725000  1.0
  H  H16  1  0.00704000  0.37989000  0.90894000  1.0
  H  H17  1  0.49295000  0.62011000  0.40894000  1.0
  H  H18  1  0.99295000  0.62011000  0.09106000  1.0
  H  H19  1  0.50705000  0.37989000  0.59106000  1.0
  H  H20  1  0.46109000  0.61443000  0.94735000  1.0
  H  H21  1  0.03891000  0.38557000  0.44735000  1.0
  H  H22  1  0.53891000  0.38557000  0.05265000  1.0
  H  H23  1  0.96109000  0.61443000  0.55265000  1.0
  H  H24  1  0.72300000  0.48241000  0.80721000  1.0
  H  H25  1  0.77700000  0.51759000  0.30721000  1.0
  H  H26  1  0.27701000  0.51759000  0.19279000  1.0
  H  H27  1  0.22299000  0.48241000  0.69279000  1.0
  H  H28  1  0.75364000  0.72656000  0.83594000  1.0
  H  H29  1  0.74636000  0.27344000  0.33594000  1.0
  H  H30  1  0.24637000  0.27343000  0.16406000  1.0
  H  H31  1  0.25364000  0.72656000  0.66406000  1.0
  H  H32  1  0.67986000  0.84361000  0.94380000  1.0
  H  H33  1  0.82014000  0.15639000  0.44380000  1.0
  H  H34  1  0.32014000  0.15639000  0.05620000  1.0
  H  H35  1  0.17986000  0.84361000  0.55620000  1.0
  H  H36  1  0.51266000  0.82225000  0.96668000  1.0
  H  H37  1  0.98733000  0.17775000  0.46668000  1.0
  H  H38  1  0.48734000  0.17775000  0.03332000  1.0
  H  H39  1  0.01266000  0.82225000  0.53332000  1.0
  H  H40  1  0.57517000  0.95113000  0.85533000  1.0
  H  H41  1  0.92483000  0.04887000  0.35533000  1.0
  H  H42  1  0.42483000  0.04887000  0.14467000  1.0
  H  H43  1  0.07517000  0.95113000  0.64467000  1.0
  H  H44  1  0.49184000  0.02783000  0.91625000  1.0
  H  H45  1  0.00816000  0.97217000  0.41625000  1.0
  H  H46  1  0.50816000  0.97217000  0.08375000  1.0
  H  H47  1  0.99184000  0.02782000  0.58375000  1.0
  H  H48  1  0.29634000  0.90733000  0.90282000  1.0
  H  H49  1  0.20365000  0.09268000  0.40282000  1.0
  H  H50  1  0.70366000  0.09268000  0.09718000  1.0
  H  H51  1  0.79634000  0.90732000  0.59718000  1.0
  H  H52  1  0.38047000  0.83713000  0.84053000  1.0
  H  H53  1  0.11953000  0.16287000  0.34053000  1.0
  H  H54  1  0.61953000  0.16287000  0.15947000  1.0
  H  H55  1  0.88047000  0.83713000  0.65947000  1.0
  H  H56  1  0.27228000  0.12667000  0.85841000  1.0
  H  H57  1  0.22773000  0.87333000  0.35841000  1.0
  H  H58  1  0.72773000  0.87333000  0.14159000  1.0
  H  H59  1  0.77227000  0.12667000  0.64159000  1.0
  H  H60  1  0.35704000  0.05464000  0.79656000  1.0
  H  H61  1  0.14296000  0.94536000  0.29656000  1.0
  H  H62  1  0.64296000  0.94536000  0.20344000  1.0
  H  H63  1  0.85704000  0.05463000  0.70344000  1.0
  H  H64  1  0.16470000  0.93114000  0.78457000  1.0
  H  H65  1  0.33529000  0.06886000  0.28457000  1.0
  H  H66  1  0.83529000  0.06886000  0.21543000  1.0
  H  H67  1  0.66470000  0.93114000  0.71543000  1.0
  H  H68  1  0.07715000  0.01351000  0.84432000  1.0
  H  H69  1  0.42285000  0.98650000  0.34432000  1.0
  H  H70  1  0.92285000  0.98650000  0.15568000  1.0
  H  H71  1  0.57715000  0.01351000  0.65568000  1.0
  H  H72  1  0.91279000  0.22212000  0.82790000  1.0
  H  H73  1  0.58721000  0.77788000  0.32790000  1.0
  H  H74  1  0.08721000  0.77788000  0.17210000  1.0
  H  H75  1  0.41279000  0.22212000  0.67210000  1.0
  H  H76  1  0.84678000  0.37530000  0.73056000  1.0
  H  H77  1  0.65322000  0.62469000  0.23056000  1.0
  H  H78  1  0.15321000  0.62470000  0.26944000  1.0
  H  H79  1  0.34678000  0.37530000  0.76944000  1.0
  H  H80  1  0.20698000  0.08902000  0.69623000  1.0
  H  H81  1  0.29302000  0.91098000  0.19623000  1.0
  H  H82  1  0.79302000  0.91098000  0.30377000  1.0
  H  H83  1  0.70698000  0.08902000  0.80377000  1.0
  C  C84  1  0.76589000  0.16004000  0.93999000  1.0
  C  C85  1  0.73412000  0.83996000  0.43999000  1.0
  C  C86  1  0.23411000  0.83996000  0.06001000  1.0
  C  C87  1  0.26588000  0.16004000  0.56001000  1.0
  C  C88  1  0.88666000  0.07705000  0.97085000  1.0
  C  C89  1  0.61334000  0.92295000  0.47085000  1.0
  C  C90  1  0.11334000  0.92295000  0.02915000  1.0
  C  C91  1  0.38666000  0.07705000  0.52915000  1.0
  C  C92  1  0.86416000  0.98180000  0.00838000  1.0
  C  C93  1  0.63584000  0.01820000  0.50838000  1.0
  C  C94  1  0.13584000  0.01820000  0.99162000  1.0
  C  C95  1  0.36416000  0.98180000  0.49162000  1.0
  C  C96  1  0.02368000  0.09462000  0.96270000  1.0
  C  C97  1  0.47632000  0.90538000  0.46270000  1.0
  C  C98  1  0.97632000  0.90538000  0.03730000  1.0
  C  C99  1  0.52368000  0.09463000  0.53730000  1.0
  C  C100  1  0.26691000  0.39630000  0.94510000  1.0
  C  C101  1  0.23309000  0.60370000  0.44510000  1.0
  C  C102  1  0.73308000  0.60370000  0.05490000  1.0
  C  C103  1  0.76692000  0.39630000  0.55490000  1.0
  C  C104  1  0.12889000  0.44985000  0.97329000  1.0
  C  C105  1  0.37111000  0.55015000  0.47329000  1.0
  C  C106  1  0.87111000  0.55015000  0.02671000  1.0
  C  C107  1  0.62889000  0.44985000  0.52671000  1.0
  C  C108  1  0.12458000  0.51849000  0.02444000  1.0
  C  C109  1  0.37541000  0.48151000  0.52444000  1.0
  C  C110  1  0.87541000  0.48151000  0.97556000  1.0
  C  C111  1  0.62459000  0.51849000  0.47556000  1.0
  C  C112  1  0.00321000  0.43224000  0.94893000  1.0
  C  C113  1  0.49679000  0.56776000  0.44893000  1.0
  C  C114  1  0.99679000  0.56776000  0.05107000  1.0
  C  C115  1  0.50321000  0.43224000  0.55107000  1.0
  C  C116  1  0.53323000  0.61187000  0.91203000  1.0
  C  C117  1  0.96677000  0.38813000  0.41203000  1.0
  C  C118  1  0.46677000  0.38813000  0.08797000  1.0
  C  C119  1  0.03323000  0.61187000  0.58797000  1.0
  C  C120  1  0.67098000  0.54720000  0.83988000  1.0
  C  C121  1  0.82902000  0.45280000  0.33988000  1.0
  C  C122  1  0.32903000  0.45279000  0.16013000  1.0
  C  C123  1  0.17097000  0.54721000  0.66013000  1.0
  C  C124  1  0.68740000  0.66747000  0.85364000  1.0
  C  C125  1  0.81260000  0.33253000  0.35364000  1.0
  C  C126  1  0.31261000  0.33253000  0.14636000  1.0
  C  C127  1  0.18739000  0.66747000  0.64636000  1.0
  C  C128  1  0.57741000  0.82950000  0.92902000  1.0
  C  C129  1  0.92259000  0.17050000  0.42902000  1.0
  C  C130  1  0.42259000  0.17049000  0.07098000  1.0
  C  C131  1  0.07741000  0.82950000  0.57098000  1.0
  C  C132  1  0.50514000  0.93980000  0.89091000  1.0
  C  C133  1  0.99486000  0.06020000  0.39091000  1.0
  C  C134  1  0.49486000  0.06020000  0.10909000  1.0
  C  C135  1  0.00514000  0.93980000  0.60909000  1.0
  C  C136  1  0.36421000  0.92369000  0.86727000  1.0
  C  C137  1  0.13579000  0.07631000  0.36728000  1.0
  C  C138  1  0.63579000  0.07631000  0.13273000  1.0
  C  C139  1  0.86421000  0.92369000  0.63272000  1.0
  C  C140  1  0.28996000  0.03916000  0.83248000  1.0
  C  C141  1  0.21004000  0.96084000  0.33249000  1.0
  C  C142  1  0.71004000  0.96084000  0.16752000  1.0
  C  C143  1  0.78996000  0.03916000  0.66751000  1.0
  C  C144  1  0.14981000  0.02035000  0.80926000  1.0
  C  C145  1  0.35019000  0.97965000  0.30926000  1.0
  C  C146  1  0.85019000  0.97965000  0.19074000  1.0
  C  C147  1  0.64981000  0.02035000  0.69074000  1.0
  C  C148  1  0.96261000  0.21861000  0.78617000  1.0
  C  C149  1  0.53740000  0.78139000  0.28617000  1.0
  C  C150  1  0.03739000  0.78139000  0.21382000  1.0
  C  C151  1  0.46261000  0.21861000  0.71382000  1.0
  C  C152  1  0.93213000  0.29358000  0.73828000  1.0
  C  C153  1  0.56787000  0.70643000  0.23828000  1.0
  C  C154  1  0.06787000  0.70642000  0.26172000  1.0
  C  C155  1  0.43213000  0.29357000  0.76172000  1.0
  C  C156  1  0.11687000  0.14615000  0.71805000  1.0
  C  C157  1  0.38313000  0.85385000  0.21805000  1.0
  C  C158  1  0.88313000  0.85385000  0.28195000  1.0
  C  C159  1  0.61687000  0.14615000  0.78195000  1.0
  N  N160  1  0.57437000  0.51383000  0.87655000  1.0
  N  N161  1  0.92563000  0.48617000  0.37655000  1.0
  N  N162  1  0.42563000  0.48617000  0.12346000  1.0
  N  N163  1  0.07437000  0.51383000  0.62346000  1.0
  N  N164  1  0.59975000  0.70659000  0.89965000  1.0
  N  N165  1  0.90024000  0.29341000  0.39965000  1.0
  N  N166  1  0.40025000  0.29340000  0.10035000  1.0
  N  N167  1  0.09976000  0.70659000  0.60035000  1.0
  N  N168  1  0.07929000  0.12483000  0.77232000  1.0
  N  N169  1  0.42071000  0.87517000  0.27232000  1.0
  N  N170  1  0.92071000  0.87517000  0.22768000  1.0
  N  N171  1  0.57929000  0.12483000  0.72768000  1.0
  N  N172  1  0.02900000  0.24743000  0.69627000  1.0
  N  N173  1  0.47100000  0.75257000  0.19627000  1.0
  N  N174  1  0.97100000  0.75257000  0.30373000  1.0
  N  N175  1  0.52899000  0.24743000  0.80373000  1.0
  O  O176  1  0.64096000  0.16374000  0.95838000  1.0
  O  O177  1  0.85905000  0.83627000  0.45838000  1.0
  O  O178  1  0.35905000  0.83627000  0.04162000  1.0
  O  O179  1  0.14095000  0.16374000  0.54162000  1.0
  O  O180  1  0.79018000  0.22396000  0.89706000  1.0
  O  O181  1  0.70982000  0.77604000  0.39706000  1.0
  O  O182  1  0.20982000  0.77603000  0.10294000  1.0
  O  O183  1  0.29018000  0.22397000  0.60294000  1.0
  O  O184  1  0.37671000  0.42619000  0.96601000  1.0
  O  O185  1  0.12329000  0.57381000  0.46601000  1.0
  O  O186  1  0.62329000  0.57381000  0.03399000  1.0
  O  O187  1  0.87671000  0.42619000  0.53399000  1.0
  O  O188  1  0.27215000  0.32387000  0.90162000  1.0
  O  O189  1  0.22785000  0.67613000  0.40161000  1.0
  O  O190  1  0.72785000  0.67613000  0.09839000  1.0
  O  O191  1  0.77215000  0.32387000  0.59838000  1.0
