# generated using pymatgen
data_FeH30C30(NO)4
_symmetry_space_group_name_H-M   'P 1'
_cell_length_a   11.00980000
_cell_length_b   11.59730000
_cell_length_c   12.20120000
_cell_angle_alpha   73.09440000
_cell_angle_beta   65.01390000
_cell_angle_gamma   71.97540000
_symmetry_Int_Tables_number   1
_chemical_formula_structural   FeH30C30(NO)4
_chemical_formula_sum   'Fe2 H60 C60 N8 O8'
_cell_volume   1319.42774965
_cell_formula_units_Z   2
loop_
 _symmetry_equiv_pos_site_id
 _symmetry_equiv_pos_as_xyz
  1  'x, y, z'
loop_
 _atom_site_type_symbol
 _atom_site_label
 _atom_site_symmetry_multiplicity
 _atom_site_fract_x
 _atom_site_fract_y
 _atom_site_fract_z
 _atom_site_occupancy
  Fe  Fe0  1  0.56050000  0.32208000  0.72641000  1.0
  Fe  Fe1  1  0.43950000  0.67792000  0.27359000  1.0
  H  H2  1  0.69643000  0.48474000  0.87038000  1.0
  H  H3  1  0.30357000  0.51526000  0.12962000  1.0
  H  H4  1  0.64937000  0.39293000  0.03713000  1.0
  H  H5  1  0.35063000  0.60706000  0.96286000  1.0
  H  H6  1  0.55895000  0.27051000  0.24341000  1.0
  H  H7  1  0.44106000  0.72949000  0.75659000  1.0
  H  H8  1  0.42322000  0.11800000  0.28097000  1.0
  H  H9  1  0.57677000  0.88201000  0.71903000  1.0
  H  H10  1  0.37734000  0.08794000  0.11034000  1.0
  H  H11  1  0.62266000  0.91206000  0.88966000  1.0
  H  H12  1  0.33231000  0.10349000  0.96864000  1.0
  H  H13  1  0.66769000  0.89651000  0.03136000  1.0
  H  H14  1  0.85741000  0.46442000  0.38662000  1.0
  H  H15  1  0.14259000  0.53558000  0.61338000  1.0
  H  H16  1  0.77420000  0.61961000  0.40054000  1.0
  H  H17  1  0.22579000  0.38038000  0.59946000  1.0
  H  H18  1  0.92503000  0.55730000  0.43392000  1.0
  H  H19  1  0.07497000  0.44270000  0.56609000  1.0
  H  H20  1  0.93166000  0.67027000  0.73695000  1.0
  H  H21  1  0.06834000  0.32973000  0.26305000  1.0
  H  H22  1  0.76706000  0.64827000  0.84454000  1.0
  H  H23  1  0.23294000  0.35173000  0.15545000  1.0
  H  H24  1  0.90450000  0.51772000  0.80861000  1.0
  H  H25  1  0.09550000  0.48228000  0.19138000  1.0
  H  H26  1  0.29671000  0.19482000  0.55450000  1.0
  H  H27  1  0.70329000  0.80518000  0.44550000  1.0
  H  H28  1  0.43778000  0.07128000  0.54489000  1.0
  H  H29  1  0.56222000  0.92872000  0.45511000  1.0
  H  H30  1  0.46505000  0.22286000  0.46234000  1.0
  H  H31  1  0.53495000  0.77714000  0.53766000  1.0
  H  H32  1  0.27164000  0.93893000  0.98700000  1.0
  H  H33  1  0.72836000  0.06107000  0.01300000  1.0
  H  H34  1  0.13548000  0.07151000  0.00447000  1.0
  H  H35  1  0.86452000  0.92849000  0.99553000  1.0
  H  H36  1  0.12680000  0.94568000  0.95387000  1.0
  H  H37  1  0.87319000  0.05432000  0.04613000  1.0
  H  H38  1  0.85492000  0.28680000  0.68898000  1.0
  H  H39  1  0.14507000  0.71320000  0.31102000  1.0
  H  H40  1  0.06133000  0.11720000  0.65644000  1.0
  H  H41  1  0.93866000  0.88280000  0.34356000  1.0
  H  H42  1  0.81705000  0.88686000  0.66137000  1.0
  H  H43  1  0.18295000  0.11314000  0.33863000  1.0
  H  H44  1  0.61731000  0.06346000  0.70147000  1.0
  H  H45  1  0.38269000  0.93654000  0.29853000  1.0
  H  H46  1  0.17174000  0.91149000  0.59451000  1.0
  H  H47  1  0.82826000  0.08851000  0.40549000  1.0
  H  H48  1  0.07152000  0.81903000  0.59140000  1.0
  H  H49  1  0.92848000  0.18097000  0.40861000  1.0
  H  H50  1  0.10187000  0.85699000  0.81605000  1.0
  H  H51  1  0.89813000  0.14302000  0.18395000  1.0
  H  H52  1  0.97947000  0.77862000  0.83080000  1.0
  H  H53  1  0.02053000  0.22138000  0.16920000  1.0
  H  H54  1  0.28856000  0.40187000  0.92598000  1.0
  H  H55  1  0.71144000  0.59813000  0.07402000  1.0
  H  H56  1  0.09887000  0.58641000  0.94839000  1.0
  H  H57  1  0.90113000  0.41359000  0.05161000  1.0
  H  H58  1  0.31342000  0.73419000  0.56757000  1.0
  H  H59  1  0.68659000  0.26581000  0.43243000  1.0
  H  H60  1  0.48996000  0.54794000  0.56117000  1.0
  H  H61  1  0.51004000  0.45206000  0.43883000  1.0
  C  C62  1  0.74552000  0.48945000  0.57070000  1.0
  C  C63  1  0.25448000  0.51055000  0.42930000  1.0
  C  C64  1  0.74845000  0.51972000  0.67556000  1.0
  C  C65  1  0.25155000  0.48028000  0.32444000  1.0
  C  C66  1  0.68413000  0.45877000  0.79726000  1.0
  C  C67  1  0.31587000  0.54123000  0.20274000  1.0
  C  C68  1  0.56305000  0.31303000  0.95383000  1.0
  C  C69  1  0.43695000  0.68697000  0.04616000  1.0
  C  C70  1  0.58872000  0.32789000  0.05149000  1.0
  C  C71  1  0.41128000  0.67211000  0.94850000  1.0
  C  C72  1  0.53776000  0.25844000  0.16852000  1.0
  C  C73  1  0.46224000  0.74156000  0.83148000  1.0
  C  C74  1  0.46168000  0.17242000  0.18917000  1.0
  C  C75  1  0.53831000  0.82758000  0.81083000  1.0
  C  C76  1  0.43557000  0.15619000  0.09299000  1.0
  C  C77  1  0.56443000  0.84381000  0.90701000  1.0
  C  C78  1  0.48435000  0.22695000  0.97505000  1.0
  C  C79  1  0.51565000  0.77305000  0.02495000  1.0
  C  C80  1  0.38248000  0.15443000  0.87764000  1.0
  C  C81  1  0.61752000  0.84557000  0.12236000  1.0
  C  C82  1  0.35566000  0.13810000  0.77948000  1.0
  C  C83  1  0.64434000  0.86191000  0.22051000  1.0
  C  C84  1  0.42079000  0.19526000  0.65399000  1.0
  C  C85  1  0.57921000  0.80475000  0.34601000  1.0
  C  C86  1  0.83239000  0.53513000  0.44040000  1.0
  C  C87  1  0.16761000  0.46487000  0.55960000  1.0
  C  C88  1  0.82175000  0.61205000  0.66259000  1.0
  C  C89  1  0.17825000  0.38795000  0.33740000  1.0
  C  C90  1  0.85852000  0.61075000  0.77036000  1.0
  C  C91  1  0.14148000  0.38925000  0.22963000  1.0
  C  C92  1  0.40394000  0.17028000  0.54753000  1.0
  C  C93  1  0.59606000  0.82972000  0.45247000  1.0
  C  C94  1  0.26342000  0.05483000  0.81237000  1.0
  C  C95  1  0.73658000  0.94517000  0.18762000  1.0
  C  C96  1  0.19549000  0.00017000  0.94770000  1.0
  C  C97  1  0.80451000  0.99983000  0.05230000  1.0
  C  C98  1  0.84881000  0.19629000  0.68533000  1.0
  C  C99  1  0.15119000  0.80371000  0.31467000  1.0
  C  C100  1  0.96454000  0.10086000  0.66666667  1.0
  C  C101  1  0.03545000  0.89914000  0.33340000  1.0
  C  C102  1  0.95631000  0.98500000  0.66042000  1.0
  C  C103  1  0.04368000  0.01500000  0.33958000  1.0
  C  C104  1  0.82898000  0.97310000  0.67078000  1.0
  C  C105  1  0.17102000  0.02690000  0.32922000  1.0
  C  C106  1  0.71721000  0.07205000  0.69130000  1.0
  C  C107  1  0.28279000  0.92795000  0.30870000  1.0
  C  C108  1  0.07656000  0.87735000  0.64562000  1.0
  C  C109  1  0.92344000  0.12265000  0.35438000  1.0
  C  C110  1  0.08064000  0.79986000  0.77070000  1.0
  C  C111  1  0.91936000  0.20014000  0.22930000  1.0
  C  C112  1  0.29051000  0.47839000  0.84877000  1.0
  C  C113  1  0.70949000  0.52161000  0.15122000  1.0
  C  C114  1  0.18445000  0.58272000  0.86021000  1.0
  C  C115  1  0.81555000  0.41728000  0.13979000  1.0
  C  C116  1  0.18859000  0.68202000  0.76072000  1.0
  C  C117  1  0.81141000  0.31798000  0.23928000  1.0
  C  C118  1  0.30112000  0.66557000  0.65173000  1.0
  C  C119  1  0.69889000  0.33443000  0.34827000  1.0
  C  C120  1  0.40282000  0.55863000  0.64635000  1.0
  C  C121  1  0.59718000  0.44137000  0.35365000  1.0
  N  N122  1  0.61186000  0.37412000  0.83080000  1.0
  N  N123  1  0.38814000  0.62587000  0.16919000  1.0
  N  N124  1  0.46283000  0.22270000  0.87018000  1.0
  N  N125  1  0.53717000  0.77730000  0.12982000  1.0
  N  N126  1  0.72463000  0.18326000  0.69958000  1.0
  N  N127  1  0.27537000  0.81674000  0.30042000  1.0
  N  N128  1  0.40158000  0.46522000  0.74340000  1.0
  N  N129  1  0.59843000  0.53478000  0.25660000  1.0
  O  O130  1  0.67358000  0.41630000  0.58039000  1.0
  O  O131  1  0.32642000  0.58369000  0.41962000  1.0
  O  O132  1  0.50114000  0.26863000  0.62345000  1.0
  O  O133  1  0.49886000  0.73137000  0.37655000  1.0
  O  O134  1  0.85563000  0.69201000  0.56835000  1.0
  O  O135  1  0.14437000  0.30798000  0.43165000  1.0
  O  O136  1  0.23740000  0.02583000  0.73521000  1.0
  O  O137  1  0.76260000  0.97417000  0.26479000  1.0
