# generated using pymatgen
data_ZnH4C6(NO)3
_symmetry_space_group_name_H-M   'P 1'
_cell_length_a   13.41040000
_cell_length_b   13.41040000
_cell_length_c   27.57320000
_cell_angle_alpha   90.00000000
_cell_angle_beta   90.00000000
_cell_angle_gamma   89.99970000
_symmetry_Int_Tables_number   1
_chemical_formula_structural   ZnH4C6(NO)3
_chemical_formula_sum   'Zn16 H64 C96 N48 O48'
_cell_volume   4958.73197655
_cell_formula_units_Z   16
loop_
 _symmetry_equiv_pos_site_id
 _symmetry_equiv_pos_as_xyz
  1  'x, y, z'
loop_
 _atom_site_type_symbol
 _atom_site_label
 _atom_site_symmetry_multiplicity
 _atom_site_fract_x
 _atom_site_fract_y
 _atom_site_fract_z
 _atom_site_occupancy
  Zn  Zn0  1  0.91541000  0.02195000  0.55375000  1.0
  Zn  Zn1  1  0.02195000  0.58459000  0.55375000  1.0
  Zn  Zn2  1  0.58459000  0.47805000  0.55375000  1.0
  Zn  Zn3  1  0.47804000  0.91541000  0.55375000  1.0
  Zn  Zn4  1  0.08459000  0.52196000  0.94625000  1.0
  Zn  Zn5  1  0.52196000  0.41542000  0.94625000  1.0
  Zn  Zn6  1  0.41541000  0.97805000  0.94625000  1.0
  Zn  Zn7  1  0.97804000  0.08459000  0.94625000  1.0
  Zn  Zn8  1  0.08459000  0.97804000  0.44625000  1.0
  Zn  Zn9  1  0.97804000  0.41541000  0.44625000  1.0
  Zn  Zn10  1  0.41541000  0.52196000  0.44625000  1.0
  Zn  Zn11  1  0.52195000  0.08459000  0.44625000  1.0
  Zn  Zn12  1  0.91541000  0.47805000  0.05375000  1.0
  Zn  Zn13  1  0.47804000  0.58459000  0.05375000  1.0
  Zn  Zn14  1  0.58459000  0.02196000  0.05375000  1.0
  Zn  Zn15  1  0.02196000  0.91541000  0.05375000  1.0
  H  H16  1  0.03722000  0.15087000  0.68712000  1.0
  H  H17  1  0.15089000  0.46278000  0.68712000  1.0
  H  H18  1  0.46278000  0.34912000  0.68713000  1.0
  H  H19  1  0.34913000  0.03722000  0.68712000  1.0
  H  H20  1  0.96278000  0.65088000  0.81287000  1.0
  H  H21  1  0.65090000  0.53723000  0.81288000  1.0
  H  H22  1  0.53723000  0.84911000  0.81288000  1.0
  H  H23  1  0.84912000  0.96278000  0.81288000  1.0
  H  H24  1  0.96277000  0.84913000  0.31288000  1.0
  H  H25  1  0.84911000  0.53722000  0.31288000  1.0
  H  H26  1  0.53722000  0.65088000  0.31288000  1.0
  H  H27  1  0.65087000  0.96278000  0.31288000  1.0
  H  H28  1  0.03722000  0.34912000  0.18712000  1.0
  H  H29  1  0.34913000  0.46278000  0.18712000  1.0
  H  H30  1  0.46277000  0.15087000  0.18712000  1.0
  H  H31  1  0.15088000  0.03722000  0.18712000  1.0
  H  H32  1  0.76137000  0.09271000  0.46480000  1.0
  H  H33  1  0.09270000  0.73863000  0.46480000  1.0
  H  H34  1  0.73862000  0.40730000  0.46480000  1.0
  H  H35  1  0.40730000  0.76137000  0.46480000  1.0
  H  H36  1  0.23862000  0.59270000  0.03520000  1.0
  H  H37  1  0.59270000  0.26138000  0.03520000  1.0
  H  H38  1  0.26137000  0.90730000  0.03520000  1.0
  H  H39  1  0.90730000  0.23864000  0.03520000  1.0
  H  H40  1  0.23863000  0.90729000  0.53520000  1.0
  H  H41  1  0.90730000  0.26137000  0.53520000  1.0
  H  H42  1  0.26136000  0.59269000  0.53520000  1.0
  H  H43  1  0.59270000  0.23863000  0.53520000  1.0
  H  H44  1  0.76137000  0.40730000  0.96480000  1.0
  H  H45  1  0.40730000  0.73863000  0.96480000  1.0
  H  H46  1  0.73862000  0.09269000  0.96480000  1.0
  H  H47  1  0.09270000  0.76137000  0.96480000  1.0
  H  H48  1  0.70473000  0.93244000  0.59320000  1.0
  H  H49  1  0.93244000  0.79526000  0.59320000  1.0
  H  H50  1  0.79526000  0.56756000  0.59320000  1.0
  H  H51  1  0.56755000  0.70474000  0.59320000  1.0
  H  H52  1  0.29527000  0.43245000  0.90680000  1.0
  H  H53  1  0.43243000  0.20474000  0.90681000  1.0
  H  H54  1  0.20473000  0.06756000  0.90680000  1.0
  H  H55  1  0.06756000  0.29527000  0.90680000  1.0
  H  H56  1  0.29526000  0.06756000  0.40680000  1.0
  H  H57  1  0.06756000  0.20473000  0.40680000  1.0
  H  H58  1  0.20473000  0.43244000  0.40680000  1.0
  H  H59  1  0.43243000  0.29527000  0.40681000  1.0
  H  H60  1  0.70474000  0.56757000  0.09320000  1.0
  H  H61  1  0.56756000  0.79527000  0.09320000  1.0
  H  H62  1  0.79527000  0.93245000  0.09320000  1.0
  H  H63  1  0.93245000  0.70473000  0.09320000  1.0
  H  H64  1  0.80539000  0.90700000  0.68926000  1.0
  H  H65  1  0.90701000  0.69460000  0.68925000  1.0
  H  H66  1  0.69462000  0.59300000  0.68925000  1.0
  H  H67  1  0.59300000  0.80539000  0.68926000  1.0
  H  H68  1  0.19461000  0.40701000  0.81074000  1.0
  H  H69  1  0.40702000  0.30541000  0.81075000  1.0
  H  H70  1  0.30540000  0.09299000  0.81074000  1.0
  H  H71  1  0.09300000  0.19460000  0.81074000  1.0
  H  H72  1  0.19461000  0.09300000  0.31074000  1.0
  H  H73  1  0.09299000  0.30539000  0.31074000  1.0
  H  H74  1  0.30539000  0.40700000  0.31074000  1.0
  H  H75  1  0.40700000  0.19461000  0.31074000  1.0
  H  H76  1  0.80539000  0.59300000  0.18926000  1.0
  H  H77  1  0.59300000  0.69461000  0.18926000  1.0
  H  H78  1  0.69460000  0.90698000  0.18926000  1.0
  H  H79  1  0.90700000  0.80539000  0.18926000  1.0
  C  C80  1  0.99596000  0.10999000  0.71469000  1.0
  C  C81  1  0.11001000  0.50404000  0.71469000  1.0
  C  C82  1  0.50405000  0.39001000  0.71469000  1.0
  C  C83  1  0.39001000  0.99596000  0.71469000  1.0
  C  C84  1  0.00405000  0.61000000  0.78531000  1.0
  C  C85  1  0.61002000  0.49597000  0.78531000  1.0
  C  C86  1  0.49597000  0.88999000  0.78531000  1.0
  C  C87  1  0.89000000  0.00404000  0.78531000  1.0
  C  C88  1  0.00403000  0.89001000  0.28531000  1.0
  C  C89  1  0.88999000  0.49595000  0.28531000  1.0
  C  C90  1  0.49596000  0.61000000  0.28531000  1.0
  C  C91  1  0.60999000  0.00403000  0.28532000  1.0
  C  C92  1  0.99595000  0.39000000  0.21469000  1.0
  C  C93  1  0.39001000  0.50404000  0.21469000  1.0
  C  C94  1  0.50403000  0.10999000  0.21469000  1.0
  C  C95  1  0.11000000  0.99596000  0.21469000  1.0
  C  C96  1  0.92558000  0.03827000  0.70071000  1.0
  C  C97  1  0.03829000  0.57441000  0.70071000  1.0
  C  C98  1  0.57443000  0.46172000  0.70071000  1.0
  C  C99  1  0.46173000  0.92558000  0.70071000  1.0
  C  C100  1  0.07442000  0.53829000  0.79929000  1.0
  C  C101  1  0.53830000  0.42559000  0.79929000  1.0
  C  C102  1  0.42559000  0.96171000  0.79929000  1.0
  C  C103  1  0.96172000  0.07442000  0.79929000  1.0
  C  C104  1  0.07441000  0.96173000  0.29929000  1.0
  C  C105  1  0.96171000  0.42558000  0.29929000  1.0
  C  C106  1  0.42558000  0.53828000  0.29929000  1.0
  C  C107  1  0.53827000  0.07442000  0.29929000  1.0
  C  C108  1  0.92558000  0.46171000  0.20071000  1.0
  C  C109  1  0.46173000  0.57442000  0.20071000  1.0
  C  C110  1  0.57441000  0.03826000  0.20071000  1.0
  C  C111  1  0.03828000  0.92558000  0.20071000  1.0
  C  C112  1  0.87126000  0.98420000  0.73651000  1.0
  C  C113  1  0.98421000  0.62873000  0.73651000  1.0
  C  C114  1  0.62875000  0.51580000  0.73651000  1.0
  C  C115  1  0.51580000  0.87126000  0.73651000  1.0
  C  C116  1  0.12874000  0.48420000  0.76349000  1.0
  C  C117  1  0.48422000  0.37127000  0.76350000  1.0
  C  C118  1  0.37127000  0.01579000  0.76349000  1.0
  C  C119  1  0.01580000  0.12873000  0.76349000  1.0
  C  C120  1  0.12873000  0.01580000  0.26349000  1.0
  C  C121  1  0.01579000  0.37126000  0.26349000  1.0
  C  C122  1  0.37127000  0.48420000  0.26349000  1.0
  C  C123  1  0.48419000  0.12873000  0.26349000  1.0
  C  C124  1  0.87126000  0.51579000  0.23651000  1.0
  C  C125  1  0.51580000  0.62873000  0.23651000  1.0
  C  C126  1  0.62873000  0.98419000  0.23651000  1.0
  C  C127  1  0.98420000  0.87127000  0.23651000  1.0
  C  C128  1  0.90891000  0.01768000  0.64887000  1.0
  C  C129  1  0.01770000  0.59108000  0.64887000  1.0
  C  C130  1  0.59109000  0.48232000  0.64887000  1.0
  C  C131  1  0.48232000  0.90891000  0.64887000  1.0
  C  C132  1  0.09109000  0.51769000  0.85113000  1.0
  C  C133  1  0.51772000  0.40893000  0.85113000  1.0
  C  C134  1  0.40892000  0.98230000  0.85113000  1.0
  C  C135  1  0.98231000  0.09109000  0.85113000  1.0
  C  C136  1  0.09108000  0.98232000  0.35113000  1.0
  C  C137  1  0.98231000  0.40891000  0.35113000  1.0
  C  C138  1  0.40891000  0.51768000  0.35113000  1.0
  C  C139  1  0.51768000  0.09109000  0.35113000  1.0
  C  C140  1  0.90891000  0.48231000  0.14887000  1.0
  C  C141  1  0.48232000  0.59109000  0.14887000  1.0
  C  C142  1  0.59108000  0.01767000  0.14887000  1.0
  C  C143  1  0.01768000  0.90891000  0.14887000  1.0
  C  C144  1  0.72431000  0.05239000  0.49378000  1.0
  C  C145  1  0.05239000  0.77568000  0.49378000  1.0
  C  C146  1  0.77568000  0.44761000  0.49378000  1.0
  C  C147  1  0.44761000  0.72432000  0.49378000  1.0
  C  C148  1  0.27568000  0.55239000  0.00622000  1.0
  C  C149  1  0.55239000  0.22432000  0.00622000  1.0
  C  C150  1  0.22431000  0.94761000  0.00622000  1.0
  C  C151  1  0.94761000  0.27569000  0.00622000  1.0
  C  C152  1  0.27568000  0.94761000  0.50622000  1.0
  C  C153  1  0.94761000  0.22431000  0.50622000  1.0
  C  C154  1  0.22431000  0.55238000  0.50622000  1.0
  C  C155  1  0.55238000  0.27569000  0.50622000  1.0
  C  C156  1  0.72431000  0.44762000  0.99378000  1.0
  C  C157  1  0.44761000  0.77569000  0.99378000  1.0
  C  C158  1  0.77568000  0.05239000  0.99378000  1.0
  C  C159  1  0.05239000  0.72432000  0.99378000  1.0
  C  C160  1  0.69540000  0.97029000  0.55870000  1.0
  C  C161  1  0.97028000  0.80460000  0.55870000  1.0
  C  C162  1  0.80460000  0.52971000  0.55870000  1.0
  C  C163  1  0.52970000  0.69540000  0.55870000  1.0
  C  C164  1  0.30460000  0.47030000  0.94129000  1.0
  C  C165  1  0.47028000  0.19541000  0.94130000  1.0
  C  C166  1  0.19540000  0.02971000  0.94130000  1.0
  C  C167  1  0.02971000  0.30460000  0.94130000  1.0
  C  C168  1  0.30460000  0.02971000  0.44130000  1.0
  C  C169  1  0.02971000  0.19540000  0.44130000  1.0
  C  C170  1  0.19539000  0.47028000  0.44130000  1.0
  C  C171  1  0.47028000  0.30460000  0.44130000  1.0
  C  C172  1  0.69540000  0.52972000  0.05870000  1.0
  C  C173  1  0.52971000  0.80460000  0.05870000  1.0
  C  C174  1  0.80460000  0.97030000  0.05870000  1.0
  C  C175  1  0.97029000  0.69540000  0.05870000  1.0
  N  N176  1  0.62704000  0.03270000  0.49395000  1.0
  N  N177  1  0.03270000  0.87295000  0.49395000  1.0
  N  N178  1  0.87295000  0.46730000  0.49395000  1.0
  N  N179  1  0.46730000  0.62704000  0.49395000  1.0
  N  N180  1  0.37296000  0.53270000  0.00605000  1.0
  N  N181  1  0.53269000  0.12705000  0.00606000  1.0
  N  N182  1  0.12704000  0.96730000  0.00605000  1.0
  N  N183  1  0.96730000  0.37296000  0.00605000  1.0
  N  N184  1  0.37295000  0.96730000  0.50605000  1.0
  N  N185  1  0.96730000  0.12704000  0.50605000  1.0
  N  N186  1  0.12704000  0.53269000  0.50605000  1.0
  N  N187  1  0.53269000  0.37296000  0.50605000  1.0
  N  N188  1  0.62704000  0.46731000  0.99395000  1.0
  N  N189  1  0.46730000  0.87296000  0.99395000  1.0
  N  N190  1  0.87296000  0.03270000  0.99395000  1.0
  N  N191  1  0.03270000  0.62705000  0.99395000  1.0
  N  N192  1  0.76986000  0.01508000  0.53364000  1.0
  N  N193  1  0.01508000  0.73014000  0.53364000  1.0
  N  N194  1  0.73014000  0.48492000  0.53364000  1.0
  N  N195  1  0.48491000  0.76986000  0.53364000  1.0
  N  N196  1  0.23014000  0.51509000  0.96636000  1.0
  N  N197  1  0.51508000  0.26986000  0.96636000  1.0
  N  N198  1  0.26986000  0.98492000  0.96636000  1.0
  N  N199  1  0.98492000  0.23015000  0.96636000  1.0
  N  N200  1  0.23014000  0.98492000  0.46636000  1.0
  N  N201  1  0.98492000  0.26986000  0.46636000  1.0
  N  N202  1  0.26985000  0.51507000  0.46636000  1.0
  N  N203  1  0.51507000  0.23015000  0.46636000  1.0
  N  N204  1  0.76986000  0.48493000  0.03364000  1.0
  N  N205  1  0.48492000  0.73015000  0.03364000  1.0
  N  N206  1  0.73014000  0.01508000  0.03364000  1.0
  N  N207  1  0.01508000  0.76986000  0.03364000  1.0
  N  N208  1  0.60869000  0.97989000  0.53564000  1.0
  N  N209  1  0.97989000  0.89130000  0.53564000  1.0
  N  N210  1  0.89130000  0.52011000  0.53564000  1.0
  N  N211  1  0.52010000  0.60869000  0.53564000  1.0
  N  N212  1  0.39131000  0.47990000  0.96436000  1.0
  N  N213  1  0.47988000  0.10870000  0.96436000  1.0
  N  N214  1  0.10869000  0.02011000  0.96436000  1.0
  N  N215  1  0.02011000  0.39131000  0.96436000  1.0
  N  N216  1  0.39130000  0.02011000  0.46436000  1.0
  N  N217  1  0.02011000  0.10869000  0.46436000  1.0
  N  N218  1  0.10869000  0.47988000  0.46436000  1.0
  N  N219  1  0.47988000  0.39131000  0.46436000  1.0
  N  N220  1  0.60869000  0.52012000  0.03564000  1.0
  N  N221  1  0.52011000  0.89131000  0.03564000  1.0
  N  N222  1  0.89131000  0.97990000  0.03564000  1.0
  N  N223  1  0.97989000  0.60870000  0.03564000  1.0
  O  O224  1  0.85514000  0.94408000  0.63530000  1.0
  O  O225  1  0.94410000  0.64484000  0.63530000  1.0
  O  O226  1  0.64486000  0.55592000  0.63530000  1.0
  O  O227  1  0.55592000  0.85514000  0.63530000  1.0
  O  O228  1  0.14485000  0.44409000  0.86470000  1.0
  O  O229  1  0.44412000  0.35517000  0.86470000  1.0
  O  O230  1  0.35515000  0.05590000  0.86470000  1.0
  O  O231  1  0.05592000  0.14485000  0.86470000  1.0
  O  O232  1  0.14485000  0.05592000  0.36470000  1.0
  O  O233  1  0.05591000  0.35514000  0.36470000  1.0
  O  O234  1  0.35514000  0.44408000  0.36470000  1.0
  O  O235  1  0.44407000  0.14485000  0.36470000  1.0
  O  O236  1  0.85514000  0.55592000  0.13530000  1.0
  O  O237  1  0.55592000  0.64486000  0.13530000  1.0
  O  O238  1  0.64484000  0.94406000  0.13531000  1.0
  O  O239  1  0.94408000  0.85515000  0.13530000  1.0
  O  O240  1  0.95063000  0.07583000  0.61699000  1.0
  O  O241  1  0.07585000  0.54936000  0.61699000  1.0
  O  O242  1  0.54936000  0.42416000  0.61699000  1.0
  O  O243  1  0.42417000  0.95064000  0.61699000  1.0
  O  O244  1  0.04936000  0.57584000  0.88301000  1.0
  O  O245  1  0.57586000  0.45065000  0.88301000  1.0
  O  O246  1  0.45064000  0.92416000  0.88301000  1.0
  O  O247  1  0.92416000  0.04936000  0.88301000  1.0
  O  O248  1  0.04936000  0.92417000  0.38301000  1.0
  O  O249  1  0.92416000  0.45063000  0.38301000  1.0
  O  O250  1  0.45063000  0.57583000  0.38301000  1.0
  O  O251  1  0.57583000  0.04937000  0.38301000  1.0
  O  O252  1  0.95064000  0.42417000  0.11699000  1.0
  O  O253  1  0.42417000  0.54937000  0.11699000  1.0
  O  O254  1  0.54937000  0.07582000  0.11699000  1.0
  O  O255  1  0.07583000  0.95064000  0.11699000  1.0
  O  O256  1  0.80179000  0.91515000  0.72517000  1.0
  O  O257  1  0.91516000  0.69821000  0.72516000  1.0
  O  O258  1  0.69822000  0.58485000  0.72517000  1.0
  O  O259  1  0.58485000  0.80179000  0.72517000  1.0
  O  O260  1  0.19821000  0.41515000  0.77483000  1.0
  O  O261  1  0.41517000  0.30181000  0.77484000  1.0
  O  O262  1  0.30180000  0.08484000  0.77483000  1.0
  O  O263  1  0.08485000  0.19820000  0.77483000  1.0
  O  O264  1  0.19821000  0.08485000  0.27483000  1.0
  O  O265  1  0.08484000  0.30179000  0.27483000  1.0
  O  O266  1  0.30180000  0.41515000  0.27483000  1.0
  O  O267  1  0.41515000  0.19820000  0.27483000  1.0
  O  O268  1  0.80179000  0.58485000  0.22517000  1.0
  O  O269  1  0.58485000  0.69821000  0.22517000  1.0
  O  O270  1  0.69820000  0.91515000  0.22518000  1.0
  O  O271  1  0.91515000  0.80180000  0.22517000  1.0
