# generated using pymatgen
data_Hf3H8C20(N3O8)2
_symmetry_space_group_name_H-M   'P 1'
_cell_length_a   16.44570000
_cell_length_b   17.11710000
_cell_length_c   17.14100000
_cell_angle_alpha   71.30560000
_cell_angle_beta   89.97520000
_cell_angle_gamma   89.80680000
_symmetry_Int_Tables_number   1
_chemical_formula_structural   Hf3H8C20(N3O8)2
_chemical_formula_sum   'Hf6 H16 C40 N12 O32'
_cell_volume   4570.63880876
_cell_formula_units_Z   2
loop_
 _symmetry_equiv_pos_site_id
 _symmetry_equiv_pos_as_xyz
  1  'x, y, z'
loop_
 _atom_site_type_symbol
 _atom_site_label
 _atom_site_symmetry_multiplicity
 _atom_site_fract_x
 _atom_site_fract_y
 _atom_site_fract_z
 _atom_site_occupancy
  Hf  Hf0  1  0.10261000  0.90014000  0.10578000  1.0
  Hf  Hf1  1  0.88814000  0.90841000  0.09842000  1.0
  Hf  Hf2  1  0.11212000  0.07676000  0.92998000  1.0
  Hf  Hf3  1  0.89817000  0.08409000  0.92143000  1.0
  Hf  Hf4  1  0.00062000  0.90269000  0.92551000  1.0
  Hf  Hf5  1  0.99985000  0.08136000  0.10294000  1.0
  H  H6  1  0.99911000  0.92065000  0.22415000  1.0
  H  H7  1  0.82899000  0.92790000  0.94055000  1.0
  H  H8  1  0.00228000  0.20353000  0.94054000  1.0
  H  H9  1  0.17315000  0.91911000  0.94903000  1.0
  H  H10  1  0.72501000  0.89316000  0.07572000  1.0
  H  H11  1  0.75763000  0.00853000  0.00105000  1.0
  H  H12  1  0.90213000  0.19309000  0.77022000  1.0
  H  H13  1  0.01726000  0.19089000  0.81338000  1.0
  H  H14  1  0.27033000  0.09432000  0.95401000  1.0
  H  H15  1  0.24280000  0.97876000  0.02909000  1.0
  H  H16  1  0.09631000  0.74860000  0.21354000  1.0
  H  H17  1  0.98364000  0.79189000  0.21276000  1.0
  H  H18  1  0.10269000  0.17443000  0.77039000  1.0
  H  H19  1  0.26035000  0.93701000  0.12868000  1.0
  H  H20  1  0.89495000  0.79508000  0.25844000  1.0
  H  H21  1  0.74055000  0.10810000  0.95802000  1.0
  C  C22  1  0.12746000  0.75981000  0.01836000  1.0
  C  C23  1  0.86125000  0.99881000  0.23637000  1.0
  C  C24  1  0.86629000  0.76719000  0.01015000  1.0
  C  C25  1  0.13731000  0.00023000  0.23706000  1.0
  C  C26  1  0.14145000  0.21154000  0.02334000  1.0
  C  C27  1  0.87401000  0.99470000  0.78226000  1.0
  C  C28  1  0.86323000  0.21594000  0.02160000  1.0
  C  C29  1  0.13198000  0.98804000  0.78665000  1.0
  C  C30  1  0.25953000  0.99731000  0.44551000  1.0
  C  C31  1  0.37707000  0.99231000  0.51541000  1.0
  C  C32  1  0.25645000  0.98971000  0.57962000  1.0
  C  C33  1  0.74173000  0.99679000  0.44599000  1.0
  C  C34  1  0.74522000  0.99295000  0.57899000  1.0
  C  C35  1  0.62444000  0.99310000  0.51595000  1.0
  C  C36  1  0.25976000  0.42064000  0.02446000  1.0
  C  C37  1  0.25491000  0.55369000  0.02096000  1.0
  C  C38  1  0.37634000  0.49067000  0.02321000  1.0
  C  C39  1  0.74160000  0.42350000  0.02455000  1.0
  C  C40  1  0.74372000  0.55766000  0.01746000  1.0
  C  C41  1  0.62360000  0.49225000  0.02272000  1.0
  C  C42  1  0.46303000  0.49271000  0.02347000  1.0
  C  C43  1  0.53687000  0.49312000  0.02343000  1.0
  C  C44  1  0.53768000  0.99222000  0.51763000  1.0
  C  C45  1  0.46383000  0.99197000  0.51709000  1.0
  C  C46  1  0.83014000  0.99356000  0.70955000  1.0
  C  C47  1  0.79080000  0.99266000  0.64984000  1.0
  C  C48  1  0.78317000  0.99893000  0.37227000  1.0
  C  C49  1  0.81842000  0.00003000  0.30961000  1.0
  C  C50  1  0.17403000  0.98735000  0.71271000  1.0
  C  C51  1  0.21158000  0.98755000  0.65154000  1.0
  C  C52  1  0.21769000  0.00075000  0.37160000  1.0
  C  C53  1  0.18163000  0.00222000  0.30925000  1.0
  C  C54  1  0.81901000  0.28791000  0.02500000  1.0
  C  C55  1  0.78362000  0.35007000  0.02590000  1.0
  C  C56  1  0.82477000  0.69246000  0.01134000  1.0
  C  C57  1  0.78794000  0.63032000  0.01366000  1.0
  C  C58  1  0.21918000  0.34688000  0.02537000  1.0
  C  C59  1  0.18476000  0.28421000  0.02528000  1.0
  C  C60  1  0.17035000  0.68579000  0.01893000  1.0
  C  C61  1  0.20903000  0.62499000  0.01951000  1.0
  N  N62  1  0.34147000  0.99698000  0.44319000  1.0
  N  N63  1  0.33822000  0.98824000  0.58585000  1.0
  N  N64  1  0.21339000  0.99403000  0.51149000  1.0
  N  N65  1  0.78807000  0.99551000  0.51120000  1.0
  N  N66  1  0.66347000  0.99142000  0.58562000  1.0
  N  N67  1  0.65983000  0.99577000  0.44419000  1.0
  N  N68  1  0.21274000  0.48585000  0.02258000  1.0
  N  N69  1  0.33661000  0.56031000  0.02108000  1.0
  N  N70  1  0.34169000  0.41885000  0.02498000  1.0
  N  N71  1  0.78726000  0.48994000  0.02045000  1.0
  N  N72  1  0.66188000  0.56308000  0.01809000  1.0
  N  N73  1  0.65971000  0.42035000  0.02633000  1.0
  O  O74  1  0.14339000  0.78685000  0.07781000  1.0
  O  O75  1  0.07932000  0.79115000  0.95831000  1.0
  O  O76  1  0.84440000  0.93910000  0.21001000  1.0
  O  O77  1  0.91231000  0.05641000  0.20662000  1.0
  O  O78  1  0.84604000  0.79723000  0.06630000  1.0
  O  O79  1  0.91781000  0.79603000  0.95258000  1.0
  O  O80  1  0.15775000  0.94362000  0.20745000  1.0
  O  O81  1  0.08150000  0.05410000  0.21126000  1.0
  O  O82  1  0.07081000  0.80070000  0.21091000  1.0
  O  O83  1  0.23579000  0.92532000  0.08191000  1.0
  O  O84  1  0.91860000  0.79658000  0.20600000  1.0
  O  O85  1  0.76448000  0.93586000  0.07324000  1.0
  O  O86  1  0.99676000  0.88082000  0.05003000  1.0
  O  O87  1  0.99848000  0.94260000  0.16447000  1.0
  O  O88  1  0.16153000  0.18221000  0.96647000  1.0
  O  O89  1  0.08684000  0.18497000  0.07797000  1.0
  O  O90  1  0.85808000  0.05497000  0.80826000  1.0
  O  O91  1  0.92296000  0.93507000  0.81344000  1.0
  O  O92  1  0.84313000  0.18689000  0.96471000  1.0
  O  O93  1  0.91904000  0.18964000  0.07524000  1.0
  O  O94  1  0.14767000  0.04838000  0.81232000  1.0
  O  O95  1  0.08439000  0.92786000  0.81925000  1.0
  O  O96  1  0.08188000  0.18516000  0.81924000  1.0
  O  O97  1  0.23590000  0.04866000  0.95293000  1.0
  O  O98  1  0.92877000  0.18884000  0.82201000  1.0
  O  O99  1  0.76503000  0.06084000  0.94687000  1.0
  O  O100  1  0.00336000  0.14367000  0.96239000  1.0
  O  O101  1  0.00374000  0.02691000  0.90403000  1.0
  O  O102  1  0.08828000  0.02784000  0.05348000  1.0
  O  O103  1  0.87866000  0.94686000  0.95908000  1.0
  O  O104  1  0.12366000  0.93858000  0.96782000  1.0
  O  O105  1  0.91062000  0.03212000  0.04980000  1.0
