# generated using pymatgen
data_CuPH22C25IN2
_symmetry_space_group_name_H-M   'P 1'
_cell_length_a   9.22517000
_cell_length_b   11.33330000
_cell_length_c   12.42040000
_cell_angle_alpha   74.42780000
_cell_angle_beta   76.61120000
_cell_angle_gamma   71.97980000
_symmetry_Int_Tables_number   1
_chemical_formula_structural   CuPH22C25IN2
_chemical_formula_sum   'Cu2 P2 H44 C50 I2 N4'
_cell_volume   1173.80902791
_cell_formula_units_Z   2
loop_
 _symmetry_equiv_pos_site_id
 _symmetry_equiv_pos_as_xyz
  1  'x, y, z'
loop_
 _atom_site_type_symbol
 _atom_site_label
 _atom_site_symmetry_multiplicity
 _atom_site_fract_x
 _atom_site_fract_y
 _atom_site_fract_z
 _atom_site_occupancy
  Cu  Cu0  1  0.86206000  0.10770000  0.02289000  1.0
  Cu  Cu1  1  0.13794000  0.89230000  0.97711000  1.0
  P  P2  1  0.75833000  0.16775000  0.18482000  1.0
  P  P3  1  0.24167000  0.83225000  0.81518000  1.0
  H  H4  1  0.89191000  0.31017000  0.81793000  1.0
  H  H5  1  0.10809000  0.68983000  0.18207000  1.0
  H  H6  1  0.75706000  0.41891000  0.64965000  1.0
  H  H7  1  0.24294000  0.58109000  0.35035000  1.0
  H  H8  1  0.43988000  0.18421000  0.79221000  1.0
  H  H9  1  0.56011000  0.81578000  0.20780000  1.0
  H  H10  1  0.58332000  0.08962000  0.95376000  1.0
  H  H11  1  0.41668000  0.91038000  0.04624000  1.0
  H  H12  1  0.39150000  0.33568000  0.48935000  1.0
  H  H13  1  0.60850000  0.66432000  0.51065000  1.0
  H  H14  1  0.31563000  0.28982000  0.63557000  1.0
  H  H15  1  0.68437000  0.71018000  0.36444000  1.0
  H  H16  1  0.48896000  0.19287000  0.57702000  1.0
  H  H17  1  0.51104000  0.80713000  0.42299000  1.0
  H  H18  1  0.79018000  0.24863000  0.38602000  1.0
  H  H19  1  0.20982000  0.75137000  0.61398000  1.0
  H  H20  1  0.84403000  0.44273000  0.40494000  1.0
  H  H21  1  0.15597000  0.55727000  0.59506000  1.0
  H  H22  1  0.87881000  0.61457000  0.23329000  1.0
  H  H23  1  0.12119000  0.38544000  0.76671000  1.0
  H  H24  1  0.85863000  0.59083000  0.04584000  1.0
  H  H25  1  0.14137000  0.40917000  0.95415000  1.0
  H  H26  1  0.81115000  0.39345000  0.02575000  1.0
  H  H27  1  0.18886000  0.60655000  0.97424000  1.0
  H  H28  1  0.57675000  0.08843000  0.41208000  1.0
  H  H29  1  0.42325000  0.91157000  0.58792000  1.0
  H  H30  1  0.65666000  0.92852000  0.58456000  1.0
  H  H31  1  0.34333000  0.07148000  0.41544000  1.0
  H  H32  1  0.92864000  0.80290000  0.58335000  1.0
  H  H33  1  0.07136000  0.19710000  0.41665000  1.0
  H  H34  1  0.12382000  0.83562000  0.40936000  1.0
  H  H35  1  0.87618000  0.16438000  0.59064000  1.0
  H  H36  1  0.04319000  0.99052000  0.23551000  1.0
  H  H37  1  0.95681000  0.00948000  0.76449000  1.0
  H  H38  1  0.55704000  0.02556000  0.17490000  1.0
  H  H39  1  0.44296000  0.97444000  0.82510000  1.0
  H  H40  1  0.27456000  0.07672000  0.17497000  1.0
  H  H41  1  0.72544000  0.92328000  0.82503000  1.0
  H  H42  1  0.10659000  0.29081000  0.19547000  1.0
  H  H43  1  0.89342000  0.70919000  0.80453000  1.0
  H  H44  1  0.21961000  0.45068000  0.22381000  1.0
  H  H45  1  0.78039000  0.54933000  0.77618000  1.0
  H  H46  1  0.50021000  0.40015000  0.22675000  1.0
  H  H47  1  0.49979000  0.59985000  0.77324000  1.0
  C  C48  1  0.78910000  0.28754000  0.80904000  1.0
  C  C49  1  0.21090000  0.71246000  0.19096000  1.0
  C  C50  1  0.71517000  0.34657000  0.71602000  1.0
  C  C51  1  0.28482000  0.65343000  0.28398000  1.0
  C  C52  1  0.58857000  0.30911000  0.70474000  1.0
  C  C53  1  0.41142000  0.69089000  0.29527000  1.0
  C  C54  1  0.54010000  0.21537000  0.79281000  1.0
  C  C55  1  0.45989000  0.78463000  0.20720000  1.0
  C  C56  1  0.61886000  0.16262000  0.88439000  1.0
  C  C57  1  0.38114000  0.83738000  0.11562000  1.0
  C  C58  1  0.51318000  0.36444000  0.60361000  1.0
  C  C59  1  0.48681000  0.63556000  0.39639000  1.0
  C  C60  1  0.42210000  0.29225000  0.57376000  1.0
  C  C61  1  0.57790000  0.70775000  0.42625000  1.0
  C  C62  1  0.79648000  0.30853000  0.20483000  1.0
  C  C63  1  0.20353000  0.69147000  0.79516000  1.0
  C  C64  1  0.80625000  0.32311000  0.31134000  1.0
  C  C65  1  0.19375000  0.67689000  0.68865000  1.0
  C  C66  1  0.83724000  0.43220000  0.32163000  1.0
  C  C67  1  0.16276000  0.56780000  0.67837000  1.0
  C  C68  1  0.85632000  0.52811000  0.22614000  1.0
  C  C69  1  0.14368000  0.47189000  0.77386000  1.0
  C  C70  1  0.84493000  0.51501000  0.11988000  1.0
  C  C71  1  0.15507000  0.48499000  0.88011000  1.0
  C  C72  1  0.81680000  0.40511000  0.10900000  1.0
  C  C73  1  0.18321000  0.59489000  0.89100000  1.0
  C  C74  1  0.80515000  0.05011000  0.31318000  1.0
  C  C75  1  0.19485000  0.94989000  0.68681000  1.0
  C  C76  1  0.69629000  0.03190000  0.41141000  1.0
  C  C77  1  0.30371000  0.96810000  0.58858000  1.0
  C  C78  1  0.74086000  0.94239000  0.50783000  1.0
  C  C79  1  0.25914000  0.05762000  0.49217000  1.0
  C  C80  1  0.89452000  0.87155000  0.50735000  1.0
  C  C81  1  0.10547000  0.12846000  0.49265000  1.0
  C  C82  1  0.00351000  0.88992000  0.40989000  1.0
  C  C83  1  0.99649000  0.11008000  0.59011000  1.0
  C  C84  1  0.95914000  0.97764000  0.31272000  1.0
  C  C85  1  0.04087000  0.02236000  0.68728000  1.0
  C  C86  1  0.54781000  0.20923000  0.20053000  1.0
  C  C87  1  0.45219000  0.79077000  0.79946000  1.0
  C  C88  1  0.48207000  0.11836000  0.18710000  1.0
  C  C89  1  0.51793000  0.88164000  0.81290000  1.0
  C  C90  1  0.32407000  0.14705000  0.18687000  1.0
  C  C91  1  0.67593000  0.85295000  0.81313000  1.0
  C  C92  1  0.22948000  0.26737000  0.19863000  1.0
  C  C93  1  0.77052000  0.73263000  0.80137000  1.0
  C  C94  1  0.29350000  0.35721000  0.21366000  1.0
  C  C95  1  0.70651000  0.64279000  0.78635000  1.0
  C  C96  1  0.45186000  0.32881000  0.21509000  1.0
  C  C97  1  0.54815000  0.67119000  0.78490000  1.0
  I  I98  1  0.85514000  0.86589000  0.05716000  1.0
  I  I99  1  0.14486000  0.13411000  0.94284000  1.0
  N  N100  1  0.74436000  0.19504000  0.89237000  1.0
  N  N101  1  0.25564000  0.80496000  0.10763000  1.0
  N  N102  1  0.53582000  0.47409000  0.54679000  1.0
  N  N103  1  0.46418000  0.52592000  0.45321000  1.0
