# generated using pymatgen
data_CdH6C5(N3Cl)2
_symmetry_space_group_name_H-M   'P 1'
_cell_length_a   7.22852000
_cell_length_b   7.96459000
_cell_length_c   9.76376000
_cell_angle_alpha   67.71100000
_cell_angle_beta   84.42680000
_cell_angle_gamma   81.44090000
_symmetry_Int_Tables_number   1
_chemical_formula_structural   CdH6C5(N3Cl)2
_chemical_formula_sum   'Cd2 H12 C10 N12 Cl4'
_cell_volume   513.81989045
_cell_formula_units_Z   2
loop_
 _symmetry_equiv_pos_site_id
 _symmetry_equiv_pos_as_xyz
  1  'x, y, z'
loop_
 _atom_site_type_symbol
 _atom_site_label
 _atom_site_symmetry_multiplicity
 _atom_site_fract_x
 _atom_site_fract_y
 _atom_site_fract_z
 _atom_site_occupancy
  Cd  Cd0  1  0.75714000  0.47784000  0.42998000  1.0
  Cd  Cd1  1  0.24286000  0.52216000  0.57002000  1.0
  H  H2  1  0.20080000  0.21502000  0.38369000  1.0
  H  H3  1  0.79920000  0.78497000  0.61632000  1.0
  H  H4  1  0.67311000  0.21146000  0.23464000  1.0
  H  H5  1  0.32689000  0.78854000  0.76536000  1.0
  H  H6  1  0.25095000  0.89735000  0.16884000  1.0
  H  H7  1  0.74905000  0.10265000  0.83116000  1.0
  H  H8  1  0.39099000  0.98504000  0.26188000  1.0
  H  H9  1  0.60901000  0.01496000  0.73812000  1.0
  H  H10  1  0.15684000  0.13411000  0.88657000  1.0
  H  H11  1  0.84316000  0.86589000  0.11343000  1.0
  H  H12  1  0.56512000  0.47888000  0.84472000  1.0
  H  H13  1  0.43488000  0.52111000  0.15528000  1.0
  C  C14  1  0.08688000  0.19095000  0.33064000  1.0
  C  C15  1  0.91312000  0.80905000  0.66936000  1.0
  C  C16  1  0.82212000  0.18718000  0.25220000  1.0
  C  C17  1  0.17788000  0.81282000  0.74780000  1.0
  C  C18  1  0.28057000  0.02077000  0.18270000  1.0
  C  C19  1  0.71943000  0.97923000  0.81730000  1.0
  C  C20  1  0.26440000  0.20144000  0.90883000  1.0
  C  C21  1  0.73559000  0.79857000  0.09117000  1.0
  C  C22  1  0.47206000  0.37416000  0.89223000  1.0
  C  C23  1  0.52794000  0.62584000  0.10776000  1.0
  N  N24  1  0.90534000  0.24937000  0.34111000  1.0
  N  N25  1  0.09466000  0.75063000  0.65889000  1.0
  N  N26  1  0.10965000  0.09640000  0.23978000  1.0
  N  N27  1  0.89035000  0.90360000  0.76022000  1.0
  N  N28  1  0.34061000  0.15170000  0.04139000  1.0
  N  N29  1  0.65939000  0.84830000  0.95861000  1.0
  N  N30  1  0.34496000  0.34278000  0.81227000  1.0
  N  N31  1  0.65504000  0.65722000  0.18774000  1.0
  N  N32  1  0.94187000  0.09439000  0.18739000  1.0
  N  N33  1  0.05813000  0.90561000  0.81261000  1.0
  N  N34  1  0.47251000  0.26180000  0.03330000  1.0
  N  N35  1  0.52749000  0.73820000  0.96670000  1.0
  Cl  Cl36  1  0.52915000  0.72507000  0.50715000  1.0
  Cl  Cl37  1  0.47085000  0.27493000  0.49285000  1.0
  Cl  Cl38  1  0.91699000  0.36770000  0.67833000  1.0
  Cl  Cl39  1  0.08301000  0.63230000  0.32167000  1.0
