# generated using pymatgen
data_Zn2H10C3S2NO8
_symmetry_space_group_name_H-M   'P 1'
_cell_length_a   8.82140000
_cell_length_b   11.07690000
_cell_length_c   11.07690000
_cell_angle_alpha   89.99990000
_cell_angle_beta   90.00000000
_cell_angle_gamma   89.99990000
_symmetry_Int_Tables_number   1
_chemical_formula_structural   Zn2H10C3S2NO8
_chemical_formula_sum   'Zn8 H40 C12 S8 N4 O32'
_cell_volume   1082.36561084
_cell_formula_units_Z   4
loop_
 _symmetry_equiv_pos_site_id
 _symmetry_equiv_pos_as_xyz
  1  'x, y, z'
loop_
 _atom_site_type_symbol
 _atom_site_label
 _atom_site_symmetry_multiplicity
 _atom_site_fract_x
 _atom_site_fract_y
 _atom_site_fract_z
 _atom_site_occupancy
  Zn  Zn0  1  0.74706000  0.78418000  0.21581000  1.0
  Zn  Zn1  1  0.74706000  0.21581000  0.78419000  1.0
  Zn  Zn2  1  0.24706000  0.28419000  0.28419000  1.0
  Zn  Zn3  1  0.24706000  0.71582000  0.71581000  1.0
  Zn  Zn4  1  0.49082000  0.50000000  0.00000000  1.0
  Zn  Zn5  1  0.99082000  0.50000000  0.00000000  1.0
  Zn  Zn6  1  0.99082000  0.00000000  0.50000000  1.0
  Zn  Zn7  1  0.49082000  0.00000000  0.50000000  1.0
  H  H8  1  0.97287000  0.86842000  0.01793000  1.0
  H  H9  1  0.97287000  0.13158000  0.98207000  1.0
  H  H10  1  0.47287000  0.48207000  0.36842000  1.0
  H  H11  1  0.47287000  0.51793000  0.63158000  1.0
  H  H12  1  0.47287000  0.63158000  0.51793000  1.0
  H  H13  1  0.47287000  0.36842000  0.48207000  1.0
  H  H14  1  0.97287000  0.01793000  0.86842000  1.0
  H  H15  1  0.97287000  0.98207000  0.13158000  1.0
  H  H16  1  0.56280000  0.84752000  0.99710000  1.0
  H  H17  1  0.56280000  0.15248000  0.00290000  1.0
  H  H18  1  0.06280000  0.50290000  0.34752000  1.0
  H  H19  1  0.06280000  0.49710000  0.65248000  1.0
  H  H20  1  0.06280000  0.65248000  0.49711000  1.0
  H  H21  1  0.06280000  0.34752000  0.50290000  1.0
  H  H22  1  0.56280000  0.99710000  0.84752000  1.0
  H  H23  1  0.56280000  0.00290000  0.15248000  1.0
  H  H24  1  0.73694000  0.79075000  0.94199000  1.0
  H  H25  1  0.73693000  0.20925000  0.05801000  1.0
  H  H26  1  0.23693000  0.55801000  0.29075000  1.0
  H  H27  1  0.23693000  0.44199000  0.70925000  1.0
  H  H28  1  0.23693000  0.70925000  0.44199000  1.0
  H  H29  1  0.23693000  0.29075000  0.55801000  1.0
  H  H30  1  0.73693000  0.94199000  0.79075000  1.0
  H  H31  1  0.73694000  0.05801000  0.20925000  1.0
  H  H32  1  0.45958000  0.71700000  0.17847000  1.0
  H  H33  1  0.45958000  0.28300000  0.82154000  1.0
  H  H34  1  0.95958000  0.32153000  0.21700000  1.0
  H  H35  1  0.95957000  0.67848000  0.78299000  1.0
  H  H36  1  0.95959000  0.78300000  0.67847000  1.0
  H  H37  1  0.95958000  0.21701000  0.32153000  1.0
  H  H38  1  0.45958000  0.17847000  0.71701000  1.0
  H  H39  1  0.45958000  0.82153000  0.28300000  1.0
  H  H40  1  0.02753000  0.71021000  0.18588000  1.0
  H  H41  1  0.02754000  0.28978000  0.81412000  1.0
  H  H42  1  0.52753000  0.31412000  0.21021000  1.0
  H  H43  1  0.52754000  0.68588000  0.78978000  1.0
  H  H44  1  0.52752000  0.78980000  0.68587000  1.0
  H  H45  1  0.52753000  0.21021000  0.31412000  1.0
  H  H46  1  0.02752000  0.18587000  0.71021000  1.0
  H  H47  1  0.02753000  0.81413000  0.28979000  1.0
  C  C48  1  0.91581000  0.95056000  0.04944000  1.0
  C  C49  1  0.91581000  0.04944000  0.95056000  1.0
  C  C50  1  0.41581000  0.45056000  0.45056000  1.0
  C  C51  1  0.41581000  0.54944000  0.54944000  1.0
  C  C52  1  0.67856000  0.87298000  0.97169000  1.0
  C  C53  1  0.67856000  0.12702000  0.02831000  1.0
  C  C54  1  0.17856000  0.52831000  0.37299000  1.0
  C  C55  1  0.17856000  0.47169000  0.62702000  1.0
  C  C56  1  0.17856000  0.62701000  0.47169000  1.0
  C  C57  1  0.17856000  0.37298000  0.52831000  1.0
  C  C58  1  0.67856000  0.97169000  0.87298000  1.0
  C  C59  1  0.67856000  0.02831000  0.12702000  1.0
  S  S60  1  0.74135000  0.50503000  0.19661000  1.0
  S  S61  1  0.74134000  0.49497000  0.80339000  1.0
  S  S62  1  0.24134000  0.30339000  0.00504000  1.0
  S  S63  1  0.24134000  0.69661000  0.99497000  1.0
  S  S64  1  0.24135000  0.99496000  0.69661000  1.0
  S  S65  1  0.24134000  0.00504000  0.30339000  1.0
  S  S66  1  0.74134000  0.19661000  0.50504000  1.0
  S  S67  1  0.74134000  0.80339000  0.49496000  1.0
  N  N68  1  0.75723000  0.91769000  0.08231000  1.0
  N  N69  1  0.75723000  0.08231000  0.91769000  1.0
  N  N70  1  0.25723000  0.41769000  0.41769000  1.0
  N  N71  1  0.25723000  0.58231000  0.58231000  1.0
  O  O72  1  0.59963000  0.43790000  0.14575000  1.0
  O  O73  1  0.59963000  0.56210000  0.85425000  1.0
  O  O74  1  0.09963000  0.35424000  0.93790000  1.0
  O  O75  1  0.09963000  0.64575000  0.06210000  1.0
  O  O76  1  0.09963000  0.06210000  0.64575000  1.0
  O  O77  1  0.09963000  0.93790000  0.35425000  1.0
  O  O78  1  0.59963000  0.14575000  0.43790000  1.0
  O  O79  1  0.59963000  0.85425000  0.56210000  1.0
  O  O80  1  0.88041000  0.43577000  0.14414000  1.0
  O  O81  1  0.88040000  0.56423000  0.85585000  1.0
  O  O82  1  0.38040000  0.35586000  0.93577000  1.0
  O  O83  1  0.38041000  0.64414000  0.06423000  1.0
  O  O84  1  0.38040000  0.06423000  0.64415000  1.0
  O  O85  1  0.38040000  0.93577000  0.35586000  1.0
  O  O86  1  0.88040000  0.14415000  0.43577000  1.0
  O  O87  1  0.88040000  0.85586000  0.56422000  1.0
  O  O88  1  0.74251000  0.62350000  0.12535000  1.0
  O  O89  1  0.74252000  0.37650000  0.87465000  1.0
  O  O90  1  0.24251000  0.37465000  0.12350000  1.0
  O  O91  1  0.24251000  0.62536000  0.87650000  1.0
  O  O92  1  0.24251000  0.87650000  0.62534000  1.0
  O  O93  1  0.24251000  0.12350000  0.37465000  1.0
  O  O94  1  0.74251000  0.12535000  0.62350000  1.0
  O  O95  1  0.74251000  0.87465000  0.37650000  1.0
  O  O96  1  0.51814000  0.75349000  0.24652000  1.0
  O  O97  1  0.51814000  0.24652000  0.75349000  1.0
  O  O98  1  0.01814000  0.25349000  0.25348000  1.0
  O  O99  1  0.01814000  0.74653000  0.74651000  1.0
  O  O100  1  0.97146000  0.74289000  0.25712000  1.0
  O  O101  1  0.97146000  0.25710000  0.74288000  1.0
  O  O102  1  0.47146000  0.24288000  0.24289000  1.0
  O  O103  1  0.47146000  0.75712000  0.75710000  1.0
