# generated using pymatgen
data_NiH14C10(N4O)2
_symmetry_space_group_name_H-M   'P 1'
_cell_length_a   7.27238000
_cell_length_b   7.39173000
_cell_length_c   8.08478000
_cell_angle_alpha   107.53100000
_cell_angle_beta   89.84310000
_cell_angle_gamma   119.46900000
_symmetry_Int_Tables_number   1
_chemical_formula_structural   NiH14C10(N4O)2
_chemical_formula_sum   'Ni1 H14 C10 N8 O2'
_cell_volume   355.21890018
_cell_formula_units_Z   1
loop_
 _symmetry_equiv_pos_site_id
 _symmetry_equiv_pos_as_xyz
  1  'x, y, z'
loop_
 _atom_site_type_symbol
 _atom_site_label
 _atom_site_symmetry_multiplicity
 _atom_site_fract_x
 _atom_site_fract_y
 _atom_site_fract_z
 _atom_site_occupancy
  Ni  Ni0  1  0.00000000  0.00000000  0.50000000  1.0
  H  H1  1  0.77059000  0.54010000  0.23346000  1.0
  H  H2  1  0.22942000  0.45991000  0.76654000  1.0
  H  H3  1  0.66441000  0.57311000  0.75674000  1.0
  H  H4  1  0.09114000  0.42674000  0.24388000  1.0
  H  H5  1  0.33559000  0.42689000  0.24326000  1.0
  H  H6  1  0.90886000  0.57326000  0.75612000  1.0
  H  H7  1  0.90215000  0.80479000  0.90303000  1.0
  H  H8  1  0.09785000  0.19522000  0.09697000  1.0
  H  H9  1  0.48468000  0.21517000  0.83257000  1.0
  H  H10  1  0.26985000  0.78530000  0.16827000  1.0
  H  H11  1  0.51532000  0.78484000  0.16743000  1.0
  H  H12  1  0.73015000  0.21470000  0.83173000  1.0
  H  H13  1  0.61174000  0.22335000  0.02591000  1.0
  H  H14  1  0.38826000  0.77665000  0.97409000  1.0
  C  C15  1  0.54438000  0.77582000  0.56953000  1.0
  C  C16  1  0.76813000  0.22354000  0.43054000  1.0
  C  C17  1  0.45560000  0.22417000  0.43046000  1.0
  C  C18  1  0.23187000  0.77646000  0.56945000  1.0
  C  C19  1  0.82031000  0.63980000  0.14632000  1.0
  C  C20  1  0.17971000  0.36023000  0.85369000  1.0
  C  C21  1  0.81236000  0.62474000  0.84051000  1.0
  C  C22  1  0.18764000  0.37527000  0.15949000  1.0
  C  C23  1  0.63987000  0.27968000  0.91252000  1.0
  C  C24  1  0.36013000  0.72032000  0.08748000  1.0
  N  N25  1  0.70170000  0.79269000  0.51739000  1.0
  N  N26  1  0.90788000  0.20627000  0.48286000  1.0
  N  N27  1  0.29830000  0.20731000  0.48262000  1.0
  N  N28  1  0.09212000  0.79371000  0.51713000  1.0
  N  N29  1  0.37473000  0.74997000  0.63636000  1.0
  N  N30  1  0.62527000  0.25001000  0.36364000  1.0
  N  N31  1  0.76034000  0.52050000  0.97408000  1.0
  N  N32  1  0.23966000  0.47950000  0.02592000  1.0
  O  O33  1  0.92425000  0.84758000  0.20742000  1.0
  O  O34  1  0.07575000  0.15241000  0.79257000  1.0
