# generated using pymatgen
data_SnH2(CO2)2
_symmetry_space_group_name_H-M   'P 1'
_cell_length_a   6.35216000
_cell_length_b   8.46195000
_cell_length_c   8.85426000
_cell_angle_alpha   103.90000000
_cell_angle_beta   96.01480000
_cell_angle_gamma   90.69530000
_symmetry_Int_Tables_number   1
_chemical_formula_structural   SnH2(CO2)2
_chemical_formula_sum   'Sn4 H8 C8 O16'
_cell_volume   459.10767597
_cell_formula_units_Z   4
loop_
 _symmetry_equiv_pos_site_id
 _symmetry_equiv_pos_as_xyz
  1  'x, y, z'
loop_
 _atom_site_type_symbol
 _atom_site_label
 _atom_site_symmetry_multiplicity
 _atom_site_fract_x
 _atom_site_fract_y
 _atom_site_fract_z
 _atom_site_occupancy
  Sn  Sn0  1  0.47343000  0.71847000  0.37791000  1.0
  Sn  Sn1  1  0.52659000  0.28156000  0.62209000  1.0
  Sn  Sn2  1  0.97290000  0.21986000  0.36918000  1.0
  Sn  Sn3  1  0.02711000  0.78014000  0.63083000  1.0
  H  H4  1  0.49929000  0.92739000  0.09431000  1.0
  H  H5  1  0.50067000  0.07260000  0.90569000  1.0
  H  H6  1  0.00872000  0.85818000  0.09011000  1.0
  H  H7  1  0.99123000  0.14180000  0.90990000  1.0
  H  H8  1  0.35774000  0.36273000  0.08541000  1.0
  H  H9  1  0.64220000  0.63726000  0.91457000  1.0
  H  H10  1  0.84597000  0.43769000  0.08336000  1.0
  H  H11  1  0.15406000  0.56229000  0.91665000  1.0
  C  C12  1  0.61291000  0.99409000  0.19315000  1.0
  C  C13  1  0.38709000  0.00591000  0.80684000  1.0
  C  C14  1  0.11577000  0.84892000  0.19419000  1.0
  C  C15  1  0.88423000  0.15108000  0.80578000  1.0
  C  C16  1  0.28063000  0.34768000  0.18782000  1.0
  C  C17  1  0.71934000  0.65234000  0.81220000  1.0
  C  C18  1  0.77633000  0.50172000  0.18965000  1.0
  C  C19  1  0.22369000  0.49827000  0.81037000  1.0
  O  O20  1  0.62292000  0.95658000  0.32318000  1.0
  O  O21  1  0.37711000  0.04341000  0.67680000  1.0
  O  O22  1  0.22894000  0.72255000  0.17694000  1.0
  O  O23  1  0.77107000  0.27746000  0.82304000  1.0
  O  O24  1  0.32040000  0.44787000  0.31900000  1.0
  O  O25  1  0.67959000  0.55217000  0.68100000  1.0
  O  O26  1  0.65171000  0.61565000  0.17250000  1.0
  O  O27  1  0.34830000  0.38434000  0.82751000  1.0
  O  O28  1  0.72810000  0.10745000  0.16643000  1.0
  O  O29  1  0.27193000  0.89253000  0.83355000  1.0
  O  O30  1  0.12385000  0.95803000  0.32012000  1.0
  O  O31  1  0.87621000  0.04198000  0.67985000  1.0
  O  O32  1  0.14991000  0.22519000  0.16307000  1.0
  O  O33  1  0.85008000  0.77481000  0.83696000  1.0
  O  O34  1  0.81730000  0.46042000  0.31689000  1.0
  O  O35  1  0.18270000  0.53958000  0.68312000  1.0
