# generated using pymatgen
data_CuH10C7O10
_symmetry_space_group_name_H-M   'P 1'
_cell_length_a   4.88717000
_cell_length_b   9.90064000
_cell_length_c   10.60020000
_cell_angle_alpha   93.96120000
_cell_angle_beta   94.09490000
_cell_angle_gamma   97.81930000
_symmetry_Int_Tables_number   1
_chemical_formula_structural   CuH10C7O10
_chemical_formula_sum   'Cu2 H20 C14 O20'
_cell_volume   505.22244350
_cell_formula_units_Z   2
loop_
 _symmetry_equiv_pos_site_id
 _symmetry_equiv_pos_as_xyz
  1  'x, y, z'
loop_
 _atom_site_type_symbol
 _atom_site_label
 _atom_site_symmetry_multiplicity
 _atom_site_fract_x
 _atom_site_fract_y
 _atom_site_fract_z
 _atom_site_occupancy
  Cu  Cu0  1  0.00000000  0.00000000  0.49999000  1.0
  Cu  Cu1  1  0.50000000  0.00000000  0.00000000  1.0
  H  H2  1  0.44815000  0.92088000  0.59794000  1.0
  H  H3  1  0.55185000  0.07912000  0.40206000  1.0
  H  H4  1  0.22583000  0.91606000  0.69947000  1.0
  H  H5  1  0.77419000  0.08394000  0.30053000  1.0
  H  H6  1  0.94273000  0.79213000  0.30075000  1.0
  H  H7  1  0.05725000  0.20787000  0.69924000  1.0
  H  H8  1  0.26841000  0.78870000  0.31526000  1.0
  H  H9  1  0.73159000  0.21130000  0.68474000  1.0
  H  H10  1  0.25446000  0.22704000  0.99975000  1.0
  H  H11  1  0.74556000  0.77297000  0.00026000  1.0
  H  H12  1  0.43027000  0.21869000  0.87781000  1.0
  H  H13  1  0.56972000  0.78131000  0.12220000  1.0
  H  H14  1  0.09394000  0.05570000  0.12368000  1.0
  H  H15  1  0.90607000  0.94431000  0.87633000  1.0
  H  H16  1  0.19001000  0.92346000  0.18491000  1.0
  H  H17  1  0.80997000  0.07654000  0.81509000  1.0
  H  H18  1  0.23235000  0.54526000  0.40477000  1.0
  H  H19  1  0.76762000  0.45474000  0.59522000  1.0
  H  H20  1  0.84354000  0.54929000  0.12100000  1.0
  H  H21  1  0.15645000  0.45072000  0.87898000  1.0
  C  C22  1  0.38334000  0.36122000  0.35141000  1.0
  C  C23  1  0.61666000  0.63879000  0.64860000  1.0
  C  C24  1  0.20748000  0.27182000  0.43391000  1.0
  C  C25  1  0.79249000  0.72817000  0.56608000  1.0
  C  C26  1  0.37116000  0.49716000  0.34553000  1.0
  C  C27  1  0.62881000  0.50284000  0.65446000  1.0
  C  C28  1  0.54075000  0.57526000  0.26334000  1.0
  C  C29  1  0.45924000  0.42474000  0.73665000  1.0
  C  C30  1  0.71101000  0.49995000  0.18800000  1.0
  C  C31  1  0.28899000  0.50005000  0.81199000  1.0
  C  C32  1  0.71231000  0.36436000  0.20141000  1.0
  C  C33  1  0.28770000  0.63564000  0.79860000  1.0
  C  C34  1  0.89747000  0.27601000  0.13663000  1.0
  C  C35  1  0.10259000  0.72400000  0.86339000  1.0
  O  O36  1  0.29625000  0.96942000  0.62858000  1.0
  O  O37  1  0.70375000  0.03057000  0.37141000  1.0
  O  O38  1  0.12391000  0.85001000  0.30803000  1.0
  O  O39  1  0.87608000  0.14998000  0.69196000  1.0
  O  O40  1  0.41283000  0.18471000  0.96379000  1.0
  O  O41  1  0.58717000  0.81529000  0.03621000  1.0
  O  O42  1  0.20133000  0.97716000  0.10683000  1.0
  O  O43  1  0.79865000  0.02285000  0.89317000  1.0
  O  O44  1  0.55090000  0.29503000  0.28093000  1.0
  O  O45  1  0.44911000  0.70497000  0.71907000  1.0
  O  O46  1  0.26337000  0.14776000  0.43800000  1.0
  O  O47  1  0.73664000  0.85224000  0.56200000  1.0
  O  O48  1  0.02625000  0.32407000  0.48793000  1.0
  O  O49  1  0.97376000  0.67593000  0.51208000  1.0
  O  O50  1  0.54178000  0.70418000  0.25982000  1.0
  O  O51  1  0.45821000  0.29582000  0.74018000  1.0
  O  O52  1  0.89160000  0.15551000  0.17339000  1.0
  O  O53  1  0.10840000  0.84450000  0.82662000  1.0
  O  O54  1  0.04731000  0.32795000  0.05614000  1.0
  O  O55  1  0.95274000  0.67205000  0.94387000  1.0
