# generated using pymatgen
data_ZnH12C16(NO)4
_symmetry_space_group_name_H-M   'P 1'
_cell_length_a   7.28515000
_cell_length_b   10.88620000
_cell_length_c   11.56182207
_cell_angle_alpha   117.95506866
_cell_angle_beta   108.21658051
_cell_angle_gamma   90.27310000
_symmetry_Int_Tables_number   1
_chemical_formula_structural   ZnH12C16(NO)4
_chemical_formula_sum   'Zn2 H24 C32 N8 O8'
_cell_volume   756.74061735
_cell_formula_units_Z   2
loop_
 _symmetry_equiv_pos_site_id
 _symmetry_equiv_pos_as_xyz
  1  'x, y, z'
loop_
 _atom_site_type_symbol
 _atom_site_label
 _atom_site_symmetry_multiplicity
 _atom_site_fract_x
 _atom_site_fract_y
 _atom_site_fract_z
 _atom_site_occupancy
  Zn  Zn0  1  0.44345000  0.19361000  0.38756000  1.0
  Zn  Zn1  1  0.55655000  0.80639000  0.61244000  1.0
  H  H2  1  0.65210000  0.05815000  0.16796000  1.0
  H  H3  1  0.01530000  0.10961000  0.16799000  1.0
  H  H4  1  0.34790000  0.94185000  0.83204000  1.0
  H  H5  1  0.98469000  0.89038000  0.83200000  1.0
  H  H6  1  0.67015000  0.16398000  0.99216000  1.0
  H  H7  1  0.82149000  0.82817000  0.99238000  1.0
  H  H8  1  0.32984000  0.83602000  0.00783000  1.0
  H  H9  1  0.17851000  0.17183000  0.00762000  1.0
  H  H10  1  0.42310000  0.43551000  0.28599000  1.0
  H  H11  1  0.36283000  0.85021000  0.28571000  1.0
  H  H12  1  0.57690000  0.56448000  0.71401000  1.0
  H  H13  1  0.63716000  0.14979000  0.71429000  1.0
  H  H14  1  0.40872000  0.23805000  0.84853000  1.0
  H  H15  1  0.93972000  0.61061000  0.84850000  1.0
  H  H16  1  0.59128000  0.76195000  0.15147000  1.0
  H  H17  1  0.06027000  0.38939000  0.15149000  1.0
  H  H18  1  0.37717000  0.39015000  0.73926000  1.0
  H  H19  1  0.86220000  0.34929000  0.73926000  1.0
  H  H20  1  0.62284000  0.60985000  0.26075000  1.0
  H  H21  1  0.13779000  0.65071000  0.26074000  1.0
  H  H22  1  0.03250000  0.14325000  0.63258000  1.0
  H  H23  1  0.10017000  0.48987000  0.63296000  1.0
  H  H24  1  0.96751000  0.85676000  0.36744000  1.0
  H  H25  1  0.89984000  0.51013000  0.36705000  1.0
  C  C26  1  0.60741000  0.15152000  0.16468000  1.0
  C  C27  1  0.05682000  0.01298000  0.16467000  1.0
  C  C28  1  0.39259000  0.84848000  0.83532000  1.0
  C  C29  1  0.94317000  0.98702000  0.83532000  1.0
  C  C30  1  0.61737000  0.20271000  0.07854000  1.0
  C  C31  1  0.96074000  0.87573000  0.07863000  1.0
  C  C32  1  0.38263000  0.79729000  0.92146000  1.0
  C  C33  1  0.03926000  0.12427000  0.92137000  1.0
  C  C34  1  0.48896000  0.34741000  0.23219000  1.0
  C  C35  1  0.24308000  0.88453000  0.23199000  1.0
  C  C36  1  0.51104000  0.65259000  0.76781000  1.0
  C  C37  1  0.75692000  0.11547000  0.76801000  1.0
  C  C38  1  0.52083000  0.41562000  0.06092000  1.0
  C  C39  1  0.04010000  0.64522000  0.06091000  1.0
  C  C40  1  0.47917000  0.58438000  0.93908000  1.0
  C  C41  1  0.95991000  0.35478000  0.93909000  1.0
  C  C42  1  0.45211000  0.35266000  0.91491000  1.0
  C  C43  1  0.96288000  0.56234000  0.91490000  1.0
  C  C44  1  0.54789000  0.64734000  0.08509000  1.0
  C  C45  1  0.03712000  0.43766000  0.08509000  1.0
  C  C46  1  0.43173000  0.43760000  0.85327000  1.0
  C  C47  1  0.92153000  0.41582000  0.85325000  1.0
  C  C48  1  0.56826000  0.56240000  0.14673000  1.0
  C  C49  1  0.07846000  0.58418000  0.14674000  1.0
  C  C50  1  0.76102000  0.06731000  0.44435000  1.0
  C  C51  1  0.18315000  0.37692000  0.44462000  1.0
  C  C52  1  0.23898000  0.93270000  0.55566000  1.0
  C  C53  1  0.81685000  0.62308000  0.55538000  1.0
  C  C54  1  0.95733000  0.05616000  0.52631000  1.0
  C  C55  1  0.06899000  0.47028000  0.52651000  1.0
  C  C56  1  0.04267000  0.94385000  0.47370000  1.0
  C  C57  1  0.93101000  0.52972000  0.47349000  1.0
  N  N58  1  0.52561000  0.24184000  0.25898000  1.0
  N  N59  1  0.23306000  0.01687000  0.25880000  1.0
  N  N60  1  0.47439000  0.75815000  0.74102000  1.0
  N  N61  1  0.76693000  0.98313000  0.74119000  1.0
  N  N62  1  0.54286000  0.32744000  0.12274000  1.0
  N  N63  1  0.07968000  0.79516000  0.12270000  1.0
  N  N64  1  0.45714000  0.67256000  0.87726000  1.0
  N  N65  1  0.92033000  0.20484000  0.87730000  1.0
  O  O66  1  0.67475000  0.97640000  0.31815000  1.0
  O  O67  1  0.14339000  0.34160000  0.31839000  1.0
  O  O68  1  0.32525000  0.02360000  0.68185000  1.0
  O  O69  1  0.85661000  0.65840000  0.68161000  1.0
  O  O70  1  0.68946000  0.17692000  0.51337000  1.0
  O  O71  1  0.32333000  0.33604000  0.51362000  1.0
  O  O72  1  0.31054000  0.82308000  0.48663000  1.0
  O  O73  1  0.67667000  0.66395000  0.48638000  1.0
