# generated using pymatgen
data_Li2B2H6C8N18OF2
_symmetry_space_group_name_H-M   'P 1'
_cell_length_a   9.64212000
_cell_length_b   15.89730000
_cell_length_c   18.01900000
_cell_angle_alpha   90.00000000
_cell_angle_beta   90.00000000
_cell_angle_gamma   102.42100000
_symmetry_Int_Tables_number   1
_chemical_formula_structural   Li2B2H6C8N18OF2
_chemical_formula_sum   'Li8 B8 H24 C32 N72 O4 F8'
_cell_volume   2697.36936258
_cell_formula_units_Z   4
loop_
 _symmetry_equiv_pos_site_id
 _symmetry_equiv_pos_as_xyz
  1  'x, y, z'
loop_
 _atom_site_type_symbol
 _atom_site_label
 _atom_site_symmetry_multiplicity
 _atom_site_fract_x
 _atom_site_fract_y
 _atom_site_fract_z
 _atom_site_occupancy
  Li  Li0  1  0.78858000  0.83891000  0.71912000  1.0
  Li  Li1  1  0.71142000  0.66109000  0.21912000  1.0
  Li  Li2  1  0.21142000  0.16109000  0.28088000  1.0
  Li  Li3  1  0.28858000  0.33891000  0.78088000  1.0
  Li  Li4  1  0.58324000  0.56851000  0.72761000  1.0
  Li  Li5  1  0.91676000  0.93149000  0.22761000  1.0
  Li  Li6  1  0.41676000  0.43149000  0.27239000  1.0
  Li  Li7  1  0.08324000  0.06851000  0.77239000  1.0
  B  B8  1  0.26967000  0.78479000  0.88088000  1.0
  B  B9  1  0.23033000  0.71521000  0.38088000  1.0
  B  B10  1  0.73033000  0.21521000  0.11912000  1.0
  B  B11  1  0.76967000  0.28479000  0.61912000  1.0
  B  B12  1  0.10436000  0.62820000  0.88608000  1.0
  B  B13  1  0.39564000  0.87180000  0.38608000  1.0
  B  B14  1  0.89564000  0.37180000  0.11392000  1.0
  B  B15  1  0.60436000  0.12820000  0.61392000  1.0
  H  H16  1  0.86846000  0.65713000  0.50216000  1.0
  H  H17  1  0.63154000  0.84287000  0.00216000  1.0
  H  H18  1  0.13154000  0.34287000  0.49784000  1.0
  H  H19  1  0.36846000  0.15713000  0.99784000  1.0
  H  H20  1  0.02556000  0.73893000  0.49826000  1.0
  H  H21  1  0.47445000  0.76107000  0.99826000  1.0
  H  H22  1  0.97445000  0.26107000  0.50174000  1.0
  H  H23  1  0.52555000  0.23893000  0.00174000  1.0
  H  H24  1  0.87231000  0.75135000  0.44711000  1.0
  H  H25  1  0.62769000  0.74865000  0.94711000  1.0
  H  H26  1  0.12769000  0.24865000  0.55289000  1.0
  H  H27  1  0.37231000  0.25135000  0.05289000  1.0
  H  H28  1  0.56536000  0.61665000  0.44278000  1.0
  H  H29  1  0.93464000  0.88335000  0.94278000  1.0
  H  H30  1  0.43464000  0.38335000  0.55722000  1.0
  H  H31  1  0.06536000  0.11665000  0.05722000  1.0
  H  H32  1  0.50277000  0.70620000  0.48128000  1.0
  H  H33  1  0.99723000  0.79380000  0.98128000  1.0
  H  H34  1  0.49723000  0.29380000  0.51872000  1.0
  H  H35  1  0.00277000  0.20620000  0.01872000  1.0
  H  H36  1  0.38404000  0.60468000  0.47047000  1.0
  H  H37  1  0.11596000  0.89532000  0.97047000  1.0
  H  H38  1  0.61596000  0.39532000  0.52953000  1.0
  H  H39  1  0.88404000  0.10468000  0.02953000  1.0
  C  C40  1  0.04614000  0.80378000  0.80157000  1.0
  C  C41  1  0.45386000  0.69622000  0.30157000  1.0
  C  C42  1  0.95386000  0.19622000  0.19843000  1.0
  C  C43  1  0.54614000  0.30378000  0.69843000  1.0
  C  C44  1  0.96228000  0.71700000  0.79843000  1.0
  C  C45  1  0.53772000  0.78300000  0.29843000  1.0
  C  C46  1  0.03772000  0.28300000  0.20157000  1.0
  C  C47  1  0.46228000  0.21700000  0.70157000  1.0
  C  C48  1  0.41340000  0.69032000  0.80188000  1.0
  C  C49  1  0.08660000  0.80968000  0.30188000  1.0
  C  C50  1  0.58659000  0.30968000  0.19812000  1.0
  C  C51  1  0.91340000  0.19032000  0.69812000  1.0
  C  C52  1  0.32867000  0.60398000  0.80906000  1.0
  C  C53  1  0.17133000  0.89602000  0.30906000  1.0
  C  C54  1  0.67133000  0.39602000  0.19094000  1.0
  C  C55  1  0.82867000  0.10398000  0.69094000  1.0
  C  C56  1  0.90910000  0.72709000  0.49894000  1.0
  C  C57  1  0.59090000  0.77291000  0.99894000  1.0
  C  C58  1  0.09090000  0.27291000  0.50106000  1.0
  C  C59  1  0.40910000  0.22709000  0.00106000  1.0
  C  C60  1  0.86084000  0.76891000  0.56224000  1.0
  C  C61  1  0.63916000  0.73109000  0.06224000  1.0
  C  C62  1  0.13916000  0.23109000  0.43776000  1.0
  C  C63  1  0.36084000  0.26891000  0.93776000  1.0
  C  C64  1  0.49412000  0.63617000  0.48385000  1.0
  C  C65  1  0.00588000  0.86383000  0.98385000  1.0
  C  C66  1  0.50588000  0.36383000  0.51615000  1.0
  C  C67  1  0.99412000  0.13617000  0.01615000  1.0
  C  C68  1  0.52904000  0.61164000  0.55763000  1.0
  C  C69  1  0.97096000  0.88836000  0.05763000  1.0
  C  C70  1  0.47096000  0.38836000  0.44237000  1.0
  C  C71  1  0.02904000  0.11164000  0.94237000  1.0
  N  N72  1  0.17540000  0.83426000  0.83143000  1.0
  N  N73  1  0.32460000  0.66574000  0.33143000  1.0
  N  N74  1  0.82461000  0.16574000  0.16857000  1.0
  N  N75  1  0.67539000  0.33426000  0.66857000  1.0
  N  N76  1  0.20734000  0.92030000  0.82028000  1.0
  N  N77  1  0.29266000  0.57970000  0.32028000  1.0
  N  N78  1  0.79266000  0.07970000  0.17972000  1.0
  N  N79  1  0.70734000  0.42030000  0.67972000  1.0
  N  N80  1  0.10017000  0.93990000  0.78516000  1.0
  N  N81  1  0.39983000  0.56010000  0.28516000  1.0
  N  N82  1  0.89983000  0.06010000  0.21484000  1.0
  N  N83  1  0.60017000  0.43990000  0.71484000  1.0
  N  N84  1  0.99724000  0.86923000  0.77246000  1.0
  N  N85  1  0.50276000  0.63077000  0.27246000  1.0
  N  N86  1  0.00276000  0.13077000  0.22754000  1.0
  N  N87  1  0.49724000  0.36923000  0.72754000  1.0
  N  N88  1  0.98332000  0.64328000  0.82954000  1.0
  N  N89  1  0.51668000  0.85672000  0.32954000  1.0
  N  N90  1  0.01668000  0.35672000  0.17046000  1.0
  N  N91  1  0.48332000  0.14328000  0.67046000  1.0
  N  N92  1  0.87123000  0.58046000  0.81080000  1.0
  N  N93  1  0.62876000  0.91954000  0.31080000  1.0
  N  N94  1  0.12876000  0.41954000  0.18920000  1.0
  N  N95  1  0.37123000  0.08046000  0.68920000  1.0
  N  N96  1  0.78669000  0.61611000  0.77030000  1.0
  N  N97  1  0.71331000  0.88389000  0.27030000  1.0
  N  N98  1  0.21331000  0.38389000  0.22970000  1.0
  N  N99  1  0.28669000  0.11611000  0.72970000  1.0
  N  N100  1  0.83983000  0.70099000  0.76128000  1.0
  N  N101  1  0.66017000  0.79902000  0.26128000  1.0
  N  N102  1  0.16017000  0.29901000  0.23872000  1.0
  N  N103  1  0.33983000  0.20099000  0.73872000  1.0
  N  N104  1  0.53524000  0.70384000  0.76416000  1.0
  N  N105  1  0.96476000  0.79616000  0.26416000  1.0
  N  N106  1  0.46476000  0.29616000  0.23584000  1.0
  N  N107  1  0.03524000  0.20384000  0.73584000  1.0
  N  N108  1  0.58948000  0.78915000  0.76934000  1.0
  N  N109  1  0.91052000  0.71085000  0.26934000  1.0
  N  N110  1  0.41052000  0.21085000  0.23066000  1.0
  N  N111  1  0.08948000  0.28915000  0.73066000  1.0
  N  N112  1  0.50611000  0.82753000  0.80798000  1.0
  N  N113  1  0.99389000  0.67247000  0.30798000  1.0
  N  N114  1  0.49389000  0.17247000  0.19202000  1.0
  N  N115  1  0.00611000  0.32753000  0.69202000  1.0
  N  N116  1  0.39367000  0.76606000  0.82935000  1.0
  N  N117  1  0.10633000  0.73394000  0.32935000  1.0
  N  N118  1  0.60633000  0.23394000  0.17065000  1.0
  N  N119  1  0.89367000  0.26606000  0.67065000  1.0
  N  N120  1  0.20096000  0.57531000  0.84125000  1.0
  N  N121  1  0.29904000  0.92469000  0.34125000  1.0
  N  N122  1  0.79904000  0.42469000  0.15875000  1.0
  N  N123  1  0.70096000  0.07531000  0.65875000  1.0
  N  N124  1  0.16738000  0.48908000  0.83238000  1.0
  N  N125  1  0.33262000  0.01092000  0.33238000  1.0
  N  N126  1  0.83262000  0.51092000  0.16762000  1.0
  N  N127  1  0.66738000  0.98908000  0.66762000  1.0
  N  N128  1  0.27226000  0.46748000  0.79647000  1.0
  N  N129  1  0.22774000  0.03252000  0.29646000  1.0
  N  N130  1  0.72774000  0.53252000  0.20353000  1.0
  N  N131  1  0.77226000  0.96748000  0.70353000  1.0
  N  N132  1  0.37513000  0.53727000  0.78085000  1.0
  N  N133  1  0.12487000  0.96273000  0.28085000  1.0
  N  N134  1  0.62487000  0.46273000  0.21915000  1.0
  N  N135  1  0.87513000  0.03727000  0.71915000  1.0
  N  N136  1  0.82285000  0.80158000  0.61380000  1.0
  N  N137  1  0.67715000  0.69842000  0.11380000  1.0
  N  N138  1  0.17715000  0.19842000  0.38620000  1.0
  N  N139  1  0.32285000  0.30158000  0.88620000  1.0
  N  N140  1  0.55596000  0.59202000  0.61718000  1.0
  N  N141  1  0.94404000  0.90798000  0.11718000  1.0
  N  N142  1  0.44404000  0.40798000  0.38282000  1.0
  N  N143  1  0.05595000  0.09202000  0.88282000  1.0
  O  O144  1  0.18693000  0.70834000  0.90866000  1.0
  O  O145  1  0.31307000  0.79166000  0.40866000  1.0
  O  O146  1  0.81307000  0.29166000  0.09134000  1.0
  O  O147  1  0.68693000  0.20834000  0.59134000  1.0
  F  F148  1  0.33175000  0.84222000  0.93651000  1.0
  F  F149  1  0.16825000  0.65778000  0.43651000  1.0
  F  F150  1  0.66825000  0.15778000  0.06349000  1.0
  F  F151  1  0.83175000  0.34222000  0.56349000  1.0
  F  F152  1  0.03903000  0.57783000  0.94343000  1.0
  F  F153  1  0.46097000  0.92217000  0.44343000  1.0
  F  F154  1  0.96097000  0.42217000  0.05657000  1.0
  F  F155  1  0.53903000  0.07783000  0.55657000  1.0
