# generated using pymatgen
data_BaH14C26N8(OF3)4
_symmetry_space_group_name_H-M   'P 1'
_cell_length_a   11.95550000
_cell_length_b   12.03310000
_cell_length_c   12.16130000
_cell_angle_alpha   66.49310000
_cell_angle_beta   86.33170000
_cell_angle_gamma   77.75840000
_symmetry_Int_Tables_number   1
_chemical_formula_structural   BaH14C26N8(OF3)4
_chemical_formula_sum   'Ba2 H28 C52 N16 O8 F24'
_cell_volume   1567.46097169
_cell_formula_units_Z   2
loop_
 _symmetry_equiv_pos_site_id
 _symmetry_equiv_pos_as_xyz
  1  'x, y, z'
loop_
 _atom_site_type_symbol
 _atom_site_label
 _atom_site_symmetry_multiplicity
 _atom_site_fract_x
 _atom_site_fract_y
 _atom_site_fract_z
 _atom_site_occupancy
  Ba  Ba0  1  0.31025000  0.06156000  0.24262000  1.0
  Ba  Ba1  1  0.68975000  0.93844000  0.75738000  1.0
  H  H2  1  0.76292000  0.98250000  0.33787000  1.0
  H  H3  1  0.23708000  0.01750000  0.66213000  1.0
  H  H4  1  0.73800000  0.18153000  0.47643000  1.0
  H  H5  1  0.26201000  0.81846000  0.52357000  1.0
  H  H6  1  0.44042000  0.32271000  0.23997000  1.0
  H  H7  1  0.55958000  0.67730000  0.76003000  1.0
  H  H8  1  0.62294000  0.35854000  0.30488000  1.0
  H  H9  1  0.37707000  0.64146000  0.69512000  1.0
  H  H10  1  0.12379000  0.46382000  0.87909000  1.0
  H  H11  1  0.87621000  0.53618000  0.12092000  1.0
  H  H12  1  0.54028000  0.59786000  0.32586000  1.0
  H  H13  1  0.45972000  0.40214000  0.67414000  1.0
  H  H14  1  0.19397000  0.93726000  0.06097000  1.0
  H  H15  1  0.80603000  0.06273000  0.93903000  1.0
  H  H16  1  0.24677000  0.78839000  0.95689000  1.0
  H  H17  1  0.75323000  0.21160000  0.04311000  1.0
  H  H18  1  0.45024000  0.75825000  0.88532000  1.0
  H  H19  1  0.54976000  0.24175000  0.11468000  1.0
  H  H20  1  0.89359000  0.43529000  0.41641000  1.0
  H  H21  1  0.10641000  0.56471000  0.58359000  1.0
  H  H22  1  0.09563000  0.47468000  0.38595000  1.0
  H  H23  1  0.90437000  0.52532000  0.61405000  1.0
  H  H24  1  0.91615000  0.81630000  0.30784000  1.0
  H  H25  1  0.08386000  0.18370000  0.69216000  1.0
  H  H26  1  0.12179000  0.84074000  0.30554000  1.0
  H  H27  1  0.87821000  0.15926000  0.69446000  1.0
  H  H28  1  0.24430000  0.32140000  0.33292000  1.0
  H  H29  1  0.75570000  0.67860000  0.66708000  1.0
  C  C30  1  0.85360000  0.98666000  0.33466000  1.0
  C  C31  1  0.14640000  0.01334000  0.66534000  1.0
  C  C32  1  0.52129000  0.05855000  0.46605000  1.0
  C  C33  1  0.47871000  0.94145000  0.53395000  1.0
  C  C34  1  0.65680000  0.17459000  0.44626000  1.0
  C  C35  1  0.34320000  0.82540000  0.55374000  1.0
  C  C36  1  0.00376000  0.29531000  0.91273000  1.0
  C  C37  1  0.99624000  0.70469000  0.08727000  1.0
  C  C38  1  0.49375000  0.25251000  0.31584000  1.0
  C  C39  1  0.50626000  0.74749000  0.68416000  1.0
  C  C40  1  0.59377000  0.27217000  0.35101000  1.0
  C  C41  1  0.40624000  0.72782000  0.64899000  1.0
  C  C42  1  0.25337000  0.38657000  0.01794000  1.0
  C  C43  1  0.74663000  0.61343000  0.98206000  1.0
  C  C44  1  0.10851000  0.27792000  0.99191000  1.0
  C  C45  1  0.89149000  0.72208000  0.00809000  1.0
  C  C46  1  0.15879000  0.38249000  0.95803000  1.0
  C  C47  1  0.84121000  0.61751000  0.04197000  1.0
  C  C48  1  0.37469000  0.71349000  0.31634000  1.0
  C  C49  1  0.62531000  0.28652000  0.68366000  1.0
  C  C50  1  0.45860000  0.96404000  0.99382000  1.0
  C  C51  1  0.54139000  0.03596000  0.00618000  1.0
  C  C52  1  0.49459000  0.68954000  0.31603000  1.0
  C  C53  1  0.50541000  0.31046000  0.68397000  1.0
  C  C54  1  0.55893000  0.77866000  0.30570000  1.0
  C  C55  1  0.44107000  0.22134000  0.69430000  1.0
  C  C56  1  0.02022000  0.19865000  0.35635000  1.0
  C  C57  1  0.97978000  0.80135000  0.64365000  1.0
  C  C58  1  0.99079000  0.08931000  0.34360000  1.0
  C  C59  1  0.00921000  0.91069000  0.65640000  1.0
  C  C60  1  0.27903000  0.92049000  0.02502000  1.0
  C  C61  1  0.72097000  0.07951000  0.97498000  1.0
  C  C62  1  0.30764000  0.83906000  0.96761000  1.0
  C  C63  1  0.69236000  0.16094000  0.03239000  1.0
  C  C64  1  0.41924000  0.82380000  0.92709000  1.0
  C  C65  1  0.58076000  0.17620000  0.07291000  1.0
  C  C66  1  0.31576000  0.60419000  0.33740000  1.0
  C  C67  1  0.68424000  0.39582000  0.66260000  1.0
  C  C68  1  0.96301000  0.37281000  0.39455000  1.0
  C  C69  1  0.03699000  0.62719000  0.60545000  1.0
  C  C70  1  0.07390000  0.39487000  0.37799000  1.0
  C  C71  1  0.92610000  0.60513000  0.62201000  1.0
  C  C72  1  0.93727000  0.89477000  0.31867000  1.0
  C  C73  1  0.06272000  0.10523000  0.68133000  1.0
  C  C74  1  0.05020000  0.90830000  0.31691000  1.0
  C  C75  1  0.94980000  0.09170000  0.68309000  1.0
  C  C76  1  0.69078000  0.73597000  0.30894000  1.0
  C  C77  1  0.30922000  0.26403000  0.69106000  1.0
  C  C78  1  0.15569000  0.31033000  0.34887000  1.0
  C  C79  1  0.84431000  0.68967000  0.65112000  1.0
  C  C80  1  0.30753000  0.50202000  0.95795000  1.0
  C  C81  1  0.69247000  0.49798000  0.04205000  1.0
  N  N82  1  0.45744000  0.14546000  0.37177000  1.0
  N  N83  1  0.54256000  0.85454000  0.62823000  1.0
  N  N84  1  0.62023000  0.06832000  0.50445000  1.0
  N  N85  1  0.37977000  0.93168000  0.49555000  1.0
  N  N86  1  0.35469000  0.98110000  0.04056000  1.0
  N  N87  1  0.64530000  0.01890000  0.95944000  1.0
  N  N88  1  0.07807000  0.00507000  0.32930000  1.0
  N  N89  1  0.92193000  0.99493000  0.67070000  1.0
  N  N90  1  0.12995000  0.21191000  0.33824000  1.0
  N  N91  1  0.87005000  0.78809000  0.66175000  1.0
  N  N92  1  0.49443000  0.88755000  0.93718000  1.0
  N  N93  1  0.50557000  0.11245000  0.06282000  1.0
  N  N94  1  0.93520000  0.27518000  0.38414000  1.0
  N  N95  1  0.06480000  0.72482000  0.61586000  1.0
  N  N96  1  0.87959000  0.08403000  0.34705000  1.0
  N  N97  1  0.12041000  0.91597000  0.65295000  1.0
  O  O98  1  0.30571000  0.81285000  0.30342000  1.0
  O  O99  1  0.69429000  0.18715000  0.69658000  1.0
  O  O100  1  0.30527000  0.30700000  0.11263000  1.0
  O  O101  1  0.69473000  0.69300000  0.88737000  1.0
  O  O102  1  0.13591000  0.17386000  0.07586000  1.0
  O  O103  1  0.86409000  0.82614000  0.92414000  1.0
  O  O104  1  0.52562000  0.88847000  0.29543000  1.0
  O  O105  1  0.47438000  0.11153000  0.70457000  1.0
  F  F106  1  0.73748000  0.81739000  0.21338000  1.0
  F  F107  1  0.26252000  0.18261000  0.78661000  1.0
  F  F108  1  0.02963000  0.33088000  0.79344000  1.0
  F  F109  1  0.97037000  0.66912000  0.20656000  1.0
  F  F110  1  0.91532000  0.38472000  0.92059000  1.0
  F  F111  1  0.08468000  0.61527000  0.07941000  1.0
  F  F112  1  0.34151000  0.53891000  0.04047000  1.0
  F  F113  1  0.65849000  0.46109000  0.95953000  1.0
  F  F114  1  0.96365000  0.18937000  0.94559000  1.0
  F  F115  1  0.03636000  0.81063000  0.05441000  1.0
  F  F116  1  0.73698000  0.73347000  0.41055000  1.0
  F  F117  1  0.26302000  0.26653000  0.58945000  1.0
  F  F118  1  0.72848000  0.62147000  0.30739000  1.0
  F  F119  1  0.27152000  0.37853000  0.69262000  1.0
  F  F120  1  0.23837000  0.60254000  0.87556000  1.0
  F  F121  1  0.76163000  0.39746000  0.12444000  1.0
  F  F122  1  0.25976000  0.57468000  0.44430000  1.0
  F  F123  1  0.74024000  0.42533000  0.55570000  1.0
  F  F124  1  0.40427000  0.47358000  0.89861000  1.0
  F  F125  1  0.59573000  0.52642000  0.10139000  1.0
  F  F126  1  0.23502000  0.63518000  0.25013000  1.0
  F  F127  1  0.76498000  0.36482000  0.74987000  1.0
  F  F128  1  0.38775000  0.49797000  0.34182000  1.0
  F  F129  1  0.61225000  0.50204000  0.65818000  1.0
