# generated using pymatgen
data_NaH11C6(NO3)2
_symmetry_space_group_name_H-M   'P 1'
_cell_length_a   6.18161000
_cell_length_b   10.68490000
_cell_length_c   13.97850000
_cell_angle_alpha   89.99940000
_cell_angle_beta   94.66090000
_cell_angle_gamma   89.99970000
_symmetry_Int_Tables_number   1
_chemical_formula_structural   NaH11C6(NO3)2
_chemical_formula_sum   'Na4 H44 C24 N8 O24'
_cell_volume   920.22509772
_cell_formula_units_Z   4
loop_
 _symmetry_equiv_pos_site_id
 _symmetry_equiv_pos_as_xyz
  1  'x, y, z'
loop_
 _atom_site_type_symbol
 _atom_site_label
 _atom_site_symmetry_multiplicity
 _atom_site_fract_x
 _atom_site_fract_y
 _atom_site_fract_z
 _atom_site_occupancy
  Na  Na0  1  0.95929000  0.73190000  0.01551000  1.0
  Na  Na1  1  0.54072000  0.23190000  0.98449000  1.0
  Na  Na2  1  0.04072000  0.26810000  0.98449000  1.0
  Na  Na3  1  0.45928000  0.76810000  0.01551000  1.0
  H  H4  1  0.22823000  0.75853000  0.19320000  1.0
  H  H5  1  0.27177000  0.25854000  0.80679000  1.0
  H  H6  1  0.77178000  0.24147000  0.80680000  1.0
  H  H7  1  0.72824000  0.74146000  0.19320000  1.0
  H  H8  1  0.17174000  0.89706000  0.15924000  1.0
  H  H9  1  0.32826000  0.39707000  0.84075000  1.0
  H  H10  1  0.82827000  0.10294000  0.84075000  1.0
  H  H11  1  0.67175000  0.60293000  0.15924000  1.0
  H  H12  1  0.28602000  0.57249000  0.92181000  1.0
  H  H13  1  0.21399000  0.07249000  0.07819000  1.0
  H  H14  1  0.71399000  0.42751000  0.07819000  1.0
  H  H15  1  0.78601000  0.92751000  0.92181000  1.0
  H  H16  1  0.25684000  0.50588000  0.01994000  1.0
  H  H17  1  0.24317000  0.00588000  0.98006000  1.0
  H  H18  1  0.74317000  0.49412000  0.98006000  1.0
  H  H19  1  0.75683000  0.99412000  0.01994000  1.0
  H  H20  1  0.02336000  0.78904000  0.58075000  1.0
  H  H21  1  0.47663000  0.28903000  0.41925000  1.0
  H  H22  1  0.97661000  0.21095000  0.41925000  1.0
  H  H23  1  0.52338000  0.71097000  0.58075000  1.0
  H  H24  1  0.90628000  0.22099000  0.65755000  1.0
  H  H25  1  0.59372000  0.72098000  0.34244000  1.0
  H  H26  1  0.09372000  0.77901000  0.34245000  1.0
  H  H27  1  0.40629000  0.27902000  0.65755000  1.0
  H  H28  1  0.26755000  0.77775000  0.73667000  1.0
  H  H29  1  0.23246000  0.27775000  0.26333000  1.0
  H  H30  1  0.73244000  0.22225000  0.26333000  1.0
  H  H31  1  0.76755000  0.72225000  0.73668000  1.0
  H  H32  1  0.41074000  0.91381000  0.77365000  1.0
  H  H33  1  0.08926000  0.41380000  0.22634000  1.0
  H  H34  1  0.58925000  0.08619000  0.22634000  1.0
  H  H35  1  0.91075000  0.58619000  0.77366000  1.0
  H  H36  1  0.30742000  0.94046000  0.60841000  1.0
  H  H37  1  0.19256000  0.44046000  0.39159000  1.0
  H  H38  1  0.69256000  0.05953000  0.39159000  1.0
  H  H39  1  0.80745000  0.55954000  0.60841000  1.0
  H  H40  1  0.64756000  0.09834000  0.55358000  1.0
  H  H41  1  0.85242000  0.59833000  0.44643000  1.0
  H  H42  1  0.35241000  0.90165000  0.44643000  1.0
  H  H43  1  0.14760000  0.40167000  0.55357000  1.0
  H  H44  1  0.63615000  0.05380000  0.67450000  1.0
  H  H45  1  0.86385000  0.55378000  0.32551000  1.0
  H  H46  1  0.36384000  0.94620000  0.32551000  1.0
  H  H47  1  0.13615000  0.44622000  0.67448000  1.0
  C  C48  1  0.10320000  0.89563000  0.83123000  1.0
  C  C49  1  0.39680000  0.39562000  0.16877000  1.0
  C  C50  1  0.89679000  0.10438000  0.16877000  1.0
  C  C51  1  0.60320000  0.60437000  0.83123000  1.0
  C  C52  1  0.24853000  0.87877000  0.74905000  1.0
  C  C53  1  0.25148000  0.37877000  0.25095000  1.0
  C  C54  1  0.75146000  0.12122000  0.25095000  1.0
  C  C55  1  0.74853000  0.62123000  0.74905000  1.0
  C  C56  1  0.17041000  0.94355000  0.65434000  1.0
  C  C57  1  0.32958000  0.44354000  0.34566000  1.0
  C  C58  1  0.82957000  0.05645000  0.34566000  1.0
  C  C59  1  0.67042000  0.55646000  0.65435000  1.0
  C  C60  1  0.12818000  0.08096000  0.67104000  1.0
  C  C61  1  0.37184000  0.58094000  0.32897000  1.0
  C  C62  1  0.87183000  0.91905000  0.32896000  1.0
  C  C63  1  0.62818000  0.41906000  0.67104000  1.0
  C  C64  1  0.74256000  0.05503000  0.61483000  1.0
  C  C65  1  0.75744000  0.55502000  0.38518000  1.0
  C  C66  1  0.25743000  0.94497000  0.38518000  1.0
  C  C67  1  0.24258000  0.44498000  0.61482000  1.0
  C  C68  1  0.78641000  0.92174000  0.58804000  1.0
  C  C69  1  0.71357000  0.42174000  0.41196000  1.0
  C  C70  1  0.21358000  0.07826000  0.41196000  1.0
  C  C71  1  0.28645000  0.57826000  0.58804000  1.0
  N  N72  1  0.98866000  0.87863000  0.60335000  1.0
  N  N73  1  0.51134000  0.37862000  0.39666000  1.0
  N  N74  1  0.01133000  0.12137000  0.39665000  1.0
  N  N75  1  0.48867000  0.62138000  0.60335000  1.0
  N  N76  1  0.93545000  0.12860000  0.64130000  1.0
  N  N77  1  0.56453000  0.62859000  0.35870000  1.0
  N  N78  1  0.06453000  0.87139000  0.35870000  1.0
  N  N79  1  0.43547000  0.37141000  0.64130000  1.0
  O  O80  1  0.18051000  0.85900000  0.91340000  1.0
  O  O81  1  0.31951000  0.35900000  0.08660000  1.0
  O  O82  1  0.81950000  0.14101000  0.08660000  1.0
  O  O83  1  0.68050000  0.64100000  0.91340000  1.0
  O  O84  1  0.91570000  0.94460000  0.81364000  1.0
  O  O85  1  0.58430000  0.44460000  0.18636000  1.0
  O  O86  1  0.08429000  0.05540000  0.18636000  1.0
  O  O87  1  0.41571000  0.55540000  0.81364000  1.0
  O  O88  1  0.28119000  0.14590000  0.71005000  1.0
  O  O89  1  0.21878000  0.64591000  0.28994000  1.0
  O  O90  1  0.71879000  0.85409000  0.28994000  1.0
  O  O91  1  0.78121000  0.35410000  0.71007000  1.0
  O  O92  1  0.63225000  0.85663000  0.55062000  1.0
  O  O93  1  0.86776000  0.35661000  0.44939000  1.0
  O  O94  1  0.36773000  0.14337000  0.44939000  1.0
  O  O95  1  0.13225000  0.64339000  0.55060000  1.0
  O  O96  1  0.21718000  0.81438000  0.13681000  1.0
  O  O97  1  0.28282000  0.31439000  0.86319000  1.0
  O  O98  1  0.78283000  0.18562000  0.86319000  1.0
  O  O99  1  0.71718000  0.68561000  0.13681000  1.0
  O  O100  1  0.22528000  0.58466000  0.98495000  1.0
  O  O101  1  0.27473000  0.08466000  0.01505000  1.0
  O  O102  1  0.77473000  0.41534000  0.01505000  1.0
  O  O103  1  0.72528000  0.91534000  0.98495000  1.0
