# generated using pymatgen
data_CsH10C5ClO5
_symmetry_space_group_name_H-M   'P 1'
_cell_length_a   6.72682000
_cell_length_b   8.72108000
_cell_length_c   15.37050000
_cell_angle_alpha   90.00080000
_cell_angle_beta   89.99970000
_cell_angle_gamma   90.00000000
_symmetry_Int_Tables_number   1
_chemical_formula_structural   CsH10C5ClO5
_chemical_formula_sum   'Cs4 H40 C20 Cl4 O20'
_cell_volume   901.71246304
_cell_formula_units_Z   4
loop_
 _symmetry_equiv_pos_site_id
 _symmetry_equiv_pos_as_xyz
  1  'x, y, z'
loop_
 _atom_site_type_symbol
 _atom_site_label
 _atom_site_symmetry_multiplicity
 _atom_site_fract_x
 _atom_site_fract_y
 _atom_site_fract_z
 _atom_site_occupancy
  Cs  Cs0  1  0.02687000  0.50990000  0.02370000  1.0
  Cs  Cs1  1  0.47313000  0.49011000  0.52370000  1.0
  Cs  Cs2  1  0.52687000  0.99010000  0.97630000  1.0
  Cs  Cs3  1  0.97313000  0.00990000  0.47630000  1.0
  H  H4  1  0.91837000  0.57957000  0.43941000  1.0
  H  H5  1  0.58162000  0.42043000  0.93941000  1.0
  H  H6  1  0.41838000  0.92043000  0.56059000  1.0
  H  H7  1  0.08162000  0.07957000  0.06059000  1.0
  H  H8  1  0.63577000  0.95041000  0.25010000  1.0
  H  H9  1  0.86423000  0.04959000  0.75010000  1.0
  H  H10  1  0.13577000  0.54959000  0.74990000  1.0
  H  H11  1  0.36423000  0.45041000  0.24990000  1.0
  H  H12  1  0.40026000  0.61176000  0.13335000  1.0
  H  H13  1  0.09974000  0.38823000  0.63335000  1.0
  H  H14  1  0.90026000  0.88824000  0.86665000  1.0
  H  H15  1  0.59974000  0.11176000  0.36665000  1.0
  H  H16  1  0.77375000  0.72126000  0.21068000  1.0
  H  H17  1  0.72626000  0.27874000  0.71068000  1.0
  H  H18  1  0.27375000  0.77874000  0.78932000  1.0
  H  H19  1  0.22625000  0.22126000  0.28932000  1.0
  H  H20  1  0.12472000  0.53655000  0.33383000  1.0
  H  H21  1  0.37527000  0.46345000  0.83383000  1.0
  H  H22  1  0.62473000  0.96345000  0.66618000  1.0
  H  H23  1  0.87527000  0.03655000  0.16617000  1.0
  H  H24  1  0.48565000  0.63772000  0.33647000  1.0
  H  H25  1  0.01435000  0.36228000  0.83647000  1.0
  H  H26  1  0.98565000  0.86228000  0.66353000  1.0
  H  H27  1  0.51435000  0.13772000  0.16353000  1.0
  H  H28  1  0.51492000  0.81366000  0.39481000  1.0
  H  H29  1  0.98508000  0.18634000  0.89481000  1.0
  H  H30  1  0.01492000  0.68634000  0.60519000  1.0
  H  H31  1  0.48508000  0.31366000  0.10519000  1.0
  H  H32  1  0.32539000  0.95198000  0.28042000  1.0
  H  H33  1  0.17461000  0.04801000  0.78042000  1.0
  H  H34  1  0.82539000  0.54802000  0.71958000  1.0
  H  H35  1  0.67461000  0.45198000  0.21958000  1.0
  H  H36  1  0.99407000  0.85729000  0.27369000  1.0
  H  H37  1  0.50594000  0.14271000  0.77369000  1.0
  H  H38  1  0.49407000  0.64271000  0.72630000  1.0
  H  H39  1  0.00593000  0.35730000  0.22631000  1.0
  H  H40  1  0.21271000  0.82064000  0.14792000  1.0
  H  H41  1  0.28730000  0.17935000  0.64792000  1.0
  H  H42  1  0.71270000  0.67936000  0.85208000  1.0
  H  H43  1  0.78729000  0.32064000  0.35208000  1.0
  C  C44  1  0.07767000  0.65669000  0.34474000  1.0
  C  C45  1  0.42233000  0.34331000  0.84474000  1.0
  C  C46  1  0.57767000  0.84331000  0.65526000  1.0
  C  C47  1  0.92233000  0.15670000  0.15526000  1.0
  C  C48  1  0.41775000  0.75041000  0.35017000  1.0
  C  C49  1  0.08225000  0.24959000  0.85017000  1.0
  C  C50  1  0.91775000  0.74959000  0.64983000  1.0
  C  C51  1  0.58225000  0.25041000  0.14983000  1.0
  C  C52  1  0.38942000  0.83857000  0.26546000  1.0
  C  C53  1  0.11058000  0.16142000  0.76546000  1.0
  C  C54  1  0.88942000  0.66143000  0.73454000  1.0
  C  C55  1  0.61058000  0.33858000  0.23454000  1.0
  C  C56  1  0.04422000  0.74000000  0.25789000  1.0
  C  C57  1  0.45578000  0.25999000  0.75789000  1.0
  C  C58  1  0.54422000  0.75999000  0.74211000  1.0
  C  C59  1  0.95578000  0.24001000  0.24211000  1.0
  C  C60  1  0.24025000  0.75481000  0.20794000  1.0
  C  C61  1  0.25975000  0.24519000  0.70794000  1.0
  C  C62  1  0.74025000  0.74519000  0.79206000  1.0
  C  C63  1  0.75975000  0.25481000  0.29206000  1.0
  Cl  Cl64  1  0.53538000  0.60424000  0.01710000  1.0
  Cl  Cl65  1  0.96462000  0.39576000  0.51710000  1.0
  Cl  Cl66  1  0.03537000  0.89576000  0.98290000  1.0
  Cl  Cl67  1  0.46462000  0.10424000  0.48290000  1.0
  O  O68  1  0.23082000  0.73451000  0.39468000  1.0
  O  O69  1  0.26918000  0.26549000  0.89468000  1.0
  O  O70  1  0.73082000  0.76549000  0.60532000  1.0
  O  O71  1  0.76918000  0.23451000  0.10532000  1.0
  O  O72  1  0.90512000  0.66193000  0.39442000  1.0
  O  O73  1  0.59488000  0.33807000  0.89442000  1.0
  O  O74  1  0.40512000  0.83807000  0.60558000  1.0
  O  O75  1  0.09488000  0.16193000  0.10558000  1.0
  O  O76  1  0.57559000  0.85929000  0.22092000  1.0
  O  O77  1  0.92441000  0.14071000  0.72092000  1.0
  O  O78  1  0.07559000  0.64071000  0.77908000  1.0
  O  O79  1  0.42441000  0.35929000  0.27908000  1.0
  O  O80  1  0.30779000  0.60357000  0.18438000  1.0
  O  O81  1  0.19221000  0.39643000  0.68438000  1.0
  O  O82  1  0.80779000  0.89643000  0.81562000  1.0
  O  O83  1  0.69221000  0.10357000  0.31562000  1.0
  O  O84  1  0.90014000  0.66324000  0.20589000  1.0
  O  O85  1  0.59986000  0.33675000  0.70589000  1.0
  O  O86  1  0.40014000  0.83675000  0.79411000  1.0
  O  O87  1  0.09986000  0.16325000  0.29411000  1.0
