# generated using pymatgen
data_ZnH9C10(NO)4
_symmetry_space_group_name_H-M   'P 1'
_cell_length_a   9.43605000
_cell_length_b   10.22470000
_cell_length_c   13.93800000
_cell_angle_alpha   90.00000000
_cell_angle_beta   109.42900000
_cell_angle_gamma   90.00000000
_symmetry_Int_Tables_number   1
_chemical_formula_structural   ZnH9C10(NO)4
_chemical_formula_sum   'Zn4 H36 C40 N16 O16'
_cell_volume   1268.17159289
_cell_formula_units_Z   4
loop_
 _symmetry_equiv_pos_site_id
 _symmetry_equiv_pos_as_xyz
  1  'x, y, z'
loop_
 _atom_site_type_symbol
 _atom_site_label
 _atom_site_symmetry_multiplicity
 _atom_site_fract_x
 _atom_site_fract_y
 _atom_site_fract_z
 _atom_site_occupancy
  Zn  Zn0  1  0.43434000  0.82799000  0.24822000  1.0
  Zn  Zn1  1  0.06566000  0.32799000  0.25178000  1.0
  Zn  Zn2  1  0.56566000  0.17201000  0.75178000  1.0
  Zn  Zn3  1  0.93434000  0.67201000  0.74822000  1.0
  H  H4  1  0.38411000  0.59849000  0.54233000  1.0
  H  H5  1  0.11589000  0.09849000  0.95767000  1.0
  H  H6  1  0.61589000  0.40151000  0.45767000  1.0
  H  H7  1  0.88411000  0.90151000  0.04233000  1.0
  H  H8  1  0.18068000  0.58897000  0.12446000  1.0
  H  H9  1  0.31932000  0.08897000  0.37554000  1.0
  H  H10  1  0.81932000  0.41103000  0.87554000  1.0
  H  H11  1  0.68068000  0.91103000  0.62446000  1.0
  H  H12  1  0.75038000  0.74795000  0.41846000  1.0
  H  H13  1  0.74962000  0.24795000  0.08154000  1.0
  H  H14  1  0.24963000  0.25205000  0.58154000  1.0
  H  H15  1  0.25038000  0.75205000  0.91846000  1.0
  H  H16  1  0.95754000  0.94214000  0.23138000  1.0
  H  H17  1  0.54246000  0.44214000  0.26863000  1.0
  H  H18  1  0.04246000  0.05786000  0.76863000  1.0
  H  H19  1  0.45753000  0.55786000  0.73137000  1.0
  H  H20  1  0.64988000  0.93000000  0.13065000  1.0
  H  H21  1  0.85012000  0.43000000  0.36935000  1.0
  H  H22  1  0.35012000  0.07000000  0.86935000  1.0
  H  H23  1  0.14988000  0.57000000  0.63065000  1.0
  H  H24  1  0.12718000  0.81278000  0.40463000  1.0
  H  H25  1  0.37282000  0.31278000  0.09537000  1.0
  H  H26  1  0.87282000  0.18722000  0.59537000  1.0
  H  H27  1  0.62718000  0.68722000  0.90463000  1.0
  H  H28  1  0.02618000  0.76743000  0.48702000  1.0
  H  H29  1  0.47382000  0.26743000  0.01298000  1.0
  H  H30  1  0.97382000  0.23257000  0.51298000  1.0
  H  H31  1  0.52618000  0.73257000  0.98702000  1.0
  H  H32  1  0.17052000  0.97242000  0.54478000  1.0
  H  H33  1  0.32948000  0.47242000  0.95522000  1.0
  H  H34  1  0.82948000  0.02758000  0.45522000  1.0
  H  H35  1  0.67052000  0.52758000  0.04478000  1.0
  H  H36  1  0.07957000  0.04853000  0.42663000  1.0
  H  H37  1  0.42043000  0.54853000  0.07337000  1.0
  H  H38  1  0.92043000  0.95147000  0.57337000  1.0
  H  H39  1  0.57957000  0.45147000  0.92663000  1.0
  C  C40  1  0.33788000  0.63904000  0.36552000  1.0
  C  C41  1  0.16212000  0.13904000  0.13448000  1.0
  C  C42  1  0.66211000  0.36096000  0.63448000  1.0
  C  C43  1  0.83789000  0.86096000  0.86552000  1.0
  C  C44  1  0.43235000  0.72062000  0.44919000  1.0
  C  C45  1  0.06765000  0.22062000  0.05081000  1.0
  C  C46  1  0.56765000  0.27938000  0.55081000  1.0
  C  C47  1  0.93235000  0.77938000  0.94919000  1.0
  C  C48  1  0.22232000  0.58566000  0.20708000  1.0
  C  C49  1  0.27769000  0.08566000  0.29292000  1.0
  C  C50  1  0.77769000  0.41434000  0.79292000  1.0
  C  C51  1  0.72232000  0.91434000  0.70708000  1.0
  C  C52  1  0.76165000  0.79820000  0.35286000  1.0
  C  C53  1  0.73835000  0.29820000  0.14714000  1.0
  C  C54  1  0.23835000  0.20180000  0.64714000  1.0
  C  C55  1  0.26165000  0.70180000  0.85286000  1.0
  C  C56  1  0.86794000  0.90023000  0.25384000  1.0
  C  C57  1  0.63206000  0.40023000  0.24615000  1.0
  C  C58  1  0.13206000  0.09977000  0.74615000  1.0
  C  C59  1  0.36794000  0.59977000  0.75384000  1.0
  C  C60  1  0.71568000  0.89371000  0.20503000  1.0
  C  C61  1  0.78432000  0.39371000  0.29497000  1.0
  C  C62  1  0.28432000  0.10629000  0.79497000  1.0
  C  C63  1  0.21568000  0.60629000  0.70503000  1.0
  C  C64  1  0.03542000  0.84137000  0.43225000  1.0
  C  C65  1  0.46458000  0.34137000  0.06775000  1.0
  C  C66  1  0.96458000  0.15863000  0.56775000  1.0
  C  C67  1  0.53542000  0.65863000  0.93225000  1.0
  C  C68  1  0.06345000  0.97709000  0.48128000  1.0
  C  C69  1  0.43655000  0.47709000  0.01872000  1.0
  C  C70  1  0.93655000  0.02291000  0.51872000  1.0
  C  C71  1  0.56345000  0.52291000  0.98128000  1.0
  C  C72  1  0.25098000  0.52844000  0.36288000  1.0
  C  C73  1  0.24902000  0.02844000  0.13712000  1.0
  C  C74  1  0.74902000  0.47156000  0.63712000  1.0
  C  C75  1  0.75098000  0.97156000  0.86288000  1.0
  C  C76  1  0.23070000  0.44577000  0.44405000  1.0
  C  C77  1  0.26930000  0.94577000  0.05595000  1.0
  C  C78  1  0.76930000  0.55423000  0.55595000  1.0
  C  C79  1  0.73070000  0.05423000  0.94405000  1.0
  N  N80  1  0.31937000  0.67293000  0.26652000  1.0
  N  N81  1  0.18062000  0.17293000  0.23348000  1.0
  N  N82  1  0.68062000  0.32707000  0.73348000  1.0
  N  N83  1  0.81938000  0.82707000  0.76652000  1.0
  N  N84  1  0.65091000  0.83004000  0.26769000  1.0
  N  N85  1  0.84909000  0.33004000  0.23231000  1.0
  N  N86  1  0.34909000  0.16996000  0.73231000  1.0
  N  N87  1  0.15091000  0.66996000  0.76769000  1.0
  N  N88  1  0.89474000  0.83852000  0.34658000  1.0
  N  N89  1  0.60526000  0.33852000  0.15342000  1.0
  N  N90  1  0.10526000  0.16148000  0.65342000  1.0
  N  N91  1  0.39474000  0.66148000  0.84658000  1.0
  N  N92  1  0.17904000  0.49655000  0.26294000  1.0
  N  N93  1  0.32096000  0.99655000  0.23706000  1.0
  N  N94  1  0.82096000  0.50345000  0.73706000  1.0
  N  N95  1  0.67904000  0.00345000  0.76294000  1.0
  O  O96  1  0.49474000  0.81999000  0.43009000  1.0
  O  O97  1  0.00526000  0.31999000  0.06991000  1.0
  O  O98  1  0.50526000  0.18001000  0.56990000  1.0
  O  O99  1  0.99475000  0.68001000  0.93010000  1.0
  O  O100  1  0.44487000  0.68650000  0.54293000  1.0
  O  O101  1  0.05512000  0.18650000  0.95707000  1.0
  O  O102  1  0.55512000  0.31350000  0.45707000  1.0
  O  O103  1  0.94488000  0.81350000  0.04293000  1.0
  O  O104  1  0.29935000  0.47798000  0.53628000  1.0
  O  O105  1  0.20065000  0.97798000  0.96372000  1.0
  O  O106  1  0.70064000  0.52202000  0.46372000  1.0
  O  O107  1  0.79935000  0.02202000  0.03628000  1.0
  O  O108  1  0.14535000  0.34606000  0.41627000  1.0
  O  O109  1  0.35465000  0.84606000  0.08373000  1.0
  O  O110  1  0.85465000  0.65394000  0.58373000  1.0
  O  O111  1  0.64535000  0.15394000  0.91627000  1.0
