# generated using pymatgen
data_NdH8C12N2O7
_symmetry_space_group_name_H-M   'P 1'
_cell_length_a   8.97713000
_cell_length_b   11.92320000
_cell_length_c   13.89330000
_cell_angle_alpha   90.00000000
_cell_angle_beta   90.00000000
_cell_angle_gamma   90.77220000
_symmetry_Int_Tables_number   1
_chemical_formula_structural   NdH8C12N2O7
_chemical_formula_sum   'Nd4 H32 C48 N8 O28'
_cell_volume   1486.94982032
_cell_formula_units_Z   4
loop_
 _symmetry_equiv_pos_site_id
 _symmetry_equiv_pos_as_xyz
  1  'x, y, z'
loop_
 _atom_site_type_symbol
 _atom_site_label
 _atom_site_symmetry_multiplicity
 _atom_site_fract_x
 _atom_site_fract_y
 _atom_site_fract_z
 _atom_site_occupancy
  Nd  Nd0  1  0.73123000  0.93716000  0.86246000  1.0
  Nd  Nd1  1  0.26879000  0.56284000  0.36246000  1.0
  Nd  Nd2  1  0.26875000  0.06283000  0.13753000  1.0
  Nd  Nd3  1  0.73127000  0.43717000  0.63753000  1.0
  H  H4  1  0.63160000  0.66286000  0.02686000  1.0
  H  H5  1  0.36841000  0.83712000  0.52686000  1.0
  H  H6  1  0.36840000  0.33714000  0.97314000  1.0
  H  H7  1  0.63159000  0.16286000  0.47314000  1.0
  H  H8  1  0.64694000  0.50287000  0.32755000  1.0
  H  H9  1  0.35306000  0.99712000  0.82755000  1.0
  H  H10  1  0.35308000  0.49714000  0.67245000  1.0
  H  H11  1  0.64690000  0.00285000  0.17245000  1.0
  H  H12  1  0.80155000  0.33357000  0.34455000  1.0
  H  H13  1  0.19846000  0.16643000  0.84455000  1.0
  H  H14  1  0.19847000  0.66645000  0.65545000  1.0
  H  H15  1  0.80153000  0.83355000  0.15546000  1.0
  H  H16  1  0.88594000  0.22961000  0.19854000  1.0
  H  H17  1  0.11406000  0.27038000  0.69854000  1.0
  H  H18  1  0.11406000  0.77039000  0.80147000  1.0
  H  H19  1  0.88595000  0.72962000  0.30148000  1.0
  H  H20  1  0.81405000  0.29633000  0.03599000  1.0
  H  H21  1  0.18595000  0.20366000  0.53599000  1.0
  H  H22  1  0.18595000  0.70367000  0.96402000  1.0
  H  H23  1  0.81404000  0.79634000  0.46403000  1.0
  H  H24  1  0.65839000  0.46535000  0.01814000  1.0
  H  H25  1  0.34161000  0.03464000  0.51814000  1.0
  H  H26  1  0.34161000  0.53465000  0.98186000  1.0
  H  H27  1  0.65836000  0.96535000  0.48186000  1.0
  H  H28  1  0.93766000  0.87524000  0.68005000  1.0
  H  H29  1  0.06234000  0.62477000  0.18006000  1.0
  H  H30  1  0.06235000  0.12477000  0.31995000  1.0
  H  H31  1  0.93765000  0.37524000  0.81995000  1.0
  H  H32  1  0.97157000  0.00046000  0.70874000  1.0
  H  H33  1  0.02843000  0.49956000  0.20875000  1.0
  H  H34  1  0.02844000  0.99955000  0.29126000  1.0
  H  H35  1  0.97157000  0.50045000  0.79126000  1.0
  C  C36  1  0.68149000  0.45658000  0.26373000  1.0
  C  C37  1  0.31852000  0.04341000  0.76373000  1.0
  C  C38  1  0.31854000  0.54343000  0.73628000  1.0
  C  C39  1  0.68145000  0.95657000  0.23628000  1.0
  C  C40  1  0.76883000  0.36137000  0.27298000  1.0
  C  C41  1  0.23117000  0.13862000  0.77298000  1.0
  C  C42  1  0.23119000  0.63864000  0.72703000  1.0
  C  C43  1  0.76881000  0.86136000  0.22704000  1.0
  C  C44  1  0.81731000  0.30385000  0.19124000  1.0
  C  C45  1  0.18270000  0.19614000  0.69124000  1.0
  C  C46  1  0.18269000  0.69615000  0.80876000  1.0
  C  C47  1  0.81730000  0.80385000  0.30877000  1.0
  C  C48  1  0.77791000  0.34203000  0.09966000  1.0
  C  C49  1  0.22209000  0.15796000  0.59966000  1.0
  C  C50  1  0.22209000  0.65798000  0.90034000  1.0
  C  C51  1  0.77790000  0.84203000  0.40035000  1.0
  C  C52  1  0.69096000  0.43738000  0.08986000  1.0
  C  C53  1  0.30903000  0.06261000  0.58986000  1.0
  C  C54  1  0.30904000  0.56262000  0.91014000  1.0
  C  C55  1  0.69094000  0.93738000  0.41015000  1.0
  C  C56  1  0.64153000  0.49542000  0.17189000  1.0
  C  C57  1  0.35847000  0.00457000  0.67189000  1.0
  C  C58  1  0.35847000  0.50459000  0.82812000  1.0
  C  C59  1  0.64151000  0.99541000  0.32812000  1.0
  C  C60  1  0.55354000  0.59691000  0.16218000  1.0
  C  C61  1  0.44645000  0.90308000  0.66218000  1.0
  C  C62  1  0.44645000  0.40310000  0.83782000  1.0
  C  C63  1  0.55353000  0.09690000  0.33782000  1.0
  C  C64  1  0.46583000  0.84606000  0.02470000  1.0
  C  C65  1  0.53419000  0.65394000  0.52471000  1.0
  C  C66  1  0.53416000  0.15394000  0.97529000  1.0
  C  C67  1  0.46584000  0.34606000  0.47529000  1.0
  C  C68  1  0.47408000  0.75897000  0.10058000  1.0
  C  C69  1  0.52593000  0.74102000  0.60058000  1.0
  C  C70  1  0.52591000  0.24102000  0.89941000  1.0
  C  C71  1  0.47408000  0.25898000  0.39941000  1.0
  C  C72  1  0.40846000  0.73927000  0.18998000  1.0
  C  C73  1  0.59155000  0.76073000  0.68998000  1.0
  C  C74  1  0.59154000  0.26074000  0.81001000  1.0
  C  C75  1  0.40845000  0.23926000  0.31002000  1.0
  C  C76  1  0.30814000  0.80784000  0.25123000  1.0
  C  C77  1  0.69186000  0.69216000  0.75123000  1.0
  C  C78  1  0.69185000  0.19216000  0.74876000  1.0
  C  C79  1  0.30815000  0.30784000  0.24876000  1.0
  C  C80  1  0.98813000  0.94318000  0.02733000  1.0
  C  C81  1  0.01187000  0.55683000  0.52732000  1.0
  C  C82  1  0.01184000  0.05682000  0.97267000  1.0
  C  C83  1  0.98817000  0.44319000  0.47268000  1.0
  N  N84  1  0.45610000  0.63806000  0.22592000  1.0
  N  N85  1  0.54390000  0.86194000  0.72592000  1.0
  N  N86  1  0.54390000  0.36195000  0.77408000  1.0
  N  N87  1  0.45609000  0.13805000  0.27408000  1.0
  N  N88  1  0.56405000  0.66800000  0.08557000  1.0
  N  N89  1  0.43596000  0.83199000  0.58558000  1.0
  N  N90  1  0.43594000  0.33200000  0.91442000  1.0
  N  N91  1  0.56404000  0.16800000  0.41442000  1.0
  O  O92  1  0.55250000  0.83057000  0.95344000  1.0
  O  O93  1  0.44752000  0.66943000  0.45345000  1.0
  O  O94  1  0.44750000  0.16943000  0.04655000  1.0
  O  O95  1  0.55251000  0.33058000  0.54654000  1.0
  O  O96  1  0.37587000  0.92605000  0.03284000  1.0
  O  O97  1  0.62415000  0.57395000  0.53284000  1.0
  O  O98  1  0.62413000  0.07394000  0.96715000  1.0
  O  O99  1  0.37587000  0.42606000  0.46715000  1.0
  O  O100  1  0.31232000  0.91361000  0.24312000  1.0
  O  O101  1  0.68769000  0.58639000  0.74311000  1.0
  O  O102  1  0.68767000  0.08640000  0.75688000  1.0
  O  O103  1  0.31233000  0.41360000  0.25688000  1.0
  O  O104  1  0.22799000  0.75553000  0.31214000  1.0
  O  O105  1  0.77202000  0.74447000  0.81215000  1.0
  O  O106  1  0.77201000  0.24448000  0.68785000  1.0
  O  O107  1  0.22799000  0.25552000  0.18784000  1.0
  O  O108  1  0.94279000  0.92696000  0.73411000  1.0
  O  O109  1  0.05720000  0.57305000  0.23412000  1.0
  O  O110  1  0.05720000  0.07305000  0.26588000  1.0
  O  O111  1  0.94281000  0.42696000  0.76589000  1.0
  O  O112  1  0.88882000  0.87674000  0.99434000  1.0
  O  O113  1  0.11120000  0.62327000  0.49435000  1.0
  O  O114  1  0.11115000  0.12326000  0.00565000  1.0
  O  O115  1  0.88887000  0.37675000  0.50565000  1.0
  O  O116  1  0.06854000  0.92588000  0.10017000  1.0
  O  O117  1  0.93148000  0.57412000  0.60016000  1.0
  O  O118  1  0.93143000  0.07411000  0.89982000  1.0
  O  O119  1  0.06857000  0.42589000  0.39982000  1.0
