# generated using pymatgen
data_CoH16C22(NO3)2
_symmetry_space_group_name_H-M   'P 1'
_cell_length_a   7.12514000
_cell_length_b   9.61540000
_cell_length_c   12.69790000
_cell_angle_alpha   87.97890000
_cell_angle_beta   85.71660000
_cell_angle_gamma   86.51140000
_symmetry_Int_Tables_number   1
_chemical_formula_structural   CoH16C22(NO3)2
_chemical_formula_sum   'Co2 H32 C44 N4 O12'
_cell_volume   865.49665855
_cell_formula_units_Z   2
loop_
 _symmetry_equiv_pos_site_id
 _symmetry_equiv_pos_as_xyz
  1  'x, y, z'
loop_
 _atom_site_type_symbol
 _atom_site_label
 _atom_site_symmetry_multiplicity
 _atom_site_fract_x
 _atom_site_fract_y
 _atom_site_fract_z
 _atom_site_occupancy
  Co  Co0  1  0.00000000  0.50000000  0.50000000  1.0
  Co  Co1  1  0.50000000  0.00000000  0.50000000  1.0
  H  H2  1  0.90290000  0.97954000  0.39027000  1.0
  H  H3  1  0.59071000  0.47993000  0.60690000  1.0
  H  H4  1  0.09710000  0.02046000  0.60973000  1.0
  H  H5  1  0.40929000  0.52007000  0.39310000  1.0
  H  H6  1  0.23019000  0.58082000  0.97857000  1.0
  H  H7  1  0.26260000  0.07986000  0.02395000  1.0
  H  H8  1  0.76981000  0.41918000  0.02143000  1.0
  H  H9  1  0.73742000  0.92014000  0.97605000  1.0
  H  H10  1  0.14838000  0.37216000  0.08820000  1.0
  H  H11  1  0.33509000  0.87271000  0.91459000  1.0
  H  H12  1  0.85161000  0.62784000  0.91180000  1.0
  H  H13  1  0.66494000  0.12729000  0.08542000  1.0
  H  H14  1  0.02983000  0.39470000  0.27756000  1.0
  H  H15  1  0.45788000  0.89967000  0.72574000  1.0
  H  H16  1  0.97016000  0.60531000  0.72243000  1.0
  H  H17  1  0.54213000  0.10033000  0.27427000  1.0
  H  H18  1  0.90156000  0.13707000  0.26493000  1.0
  H  H19  1  0.59299000  0.63181000  0.73172000  1.0
  H  H20  1  0.09844000  0.86293000  0.73507000  1.0
  H  H21  1  0.40700000  0.36820000  0.26829000  1.0
  H  H22  1  0.07721000  0.19174000  0.16588000  1.0
  H  H23  1  0.42330000  0.69057000  0.83419000  1.0
  H  H24  1  0.92279000  0.80826000  0.83412000  1.0
  H  H25  1  0.57668000  0.30943000  0.16581000  1.0
  H  H26  1  0.14489000  0.13227000  0.29457000  1.0
  H  H27  1  0.34720000  0.64914000  0.70709000  1.0
  H  H28  1  0.85511000  0.86773000  0.70543000  1.0
  H  H29  1  0.65280000  0.35086000  0.29291000  1.0
  H  H30  1  0.17359000  0.81768000  0.05518000  1.0
  H  H31  1  0.32378000  0.31742000  0.94682000  1.0
  H  H32  1  0.82641000  0.18232000  0.94482000  1.0
  H  H33  1  0.67623000  0.68259000  0.05317000  1.0
  C  C34  1  0.14631000  0.72354000  0.10246000  1.0
  C  C35  1  0.35155000  0.22485000  0.89997000  1.0
  C  C36  1  0.85369000  0.27647000  0.89754000  1.0
  C  C37  1  0.64845000  0.77515000  0.10003000  1.0
  C  C38  1  0.92171000  0.75740000  0.41228000  1.0
  C  C39  1  0.57934000  0.25943000  0.58926000  1.0
  C  C40  1  0.07829000  0.24259000  0.58772000  1.0
  C  C41  1  0.42065000  0.74058000  0.41074000  1.0
  C  C42  1  0.95071000  0.88134000  0.35429000  1.0
  C  C43  1  0.54712000  0.38296000  0.64505000  1.0
  C  C44  1  0.04929000  0.11867000  0.64571000  1.0
  C  C45  1  0.45287000  0.61704000  0.35495000  1.0
  C  C46  1  0.03677000  0.87294000  0.25289000  1.0
  C  C47  1  0.46374000  0.37545000  0.74730000  1.0
  C  C48  1  0.96324000  0.12706000  0.74711000  1.0
  C  C49  1  0.53625000  0.62455000  0.25269000  1.0
  C  C50  1  0.07600000  0.73876000  0.20874000  1.0
  C  C51  1  0.42432000  0.24198000  0.79391000  1.0
  C  C52  1  0.92399000  0.26124000  0.79126000  1.0
  C  C53  1  0.57568000  0.75802000  0.20609000  1.0
  C  C54  1  0.17582000  0.59317000  0.06044000  1.0
  C  C55  1  0.31816000  0.09387000  0.94224000  1.0
  C  C56  1  0.82418000  0.40683000  0.93956000  1.0
  C  C57  1  0.68185000  0.90613000  0.05776000  1.0
  C  C58  1  0.13126000  0.47422000  0.12353000  1.0
  C  C59  1  0.35853000  0.97584000  0.87956000  1.0
  C  C60  1  0.86874000  0.52579000  0.87647000  1.0
  C  C61  1  0.64148000  0.02416000  0.12044000  1.0
  C  C62  1  0.06561000  0.48509000  0.22806000  1.0
  C  C63  1  0.42748000  0.98912000  0.77563000  1.0
  C  C64  1  0.93437000  0.51491000  0.77193000  1.0
  C  C65  1  0.57252000  0.01087000  0.22437000  1.0
  C  C66  1  0.04031000  0.61745000  0.27408000  1.0
  C  C67  1  0.46057000  0.12270000  0.72993000  1.0
  C  C68  1  0.95968000  0.38256000  0.72592000  1.0
  C  C69  1  0.53943000  0.87731000  0.27007000  1.0
  C  C70  1  0.04809000  0.11957000  0.23270000  1.0
  C  C71  1  0.44853000  0.62268000  0.76665000  1.0
  C  C72  1  0.95191000  0.88044000  0.76730000  1.0
  C  C73  1  0.55146000  0.37731000  0.23335000  1.0
  C  C74  1  0.81781000  0.75491000  0.51818000  1.0
  C  C75  1  0.68224000  0.25837000  0.48112000  1.0
  C  C76  1  0.18219000  0.24510000  0.48182000  1.0
  C  C77  1  0.31775000  0.74162000  0.51888000  1.0
  N  N78  1  0.97717000  0.62891000  0.37866000  1.0
  N  N79  1  0.52869000  0.13397000  0.62647000  1.0
  N  N80  1  0.02283000  0.37109000  0.62134000  1.0
  N  N81  1  0.47130000  0.86603000  0.37353000  1.0
  O  O82  1  0.08085000  0.98286000  0.18949000  1.0
  O  O83  1  0.42075000  0.48432000  0.81006000  1.0
  O  O84  1  0.91915000  0.01715000  0.81051000  1.0
  O  O85  1  0.57925000  0.51569000  0.18994000  1.0
  O  O86  1  0.82588000  0.63487000  0.56752000  1.0
  O  O87  1  0.67880000  0.14450000  0.43109000  1.0
  O  O88  1  0.17412000  0.36512000  0.43248000  1.0
  O  O89  1  0.32120000  0.85550000  0.56891000  1.0
  O  O90  1  0.72470000  0.86092000  0.55402000  1.0
  O  O91  1  0.76705000  0.36348000  0.44586000  1.0
  O  O92  1  0.27530000  0.13907000  0.44598000  1.0
  O  O93  1  0.23295000  0.63652000  0.55413000  1.0
