# generated using pymatgen
data_Zn2H28C40(N2O3)3
_symmetry_space_group_name_H-M   'P 1'
_cell_length_a   9.46916000
_cell_length_b   19.60180000
_cell_length_c   19.60420000
_cell_angle_alpha   117.45800000
_cell_angle_beta   99.28090000
_cell_angle_gamma   99.27300000
_symmetry_Int_Tables_number   1
_chemical_formula_structural   Zn2H28C40(N2O3)3
_chemical_formula_sum   'Zn6 H84 C120 N18 O27'
_cell_volume   3069.21939303
_cell_formula_units_Z   3
loop_
 _symmetry_equiv_pos_site_id
 _symmetry_equiv_pos_as_xyz
  1  'x, y, z'
loop_
 _atom_site_type_symbol
 _atom_site_label
 _atom_site_symmetry_multiplicity
 _atom_site_fract_x
 _atom_site_fract_y
 _atom_site_fract_z
 _atom_site_occupancy
  Zn  Zn0  1  0.18523000  0.46422000  0.62210000  1.0
  Zn  Zn1  1  0.72135000  0.15794000  0.53583000  1.0
  Zn  Zn2  1  0.56363000  0.37786000  0.84211000  1.0
  Zn  Zn3  1  0.63765000  0.13514000  0.26530000  1.0
  Zn  Zn4  1  0.50328000  0.13018000  0.86504000  1.0
  Zn  Zn5  1  0.37255000  0.73481000  0.86981000  1.0
  H  H6  1  0.16518000  0.04029000  0.26198000  1.0
  H  H7  1  0.12519000  0.22143000  0.95970000  1.0
  H  H8  1  0.90300000  0.73827000  0.77834000  1.0
  H  H9  1  0.33593000  0.29222000  0.42483000  1.0
  H  H10  1  0.04441000  0.13263000  0.70785000  1.0
  H  H11  1  0.91126000  0.57538000  0.86733000  1.0
  H  H12  1  0.92802000  0.04272000  0.30348000  1.0
  H  H13  1  0.88568000  0.26051000  0.95711000  1.0
  H  H14  1  0.62434000  0.69657000  0.73926000  1.0
  H  H15  1  0.51246000  0.06052000  0.37015000  1.0
  H  H16  1  0.45286000  0.30963000  0.93944000  1.0
  H  H17  1  0.14216000  0.62973000  0.69032000  1.0
  H  H18  1  0.69723000  0.01023000  0.54344000  1.0
  H  H19  1  0.68706000  0.53350000  0.99004000  1.0
  H  H20  1  0.15292000  0.45647000  0.46662000  1.0
  H  H21  1  0.09766000  0.26122000  0.21322000  1.0
  H  H22  1  0.83708000  0.95209000  0.73903000  1.0
  H  H23  1  0.88468000  0.78706000  0.04795000  1.0
  H  H24  1  0.77091000  0.39572000  0.26720000  1.0
  H  H25  1  0.37586000  0.87156000  0.60432000  1.0
  H  H26  1  0.50414000  0.73282000  0.12845000  1.0
  H  H27  1  0.58759000  0.86542000  0.45381000  1.0
  H  H28  1  0.72205000  0.58851000  0.13480000  1.0
  H  H29  1  0.13307000  0.54622000  0.41157000  1.0
  H  H30  1  0.40063000  0.91954000  0.27314000  1.0
  H  H31  1  0.48127000  0.35350000  0.08032000  1.0
  H  H32  1  0.12742000  0.72684000  0.64650000  1.0
  H  H33  1  0.64107000  0.29609000  0.29768000  1.0
  H  H34  1  0.34557000  0.00153000  0.70402000  1.0
  H  H35  1  0.34364000  0.70234000  0.99841000  1.0
  H  H36  1  0.94968000  0.16586000  0.24162000  1.0
  H  H37  1  0.78440000  0.07576000  0.83439000  1.0
  H  H38  1  0.70813000  0.75870000  0.92425000  1.0
  H  H39  1  0.23435000  0.54132000  0.80819000  1.0
  H  H40  1  0.69340000  0.26704000  0.45898000  1.0
  H  H41  1  0.42641000  0.19175000  0.73290000  1.0
  H  H42  1  0.88469000  0.34624000  0.75960000  1.0
  H  H43  1  0.53790000  0.41316000  0.65371000  1.0
  H  H44  1  0.12508000  0.24047000  0.58672000  1.0
  H  H45  1  0.90452000  0.34260000  0.61747000  1.0
  H  H46  1  0.56156000  0.27467000  0.65730000  1.0
  H  H47  1  0.28712000  0.38253000  0.72530000  1.0
  H  H48  1  0.89144000  0.41214000  0.88324000  1.0
  H  H49  1  0.47946000  0.47127000  0.58810000  1.0
  H  H50  1  0.00801000  0.11665000  0.52870000  1.0
  H  H51  1  0.33835000  0.53547000  0.91490000  1.0
  H  H52  1  0.80232000  0.37926000  0.46446000  1.0
  H  H53  1  0.42325000  0.08512000  0.62058000  1.0
  H  H54  1  0.39655000  0.57678000  0.05834000  1.0
  H  H55  1  0.81903000  0.48127000  0.42304000  1.0
  H  H56  1  0.33793000  0.94166000  0.51860000  1.0
  H  H57  1  0.95137000  0.45152000  0.02586000  1.0
  H  H58  1  0.49996000  0.57447000  0.54866000  1.0
  H  H59  1  0.92537000  0.97397000  0.42550000  1.0
  H  H60  1  0.09114000  0.30076000  0.12026000  1.0
  H  H61  1  0.79135000  0.81946000  0.69909000  1.0
  H  H62  1  0.97163000  0.87978000  0.18061000  1.0
  H  H63  1  0.20635000  0.39039000  0.07592000  1.0
  H  H64  1  0.81623000  0.68539000  0.60943000  1.0
  H  H65  1  0.13076000  0.92407000  0.31467000  1.0
  H  H66  1  0.07073000  0.58292000  0.24848000  1.0
  H  H67  1  0.48766000  0.66563000  0.41710000  1.0
  H  H68  1  0.82188000  0.75141000  0.33424000  1.0
  H  H69  1  0.95559000  0.49411000  0.29278000  1.0
  H  H70  1  0.46199000  0.79887000  0.50598000  1.0
  H  H71  1  0.66287000  0.70713000  0.20102000  1.0
  H  H72  1  0.41961000  0.60698000  0.27240000  1.0
  H  H73  1  0.81229000  0.66529000  0.39304000  1.0
  H  H74  1  0.14704000  0.72753000  0.33463000  1.0
  H  H75  1  0.15186000  0.66569000  0.11823000  1.0
  H  H76  1  0.48618000  0.45217000  0.33413000  1.0
  H  H77  1  0.03368000  0.88177000  0.54748000  1.0
  H  H78  1  0.26299000  0.80797000  0.21297000  1.0
  H  H79  1  0.45504000  0.40472000  0.19188000  1.0
  H  H80  1  0.05006000  0.78708000  0.59509000  1.0
  H  H81  1  0.53939000  0.74961000  0.36538000  1.0
  H  H82  1  0.78953000  0.61569000  0.25046000  1.0
  H  H83  1  0.17386000  0.63460000  0.38434000  1.0
  H  H84  1  0.57261000  0.14160000  0.12768000  1.0
  H  H85  1  0.43156000  0.98606000  0.85851000  1.0
  H  H86  1  0.44534000  0.87249000  0.01389000  1.0
  H  H87  1  0.49609000  0.06027000  0.12158000  1.0
  H  H88  1  0.43623000  0.06126000  0.93981000  1.0
  H  H89  1  0.37497000  0.87852000  0.93860000  1.0
  C  C90  1  0.40802000  0.16535000  0.31807000  1.0
  C  C91  1  0.24330000  0.15264000  0.83469000  1.0
  C  C92  1  0.09001000  0.68215000  0.84732000  1.0
  C  C93  1  0.86736000  0.16570000  0.42029000  1.0
  C  C94  1  0.70222000  0.25461000  0.83425000  1.0
  C  C95  1  0.44700000  0.57971000  0.74536000  1.0
  C  C96  1  0.09904000  0.31707000  0.48559000  1.0
  C  C97  1  0.78286000  0.16864000  0.68287000  1.0
  C  C98  1  0.61362000  0.51439000  0.83139000  1.0
  C  C99  1  0.26510000  0.16591000  0.34143000  1.0
  C  C100  1  0.09986000  0.17549000  0.83415000  1.0
  C  C101  1  0.92367000  0.65878000  0.82445000  1.0
  C  C102  1  0.15004000  0.09558000  0.30739000  1.0
  C  C103  1  0.05499000  0.21166000  0.90440000  1.0
  C  C104  1  0.84258000  0.69279000  0.78819000  1.0
  C  C105  1  0.24705000  0.23752000  0.39916000  1.0
  C  C106  1  0.01028000  0.16169000  0.76254000  1.0
  C  C107  1  0.84794000  0.60098000  0.83828000  1.0
  C  C108  1  0.11723000  0.23951000  0.42435000  1.0
  C  C109  1  0.87850000  0.18493000  0.76047000  1.0
  C  C110  1  0.69291000  0.57565000  0.81504000  1.0
  C  C111  1  0.00252000  0.16857000  0.39009000  1.0
  C  C112  1  0.83462000  0.22156000  0.83136000  1.0
  C  C113  1  0.61239000  0.60992000  0.77841000  1.0
  C  C114  1  0.01881000  0.09702000  0.33097000  1.0
  C  C115  1  0.92232000  0.23380000  0.90288000  1.0
  C  C116  1  0.68774000  0.66911000  0.76604000  1.0
  C  C117  1  0.52553000  0.01576000  0.38719000  1.0
  C  C118  1  0.51039000  0.37146000  0.98426000  1.0
  C  C119  1  0.13808000  0.61274000  0.62853000  1.0
  C  C120  1  0.62912000  0.98696000  0.48296000  1.0
  C  C121  1  0.64236000  0.49619000  0.01323000  1.0
  C  C122  1  0.14545000  0.51697000  0.50387000  1.0
  C  C123  1  0.99662000  0.27178000  0.23116000  1.0
  C  C124  1  0.72547000  0.95943000  0.72841000  1.0
  C  C125  1  0.76571000  0.76910000  0.04059000  1.0
  C  C126  1  0.94633000  0.33721000  0.23643000  1.0
  C  C127  1  0.60986000  0.89930000  0.66286000  1.0
  C  C128  1  0.71029000  0.76368000  0.10070000  1.0
  C  C129  1  0.81805000  0.34719000  0.26306000  1.0
  C  C130  1  0.47158000  0.91594000  0.65287000  1.0
  C  C131  1  0.55537000  0.73701000  0.08408000  1.0
  C  C132  1  0.56748000  0.90575000  0.43177000  1.0
  C  C133  1  0.66174000  0.52612000  0.09440000  1.0
  C  C134  1  0.13511000  0.56822000  0.47394000  1.0
  C  C135  1  0.48017000  0.87700000  0.35365000  1.0
  C  C136  1  0.60308000  0.47665000  0.12302000  1.0
  C  C137  1  0.12621000  0.64635000  0.52340000  1.0
  C  C138  1  0.46170000  0.93536000  0.33271000  1.0
  C  C139  1  0.52657000  0.39732000  0.06460000  1.0
  C  C140  1  0.12886000  0.66728000  0.60271000  1.0
  C  C141  1  0.74340000  0.29178000  0.27919000  1.0
  C  C142  1  0.45229000  0.98743000  0.70835000  1.0
  C  C143  1  0.46449000  0.72089000  0.01256000  1.0
  C  C144  1  0.91517000  0.21834000  0.24758000  1.0
  C  C145  1  0.69748000  0.02928000  0.78186000  1.0
  C  C146  1  0.66775000  0.75264000  0.97073000  1.0
  C  C147  1  0.14353000  0.48759000  0.77502000  1.0
  C  C148  1  0.65595000  0.28748000  0.51258000  1.0
  C  C149  1  0.36862000  0.22494000  0.71246000  1.0
  C  C150  1  0.95896000  0.38511000  0.74772000  1.0
  C  C151  1  0.57338000  0.36246000  0.61487000  1.0
  C  C152  1  0.21124000  0.25232000  0.63744000  1.0
  C  C153  1  0.96799000  0.38449000  0.67854000  1.0
  C  C154  1  0.58313000  0.29389000  0.61545000  1.0
  C  C155  1  0.28951000  0.32147000  0.70607000  1.0
  C  C156  1  0.00184000  0.44844000  0.92155000  1.0
  C  C157  1  0.55339000  0.47322000  0.55173000  1.0
  C  C158  1  0.08006000  0.07835000  0.52674000  1.0
  C  C159  1  0.10900000  0.47335000  0.89063000  1.0
  C  C160  1  0.63548000  0.41731000  0.52680000  1.0
  C  C161  1  0.21817000  0.10934000  0.58260000  1.0
  C  C162  1  0.25211000  0.51938000  0.93960000  1.0
  C  C163  1  0.73226000  0.42009000  0.48061000  1.0
  C  C164  1  0.31229000  0.06040000  0.57977000  1.0
  C  C165  1  0.28525000  0.54143000  0.01985000  1.0
  C  C166  1  0.74323000  0.47823000  0.45847000  1.0
  C  C167  1  0.26512000  0.98011000  0.52166000  1.0
  C  C168  1  0.17742000  0.51805000  0.05180000  1.0
  C  C169  1  0.65903000  0.53367000  0.48194000  1.0
  C  C170  1  0.12540000  0.94812000  0.46625000  1.0
  C  C171  1  0.03581000  0.47049000  0.00178000  1.0
  C  C172  1  0.56533000  0.53140000  0.52966000  1.0
  C  C173  1  0.03388000  0.99810000  0.46856000  1.0
  C  C174  1  0.01951000  0.39123000  0.21211000  1.0
  C  C175  1  0.62905000  0.82098000  0.60877000  1.0
  C  C176  1  0.80782000  0.78789000  0.17901000  1.0
  C  C177  1  0.09048000  0.36337000  0.15040000  1.0
  C  C178  1  0.72791000  0.78704000  0.63651000  1.0
  C  C179  1  0.94062000  0.84960000  0.21300000  1.0
  C  C180  1  0.15491000  0.41334000  0.12504000  1.0
  C  C181  1  0.74193000  0.71162000  0.58652000  1.0
  C  C182  1  0.03017000  0.87493000  0.28837000  1.0
  C  C183  1  0.15120000  0.49360000  0.16139000  1.0
  C  C184  1  0.65761000  0.66771000  0.50631000  1.0
  C  C185  1  0.98977000  0.83851000  0.33217000  1.0
  C  C186  1  0.07906000  0.52167000  0.22223000  1.0
  C  C187  1  0.55750000  0.70060000  0.47830000  1.0
  C  C188  1  0.85672000  0.77762000  0.29926000  1.0
  C  C189  1  0.01409000  0.47121000  0.24679000  1.0
  C  C190  1  0.54339000  0.77572000  0.52882000  1.0
  C  C191  1  0.76743000  0.75312000  0.22419000  1.0
  C  C192  1  0.38530000  0.65167000  0.26023000  1.0
  C  C193  1  0.73329000  0.60843000  0.34832000  1.0
  C  C194  1  0.12482000  0.73968000  0.39146000  1.0
  C  C195  1  0.27688000  0.62629000  0.18906000  1.0
  C  C196  1  0.65024000  0.56257000  0.37363000  1.0
  C  C197  1  0.08755000  0.81084000  0.43722000  1.0
  C  C198  1  0.23630000  0.68443000  0.17288000  1.0
  C  C199  1  0.55170000  0.48818000  0.31543000  1.0
  C  C200  1  0.06334000  0.82710000  0.51158000  1.0
  C  C201  1  0.30158000  0.76498000  0.22638000  1.0
  C  C202  1  0.53644000  0.46118000  0.23490000  1.0
  C  C203  1  0.07512000  0.77364000  0.53867000  1.0
  C  C204  1  0.41166000  0.79145000  0.29750000  1.0
  C  C205  1  0.61992000  0.50597000  0.20853000  1.0
  C  C206  1  0.11392000  0.70249000  0.49401000  1.0
  C  C207  1  0.45175000  0.73242000  0.31253000  1.0
  C  C208  1  0.71902000  0.58003000  0.26761000  1.0
  C  C209  1  0.13897000  0.68742000  0.41994000  1.0
  N  N210  1  0.78937000  0.22722000  0.27031000  1.0
  N  N211  1  0.56277000  0.04312000  0.77294000  1.0
  N  N212  1  0.51921000  0.72982000  0.95689000  1.0
  N  N213  1  0.60893000  0.04179000  0.46160000  1.0
  N  N214  1  0.56766000  0.41994000  0.95833000  1.0
  N  N215  1  0.14685000  0.53832000  0.58008000  1.0
  N  N216  1  0.08305000  0.44869000  0.69628000  1.0
  N  N217  1  0.63429000  0.24756000  0.55138000  1.0
  N  N218  1  0.38695000  0.30368000  0.75242000  1.0
  N  N219  1  0.21212000  0.54450000  0.13479000  1.0
  N  N220  1  0.66720000  0.59013000  0.45540000  1.0
  N  N221  1  0.07711000  0.86512000  0.40972000  1.0
  N  N222  1  0.07166000  0.45042000  0.80839000  1.0
  N  N223  1  0.62107000  0.35799000  0.54972000  1.0
  N  N224  1  0.26324000  0.19160000  0.64192000  1.0
  N  N225  1  0.59005000  0.98295000  0.13442000  1.0
  N  N226  1  0.60768000  0.15156000  0.01724000  1.0
  N  N227  1  0.45609000  0.86558000  0.84844000  1.0
  O  O228  1  0.73837000  0.14614000  0.37606000  1.0
  O  O229  1  0.59295000  0.22989000  0.85387000  1.0
  O  O230  1  0.36225000  0.62392000  0.77005000  1.0
  O  O231  1  0.89209000  0.17859000  0.49207000  1.0
  O  O232  1  0.71386000  0.31352000  0.82141000  1.0
  O  O233  1  0.39983000  0.50795000  0.68642000  1.0
  O  O234  1  0.43580000  0.09714000  0.28112000  1.0
  O  O235  1  0.33947000  0.18399000  0.90287000  1.0
  O  O236  1  0.15492000  0.71900000  0.81602000  1.0
  O  O237  1  0.49701000  0.23026000  0.33621000  1.0
  O  O238  1  0.26718000  0.10579000  0.76978000  1.0
  O  O239  1  0.16066000  0.66403000  0.89416000  1.0
  O  O240  1  0.22118000  0.37033000  0.53509000  1.0
  O  O241  1  0.85181000  0.16492000  0.62967000  1.0
  O  O242  1  0.68626000  0.46488000  0.83507000  1.0
  O  O243  1  0.97211000  0.32752000  0.48679000  1.0
  O  O244  1  0.64542000  0.15933000  0.67232000  1.0
  O  O245  1  0.48556000  0.51321000  0.84074000  1.0
  O  O246  1  0.68692000  0.02639000  0.20309000  1.0
  O  O247  1  0.66136000  0.17667000  0.97379000  1.0
  O  O248  1  0.48433000  0.79693000  0.82323000  1.0
  O  O249  1  0.59596000  0.91240000  0.09639000  1.0
  O  O250  1  0.68396000  0.18416000  0.08783000  1.0
  O  O251  1  0.49994000  0.90362000  0.81593000  1.0
  O  O252  1  0.50800000  0.11834000  0.15153000  1.0
  O  O253  1  0.39025000  0.03319000  0.88174000  1.0
  O  O254  1  0.35693000  0.84858000  0.96672000  1.0
