# generated using pymatgen
data_Cu2H8C16N4O9
_symmetry_space_group_name_H-M   'P 1'
_cell_length_a   8.52922000
_cell_length_b   9.15904000
_cell_length_c   14.75304593
_cell_angle_alpha   108.04554138
_cell_angle_beta   103.30360907
_cell_angle_gamma   90.09360000
_symmetry_Int_Tables_number   1
_chemical_formula_structural   Cu2H8C16N4O9
_chemical_formula_sum   'Cu4 H16 C32 N8 O18'
_cell_volume   1063.08630369
_cell_formula_units_Z   2
loop_
 _symmetry_equiv_pos_site_id
 _symmetry_equiv_pos_as_xyz
  1  'x, y, z'
loop_
 _atom_site_type_symbol
 _atom_site_label
 _atom_site_symmetry_multiplicity
 _atom_site_fract_x
 _atom_site_fract_y
 _atom_site_fract_z
 _atom_site_occupancy
  Cu  Cu0  1  0.35416000  0.20191000  0.42688000  1.0
  Cu  Cu1  1  0.14576000  0.77531000  0.57317000  1.0
  Cu  Cu2  1  0.64583000  0.79807000  0.57311000  1.0
  Cu  Cu3  1  0.85424000  0.22467000  0.42683000  1.0
  H  H4  1  0.91970000  0.98532000  0.11541000  1.0
  H  H5  1  0.58118000  0.87012000  0.88445000  1.0
  H  H6  1  0.08031000  0.01469000  0.88457000  1.0
  H  H7  1  0.41881000  0.12988000  0.11554000  1.0
  H  H8  1  0.13810000  0.97733000  0.25979000  1.0
  H  H9  1  0.36258000  0.71756000  0.74013000  1.0
  H  H10  1  0.86189000  0.02268000  0.74019000  1.0
  H  H11  1  0.63742000  0.28244000  0.25987000  1.0
  H  H12  1  0.30068000  0.43184000  0.31977000  1.0
  H  H13  1  0.20088000  0.11205000  0.68019000  1.0
  H  H14  1  0.69931000  0.56815000  0.68022000  1.0
  H  H15  1  0.79911000  0.88796000  0.31982000  1.0
  H  H16  1  0.09074000  0.46009000  0.17891000  1.0
  H  H17  1  0.41090000  0.28121000  0.82105000  1.0
  H  H18  1  0.90928000  0.53993000  0.82110000  1.0
  H  H19  1  0.58910000  0.71879000  0.17896000  1.0
  C  C20  1  0.98712000  0.22515000  0.13664000  1.0
  C  C21  1  0.51393000  0.08865000  0.86340000  1.0
  C  C22  1  0.01289000  0.77486000  0.86337000  1.0
  C  C23  1  0.48607000  0.91136000  0.13660000  1.0
  C  C24  1  0.00285000  0.08627000  0.15819000  1.0
  C  C25  1  0.49798000  0.92820000  0.84176000  1.0
  C  C26  1  0.99720000  0.91373000  0.84181000  1.0
  C  C27  1  0.50199000  0.07181000  0.15824000  1.0
  C  C28  1  0.12348000  0.08071000  0.23804000  1.0
  C  C29  1  0.37737000  0.84270000  0.76187000  1.0
  C  C30  1  0.87656000  0.91929000  0.76196000  1.0
  C  C31  1  0.62262000  0.15729000  0.23813000  1.0
  C  C32  1  0.21517000  0.33529000  0.27226000  1.0
  C  C33  1  0.28614000  0.06306000  0.72771000  1.0
  C  C34  1  0.78483000  0.66471000  0.72775000  1.0
  C  C35  1  0.71385000  0.93695000  0.27228000  1.0
  C  C36  1  0.09852000  0.35095000  0.19394000  1.0
  C  C37  1  0.40277000  0.15708000  0.80613000  1.0
  C  C38  1  0.90149000  0.64908000  0.80609000  1.0
  C  C39  1  0.59722000  0.84292000  0.19386000  1.0
  C  C40  1  0.85641000  0.24405000  0.05978000  1.0
  C  C41  1  0.64469000  0.18446000  0.94035000  1.0
  C  C42  1  0.14360000  0.75593000  0.94022000  1.0
  C  C43  1  0.35533000  0.81555000  0.05966000  1.0
  C  C44  1  0.42123000  0.52096000  0.51799000  1.0
  C  C45  1  0.07865000  0.00305000  0.48189000  1.0
  C  C46  1  0.57877000  0.47903000  0.48200000  1.0
  C  C47  1  0.92134000  0.99696000  0.51811000  1.0
  C  C48  1  0.48666000  0.94265000  0.44803000  1.0
  C  C49  1  0.01329000  0.49461000  0.55200000  1.0
  C  C50  1  0.51336000  0.05733000  0.55198000  1.0
  C  C51  1  0.98669000  0.50538000  0.44800000  1.0
  N  N52  1  0.22591000  0.20366000  0.29517000  1.0
  N  N53  1  0.27516000  0.90850000  0.70471000  1.0
  N  N54  1  0.77407000  0.79633000  0.70480000  1.0
  N  N55  1  0.72485000  0.09151000  0.29530000  1.0
  N  N56  1  0.81868000  0.37082000  0.03877000  1.0
  N  N57  1  0.68243000  0.33239000  0.96175000  1.0
  N  N58  1  0.18131000  0.62918000  0.96123000  1.0
  N  N59  1  0.31756000  0.66763000  0.03825000  1.0
  O  O60  1  0.75062000  0.12026000  0.99988000  1.0
  O  O61  1  0.24939000  0.87977000  0.00011000  1.0
  O  O62  1  0.30770000  0.41420000  0.49146000  1.0
  O  O63  1  0.19219000  0.92318000  0.50849000  1.0
  O  O64  1  0.69229000  0.58580000  0.50855000  1.0
  O  O65  1  0.80780000  0.07680000  0.49150000  1.0
  O  O66  1  0.41411000  0.65703000  0.57008000  1.0
  O  O67  1  0.08566000  0.08688000  0.42959000  1.0
  O  O68  1  0.58588000  0.34295000  0.42991000  1.0
  O  O69  1  0.91435000  0.91309000  0.57040000  1.0
  O  O70  1  0.41573000  0.98739000  0.37676000  1.0
  O  O71  1  0.08423000  0.61064000  0.62331000  1.0
  O  O72  1  0.58428000  0.01264000  0.62326000  1.0
  O  O73  1  0.91577000  0.38935000  0.37670000  1.0
  O  O74  1  0.53818000  0.81095000  0.43954000  1.0
  O  O75  1  0.96190000  0.37114000  0.56046000  1.0
  O  O76  1  0.46184000  0.18905000  0.56047000  1.0
  O  O77  1  0.03810000  0.62886000  0.43956000  1.0
