# generated using pymatgen
data_Zn2H17C36S2N3(O5F2)2
_symmetry_space_group_name_H-M   'P 1'
_cell_length_a   12.78260000
_cell_length_b   16.37340000
_cell_length_c   17.74010000
_cell_angle_alpha   95.70970000
_cell_angle_beta   90.04460000
_cell_angle_gamma   91.72540000
_symmetry_Int_Tables_number   1
_chemical_formula_structural   Zn2H17C36S2N3(O5F2)2
_chemical_formula_sum   'Zn2 H17 C36 S2 N3 O10 F4'
_cell_volume   3692.78521681
_cell_formula_units_Z   1
loop_
 _symmetry_equiv_pos_site_id
 _symmetry_equiv_pos_as_xyz
  1  'x, y, z'
loop_
 _atom_site_type_symbol
 _atom_site_label
 _atom_site_symmetry_multiplicity
 _atom_site_fract_x
 _atom_site_fract_y
 _atom_site_fract_z
 _atom_site_occupancy
  Zn  Zn0  1  0.50045000  0.41336000  0.49450000  1.0
  Zn  Zn1  1  0.50410000  0.58580000  0.50358000  1.0
  H  H2  1  0.39501000  0.71110000  0.42578000  1.0
  H  H3  1  0.39539000  0.86279000  0.42643000  1.0
  H  H4  1  0.63804000  0.87485000  0.59871000  1.0
  H  H5  1  0.62575000  0.72168000  0.59010000  1.0
  H  H6  1  0.35705000  0.12548000  0.40509000  1.0
  H  H7  1  0.60605000  0.13690000  0.57268000  1.0
  H  H8  1  0.60883000  0.28838000  0.57164000  1.0
  H  H9  1  0.37055000  0.27827000  0.41284000  1.0
  H  H10  1  0.50598000  0.61889000  0.26468000  1.0
  H  H11  1  0.50548000  0.61359000  0.12513000  1.0
  H  H12  1  0.49198000  0.34834000  0.11114000  1.0
  H  H13  1  0.49474000  0.35596000  0.25158000  1.0
  H  H14  1  0.50832000  0.65235000  0.88720000  1.0
  H  H15  1  0.49302000  0.38712000  0.87319000  1.0
  H  H16  1  0.49271000  0.38177000  0.73367000  1.0
  H  H17  1  0.50943000  0.64466000  0.74673000  1.0
  H  H18  1  0.86633000  0.62920000  0.50470000  1.0
  C  C19  1  0.50125000  0.49163000  0.35156000  1.0
  C  C20  1  0.29736000  0.49865000  0.49900000  1.0
  C  C21  1  0.50199000  0.50885000  0.64672000  1.0
  C  C22  1  0.70732000  0.50023000  0.50031000  1.0
  C  C23  1  0.44727000  0.75039000  0.46321000  1.0
  C  C24  1  0.44813000  0.83525000  0.46389000  1.0
  C  C25  1  0.51744000  0.88320000  0.51327000  1.0
  C  C26  1  0.58286000  0.84129000  0.55956000  1.0
  C  C27  1  0.57665000  0.75621000  0.55512000  1.0
  C  C28  1  0.52550000  0.97248000  0.51938000  1.0
  C  C29  1  0.47294000  0.02753000  0.48206000  1.0
  C  C30  1  0.41437000  0.15873000  0.44271000  1.0
  C  C31  1  0.48123000  0.11681000  0.48786000  1.0
  C  C32  1  0.55248000  0.16450000  0.53587000  1.0
  C  C33  1  0.55450000  0.24927000  0.53574000  1.0
  C  C34  1  0.42149000  0.24377000  0.44650000  1.0
  C  C35  1  0.50002000  0.48787000  0.26695000  1.0
  C  C36  1  0.50291000  0.55990000  0.23030000  1.0
  C  C37  1  0.50255000  0.55673000  0.15178000  1.0
  C  C38  1  0.49845000  0.48024000  0.10701000  1.0
  C  C39  1  0.49521000  0.40788000  0.14443000  1.0
  C  C40  1  0.49645000  0.41186000  0.22296000  1.0
  C  C41  1  0.49769000  0.47173000  0.02461000  1.0
  C  C42  1  0.50105000  0.52895000  0.97371000  1.0
  C  C43  1  0.50542000  0.59281000  0.85389000  1.0
  C  C44  1  0.50100000  0.52046000  0.89132000  1.0
  C  C45  1  0.49667000  0.44398000  0.84653000  1.0
  C  C46  1  0.49680000  0.44077000  0.76801000  1.0
  C  C47  1  0.50183000  0.51279000  0.73134000  1.0
  C  C48  1  0.50610000  0.58878000  0.77535000  1.0
  C  C49  1  0.10990000  0.43048000  0.49964000  1.0
  C  C50  1  0.89221000  0.56633000  0.50228000  1.0
  C  C51  1  0.18130000  0.49639000  0.50268000  1.0
  C  C52  1  0.82306000  0.49969000  0.49984000  1.0
  C  C53  1  0.99683000  0.54055000  0.50122000  1.0
  C  C54  1  0.00462000  0.45460000  0.49749000  1.0
  S  S55  1  0.11882000  0.58896000  0.50445000  1.0
  S  S56  1  0.88373000  0.40561000  0.49514000  1.0
  N  N57  1  0.51000000  0.71139000  0.50783000  1.0
  N  N58  1  0.49087000  0.28831000  0.49176000  1.0
  N  N59  1  0.13524000  0.34417000  0.49984000  1.0
  O  O60  1  0.51167000  0.42421000  0.38052000  1.0
  O  O61  1  0.49186000  0.56211000  0.38842000  1.0
  O  O62  1  0.34130000  0.56970000  0.51117000  1.0
  O  O63  1  0.34160000  0.43091000  0.48307000  1.0
  O  O64  1  0.51341000  0.57669000  0.61750000  1.0
  O  O65  1  0.49049000  0.43816000  0.61003000  1.0
  O  O66  1  0.66077000  0.43061000  0.50369000  1.0
  O  O67  1  0.66507000  0.56920000  0.49741000  1.0
  O  O68  1  0.08713000  0.29547000  0.45257000  1.0
  O  O69  1  0.19810000  0.32464000  0.54729000  1.0
  F  F70  1  0.59811000  0.00486000  0.57144000  1.0
  F  F71  1  0.40024000  0.99497000  0.43020000  1.0
  F  F72  1  0.49316000  0.39143000  0.99360000  1.0
  F  F73  1  0.50551000  0.60928000  0.00474000  1.0
