# generated using pymatgen
data_Zn4H27C39N3O16
_symmetry_space_group_name_H-M   'P 1'
_cell_length_a   18.50310000
_cell_length_b   19.15770000
_cell_length_c   20.30180000
_cell_angle_alpha   67.67340000
_cell_angle_beta   65.32840000
_cell_angle_gamma   66.30070000
_symmetry_Int_Tables_number   1
_chemical_formula_structural   Zn4H27C39N3O16
_chemical_formula_sum   'Zn8 H54 C78 N6 O32'
_cell_volume   5790.25868763
_cell_formula_units_Z   2
loop_
 _symmetry_equiv_pos_site_id
 _symmetry_equiv_pos_as_xyz
  1  'x, y, z'
loop_
 _atom_site_type_symbol
 _atom_site_label
 _atom_site_symmetry_multiplicity
 _atom_site_fract_x
 _atom_site_fract_y
 _atom_site_fract_z
 _atom_site_occupancy
  Zn  Zn0  1  0.03801000  0.09293000  0.88773000  1.0
  Zn  Zn1  1  0.87681000  0.10932000  0.03227000  1.0
  Zn  Zn2  1  0.06175000  0.08044000  0.03968000  1.0
  Zn  Zn3  1  0.01886000  0.94415000  0.02492000  1.0
  Zn  Zn4  1  0.44954000  0.52703000  0.59678000  1.0
  Zn  Zn5  1  0.62177000  0.53556000  0.46886000  1.0
  Zn  Zn6  1  0.45703000  0.67064000  0.44972000  1.0
  Zn  Zn7  1  0.49693000  0.49423000  0.43480000  1.0
  H  H8  1  0.70168000  0.54263000  0.84786000  1.0
  H  H9  1  0.77866000  0.56894000  0.85669000  1.0
  H  H10  1  0.75650000  0.47798000  0.91259000  1.0
  H  H11  1  0.88954000  0.45468000  0.80683000  1.0
  H  H12  1  0.83878000  0.52025000  0.74056000  1.0
  H  H13  1  0.88811000  0.33495000  0.85715000  1.0
  H  H14  1  0.67659000  0.31496000  0.72056000  1.0
  H  H15  1  0.65103000  0.56477000  0.63881000  1.0
  H  H16  1  0.73473000  0.55060000  0.71293000  1.0
  H  H17  1  0.54511000  0.09613000  0.79077000  1.0
  H  H18  1  0.57866000  0.99168000  0.82258000  1.0
  H  H19  1  0.48748000  0.04744000  0.87906000  1.0
  H  H20  1  0.44983000  0.98294000  0.81571000  1.0
  H  H21  1  0.50783000  0.02826000  0.72712000  1.0
  H  H22  1  0.32424000  0.03685000  0.87096000  1.0
  H  H23  1  0.28261000  0.36635000  0.69583000  1.0
  H  H24  1  0.53389000  0.26086000  0.57152000  1.0
  H  H25  1  0.52999000  0.13230000  0.66253000  1.0
  H  H26  1  0.96581000  0.74742000  0.76050000  1.0
  H  H27  1  0.86086000  0.80601000  0.76983000  1.0
  H  H28  1  0.90526000  0.78706000  0.83989000  1.0
  H  H29  1  0.89822000  0.92434000  0.75748000  1.0
  H  H30  1  0.95564000  0.88801000  0.67700000  1.0
  H  H31  1  0.95448000  0.93890000  0.82157000  1.0
  H  H32  1  0.29781000  0.74294000  0.71982000  1.0
  H  H33  1  0.19471000  0.72817000  0.57171000  1.0
  H  H34  1  0.05625000  0.80270000  0.63735000  1.0
  H  H35  1  0.00897000  0.49030000  0.06450000  1.0
  H  H36  1  0.05097000  0.52231000  0.96539000  1.0
  H  H37  1  0.06795000  0.41997000  0.01011000  1.0
  H  H38  1  0.95893000  0.46901000  0.94755000  1.0
  H  H39  1  0.89874000  0.54039000  0.99933000  1.0
  H  H40  1  0.97422000  0.34160000  0.99699000  1.0
  H  H41  1  0.71194000  0.35547000  0.28571000  1.0
  H  H42  1  0.76317000  0.57540000  0.22944000  1.0
  H  H43  1  0.86014000  0.55391000  0.10675000  1.0
  H  H44  1  0.93299000  0.74257000  0.41255000  1.0
  H  H45  1  0.98081000  0.79398000  0.43163000  1.0
  H  H46  1  0.99433000  0.80188000  0.33761000  1.0
  H  H47  1  0.89087000  0.92370000  0.37582000  1.0
  H  H48  1  0.82971000  0.86816000  0.45317000  1.0
  H  H49  1  0.90100000  0.94254000  0.25923000  1.0
  H  H50  1  0.64074000  0.81152000  0.30734000  1.0
  H  H51  1  0.68552000  0.70090000  0.52096000  1.0
  H  H52  1  0.78109000  0.77835000  0.48425000  1.0
  H  H53  1  0.41271000  0.62794000  0.03165000  1.0
  H  H54  1  0.45124000  0.66156000  0.93233000  1.0
  H  H55  1  0.34285000  0.69106000  0.97954000  1.0
  H  H56  1  0.40306000  0.80098000  0.94237000  1.0
  H  H57  1  0.47659000  0.74086000  0.99003000  1.0
  H  H58  1  0.27082000  0.84918000  0.99941000  1.0
  H  H59  1  0.28456000  0.76751000  0.30414000  1.0
  H  H60  1  0.50501000  0.59393000  0.21261000  1.0
  H  H61  1  0.48360000  0.65396000  0.08870000  1.0
  C  C62  1  0.76250000  0.51955000  0.85689000  1.0
  C  C63  1  0.82939000  0.47882000  0.79637000  1.0
  C  C64  1  0.84442000  0.33869000  0.83200000  1.0
  C  C65  1  0.82702000  0.27288000  0.83908000  1.0
  C  C66  1  0.87260000  0.19673000  0.88130000  1.0
  C  C67  1  0.77158000  0.27667000  0.80328000  1.0
  C  C68  1  0.73838000  0.35720000  0.75933000  1.0
  C  C69  1  0.68865000  0.36747000  0.71773000  1.0
  C  C70  1  0.65846000  0.44107000  0.67394000  1.0
  C  C71  1  0.67538000  0.50687000  0.67306000  1.0
  C  C72  1  0.72313000  0.49859000  0.71434000  1.0
  C  C73  1  0.75719000  0.42340000  0.75652000  1.0
  C  C74  1  0.61046000  0.45591000  0.62363000  1.0
  C  C75  1  0.52374000  0.04332000  0.82120000  1.0
  C  C76  1  0.47163000  0.03543000  0.78413000  1.0
  C  C77  1  0.32296000  0.09570000  0.83369000  1.0
  C  C78  1  0.25029000  0.15548000  0.83944000  1.0
  C  C79  1  0.17191000  0.13460000  0.88995000  1.0
  C  C80  1  0.24901000  0.23547000  0.79338000  1.0
  C  C81  1  0.33031000  0.24178000  0.73639000  1.0
  C  C82  1  0.33685000  0.31532000  0.68713000  1.0
  C  C83  1  0.40950000  0.32258000  0.62849000  1.0
  C  C84  1  0.47784000  0.25504000  0.61866000  1.0
  C  C85  1  0.47504000  0.18282000  0.66959000  1.0
  C  C86  1  0.40152000  0.17506000  0.72933000  1.0
  C  C87  1  0.41877000  0.40089000  0.57829000  1.0
  C  C88  1  0.91794000  0.79892000  0.77937000  1.0
  C  C89  1  0.94585000  0.87350000  0.73736000  1.0
  C  C90  1  0.01631000  0.90143000  0.79859000  1.0
  C  C91  1  0.08187000  0.89167000  0.81912000  1.0
  C  C92  1  0.06771000  0.93572000  0.87258000  1.0
  C  C93  1  0.16335000  0.83877000  0.79172000  1.0
  C  C94  1  0.16878000  0.80402000  0.73532000  1.0
  C  C95  1  0.24570000  0.75588000  0.70071000  1.0
  C  C96  1  0.25514000  0.72903000  0.64226000  1.0
  C  C97  1  0.18633000  0.74795000  0.61885000  1.0
  C  C98  1  0.10874000  0.79057000  0.65542000  1.0
  C  C99  1  0.09889000  0.82026000  0.71346000  1.0
  C  C100  1  0.33667000  0.68212000  0.60052000  1.0
  C  C101  1  0.02243000  0.47830000  0.01120000  1.0
  C  C102  1  0.94389000  0.48158000  0.00106000  1.0
  C  C103  1  0.92418000  0.35106000  0.04875000  1.0
  C  C104  1  0.88783000  0.29324000  0.09696000  1.0
  C  C105  1  0.91778000  0.21614000  0.07781000  1.0
  C  C106  1  0.82109000  0.30580000  0.16628000  1.0
  C  C107  1  0.80273000  0.38314000  0.17963000  1.0
  C  C108  1  0.74422000  0.39932000  0.24719000  1.0
  C  C109  1  0.73001000  0.46753000  0.26583000  1.0
  C  C110  1  0.77335000  0.52253000  0.21444000  1.0
  C  C111  1  0.82808000  0.51009000  0.14550000  1.0
  C  C112  1  0.84449000  0.43982000  0.12725000  1.0
  C  C113  1  0.67128000  0.48092000  0.34005000  1.0
  C  C114  1  0.94957000  0.79746000  0.39437000  1.0
  C  C115  1  0.87295000  0.86925000  0.39606000  1.0
  C  C116  1  0.85112000  0.91714000  0.27462000  1.0
  C  C117  1  0.81755000  0.92488000  0.22297000  1.0
  C  C118  1  0.85678000  0.96336000  0.14313000  1.0
  C  C119  1  0.75152000  0.89073000  0.24307000  1.0
  C  C120  1  0.72912000  0.84478000  0.32238000  1.0
  C  C121  1  0.67058000  0.80403000  0.34691000  1.0
  C  C122  1  0.65512000  0.75215000  0.41754000  1.0
  C  C123  1  0.69638000  0.74310000  0.46633000  1.0
  C  C124  1  0.75056000  0.78617000  0.44525000  1.0
  C  C125  1  0.76904000  0.83683000  0.37245000  1.0
  C  C126  1  0.60323000  0.69987000  0.43912000  1.0
  C  C127  1  0.40455000  0.67839000  0.98338000  1.0
  C  C128  1  0.41376000  0.75074000  0.99024000  1.0
  C  C129  1  0.28057000  0.83079000  0.05363000  1.0
  C  C130  1  0.22024000  0.86222000  0.11124000  1.0
  C  C131  1  0.14372000  0.91897000  0.09250000  1.0
  C  C132  1  0.23130000  0.83648000  0.18482000  1.0
  C  C133  1  0.31090000  0.77357000  0.18923000  1.0
  C  C134  1  0.32827000  0.74158000  0.25759000  1.0
  C  C135  1  0.39758000  0.67759000  0.26606000  1.0
  C  C136  1  0.45211000  0.64527000  0.20488000  1.0
  C  C137  1  0.43959000  0.67888000  0.13561000  1.0
  C  C138  1  0.36900000  0.74316000  0.12688000  1.0
  C  C139  1  0.41799000  0.64227000  0.33785000  1.0
  N  N140  1  0.81061000  0.41262000  0.79385000  1.0
  N  N141  1  0.39710000  0.10296000  0.78115000  1.0
  N  N142  1  0.02215000  0.86669000  0.74831000  1.0
  N  N143  1  0.90203000  0.42384000  0.05998000  1.0
  N  N144  1  0.82726000  0.87684000  0.34814000  1.0
  N  N145  1  0.35411000  0.77628000  0.05809000  1.0
  O  O146  1  0.99720000  0.05855000  0.99720000  1.0
  O  O147  1  0.83248000  0.16477000  0.94686000  1.0
  O  O148  1  0.95006000  0.17285000  0.84741000  1.0
  O  O149  1  0.75542000  0.21824000  0.80632000  1.0
  O  O150  1  0.65321000  0.45591000  0.55544000  1.0
  O  O151  1  0.53181000  0.47087000  0.65181000  1.0
  O  O152  1  0.16502000  0.10168000  0.95912000  1.0
  O  O153  1  0.11972000  0.14909000  0.85742000  1.0
  O  O154  1  0.18644000  0.29354000  0.80096000  1.0
  O  O155  1  0.46130000  0.40336000  0.50936000  1.0
  O  O156  1  0.38558000  0.45899000  0.60813000  1.0
  O  O157  1  0.04043000  0.90289000  0.94189000  1.0
  O  O158  1  0.08239000  0.00228000  0.84387000  1.0
  O  O159  1  0.22346000  0.82457000  0.81258000  1.0
  O  O160  1  0.35916000  0.71032000  0.52976000  1.0
  O  O161  1  0.37509000  0.61808000  0.63804000  1.0
  O  O162  1  0.99377000  0.17720000  0.07285000  1.0
  O  O163  1  0.86538000  0.19753000  0.06775000  1.0
  O  O164  1  0.78509000  0.25592000  0.21190000  1.0
  O  O165  1  0.61220000  0.44937000  0.37171000  1.0
  O  O166  1  0.68536000  0.52316000  0.36725000  1.0
  O  O167  1  0.92371000  0.91852000  0.10934000  1.0
  O  O168  1  0.82257000  0.03570000  0.11733000  1.0
  O  O169  1  0.71903000  0.89635000  0.19795000  1.0
  O  O170  1  0.54293000  0.72490000  0.41269000  1.0
  O  O171  1  0.62482000  0.63151000  0.48240000  1.0
  O  O172  1  0.11889000  0.89588000  0.05620000  1.0
  O  O173  1  0.11125000  0.98495000  0.10954000  1.0
  O  O174  1  0.17869000  0.86011000  0.24040000  1.0
  O  O175  1  0.40763000  0.69001000  0.37302000  1.0
  O  O176  1  0.44605000  0.56705000  0.35635000  1.0
  O  O177  1  0.50276000  0.55694000  0.48842000  1.0
