# generated using pymatgen
data_CuH3C5N4O
_symmetry_space_group_name_H-M   'P 1'
_cell_length_a   8.11273000
_cell_length_b   9.91513000
_cell_length_c   14.61100000
_cell_angle_alpha   90.00000000
_cell_angle_beta   90.00000000
_cell_angle_gamma   90.00000000
_symmetry_Int_Tables_number   1
_chemical_formula_structural   CuH3C5N4O
_chemical_formula_sum   'Cu8 H24 C40 N32 O8'
_cell_volume   1175.29090653
_cell_formula_units_Z   8
loop_
 _symmetry_equiv_pos_site_id
 _symmetry_equiv_pos_as_xyz
  1  'x, y, z'
loop_
 _atom_site_type_symbol
 _atom_site_label
 _atom_site_symmetry_multiplicity
 _atom_site_fract_x
 _atom_site_fract_y
 _atom_site_fract_z
 _atom_site_occupancy
  Cu  Cu0  1  0.38371000  0.14640000  0.07062000  1.0
  Cu  Cu1  1  0.11630000  0.35360000  0.07062000  1.0
  Cu  Cu2  1  0.88370000  0.85360000  0.42938000  1.0
  Cu  Cu3  1  0.61629000  0.64639000  0.42938000  1.0
  Cu  Cu4  1  0.61629000  0.85361000  0.92938000  1.0
  Cu  Cu5  1  0.88370000  0.64640000  0.92938000  1.0
  Cu  Cu6  1  0.11630000  0.14640000  0.57062000  1.0
  Cu  Cu7  1  0.38372000  0.35360000  0.57062000  1.0
  H  H8  1  0.05461000  0.84096000  0.28157000  1.0
  H  H9  1  0.44538000  0.65903000  0.28157000  1.0
  H  H10  1  0.55462000  0.15903000  0.21843000  1.0
  H  H11  1  0.94539000  0.34097000  0.21843000  1.0
  H  H12  1  0.94539000  0.15904000  0.71843000  1.0
  H  H13  1  0.55462000  0.34097000  0.71843000  1.0
  H  H14  1  0.44538000  0.84097000  0.78157000  1.0
  H  H15  1  0.05461000  0.65903000  0.78157000  1.0
  H  H16  1  0.25082000  0.02324000  0.25176000  1.0
  H  H17  1  0.24918000  0.47675000  0.25176000  1.0
  H  H18  1  0.75082000  0.97675000  0.24824000  1.0
  H  H19  1  0.74918000  0.52324000  0.24824000  1.0
  H  H20  1  0.74918000  0.97676000  0.74824000  1.0
  H  H21  1  0.75082000  0.52325000  0.74824000  1.0
  H  H22  1  0.24918000  0.02325000  0.75176000  1.0
  H  H23  1  0.25082000  0.47676000  0.75176000  1.0
  H  H24  1  0.92196000  0.71096000  0.15121000  1.0
  H  H25  1  0.57804000  0.78904000  0.15121000  1.0
  H  H26  1  0.42197000  0.28904000  0.34879000  1.0
  H  H27  1  0.07804000  0.21096000  0.34879000  1.0
  H  H28  1  0.07804000  0.28904000  0.84879000  1.0
  H  H29  1  0.42196000  0.21096000  0.84879000  1.0
  H  H30  1  0.57804000  0.71096000  0.65121000  1.0
  H  H31  1  0.92196000  0.78904000  0.65121000  1.0
  C  C32  1  0.08293000  0.86444000  0.21037000  1.0
  C  C33  1  0.41707000  0.63556000  0.21037000  1.0
  C  C34  1  0.58293000  0.13556000  0.28963000  1.0
  C  C35  1  0.91707000  0.36444000  0.28963000  1.0
  C  C36  1  0.91707000  0.13556000  0.78963000  1.0
  C  C37  1  0.58293000  0.36444000  0.78963000  1.0
  C  C38  1  0.41707000  0.86445000  0.71037000  1.0
  C  C39  1  0.08293000  0.63556000  0.71037000  1.0
  C  C40  1  0.17694000  0.93243000  0.04184000  1.0
  C  C41  1  0.32307000  0.56757000  0.04184000  1.0
  C  C42  1  0.67693000  0.06757000  0.45816000  1.0
  C  C43  1  0.82306000  0.43243000  0.45816000  1.0
  C  C44  1  0.82306000  0.06757000  0.95816000  1.0
  C  C45  1  0.67693000  0.43243000  0.95816000  1.0
  C  C46  1  0.32307000  0.93243000  0.54184000  1.0
  C  C47  1  0.17694000  0.56757000  0.54184000  1.0
  C  C48  1  0.19735000  0.96898000  0.19418000  1.0
  C  C49  1  0.30265000  0.53101000  0.19417000  1.0
  C  C50  1  0.69735000  0.03101000  0.30583000  1.0
  C  C51  1  0.80265000  0.46899000  0.30582000  1.0
  C  C52  1  0.80265000  0.03102000  0.80583000  1.0
  C  C53  1  0.69735000  0.46899000  0.80583000  1.0
  C  C54  1  0.30265000  0.96899000  0.69417000  1.0
  C  C55  1  0.19735000  0.53101000  0.69418000  1.0
  C  C56  1  0.01041000  0.79184000  0.13969000  1.0
  C  C57  1  0.48958000  0.70816000  0.13969000  1.0
  C  C58  1  0.51042000  0.20816000  0.36031000  1.0
  C  C59  1  0.98959000  0.29184000  0.36030000  1.0
  C  C60  1  0.98959000  0.20816000  0.86031000  1.0
  C  C61  1  0.51042000  0.29184000  0.86031000  1.0
  C  C62  1  0.48958000  0.79184000  0.63969000  1.0
  C  C63  1  0.01041000  0.70816000  0.63970000  1.0
  C  C64  1  0.06116000  0.82838000  0.05110000  1.0
  C  C65  1  0.43884000  0.67162000  0.05110000  1.0
  C  C66  1  0.56116000  0.17162000  0.44890000  1.0
  C  C67  1  0.93884000  0.32838000  0.44889000  1.0
  C  C68  1  0.93884000  0.17162000  0.94890000  1.0
  C  C69  1  0.56116000  0.32838000  0.94890000  1.0
  C  C70  1  0.43884000  0.82838000  0.55110000  1.0
  C  C71  1  0.06116000  0.67162000  0.55111000  1.0
  N  N72  1  0.24642000  0.00474000  0.10952000  1.0
  N  N73  1  0.25359000  0.49525000  0.10952000  1.0
  N  N74  1  0.74641000  0.99525000  0.39048000  1.0
  N  N75  1  0.75358000  0.50474000  0.39048000  1.0
  N  N76  1  0.75358000  0.99526000  0.89048000  1.0
  N  N77  1  0.74641000  0.50475000  0.89048000  1.0
  N  N78  1  0.25359000  0.00475000  0.60952000  1.0
  N  N79  1  0.24642000  0.49526000  0.60952000  1.0
  N  N80  1  0.11393000  0.85650000  0.90290000  1.0
  N  N81  1  0.38607000  0.64350000  0.90289000  1.0
  N  N82  1  0.61393000  0.14350000  0.59711000  1.0
  N  N83  1  0.88607000  0.35650000  0.59710000  1.0
  N  N84  1  0.88607000  0.14350000  0.09711000  1.0
  N  N85  1  0.61393000  0.35650000  0.09711000  1.0
  N  N86  1  0.38607000  0.85650000  0.40289000  1.0
  N  N87  1  0.11393000  0.64350000  0.40290000  1.0
  N  N88  1  0.02519000  0.78459000  0.96442000  1.0
  N  N89  1  0.47481000  0.71542000  0.96441000  1.0
  N  N90  1  0.52519000  0.21542000  0.53559000  1.0
  N  N91  1  0.97481000  0.28459000  0.53558000  1.0
  N  N92  1  0.97481000  0.21541000  0.03558000  1.0
  N  N93  1  0.52519000  0.28459000  0.03559000  1.0
  N  N94  1  0.47481000  0.78458000  0.46441000  1.0
  N  N95  1  0.02519000  0.71541000  0.46442000  1.0
  N  N96  1  0.20615000  0.94539000  0.94969000  1.0
  N  N97  1  0.29386000  0.55461000  0.94968000  1.0
  N  N98  1  0.70614000  0.05461000  0.55032000  1.0
  N  N99  1  0.79385000  0.44539000  0.55031000  1.0
  N  N100  1  0.79385000  0.05461000  0.05031000  1.0
  N  N101  1  0.70614000  0.44539000  0.05032000  1.0
  N  N102  1  0.29386000  0.94539000  0.44968000  1.0
  N  N103  1  0.20615000  0.55461000  0.44969000  1.0
  O  O104  1  0.30983000  0.02814000  0.91262000  1.0
  O  O105  1  0.19019000  0.47185000  0.91261000  1.0
  O  O106  1  0.80981000  0.97185000  0.58739000  1.0
  O  O107  1  0.69017000  0.52814000  0.58739000  1.0
  O  O108  1  0.69017000  0.97186000  0.08739000  1.0
  O  O109  1  0.80981000  0.52815000  0.08739000  1.0
  O  O110  1  0.19019000  0.02815000  0.41261000  1.0
  O  O111  1  0.30983000  0.47186000  0.41262000  1.0
