# generated using pymatgen
data_ZnH14C26(NO3)2
_symmetry_space_group_name_H-M   'P 1'
_cell_length_a   15.27570000
_cell_length_b   15.28260000
_cell_length_c   22.27070000
_cell_angle_alpha   78.29690000
_cell_angle_beta   82.67960000
_cell_angle_gamma   72.13800000
_symmetry_Int_Tables_number   1
_chemical_formula_structural   ZnH14C26(NO3)2
_chemical_formula_sum   'Zn4 H56 C104 N8 O24'
_cell_volume   4833.79633979
_cell_formula_units_Z   4
loop_
 _symmetry_equiv_pos_site_id
 _symmetry_equiv_pos_as_xyz
  1  'x, y, z'
loop_
 _atom_site_type_symbol
 _atom_site_label
 _atom_site_symmetry_multiplicity
 _atom_site_fract_x
 _atom_site_fract_y
 _atom_site_fract_z
 _atom_site_occupancy
  Zn  Zn0  1  0.71751000  0.88140000  0.66956000  1.0
  Zn  Zn1  1  0.28249000  0.11860000  0.33044000  1.0
  Zn  Zn2  1  0.70411000  0.84678000  0.79956000  1.0
  Zn  Zn3  1  0.29589000  0.15322000  0.20044000  1.0
  H  H4  1  0.79147000  0.71848000  0.91239000  1.0
  H  H5  1  0.20853000  0.28152000  0.08761000  1.0
  H  H6  1  0.79082000  0.72787000  0.02392000  1.0
  H  H7  1  0.20918000  0.27213000  0.97608000  1.0
  H  H8  1  0.58576000  0.99639000  0.98911000  1.0
  H  H9  1  0.41424000  0.00361000  0.01089000  1.0
  H  H10  1  0.59373000  0.97512000  0.88024000  1.0
  H  H11  1  0.40627000  0.02487000  0.11976000  1.0
  H  H12  1  0.47194000  0.88018000  0.20443000  1.0
  H  H13  1  0.52805000  0.11982000  0.79557000  1.0
  H  H14  1  0.47797000  0.88760000  0.31554000  1.0
  H  H15  1  0.52203000  0.11239000  0.68446000  1.0
  H  H16  1  0.91919000  0.89774000  0.26109000  1.0
  H  H17  1  0.08081000  0.10226000  0.73891000  1.0
  H  H18  1  0.91412000  0.88776000  0.14969000  1.0
  H  H19  1  0.08588000  0.11225000  0.85031000  1.0
  H  H20  1  0.81891000  0.76617000  0.46550000  1.0
  H  H21  1  0.18109000  0.23383000  0.53450000  1.0
  H  H22  1  0.82118000  0.76777000  0.57816000  1.0
  H  H23  1  0.17882000  0.23223000  0.42184000  1.0
  H  H24  1  0.61326000  0.01823000  0.56793000  1.0
  H  H25  1  0.38673000  0.98177000  0.43207000  1.0
  H  H26  1  0.60169000  0.02675000  0.45520000  1.0
  H  H27  1  0.39831000  0.97325000  0.54480000  1.0
  H  H28  1  0.72647000  0.10672000  0.82114000  1.0
  H  H29  1  0.27353000  0.89328000  0.17886000  1.0
  H  H30  1  0.73548000  0.26532000  0.82397000  1.0
  H  H31  1  0.26452000  0.73468000  0.17603000  1.0
  H  H32  1  0.66573000  0.35264000  0.63516000  1.0
  H  H33  1  0.33427000  0.64736000  0.36484000  1.0
  H  H34  1  0.66191000  0.19212000  0.63223000  1.0
  H  H35  1  0.33809000  0.80788000  0.36777000  1.0
  H  H36  1  0.66116000  0.41120000  0.82746000  1.0
  H  H37  1  0.33884000  0.58880000  0.17254000  1.0
  H  H38  1  0.67639000  0.56738000  0.83094000  1.0
  H  H39  1  0.32361000  0.43262000  0.16906000  1.0
  H  H40  1  0.76887000  0.59870000  0.63993000  1.0
  H  H41  1  0.23113000  0.40130000  0.36007000  1.0
  H  H42  1  0.75797000  0.44090000  0.63606000  1.0
  H  H43  1  0.24203000  0.55910000  0.36394000  1.0
  H  H44  1  0.99689000  0.77878000  0.83071000  1.0
  H  H45  1  0.00311000  0.22122000  0.16929000  1.0
  H  H46  1  0.15720000  0.78565000  0.83162000  1.0
  H  H47  1  0.84280000  0.21434000  0.16838000  1.0
  H  H48  1  0.14787000  0.92131000  0.64166000  1.0
  H  H49  1  0.85213000  0.07869000  0.35834000  1.0
  H  H50  1  0.99016000  0.90861000  0.64097000  1.0
  H  H51  1  0.00984000  0.09139000  0.35903000  1.0
  H  H52  1  0.24548000  0.87396000  0.83374000  1.0
  H  H53  1  0.75452000  0.12604000  0.16626000  1.0
  H  H54  1  0.40481000  0.88409000  0.83486000  1.0
  H  H55  1  0.59519000  0.11591000  0.16515000  1.0
  H  H56  1  0.45395000  0.86581000  0.64356000  1.0
  H  H57  1  0.54605000  0.13419000  0.35644000  1.0
  H  H58  1  0.29603000  0.85201000  0.64169000  1.0
  H  H59  1  0.70397000  0.14799000  0.35831000  1.0
  C  C60  1  0.74657000  0.77817000  0.93177000  1.0
  C  C61  1  0.25343000  0.22183000  0.06823000  1.0
  C  C62  1  0.74607000  0.78370000  0.99336000  1.0
  C  C63  1  0.25393000  0.21630000  0.00664000  1.0
  C  C64  1  0.68833000  0.86312000  0.01463000  1.0
  C  C65  1  0.31167000  0.13688000  0.98537000  1.0
  C  C66  1  0.63170000  0.93331000  0.97442000  1.0
  C  C67  1  0.36830000  0.06668000  0.02558000  1.0
  C  C68  1  0.63588000  0.92184000  0.91363000  1.0
  C  C69  1  0.36412000  0.07816000  0.08637000  1.0
  C  C70  1  0.77333000  0.87668000  0.09578000  1.0
  C  C71  1  0.22667000  0.12332000  0.90422000  1.0
  C  C72  1  0.77426000  0.88341000  0.16090000  1.0
  C  C73  1  0.22574000  0.11659000  0.83909000  1.0
  C  C74  1  0.69482000  0.88418000  0.20133000  1.0
  C  C75  1  0.30518000  0.11582000  0.79867000  1.0
  C  C76  1  0.61190000  0.88147000  0.18055000  1.0
  C  C77  1  0.38810000  0.11853000  0.81945000  1.0
  C  C78  1  0.60648000  0.87819000  0.11531000  1.0
  C  C79  1  0.39352000  0.12180000  0.88469000  1.0
  C  C80  1  0.53503000  0.88213000  0.22136000  1.0
  C  C81  1  0.46497000  0.11787000  0.77864000  1.0
  C  C82  1  0.53850000  0.88548000  0.28356000  1.0
  C  C83  1  0.46150000  0.11452000  0.71644000  1.0
  C  C84  1  0.61870000  0.88897000  0.30484000  1.0
  C  C85  1  0.38130000  0.11103000  0.69516000  1.0
  C  C86  1  0.69815000  0.88842000  0.26426000  1.0
  C  C87  1  0.30185000  0.11158000  0.73574000  1.0
  C  C88  1  0.78034000  0.89295000  0.28469000  1.0
  C  C89  1  0.21966000  0.10705000  0.71531000  1.0
  C  C90  1  0.85727000  0.89328000  0.24392000  1.0
  C  C91  1  0.14273000  0.10673000  0.75608000  1.0
  C  C92  1  0.85424000  0.88821000  0.18211000  1.0
  C  C93  1  0.14575000  0.11179000  0.81789000  1.0
  C  C94  1  0.78523000  0.89760000  0.34974000  1.0
  C  C95  1  0.21477000  0.10240000  0.65026000  1.0
  C  C96  1  0.62023000  0.89331000  0.37039000  1.0
  C  C97  1  0.37977000  0.10669000  0.62961000  1.0
  C  C98  1  0.70961000  0.89651000  0.45251000  1.0
  C  C99  1  0.29039000  0.10349000  0.54749000  1.0
  C  C100  1  0.77261000  0.82307000  0.48669000  1.0
  C  C101  1  0.22739000  0.17693000  0.51331000  1.0
  C  C102  1  0.77472000  0.82397000  0.54869000  1.0
  C  C103  1  0.22528000  0.17603000  0.45131000  1.0
  C  C104  1  0.65794000  0.96436000  0.54321000  1.0
  C  C105  1  0.34206000  0.03564000  0.45679000  1.0
  C  C106  1  0.65155000  0.96874000  0.48082000  1.0
  C  C107  1  0.34845000  0.03125000  0.51918000  1.0
  C  C108  1  0.69282000  0.04228000  0.72537000  1.0
  C  C109  1  0.30718000  0.95772000  0.27463000  1.0
  C  C110  1  0.69390000  0.13952000  0.72656000  1.0
  C  C111  1  0.30610000  0.86048000  0.27343000  1.0
  C  C112  1  0.71328000  0.16137000  0.78069000  1.0
  C  C113  1  0.28672000  0.83863000  0.21931000  1.0
  C  C114  1  0.71752000  0.25039000  0.78206000  1.0
  C  C115  1  0.28248000  0.74961000  0.21794000  1.0
  C  C116  1  0.70168000  0.32078000  0.72968000  1.0
  C  C117  1  0.29832000  0.67922000  0.27032000  1.0
  C  C118  1  0.68056000  0.29868000  0.67590000  1.0
  C  C119  1  0.31944000  0.70132000  0.32410000  1.0
  C  C120  1  0.67726000  0.20924000  0.67418000  1.0
  C  C121  1  0.32274000  0.79076000  0.32582000  1.0
  C  C122  1  0.70861000  0.41433000  0.73149000  1.0
  C  C123  1  0.29139000  0.58567000  0.26851000  1.0
  C  C124  1  0.68654000  0.45113000  0.78635000  1.0
  C  C125  1  0.31346000  0.54887000  0.21364000  1.0
  C  C126  1  0.69433000  0.53866000  0.78855000  1.0
  C  C127  1  0.30566000  0.46134000  0.21145000  1.0
  C  C128  1  0.72389000  0.59246000  0.73572000  1.0
  C  C129  1  0.27610000  0.40754000  0.26427000  1.0
  C  C130  1  0.74590000  0.55652000  0.68083000  1.0
  C  C131  1  0.25410000  0.44348000  0.31917000  1.0
  C  C132  1  0.73865000  0.46870000  0.67880000  1.0
  C  C133  1  0.26135000  0.53130000  0.32120000  1.0
  C  C134  1  0.72828000  0.68858000  0.73720000  1.0
  C  C135  1  0.27173000  0.31142000  0.26280000  1.0
  C  C136  1  0.88588000  0.84231000  0.73567000  1.0
  C  C137  1  0.11412000  0.15769000  0.26432000  1.0
  C  C138  1  0.98377000  0.84316000  0.73576000  1.0
  C  C139  1  0.01623000  0.15684000  0.26424000  1.0
  C  C140  1  0.03126000  0.80911000  0.78946000  1.0
  C  C141  1  0.96874000  0.19089000  0.21054000  1.0
  C  C142  1  0.12050000  0.81433000  0.78984000  1.0
  C  C143  1  0.87949000  0.18567000  0.21016000  1.0
  C  C144  1  0.16474000  0.85446000  0.73683000  1.0
  C  C145  1  0.83526000  0.14553000  0.26317000  1.0
  C  C146  1  0.11665000  0.88764000  0.68301000  1.0
  C  C147  1  0.88335000  0.11236000  0.31699000  1.0
  C  C148  1  0.02773000  0.88174000  0.68243000  1.0
  C  C149  1  0.97227000  0.11826000  0.31757000  1.0
  C  C150  1  0.25854000  0.86214000  0.73763000  1.0
  C  C151  1  0.74146000  0.13786000  0.26237000  1.0
  C  C152  1  0.29109000  0.87094000  0.79189000  1.0
  C  C153  1  0.70891000  0.12906000  0.20811000  1.0
  C  C154  1  0.37962000  0.87779000  0.79273000  1.0
  C  C155  1  0.62038000  0.12221000  0.20727000  1.0
  C  C156  1  0.43846000  0.87684000  0.73904000  1.0
  C  C157  1  0.56154000  0.12316000  0.26096000  1.0
  C  C158  1  0.40682000  0.86834000  0.68472000  1.0
  C  C159  1  0.59318000  0.13166000  0.31528000  1.0
  C  C160  1  0.31846000  0.86106000  0.68401000  1.0
  C  C161  1  0.68154000  0.13894000  0.31599000  1.0
  C  C162  1  0.53456000  0.88247000  0.73947000  1.0
  C  C163  1  0.46544000  0.11753000  0.26053000  1.0
  N  N164  1  0.69272000  0.84619000  0.89264000  1.0
  N  N165  1  0.30728000  0.15381000  0.10736000  1.0
  N  N166  1  0.68922000  0.87222000  0.07746000  1.0
  N  N167  1  0.31078000  0.12778000  0.92254000  1.0
  N  N168  1  0.70459000  0.89618000  0.38874000  1.0
  N  N169  1  0.29541000  0.10382000  0.61126000  1.0
  N  N170  1  0.71831000  0.89317000  0.57630000  1.0
  N  N171  1  0.28169000  0.10682000  0.42370000  1.0
  O  O172  1  0.84005000  0.87509000  0.05846000  1.0
  O  O173  1  0.15995000  0.12491000  0.94154000  1.0
  O  O174  1  0.53562000  0.87941000  0.09392000  1.0
  O  O175  1  0.46438000  0.12059000  0.90609000  1.0
  O  O176  1  0.85438000  0.90210000  0.37020000  1.0
  O  O177  1  0.14562000  0.09790000  0.62980000  1.0
  O  O178  1  0.55407000  0.89273000  0.40801000  1.0
  O  O179  1  0.44593000  0.10727000  0.59199000  1.0
  O  O180  1  0.58217000  0.88212000  0.68813000  1.0
  O  O181  1  0.41783000  0.11789000  0.31187000  1.0
  O  O182  1  0.56175000  0.88639000  0.79034000  1.0
  O  O183  1  0.43825000  0.11362000  0.20966000  1.0
  O  O184  1  0.84639000  0.81414000  0.78663000  1.0
  O  O185  1  0.15361000  0.18586000  0.21337000  1.0
  O  O186  1  0.84896000  0.87226000  0.68434000  1.0
  O  O187  1  0.15103000  0.12775000  0.31566000  1.0
  O  O188  1  0.68265000  0.02281000  0.67413000  1.0
  O  O189  1  0.31735000  0.97718000  0.32587000  1.0
  O  O190  1  0.70183000  0.98589000  0.77646000  1.0
  O  O191  1  0.29818000  0.01411000  0.22353000  1.0
  O  O192  1  0.75074000  0.73574000  0.68685000  1.0
  O  O193  1  0.24926000  0.26426000  0.31315000  1.0
  O  O194  1  0.70700000  0.71673000  0.78884000  1.0
  O  O195  1  0.29300000  0.28327000  0.21116000  1.0
