# generated using pymatgen
data_ZnH26C25NO7
_symmetry_space_group_name_H-M   'P 1'
_cell_length_a   10.83770000
_cell_length_b   16.46030000
_cell_length_c   17.52150000
_cell_angle_alpha   90.21460000
_cell_angle_beta   89.94340000
_cell_angle_gamma   89.65470000
_symmetry_Int_Tables_number   1
_chemical_formula_structural   ZnH26C25NO7
_chemical_formula_sum   'Zn2 H52 C50 N2 O14'
_cell_volume   3125.61152406
_cell_formula_units_Z   2
loop_
 _symmetry_equiv_pos_site_id
 _symmetry_equiv_pos_as_xyz
  1  'x, y, z'
loop_
 _atom_site_type_symbol
 _atom_site_label
 _atom_site_symmetry_multiplicity
 _atom_site_fract_x
 _atom_site_fract_y
 _atom_site_fract_z
 _atom_site_occupancy
  Zn  Zn0  1  0.50998000  0.41780000  0.49809000  1.0
  Zn  Zn1  1  0.51162000  0.58513000  0.49618000  1.0
  H  H2  1  0.12795000  0.37358000  0.49940000  1.0
  H  H3  1  0.11351000  0.63028000  0.46074000  1.0
  H  H4  1  0.12988000  0.41820000  0.40836000  1.0
  H  H5  1  0.13589000  0.56017000  0.38588000  1.0
  H  H6  1  0.88025000  0.48726000  0.60450000  1.0
  H  H7  1  0.89360000  0.58884000  0.57376000  1.0
  H  H8  1  0.46010000  0.36489000  0.72991000  1.0
  H  H9  1  0.46978000  0.62488000  0.73992000  1.0
  H  H10  1  0.33629000  0.38325000  0.27384000  1.0
  H  H11  1  0.51798000  0.61124000  0.24951000  1.0
  H  H12  1  0.37357000  0.28951000  0.41704000  1.0
  H  H13  1  0.33049000  0.71490000  0.46776000  1.0
  H  H14  1  0.64935000  0.28963000  0.57946000  1.0
  H  H15  1  0.70390000  0.71139000  0.51459000  1.0
  H  H16  1  0.65996000  0.13627000  0.58006000  1.0
  H  H17  1  0.71229000  0.86516000  0.51821000  1.0
  H  H18  1  0.39271000  0.08525000  0.35575000  1.0
  H  H19  1  0.27982000  0.08587000  0.42854000  1.0
  H  H20  1  0.28775000  0.16872000  0.36359000  1.0
  H  H21  1  0.26104000  0.91988000  0.50681000  1.0
  H  H22  1  0.29762000  0.91856000  0.40853000  1.0
  H  H23  1  0.21343000  0.83651000  0.44891000  1.0
  H  H24  1  0.91554000  0.33294000  0.29067000  1.0
  H  H25  1  0.04272000  0.31123000  0.35235000  1.0
  H  H26  1  0.02856000  0.40944000  0.30784000  1.0
  H  H27  1  0.81814000  0.55120000  0.25611000  1.0
  H  H28  1  0.75320000  0.59517000  0.34116000  1.0
  H  H29  1  0.76645000  0.48703000  0.33213000  1.0
  H  H30  1  0.90040000  0.25053000  0.56412000  1.0
  H  H31  1  0.02331000  0.26633000  0.49795000  1.0
  H  H32  1  0.86742000  0.25877000  0.46394000  1.0
  H  H33  1  0.93546000  0.69456000  0.33593000  1.0
  H  H34  1  0.03012000  0.72796000  0.41336000  1.0
  H  H35  1  0.87272000  0.76096000  0.40771000  1.0
  H  H36  1  0.20123000  0.45125000  0.64628000  1.0
  H  H37  1  0.05657000  0.47038000  0.69087000  1.0
  H  H38  1  0.06764000  0.39615000  0.61780000  1.0
  H  H39  1  0.09358000  0.65553000  0.57530000  1.0
  H  H40  1  0.06564000  0.61427000  0.66687000  1.0
  H  H41  1  0.21366000  0.60276000  0.62429000  1.0
  H  H42  1  0.40106000  0.28607000  0.83796000  1.0
  H  H43  1  0.44848000  0.32800000  0.92735000  1.0
  H  H44  1  0.29260000  0.33475000  0.90004000  1.0
  H  H45  1  0.42948000  0.69686000  0.85564000  1.0
  H  H46  1  0.31112000  0.65117000  0.91161000  1.0
  H  H47  1  0.46525000  0.64340000  0.94182000  1.0
  H  H48  1  0.15707000  0.33815000  0.21339000  1.0
  H  H49  1  0.28955000  0.27392000  0.19783000  1.0
  H  H50  1  0.16379000  0.27283000  0.13117000  1.0
  H  H51  1  0.55082000  0.73258000  0.08034000  1.0
  H  H52  1  0.62254000  0.67513000  0.15525000  1.0
  H  H53  1  0.47356000  0.72091000  0.17042000  1.0
  C  C54  1  0.46745000  0.49538000  0.34989000  1.0
  C  C55  1  0.27099000  0.50651000  0.50345000  1.0
  C  C56  1  0.50517000  0.49825000  0.64526000  1.0
  C  C57  1  0.74669000  0.50191000  0.48310000  1.0
  C  C58  1  0.08923000  0.42331000  0.46552000  1.0
  C  C59  1  0.08777000  0.56982000  0.44037000  1.0
  C  C60  1  0.94731000  0.41722000  0.46326000  1.0
  C  C61  1  0.94750000  0.56687000  0.42607000  1.0
  C  C62  1  0.07008000  0.52266000  0.57821000  1.0
  C  C63  1  0.13034000  0.50562000  0.49799000  1.0
  C  C64  1  0.88912000  0.50246000  0.48190000  1.0
  C  C65  1  0.92834000  0.52695000  0.56421000  1.0
  C  C66  1  0.41232000  0.41672000  0.83953000  1.0
  C  C67  1  0.42097000  0.56661000  0.84575000  1.0
  C  C68  1  0.44866000  0.42047000  0.76334000  1.0
  C  C69  1  0.45454000  0.56743000  0.76912000  1.0
  C  C70  1  0.47038000  0.49510000  0.72779000  1.0
  C  C71  1  0.40084000  0.49039000  0.88149000  1.0
  C  C72  1  0.37669000  0.48889000  0.96067000  1.0
  C  C73  1  0.36891000  0.49048000  0.03029000  1.0
  C  C74  1  0.33705000  0.43180000  0.15847000  1.0
  C  C75  1  0.44216000  0.56134000  0.14428000  1.0
  C  C76  1  0.36414000  0.43222000  0.23628000  1.0
  C  C77  1  0.46791000  0.56211000  0.22218000  1.0
  C  C78  1  0.43154000  0.49662000  0.26733000  1.0
  C  C79  1  0.37964000  0.49477000  0.11019000  1.0
  C  C80  1  0.43092000  0.16762000  0.44847000  1.0
  C  C81  1  0.40683000  0.83629000  0.47621000  1.0
  C  C82  1  0.43407000  0.25214000  0.45244000  1.0
  C  C83  1  0.41246000  0.75171000  0.47781000  1.0
  C  C84  1  0.58997000  0.25252000  0.54339000  1.0
  C  C85  1  0.62249000  0.74951000  0.50533000  1.0
  C  C86  1  0.59509000  0.16831000  0.54334000  1.0
  C  C87  1  0.62624000  0.83374000  0.50633000  1.0
  C  C88  1  0.51486000  0.12447000  0.49553000  1.0
  C  C89  1  0.51767000  0.87851000  0.49182000  1.0
  C  C90  1  0.51759000  0.03855000  0.49439000  1.0
  C  C91  1  0.51867000  0.96444000  0.49291000  1.0
  C  C92  1  0.34302000  0.12492000  0.39621000  1.0
  C  C93  1  0.28821000  0.87982000  0.45921000  1.0
  C  C94  1  0.97718000  0.35896000  0.33394000  1.0
  C  C95  1  0.81011000  0.54521000  0.31829000  1.0
  C  C96  1  0.92570000  0.28122000  0.51089000  1.0
  C  C97  1  0.93569000  0.70965000  0.39720000  1.0
  C  C98  1  0.10149000  0.45568000  0.63621000  1.0
  C  C99  1  0.11409000  0.60364000  0.61255000  1.0
  C  C100  1  0.38755000  0.33694000  0.87783000  1.0
  C  C101  1  0.40643000  0.64396000  0.89070000  1.0
  C  C102  1  0.21802000  0.31110000  0.16968000  1.0
  C  C103  1  0.53416000  0.69120000  0.12802000  1.0
  N  N104  1  0.51079000  0.29327000  0.49841000  1.0
  N  N105  1  0.51655000  0.70969000  0.49191000  1.0
  O  O106  1  0.45141000  0.42877000  0.38552000  1.0
  O  O107  1  0.51174000  0.56029000  0.37820000  1.0
  O  O108  1  0.32513000  0.44101000  0.52243000  1.0
  O  O109  1  0.32411000  0.57339000  0.48815000  1.0
  O  O110  1  0.54118000  0.43234000  0.61321000  1.0
  O  O111  1  0.49348000  0.56678000  0.61232000  1.0
  O  O112  1  0.68935000  0.43675000  0.46870000  1.0
  O  O113  1  0.69563000  0.56856000  0.50289000  1.0
  O  O114  1  0.89806000  0.38613000  0.39346000  1.0
  O  O115  1  0.93422000  0.54806000  0.34716000  1.0
  O  O116  1  0.90643000  0.36532000  0.52417000  1.0
  O  O117  1  0.89106000  0.64440000  0.44245000  1.0
  O  O118  1  0.27122000  0.37222000  0.12272000  1.0
  O  O119  1  0.47617000  0.62166000  0.09542000  1.0
