# generated using pymatgen
data_NiH14C6(NO5)2
_symmetry_space_group_name_H-M   'P 1'
_cell_length_a   4.96029000
_cell_length_b   5.33958000
_cell_length_c   11.67010000
_cell_angle_alpha   84.62240000
_cell_angle_beta   80.16780000
_cell_angle_gamma   84.76880000
_symmetry_Int_Tables_number   1
_chemical_formula_structural   NiH14C6(NO5)2
_chemical_formula_sum   'Ni1 H14 C6 N2 O10'
_cell_volume   302.32079443
_cell_formula_units_Z   1
loop_
 _symmetry_equiv_pos_site_id
 _symmetry_equiv_pos_as_xyz
  1  'x, y, z'
loop_
 _atom_site_type_symbol
 _atom_site_label
 _atom_site_symmetry_multiplicity
 _atom_site_fract_x
 _atom_site_fract_y
 _atom_site_fract_z
 _atom_site_occupancy
  Ni  Ni0  1  0.00003000  0.50001000  0.99999000  1.0
  H  H1  1  0.20508000  0.45450000  0.36263000  1.0
  H  H2  1  0.79481000  0.54548000  0.63740000  1.0
  H  H3  1  0.51992000  0.58503000  0.30367000  1.0
  H  H4  1  0.48001000  0.41491000  0.69636000  1.0
  H  H5  1  0.47998000  0.63053000  0.86932000  1.0
  H  H6  1  0.52007000  0.36953000  0.13067000  1.0
  H  H7  1  0.42055000  0.88379000  0.43136000  1.0
  H  H8  1  0.57943000  0.11619000  0.56864000  1.0
  H  H9  1  0.21871000  0.07784000  0.05960000  1.0
  H  H10  1  0.78134000  0.92222000  0.94038000  1.0
  H  H11  1  0.22989000  0.06219000  0.92674000  1.0
  H  H12  1  0.77013000  0.93785000  0.07325000  1.0
  H  H13  1  0.21942000  0.75629000  0.81002000  1.0
  H  H14  1  0.78062000  0.24373000  0.18995000  1.0
  C  C15  1  0.18854000  0.70987000  0.20991000  1.0
  C  C16  1  0.81148000  0.29011000  0.79008000  1.0
  C  C17  1  0.00089000  0.89839000  0.45752000  1.0
  C  C18  1  0.99906000  0.10161000  0.54248000  1.0
  C  C19  1  0.29722000  0.62911000  0.32447000  1.0
  C  C20  1  0.70271000  0.37085000  0.67555000  1.0
  N  N21  1  0.25164000  0.81814000  0.40736000  1.0
  N  N22  1  0.74831000  0.18181000  0.59267000  1.0
  O  O23  1  0.78408000  0.81783000  0.43997000  1.0
  O  O24  1  0.21589000  0.18215000  0.56005000  1.0
  O  O25  1  0.09975000  0.93390000  0.18928000  1.0
  O  O26  1  0.90030000  0.06608000  0.81070000  1.0
  O  O27  1  0.28648000  0.70873000  0.88354000  1.0
  O  O28  1  0.71357000  0.29131000  0.11643000  1.0
  O  O29  1  0.20387000  0.52920000  0.14272000  1.0
  O  O30  1  0.79618000  0.47079000  0.85728000  1.0
  O  O31  1  0.25581000  0.18047000  0.98298000  1.0
  O  O32  1  0.74426000  0.81957000  0.01702000  1.0
