# generated using pymatgen
data_ZnH17C20NO6
_symmetry_space_group_name_H-M   'P 1'
_cell_length_a   9.56229000
_cell_length_b   10.92760000
_cell_length_c   17.10800000
_cell_angle_alpha   89.55090000
_cell_angle_beta   86.85710000
_cell_angle_gamma   87.76790000
_symmetry_Int_Tables_number   1
_chemical_formula_structural   ZnH17C20NO6
_chemical_formula_sum   'Zn2 H34 C40 N2 O12'
_cell_volume   1783.59188656
_cell_formula_units_Z   2
loop_
 _symmetry_equiv_pos_site_id
 _symmetry_equiv_pos_as_xyz
  1  'x, y, z'
loop_
 _atom_site_type_symbol
 _atom_site_label
 _atom_site_symmetry_multiplicity
 _atom_site_fract_x
 _atom_site_fract_y
 _atom_site_fract_z
 _atom_site_occupancy
  Zn  Zn0  1  0.63973000  0.47477000  0.50419000  1.0
  Zn  Zn1  1  0.35366000  0.48035000  0.50448000  1.0
  H  H2  1  0.37659000  0.68112000  0.00468000  1.0
  H  H3  1  0.12777000  0.64681000  0.44866000  1.0
  H  H4  1  0.14013000  0.59208000  0.15010000  1.0
  H  H5  1  0.18975000  0.43485000  0.13340000  1.0
  H  H6  1  0.05546000  0.47692000  0.20535000  1.0
  H  H7  1  0.27151000  0.41930000  0.27277000  1.0
  H  H8  1  0.22106000  0.57116000  0.28872000  1.0
  H  H9  1  0.86450000  0.45732000  0.80588000  1.0
  H  H10  1  0.79398000  0.38556000  0.72396000  1.0
  H  H11  1  0.94989000  0.47132000  0.71206000  1.0
  H  H12  1  0.74908000  0.59534000  0.66356000  1.0
  H  H13  1  0.68832000  0.60276000  0.99491000  1.0
  H  H14  1  0.81576000  0.66282000  0.74691000  1.0
  H  H15  1  0.19714000  0.44859000  0.73290000  1.0
  H  H16  1  0.76710000  0.69311000  0.32786000  1.0
  H  H17  1  0.81181000  0.71602000  0.06975000  1.0
  H  H18  1  0.20560000  0.68001000  0.94924000  1.0
  H  H19  1  0.10599000  0.96826000  0.57550000  1.0
  H  H20  1  0.14405000  0.81957000  0.53680000  1.0
  H  H21  1  0.07200000  0.83579000  0.63452000  1.0
  H  H22  1  0.32399000  0.78165000  0.63710000  1.0
  H  H23  1  0.29139000  0.93102000  0.67326000  1.0
  H  H24  1  0.70170000  0.65903000  0.87060000  1.0
  H  H25  1  0.92984000  0.10718000  0.37442000  1.0
  H  H26  1  0.85517000  0.13906000  0.47013000  1.0
  H  H27  1  0.88856000  0.98497000  0.44005000  1.0
  H  H28  1  0.70796000  0.01445000  0.33849000  1.0
  H  H29  1  0.67553000  0.16768000  0.36931000  1.0
  H  H30  1  0.35568000  0.55709000  0.09668000  1.0
  H  H31  1  0.34131000  0.11365000  0.58748000  1.0
  H  H32  1  0.65749000  0.84191000  0.42364000  1.0
  H  H33  1  0.13392000  0.30769000  0.55967000  1.0
  H  H34  1  0.86011000  0.64539000  0.44814000  1.0
  H  H35  1  0.86549000  0.30723000  0.56036000  1.0
  C  C36  1  0.48857000  0.71488000  0.51545000  1.0
  C  C37  1  0.92241000  0.57044000  0.47258000  1.0
  C  C38  1  0.92567000  0.38215000  0.53547000  1.0
  C  C39  1  0.06776000  0.57140000  0.47305000  1.0
  C  C40  1  0.50624000  0.52057000  0.35243000  1.0
  C  C41  1  0.49149000  0.49170000  0.65630000  1.0
  C  C42  1  0.51950000  0.55578000  0.26754000  1.0
  C  C43  1  0.49195000  0.54761000  0.73594000  1.0
  C  C44  1  0.40772000  0.54710000  0.21627000  1.0
  C  C45  1  0.61635000  0.58630000  0.76876000  1.0
  C  C46  1  0.43621000  0.57379000  0.13734000  1.0
  C  C47  1  0.50563000  0.24167000  0.49548000  1.0
  C  C48  1  0.60596000  0.63041000  0.84524000  1.0
  C  C49  1  0.56504000  0.61527000  0.10675000  1.0
  C  C50  1  0.47973000  0.63667000  0.89099000  1.0
  C  C51  1  0.67147000  0.63337000  0.15960000  1.0
  C  C52  1  0.35396000  0.60971000  0.85478000  1.0
  C  C53  1  0.64948000  0.59857000  0.23886000  1.0
  C  C54  1  0.36165000  0.56680000  0.77706000  1.0
  C  C55  1  0.58507000  0.62852000  0.02162000  1.0
  C  C56  1  0.47741000  0.65518000  0.97537000  1.0
  C  C57  1  0.26246000  0.50808000  0.24235000  1.0
  C  C58  1  0.39895000  0.92595000  0.56062000  1.0
  C  C59  1  0.15709000  0.50263000  0.17870000  1.0
  C  C60  1  0.75934000  0.58413000  0.72667000  1.0
  C  C61  1  0.84666000  0.46668000  0.74316000  1.0
  C  C62  1  0.22618000  0.54578000  0.73771000  1.0
  C  C63  1  0.76999000  0.60774000  0.29241000  1.0
  C  C64  1  0.79758000  0.69844000  0.13392000  1.0
  C  C65  1  0.21632000  0.61676000  0.89838000  1.0
  C  C66  1  0.29295000  0.87534000  0.61979000  1.0
  C  C67  1  0.14448000  0.87510000  0.59000000  1.0
  C  C68  1  0.70595000  0.07546000  0.38956000  1.0
  C  C69  1  0.59887000  0.02971000  0.45003000  1.0
  C  C70  1  0.85381000  0.07663000  0.42026000  1.0
  C  C71  1  0.40973000  0.05222000  0.55126000  1.0
  C  C72  1  0.58837000  0.90321000  0.45976000  1.0
  C  C73  1  0.50665000  0.10494000  0.49771000  1.0
  C  C74  1  0.49102000  0.85146000  0.51291000  1.0
  C  C75  1  0.07094000  0.38272000  0.53558000  1.0
  N  N76  1  0.85324000  0.47607000  0.50396000  1.0
  N  N77  1  0.14008000  0.47768000  0.50451000  1.0
  O  O78  1  0.60276000  0.65760000  0.53025000  1.0
  O  O79  1  0.86727000  0.53161000  0.29390000  1.0
  O  O80  1  0.88201000  0.73742000  0.17848000  1.0
  O  O81  1  0.11522000  0.55807000  0.88148000  1.0
  O  O82  1  0.38693000  0.29717000  0.50905000  1.0
  O  O83  1  0.37436000  0.66576000  0.50044000  1.0
  O  O84  1  0.62138000  0.29463000  0.48207000  1.0
  O  O85  1  0.61689000  0.53275000  0.39012000  1.0
  O  O86  1  0.37270000  0.49413000  0.62526000  1.0
  O  O87  1  0.39162000  0.48271000  0.38251000  1.0
  O  O88  1  0.60451000  0.44606000  0.62427000  1.0
  O  O89  1  0.14998000  0.63096000  0.71661000  1.0
