# generated using pymatgen
data_Cu3P4H18C10(NO4)4
_symmetry_space_group_name_H-M   'P 1'
_cell_length_a   7.36684000
_cell_length_b   8.18246000
_cell_length_c   9.58992000
_cell_angle_alpha   105.12500000
_cell_angle_beta   107.62000000
_cell_angle_gamma   100.88900000
_symmetry_Int_Tables_number   1
_chemical_formula_structural   Cu3P4H18C10(NO4)4
_chemical_formula_sum   'Cu3 P4 H18 C10 N4 O16'
_cell_volume   508.82018762
_cell_formula_units_Z   1
loop_
 _symmetry_equiv_pos_site_id
 _symmetry_equiv_pos_as_xyz
  1  'x, y, z'
loop_
 _atom_site_type_symbol
 _atom_site_label
 _atom_site_symmetry_multiplicity
 _atom_site_fract_x
 _atom_site_fract_y
 _atom_site_fract_z
 _atom_site_occupancy
  Cu  Cu0  1  0.91817000  0.24477000  0.06641000  1.0
  Cu  Cu1  1  0.08244000  0.75525000  0.93401000  1.0
  Cu  Cu2  1  0.49980000  0.00040000  0.50083000  1.0
  P  P3  1  0.87808000  0.99270000  0.76327000  1.0
  P  P4  1  0.12209000  0.00757000  0.23680000  1.0
  P  P5  1  0.83593000  0.35024000  0.77232000  1.0
  P  P6  1  0.16405000  0.64976000  0.22800000  1.0
  H  H7  1  0.08762000  0.38021000  0.43346000  1.0
  H  H8  1  0.91243000  0.61962000  0.56632000  1.0
  H  H9  1  0.45576000  0.42816000  0.88541000  1.0
  H  H10  1  0.54414000  0.57167000  0.11448000  1.0
  H  H11  1  0.61350000  0.71764000  0.81135000  1.0
  H  H12  1  0.38653000  0.28207000  0.18868000  1.0
  H  H13  1  0.18424000  0.10785000  0.65280000  1.0
  H  H14  1  0.81536000  0.89193000  0.34684000  1.0
  H  H15  1  0.97214000  0.15496000  0.53882000  1.0
  H  H16  1  0.02721000  0.84518000  0.46151000  1.0
  H  H17  1  0.37189000  0.66049000  0.53066000  1.0
  H  H18  1  0.62858000  0.33915000  0.46906000  1.0
  H  H19  1  0.18844000  0.42081000  0.97938000  1.0
  H  H20  1  0.81244000  0.57944000  0.02119000  1.0
  H  H21  1  0.28344000  0.94570000  0.77357000  1.0
  H  H22  1  0.71623000  0.05420000  0.22590000  1.0
  H  H23  1  0.51753000  0.99802000  0.80946000  1.0
  H  H24  1  0.48247000  0.00223000  0.19100000  1.0
  C  C25  1  0.20345000  0.43581000  0.54836000  1.0
  C  C26  1  0.79669000  0.56398000  0.45143000  1.0
  C  C27  1  0.40142000  0.46877000  0.78618000  1.0
  C  C28  1  0.59851000  0.53109000  0.21371000  1.0
  C  C29  1  0.48099000  0.60649000  0.74625000  1.0
  C  C30  1  0.51898000  0.39333000  0.25364000  1.0
  C  C31  1  0.09640000  0.20198000  0.65110000  1.0
  C  C32  1  0.90350000  0.79806000  0.34892000  1.0
  C  C33  1  0.01541000  0.21866000  0.78254000  1.0
  C  C34  1  0.98509000  0.78177000  0.21783000  1.0
  N  N35  1  0.22710000  0.36634000  0.66241000  1.0
  N  N36  1  0.77287000  0.63355000  0.33741000  1.0
  N  N37  1  0.35574000  0.58174000  0.59807000  1.0
  N  N38  1  0.64439000  0.41808000  0.40177000  1.0
  O  O39  1  0.71557000  0.91040000  0.59985000  1.0
  O  O40  1  0.28482000  0.09049000  0.40007000  1.0
  O  O41  1  0.79026000  0.02062000  0.89269000  1.0
  O  O42  1  0.20981000  0.97963000  0.10728000  1.0
  O  O43  1  0.02792000  0.88337000  0.78336000  1.0
  O  O44  1  0.97139000  0.11607000  0.21599000  1.0
  O  O45  1  0.79077000  0.36773000  0.92296000  1.0
  O  O46  1  0.20836000  0.63123000  0.07677000  1.0
  O  O47  1  0.93427000  0.53108000  0.76716000  1.0
  O  O48  1  0.06330000  0.46966000  0.23310000  1.0
  O  O49  1  0.65607000  0.25137000  0.61919000  1.0
  O  O50  1  0.34535000  0.74842000  0.38012000  1.0
  O  O51  1  0.17028000  0.29057000  0.93431000  1.0
  O  O52  1  0.83043000  0.70963000  0.06593000  1.0
  O  O53  1  0.38515000  0.97002000  0.72900000  1.0
  O  O54  1  0.61515000  0.03003000  0.27103000  1.0
