# generated using pymatgen
data_Cu3H16(C6N11)2
_symmetry_space_group_name_H-M   'P 1'
_cell_length_a   7.39977000
_cell_length_b   9.07932000
_cell_length_c   9.26942000
_cell_angle_alpha   76.49710000
_cell_angle_beta   75.62180000
_cell_angle_gamma   71.00130000
_symmetry_Int_Tables_number   1
_chemical_formula_structural   Cu3H16(C6N11)2
_chemical_formula_sum   'Cu3 H16 C12 N22'
_cell_volume   562.41827045
_cell_formula_units_Z   1
loop_
 _symmetry_equiv_pos_site_id
 _symmetry_equiv_pos_as_xyz
  1  'x, y, z'
loop_
 _atom_site_type_symbol
 _atom_site_label
 _atom_site_symmetry_multiplicity
 _atom_site_fract_x
 _atom_site_fract_y
 _atom_site_fract_z
 _atom_site_occupancy
  Cu  Cu0  1  0.00065000  0.49991000  0.50000000  1.0
  Cu  Cu1  1  0.43215000  0.39791000  0.28169000  1.0
  Cu  Cu2  1  0.56721000  0.60207000  0.71846000  1.0
  H  H3  1  0.67549000  0.08993000  0.38833000  1.0
  H  H4  1  0.32429000  0.91007000  0.61175000  1.0
  H  H5  1  0.89085000  0.84044000  0.00836000  1.0
  H  H6  1  0.10933000  0.15984000  0.99153000  1.0
  H  H7  1  0.67216000  0.06773000  0.86399000  1.0
  H  H8  1  0.32744000  0.93249000  0.13609000  1.0
  H  H9  1  0.46968000  0.29896000  0.98838000  1.0
  H  H10  1  0.52977000  0.70100000  0.01186000  1.0
  H  H11  1  0.08120000  0.79439000  0.24299000  1.0
  H  H12  1  0.91913000  0.20634000  0.75668000  1.0
  H  H13  1  0.92230000  0.85183000  0.40992000  1.0
  H  H14  1  0.07808000  0.14860000  0.58987000  1.0
  H  H15  1  0.92591000  0.61477000  0.23862000  1.0
  H  H16  1  0.07531000  0.38527000  0.76128000  1.0
  H  H17  1  0.73372000  0.68300000  0.36751000  1.0
  H  H18  1  0.26761000  0.31652000  0.63265000  1.0
  C  C19  1  0.67947000  0.07905000  0.27266000  1.0
  C  C20  1  0.32030000  0.92097000  0.72741000  1.0
  C  C21  1  0.79952000  0.94634000  0.21068000  1.0
  C  C22  1  0.20055000  0.05383000  0.78927000  1.0
  C  C23  1  0.79769000  0.94175000  0.06122000  1.0
  C  C24  1  0.20230000  0.05845000  0.93875000  1.0
  C  C25  1  0.67748000  0.06822000  0.98034000  1.0
  C  C26  1  0.32222000  0.93187000  0.01974000  1.0
  C  C27  1  0.56312000  0.19709000  0.04950000  1.0
  C  C28  1  0.43641000  0.80289000  0.95069000  1.0
  C  C29  1  0.93003000  0.81547000  0.30335000  1.0
  C  C30  1  0.07039000  0.18489000  0.69647000  1.0
  N  N31  1  0.30940000  0.56487000  0.40955000  1.0
  N  N32  1  0.69062000  0.43505000  0.58995000  1.0
  N  N33  1  0.37395000  0.67078000  0.40740000  1.0
  N  N34  1  0.62619000  0.32909000  0.59225000  1.0
  N  N35  1  0.43332000  0.77563000  0.40767000  1.0
  N  N36  1  0.56683000  0.22418000  0.59196000  1.0
  N  N37  1  0.17113000  0.35385000  0.34703000  1.0
  N  N38  1  0.82795000  0.64603000  0.65282000  1.0
  N  N39  1  0.12409000  0.25182000  0.31365000  1.0
  N  N40  1  0.87506000  0.74779000  0.68694000  1.0
  N  N41  1  0.07784000  0.15433000  0.28218000  1.0
  N  N42  1  0.92172000  0.84483000  0.71858000  1.0
  N  N43  1  0.65461000  0.48691000  0.19021000  1.0
  N  N44  1  0.34482000  0.51303000  0.80960000  1.0
  N  N45  1  0.76489000  0.44244000  0.07900000  1.0
  N  N46  1  0.23490000  0.55748000  0.92096000  1.0
  N  N47  1  0.87238000  0.40434000  0.96959000  1.0
  N  N48  1  0.12781000  0.59567000  0.03049000  1.0
  N  N49  1  0.56465000  0.20194000  0.19344000  1.0
  N  N50  1  0.43486000  0.79799000  0.80676000  1.0
  N  N51  1  0.88205000  0.66355000  0.33538000  1.0
  N  N52  1  0.11914000  0.33648000  0.66453000  1.0
