# generated using pymatgen
data_SnH15C11NO4
_symmetry_space_group_name_H-M   'P 1'
_cell_length_a   7.94890000
_cell_length_b   7.94900000
_cell_length_c   21.92060000
_cell_angle_alpha   83.28510000
_cell_angle_beta   83.28610000
_cell_angle_gamma   78.47830000
_symmetry_Int_Tables_number   1
_chemical_formula_structural   SnH15C11NO4
_chemical_formula_sum   'Sn4 H60 C44 N4 O16'
_cell_volume   1341.60717745
_cell_formula_units_Z   4
loop_
 _symmetry_equiv_pos_site_id
 _symmetry_equiv_pos_as_xyz
  1  'x, y, z'
loop_
 _atom_site_type_symbol
 _atom_site_label
 _atom_site_symmetry_multiplicity
 _atom_site_fract_x
 _atom_site_fract_y
 _atom_site_fract_z
 _atom_site_occupancy
  Sn  Sn0  1  0.75907000  0.85614000  0.23252000  1.0
  Sn  Sn1  1  0.14385000  0.24092000  0.26748000  1.0
  Sn  Sn2  1  0.24093000  0.14385000  0.76748000  1.0
  Sn  Sn3  1  0.85614000  0.75908000  0.73252000  1.0
  H  H4  1  0.73158000  0.10941000  0.30891000  1.0
  H  H5  1  0.89058000  0.26844000  0.19109000  1.0
  H  H6  1  0.26843000  0.89059000  0.69109000  1.0
  H  H7  1  0.10943000  0.73156000  0.80891000  1.0
  H  H8  1  0.79635000  0.90557000  0.35106000  1.0
  H  H9  1  0.09442000  0.20366000  0.14894000  1.0
  H  H10  1  0.20366000  0.09444000  0.64894000  1.0
  H  H11  1  0.90559000  0.79633000  0.85106000  1.0
  H  H12  1  0.57543000  0.97766000  0.33541000  1.0
  H  H13  1  0.02233000  0.42459000  0.16459000  1.0
  H  H14  1  0.42458000  0.02235000  0.66459000  1.0
  H  H15  1  0.97767000  0.57541000  0.83541000  1.0
  H  H16  1  0.09230000  0.89959000  0.19675000  1.0
  H  H17  1  0.10042000  0.90769000  0.30325000  1.0
  H  H18  1  0.90770000  0.10041000  0.80325000  1.0
  H  H19  1  0.89959000  0.09231000  0.69675000  1.0
  H  H20  1  0.98075000  0.89032000  0.13145000  1.0
  H  H21  1  0.10968000  0.01924000  0.36855000  1.0
  H  H22  1  0.01926000  0.10968000  0.86855000  1.0
  H  H23  1  0.89032000  0.98076000  0.63145000  1.0
  H  H24  1  0.06310000  0.69581000  0.17781000  1.0
  H  H25  1  0.30420000  0.93690000  0.32219000  1.0
  H  H26  1  0.93691000  0.30419000  0.82219000  1.0
  H  H27  1  0.69581000  0.06310000  0.67780000  1.0
  H  H28  1  0.46882000  0.71993000  0.24156000  1.0
  H  H29  1  0.28007000  0.53117000  0.25844000  1.0
  H  H30  1  0.53119000  0.28006000  0.75844000  1.0
  H  H31  1  0.71995000  0.46882000  0.74156000  1.0
  H  H32  1  0.63779000  0.59597000  0.19471000  1.0
  H  H33  1  0.40403000  0.36221000  0.30529000  1.0
  H  H34  1  0.36223000  0.40402000  0.80529000  1.0
  H  H35  1  0.59598000  0.63777000  0.69471000  1.0
  H  H36  1  0.51758000  0.79760000  0.16299000  1.0
  H  H37  1  0.20241000  0.48242000  0.33700000  1.0
  H  H38  1  0.48244000  0.20239000  0.83700000  1.0
  H  H39  1  0.79761000  0.51756000  0.66300000  1.0
  H  H40  1  0.34110000  0.30764000  0.11396000  1.0
  H  H41  1  0.69236000  0.65890000  0.38604000  1.0
  H  H42  1  0.65890000  0.69236000  0.88604000  1.0
  H  H43  1  0.30764000  0.34112000  0.61396000  1.0
  H  H44  1  0.43803000  0.44353000  0.15104000  1.0
  H  H45  1  0.55647000  0.56198000  0.34896000  1.0
  H  H46  1  0.56197000  0.55647000  0.84896000  1.0
  H  H47  1  0.44353000  0.43804000  0.65103000  1.0
  H  H48  1  0.58852000  0.60951000  0.08186000  1.0
  H  H49  1  0.39049000  0.41148000  0.41815000  1.0
  H  H50  1  0.41148000  0.39048000  0.91815000  1.0
  H  H51  1  0.60950000  0.58853000  0.58185000  1.0
  H  H52  1  0.79964000  0.65013000  0.99320000  1.0
  H  H53  1  0.34988000  0.20035000  0.50680000  1.0
  H  H54  1  0.20036000  0.34989000  0.00681000  1.0
  H  H55  1  0.65009000  0.79966000  0.49318000  1.0
  H  H56  1  0.93588000  0.40268000  0.93152000  1.0
  H  H57  1  0.59734000  0.06410000  0.56849000  1.0
  H  H58  1  0.06413000  0.59736000  0.06849000  1.0
  H  H59  1  0.40261000  0.93589000  0.43151000  1.0
  H  H60  1  0.85483000  0.11426000  0.96253000  1.0
  H  H61  1  0.88575000  0.14516000  0.53747000  1.0
  H  H62  1  0.14519000  0.88577000  0.03747000  1.0
  H  H63  1  0.11420000  0.85482000  0.46253000  1.0
  C  C64  1  0.71013000  0.97652000  0.31736000  1.0
  C  C65  1  0.02347000  0.28988000  0.18264000  1.0
  C  C66  1  0.28987000  0.02350000  0.68264000  1.0
  C  C67  1  0.97652000  0.71012000  0.81736000  1.0
  C  C68  1  0.00457000  0.83262000  0.17826000  1.0
  C  C69  1  0.16738000  0.99542000  0.32174000  1.0
  C  C70  1  0.99543000  0.16737000  0.82174000  1.0
  C  C71  1  0.83263000  0.00458000  0.67826000  1.0
  C  C72  1  0.57238000  0.72664000  0.20423000  1.0
  C  C73  1  0.27336000  0.42761000  0.29577000  1.0
  C  C74  1  0.42763000  0.27336000  0.79577000  1.0
  C  C75  1  0.72665000  0.57237000  0.70423000  1.0
  C  C76  1  0.52033000  0.17462000  0.17614000  1.0
  C  C77  1  0.82538000  0.47967000  0.32386000  1.0
  C  C78  1  0.47966000  0.82538000  0.82386000  1.0
  C  C79  1  0.17462000  0.52034000  0.67614000  1.0
  C  C80  1  0.46454000  0.32384000  0.12794000  1.0
  C  C81  1  0.67615000  0.53545000  0.37207000  1.0
  C  C82  1  0.53546000  0.67614000  0.87206000  1.0
  C  C83  1  0.32386000  0.46455000  0.62794000  1.0
  C  C84  1  0.59337000  0.34203000  0.07276000  1.0
  C  C85  1  0.65796000  0.40662000  0.42725000  1.0
  C  C86  1  0.40663000  0.65796000  0.92724000  1.0
  C  C87  1  0.34202000  0.59338000  0.57276000  1.0
  C  C88  1  0.64476000  0.50067000  0.05537000  1.0
  C  C89  1  0.49932000  0.35525000  0.44463000  1.0
  C  C90  1  0.35524000  0.49933000  0.94464000  1.0
  C  C91  1  0.50066000  0.64477000  0.55536000  1.0
  C  C92  1  0.76514000  0.52362000  0.00495000  1.0
  C  C93  1  0.47638000  0.23485000  0.49505000  1.0
  C  C94  1  0.23486000  0.47639000  0.99506000  1.0
  C  C95  1  0.52359000  0.76515000  0.50494000  1.0
  C  C96  1  0.84106000  0.38594000  0.97069000  1.0
  C  C97  1  0.61407000  0.15894000  0.52931000  1.0
  C  C98  1  0.15895000  0.61408000  0.02932000  1.0
  C  C99  1  0.38589000  0.84106000  0.47068000  1.0
  C  C100  1  0.79656000  0.22531000  0.98747000  1.0
  C  C101  1  0.77470000  0.20342000  0.51254000  1.0
  C  C102  1  0.20346000  0.77470000  0.01253000  1.0
  C  C103  1  0.22527000  0.79656000  0.48746000  1.0
  C  C104  1  0.67325000  0.20599000  0.03730000  1.0
  C  C105  1  0.79401000  0.32675000  0.46270000  1.0
  C  C106  1  0.32676000  0.79403000  0.96270000  1.0
  C  C107  1  0.20596000  0.67325000  0.53730000  1.0
  N  N108  1  0.63245000  0.03355000  0.05179000  1.0
  N  N109  1  0.96646000  0.36753000  0.44821000  1.0
  N  N110  1  0.36758000  0.96644000  0.94820000  1.0
  N  N111  1  0.03354000  0.63242000  0.55180000  1.0
  O  O112  1  0.67965000  0.10235000  0.17206000  1.0
  O  O113  1  0.89764000  0.32035000  0.32794000  1.0
  O  O114  1  0.32035000  0.89764000  0.82794000  1.0
  O  O115  1  0.10235000  0.67966000  0.67206000  1.0
  O  O116  1  0.41154000  0.12657000  0.21795000  1.0
  O  O117  1  0.87343000  0.58846000  0.28206000  1.0
  O  O118  1  0.58846000  0.87341000  0.78205000  1.0
  O  O119  1  0.12659000  0.41156000  0.71795000  1.0
  O  O120  1  0.75072000  0.90782000  0.04344000  1.0
  O  O121  1  0.09217000  0.24929000  0.45656000  1.0
  O  O122  1  0.24929000  0.09219000  0.95655000  1.0
  O  O123  1  0.90779000  0.75070000  0.54344000  1.0
  O  O124  1  0.48161000  0.02057000  0.07138000  1.0
  O  O125  1  0.97943000  0.51841000  0.42862000  1.0
  O  O126  1  0.51840000  0.97943000  0.92862000  1.0
  O  O127  1  0.02056000  0.48159000  0.57138000  1.0
