# generated using pymatgen
data_ZnH7C20Br4N3O8
_symmetry_space_group_name_H-M   'P 1'
_cell_length_a   13.34780000
_cell_length_b   16.59310000
_cell_length_c   17.53820000
_cell_angle_alpha   95.13230000
_cell_angle_beta   90.46610000
_cell_angle_gamma   92.52710000
_symmetry_Int_Tables_number   1
_chemical_formula_structural   ZnH7C20Br4N3O8
_chemical_formula_sum   'Zn2 H14 C40 Br8 N6 O16'
_cell_volume   3864.76413395
_cell_formula_units_Z   2
loop_
 _symmetry_equiv_pos_site_id
 _symmetry_equiv_pos_as_xyz
  1  'x, y, z'
loop_
 _atom_site_type_symbol
 _atom_site_label
 _atom_site_symmetry_multiplicity
 _atom_site_fract_x
 _atom_site_fract_y
 _atom_site_fract_z
 _atom_site_occupancy
  Zn  Zn0  1  0.51033000  0.40859000  0.50778000  1.0
  Zn  Zn1  1  0.50930000  0.58883000  0.51300000  1.0
  H  H2  1  0.38485000  0.70748000  0.45600000  1.0
  H  H3  1  0.37284000  0.85587000  0.45309000  1.0
  H  H4  1  0.35522000  0.12348000  0.39468000  1.0
  H  H5  1  0.58503000  0.11916000  0.57005000  1.0
  H  H6  1  0.56358000  0.00383000  0.56059000  1.0
  H  H7  1  0.40279000  0.99016000  0.43233000  1.0
  H  H8  1  0.44118000  0.59498000  0.27598000  1.0
  H  H9  1  0.42981000  0.58904000  0.13413000  1.0
  H  H10  1  0.47867000  0.65021000  0.89299000  1.0
  H  H11  1  0.46552000  0.39020000  0.89254000  1.0
  H  H12  1  0.49730000  0.40813000  0.00449000  1.0
  H  H13  1  0.48570000  0.59369000  0.01442000  1.0
  H  H14  1  0.80677000  0.64379000  0.49149000  1.0
  H  H15  1  0.21012000  0.37056000  0.49955000  1.0
  C  C16  1  0.50943000  0.49200000  0.36486000  1.0
  C  C17  1  0.31423000  0.50875000  0.50579000  1.0
  C  C18  1  0.49394000  0.49731000  0.65427000  1.0
  C  C19  1  0.70320000  0.50714000  0.50049000  1.0
  C  C20  1  0.44195000  0.74939000  0.48369000  1.0
  C  C21  1  0.43652000  0.83219000  0.48172000  1.0
  C  C22  1  0.51147000  0.88503000  0.51773000  1.0
  C  C23  1  0.58989000  0.84899000  0.55534000  1.0
  C  C24  1  0.58815000  0.76440000  0.55707000  1.0
  C  C25  1  0.51053000  0.97261000  0.51933000  1.0
  C  C26  1  0.45577000  0.01796000  0.47583000  1.0
  C  C27  1  0.41016000  0.15225000  0.43579000  1.0
  C  C28  1  0.46678000  0.10636000  0.48229000  1.0
  C  C29  1  0.53627000  0.14924000  0.53281000  1.0
  C  C30  1  0.54614000  0.23287000  0.53472000  1.0
  C  C31  1  0.42529000  0.23629000  0.44153000  1.0
  C  C32  1  0.51181000  0.48233000  0.27868000  1.0
  C  C33  1  0.47026000  0.54422000  0.24057000  1.0
  C  C34  1  0.46468000  0.54081000  0.16162000  1.0
  C  C35  1  0.50045000  0.47452000  0.11561000  1.0
  C  C36  1  0.54299000  0.41209000  0.15351000  1.0
  C  C37  1  0.55026000  0.41565000  0.23393000  1.0
  C  C38  1  0.49302000  0.46920000  0.03251000  1.0
  C  C39  1  0.48485000  0.53131000  0.98820000  1.0
  C  C40  1  0.47827000  0.58980000  0.86299000  1.0
  C  C41  1  0.47879000  0.52154000  0.90478000  1.0
  C  C42  1  0.47126000  0.44521000  0.86321000  1.0
  C  C43  1  0.46960000  0.43759000  0.78376000  1.0
  C  C44  1  0.47814000  0.50548000  0.73960000  1.0
  C  C45  1  0.47646000  0.58174000  0.78324000  1.0
  C  C46  1  0.88165000  0.45241000  0.48577000  1.0
  C  C47  1  0.85769000  0.59428000  0.48894000  1.0
  C  C48  1  0.95906000  0.60979000  0.48465000  1.0
  C  C49  1  0.02985000  0.54780000  0.48440000  1.0
  C  C50  1  0.13646000  0.56058000  0.48826000  1.0
  C  C51  1  0.15938000  0.41958000  0.49573000  1.0
  C  C52  1  0.05860000  0.40305000  0.48537000  1.0
  C  C53  1  0.98809000  0.46526000  0.48371000  1.0
  C  C54  1  0.81621000  0.51512000  0.49028000  1.0
  C  C55  1  0.20095000  0.49899000  0.49710000  1.0
  Br  Br56  1  0.68703000  0.71686000  0.61305000  1.0
  Br  Br57  1  0.69837000  0.91319000  0.60166000  1.0
  Br  Br58  1  0.64551000  0.28387000  0.60074000  1.0
  Br  Br59  1  0.34870000  0.29175000  0.37372000  1.0
  Br  Br60  1  0.61743000  0.33211000  0.27758000  1.0
  Br  Br61  1  0.59450000  0.32257000  0.09269000  1.0
  Br  Br62  1  0.45042000  0.32743000  0.74241000  1.0
  Br  Br63  1  0.46236000  0.68199000  0.73939000  1.0
  N  N64  1  0.51641000  0.71576000  0.52107000  1.0
  N  N65  1  0.49137000  0.27807000  0.49058000  1.0
  N  N66  1  0.03318000  0.31536000  0.46844000  1.0
  N  N67  1  0.83868000  0.36897000  0.48862000  1.0
  N  N68  1  0.98563000  0.69643000  0.47715000  1.0
  N  N69  1  0.18313000  0.64275000  0.48379000  1.0
  O  O70  1  0.53252000  0.43138000  0.39971000  1.0
  O  O71  1  0.48312000  0.55980000  0.39661000  1.0
  O  O72  1  0.35312000  0.57872000  0.52564000  1.0
  O  O73  1  0.35902000  0.44360000  0.49262000  1.0
  O  O74  1  0.52616000  0.55969000  0.62330000  1.0
  O  O75  1  0.47735000  0.42747000  0.61893000  1.0
  O  O76  1  0.66618000  0.44345000  0.52544000  1.0
  O  O77  1  0.65703000  0.56896000  0.48467000  1.0
  O  O78  1  0.98468000  0.29632000  0.40849000  1.0
  O  O79  1  0.06836000  0.26823000  0.51106000  1.0
  O  O80  1  0.78576000  0.33965000  0.43470000  1.0
  O  O81  1  0.86150000  0.33565000  0.54649000  1.0
  O  O82  1  0.02904000  0.71197000  0.41772000  1.0
  O  O83  1  0.95638000  0.74624000  0.52764000  1.0
  O  O84  1  0.22687000  0.65485000  0.42392000  1.0
  O  O85  1  0.17452000  0.69193000  0.54019000  1.0
