# generated using pymatgen
data_U3H10(C2O7)2
_symmetry_space_group_name_H-M   'P 1'
_cell_length_a   6.97410000
_cell_length_b   7.26061000
_cell_length_c   8.34046000
_cell_angle_alpha   107.07000000
_cell_angle_beta   96.91250000
_cell_angle_gamma   111.77600000
_symmetry_Int_Tables_number   1
_chemical_formula_structural   U3H10(C2O7)2
_chemical_formula_sum   'U3 H10 C4 O14'
_cell_volume   362.19805314
_cell_formula_units_Z   1
loop_
 _symmetry_equiv_pos_site_id
 _symmetry_equiv_pos_as_xyz
  1  'x, y, z'
loop_
 _atom_site_type_symbol
 _atom_site_label
 _atom_site_symmetry_multiplicity
 _atom_site_fract_x
 _atom_site_fract_y
 _atom_site_fract_z
 _atom_site_occupancy
  U  U0  1  0.99999000  0.49998000  0.99999000  1.0
  U  U1  1  0.46787000  0.36060000  0.15578000  1.0
  U  U2  1  0.53213000  0.63939000  0.84421000  1.0
  H  H3  1  0.06336000  0.25471000  0.50019000  1.0
  H  H4  1  0.93665000  0.74529000  0.49981000  1.0
  H  H5  1  0.91623000  0.00825000  0.32324000  1.0
  H  H6  1  0.08378000  0.99176000  0.67675000  1.0
  H  H7  1  0.77734000  0.15209000  0.42807000  1.0
  H  H8  1  0.22266000  0.84790000  0.57193000  1.0
  H  H9  1  0.41525000  0.22847000  0.46471000  1.0
  H  H10  1  0.58475000  0.77154000  0.53531000  1.0
  H  H11  1  0.31765000  0.00636000  0.29248000  1.0
  H  H12  1  0.68237000  0.99365000  0.70753000  1.0
  C  C13  1  0.95159000  0.28025000  0.26347000  1.0
  C  C14  1  0.04841000  0.71976000  0.73654000  1.0
  C  C15  1  0.92385000  0.16715000  0.38736000  1.0
  C  C16  1  0.07615000  0.83285000  0.61265000  1.0
  O  O17  1  0.13473000  0.75861000  0.18166000  1.0
  O  O18  1  0.86527000  0.24139000  0.81833000  1.0
  O  O19  1  0.57834000  0.60984000  0.34754000  1.0
  O  O20  1  0.42166000  0.39017000  0.65246000  1.0
  O  O21  1  0.35045000  0.10270000  0.98180000  1.0
  O  O22  1  0.64954000  0.89731000  0.01820000  1.0
  O  O23  1  0.11033000  0.31153000  0.19501000  1.0
  O  O24  1  0.88966000  0.68846000  0.80498000  1.0
  O  O25  1  0.82213000  0.35587000  0.22208000  1.0
  O  O26  1  0.17788000  0.64416000  0.77794000  1.0
  O  O27  1  0.31421000  0.49548000  0.99641000  1.0
  O  O28  1  0.68578000  0.50451000  0.00358000  1.0
  O  O29  1  0.42294000  0.15973000  0.34423000  1.0
  O  O30  1  0.57706000  0.84027000  0.65577000  1.0
