# generated using pymatgen
data_GdH7C8O7
_symmetry_space_group_name_H-M   'P 1'
_cell_length_a   7.22316000
_cell_length_b   7.67295000
_cell_length_c   17.37200000
_cell_angle_alpha   92.13470000
_cell_angle_beta   90.00000000
_cell_angle_gamma   89.99990000
_symmetry_Int_Tables_number   1
_chemical_formula_structural   GdH7C8O7
_chemical_formula_sum   'Gd4 H28 C32 O28'
_cell_volume   962.13923860
_cell_formula_units_Z   4
loop_
 _symmetry_equiv_pos_site_id
 _symmetry_equiv_pos_as_xyz
  1  'x, y, z'
loop_
 _atom_site_type_symbol
 _atom_site_label
 _atom_site_symmetry_multiplicity
 _atom_site_fract_x
 _atom_site_fract_y
 _atom_site_fract_z
 _atom_site_occupancy
  Gd  Gd0  1  0.50797000  0.14368000  0.25355000  1.0
  Gd  Gd1  1  0.00797000  0.35631000  0.24645000  1.0
  Gd  Gd2  1  0.49203000  0.85632000  0.74645000  1.0
  Gd  Gd3  1  0.99203000  0.64369000  0.75355000  1.0
  H  H4  1  0.18310000  0.96315000  0.19780000  1.0
  H  H5  1  0.68310000  0.53685000  0.30220000  1.0
  H  H6  1  0.81690000  0.03685000  0.80220000  1.0
  H  H7  1  0.31690000  0.46315000  0.69780000  1.0
  H  H8  1  0.30963000  0.79199000  0.19212000  1.0
  H  H9  1  0.80963000  0.70801000  0.30788000  1.0
  H  H10  1  0.69037000  0.20801000  0.80788000  1.0
  H  H11  1  0.19037000  0.29199000  0.69212000  1.0
  H  H12  1  0.66287000  0.96534000  0.47941000  1.0
  H  H13  1  0.16287000  0.53466000  0.02059000  1.0
  H  H14  1  0.33713000  0.03466000  0.52059000  1.0
  H  H15  1  0.83713000  0.46534000  0.97941000  1.0
  H  H16  1  0.29443000  0.70174000  0.44504000  1.0
  H  H17  1  0.79442000  0.79825000  0.05496000  1.0
  H  H18  1  0.70558000  0.29825000  0.55496000  1.0
  H  H19  1  0.20558000  0.20175000  0.94504000  1.0
  H  H20  1  0.48783000  0.75243000  0.38770000  1.0
  H  H21  1  0.98783000  0.74757000  0.11230000  1.0
  H  H22  1  0.51217000  0.24757000  0.61230000  1.0
  H  H23  1  0.01217000  0.25243000  0.88770000  1.0
  H  H24  1  0.60122000  0.67409000  0.51296000  1.0
  H  H25  1  0.10122000  0.82591000  0.98703000  1.0
  H  H26  1  0.39878000  0.32591000  0.48704000  1.0
  H  H27  1  0.89878000  0.17409000  0.01297000  1.0
  H  H28  1  0.66786000  0.50734000  0.44560000  1.0
  H  H29  1  0.16786000  0.99266000  0.05439000  1.0
  H  H30  1  0.33214000  0.49266000  0.55440000  1.0
  H  H31  1  0.83214000  0.00734000  0.94560000  1.0
  C  C32  1  0.92280000  0.02819000  0.42694000  1.0
  C  C33  1  0.42280000  0.47182000  0.07306000  1.0
  C  C34  1  0.07720000  0.97181000  0.57306000  1.0
  C  C35  1  0.57720000  0.52819000  0.92694000  1.0
  C  C36  1  0.11434000  0.04912000  0.43892000  1.0
  C  C37  1  0.61434000  0.45088000  0.06108000  1.0
  C  C38  1  0.88566000  0.95089000  0.56108000  1.0
  C  C39  1  0.38566000  0.54912000  0.93892000  1.0
  C  C40  1  0.81156000  0.97936000  0.48820000  1.0
  C  C41  1  0.31156000  0.52064000  0.01180000  1.0
  C  C42  1  0.18844000  0.02063000  0.51180000  1.0
  C  C43  1  0.68844000  0.47937000  0.98820000  1.0
  C  C44  1  0.24484000  0.09419000  0.37636000  1.0
  C  C45  1  0.74484000  0.40581000  0.12364000  1.0
  C  C46  1  0.75516000  0.90581000  0.62364000  1.0
  C  C47  1  0.25516000  0.59419000  0.87636000  1.0
  C  C48  1  0.82047000  0.05469000  0.35313000  1.0
  C  C49  1  0.32047000  0.44531000  0.14687000  1.0
  C  C50  1  0.17953000  0.94531000  0.64687000  1.0
  C  C51  1  0.67953000  0.55469000  0.85313000  1.0
  C  C52  1  0.35252000  0.51713000  0.35424000  1.0
  C  C53  1  0.85252000  0.98287000  0.14576000  1.0
  C  C54  1  0.64747000  0.48287000  0.64576000  1.0
  C  C55  1  0.14748000  0.01713000  0.85424000  1.0
  C  C56  1  0.41731000  0.64571000  0.41654000  1.0
  C  C57  1  0.91731000  0.85429000  0.08345000  1.0
  C  C58  1  0.58269000  0.35429000  0.58346000  1.0
  C  C59  1  0.08269000  0.14571000  0.91654000  1.0
  C  C60  1  0.54783000  0.56715000  0.47541000  1.0
  C  C61  1  0.04783000  0.93285000  0.02459000  1.0
  C  C62  1  0.45217000  0.43284000  0.52459000  1.0
  C  C63  1  0.95218000  0.06715000  0.97541000  1.0
  O  O64  1  0.18187000  0.14976000  0.31272000  1.0
  O  O65  1  0.68187000  0.35024000  0.18728000  1.0
  O  O66  1  0.81813000  0.85024000  0.68728000  1.0
  O  O67  1  0.31813000  0.64976000  0.81272000  1.0
  O  O68  1  0.31003000  0.91713000  0.20777000  1.0
  O  O69  1  0.81003000  0.58287000  0.29223000  1.0
  O  O70  1  0.68997000  0.08287000  0.79223000  1.0
  O  O71  1  0.18997000  0.41713000  0.70777000  1.0
  O  O72  1  0.41747000  0.07418000  0.38542000  1.0
  O  O73  1  0.91747000  0.42582000  0.11458000  1.0
  O  O74  1  0.58253000  0.92582000  0.61458000  1.0
  O  O75  1  0.08253000  0.57418000  0.88542000  1.0
  O  O76  1  0.73729000  0.92780000  0.32053000  1.0
  O  O77  1  0.23729000  0.57220000  0.17947000  1.0
  O  O78  1  0.26271000  0.07220000  0.67947000  1.0
  O  O79  1  0.76271000  0.42780000  0.82053000  1.0
  O  O80  1  0.79905000  0.21082000  0.32929000  1.0
  O  O81  1  0.29905000  0.28919000  0.17071000  1.0
  O  O82  1  0.20095000  0.78919000  0.67071000  1.0
  O  O83  1  0.70095000  0.71081000  0.82929000  1.0
  O  O84  1  0.47607000  0.42868000  0.31645000  1.0
  O  O85  1  0.97607000  0.07132000  0.18355000  1.0
  O  O86  1  0.52393000  0.57132000  0.68355000  1.0
  O  O87  1  0.02393000  0.92868000  0.81645000  1.0
  O  O88  1  0.18022000  0.50395000  0.34141000  1.0
  O  O89  1  0.68022000  0.99605000  0.15859000  1.0
  O  O90  1  0.81978000  0.49605000  0.65859000  1.0
  O  O91  1  0.31978000  0.00395000  0.84141000  1.0
