# generated using pymatgen
data_ZnH20C28(NO2)2
_symmetry_space_group_name_H-M   'P 1'
_cell_length_a   5.79468000
_cell_length_b   14.01358673
_cell_length_c   20.74140000
_cell_angle_alpha   93.69619714
_cell_angle_beta   90.02370000
_cell_angle_gamma   101.83593405
_symmetry_Int_Tables_number   1
_chemical_formula_structural   ZnH20C28(NO2)2
_chemical_formula_sum   'Zn2 H40 C56 N4 O8'
_cell_volume   1644.89072082
_cell_formula_units_Z   2
loop_
 _symmetry_equiv_pos_site_id
 _symmetry_equiv_pos_as_xyz
  1  'x, y, z'
loop_
 _atom_site_type_symbol
 _atom_site_label
 _atom_site_symmetry_multiplicity
 _atom_site_fract_x
 _atom_site_fract_y
 _atom_site_fract_z
 _atom_site_occupancy
  Zn  Zn0  1  0.22337000  0.99943000  0.24998000  1.0
  Zn  Zn1  1  0.77663000  0.00055000  0.75003000  1.0
  H  H2  1  0.15615000  0.86570000  0.13117000  1.0
  H  H3  1  0.83734000  0.74522000  0.07519000  1.0
  H  H4  1  0.39453000  0.78571000  0.23925000  1.0
  H  H5  1  0.73668000  0.90350000  0.28902000  1.0
  H  H6  1  0.22704000  0.66933000  0.15331000  1.0
  H  H7  1  0.53513000  0.65670000  0.03313000  1.0
  H  H8  1  0.92992000  0.57115000  0.10949000  1.0
  H  H9  1  0.38498000  0.54966000  0.94665000  1.0
  H  H10  1  0.74286000  0.03271000  0.40200000  1.0
  H  H11  1  0.07589000  0.92109000  0.48715000  1.0
  H  H12  1  0.28953000  0.13360000  0.36857000  1.0
  H  H13  1  0.09097000  0.25447000  0.42437000  1.0
  H  H14  1  0.60579000  0.21303000  0.26069000  1.0
  H  H15  1  0.83032000  0.09488000  0.21107000  1.0
  H  H16  1  0.55533000  0.33020000  0.34652000  1.0
  H  H17  1  0.87720000  0.34247000  0.46649000  1.0
  H  H18  1  0.35518000  0.42806000  0.39092000  1.0
  H  H19  1  0.83700000  0.45031000  0.55270000  1.0
  H  H20  1  0.70864000  0.96620000  0.09807000  1.0
  H  H21  1  0.15504000  0.07947000  0.01277000  1.0
  H  H22  1  0.84383000  0.13428000  0.86884000  1.0
  H  H23  1  0.16265000  0.25477000  0.92481000  1.0
  H  H24  1  0.60544000  0.21427000  0.76075000  1.0
  H  H25  1  0.26329000  0.09648000  0.71098000  1.0
  H  H26  1  0.77296000  0.33063000  0.84671000  1.0
  H  H27  1  0.46485000  0.34329000  0.96688000  1.0
  H  H28  1  0.07006000  0.42883000  0.89052000  1.0
  H  H29  1  0.61500000  0.45032000  0.05337000  1.0
  H  H30  1  0.25708000  0.96727000  0.59802000  1.0
  H  H31  1  0.92405000  0.07888000  0.51287000  1.0
  H  H32  1  0.71054000  0.86643000  0.63143000  1.0
  H  H33  1  0.90915000  0.74559000  0.57561000  1.0
  H  H34  1  0.39424000  0.78695000  0.73930000  1.0
  H  H35  1  0.16965000  0.90508000  0.78894000  1.0
  H  H36  1  0.44472000  0.66982000  0.65345000  1.0
  H  H37  1  0.12289000  0.65759000  0.53348000  1.0
  H  H38  1  0.64488000  0.57198000  0.60904000  1.0
  H  H39  1  0.16306000  0.54973000  0.44726000  1.0
  H  H40  1  0.29130000  0.03381000  0.90194000  1.0
  H  H41  1  0.84490000  0.92055000  0.98724000  1.0
  C  C42  1  0.98443000  0.84500000  0.15348000  1.0
  C  C43  1  0.80448000  0.77753000  0.12259000  1.0
  C  C44  1  0.58310000  0.75330000  0.15238000  1.0
  C  C45  1  0.56108000  0.79990000  0.21355000  1.0
  C  C46  1  0.75060000  0.86657000  0.24179000  1.0
  C  C47  1  0.38306000  0.68433000  0.12307000  1.0
  C  C48  1  0.37822000  0.63996000  0.06292000  1.0
  C  C49  1  0.18335000  0.56993000  0.03233000  1.0
  C  C50  1  0.96262000  0.54025000  0.06159000  1.0
  C  C51  1  0.21526000  0.52792000  0.97001000  1.0
  C  C52  1  0.28235000  0.95241000  0.37284000  1.0
  C  C53  1  0.39852000  0.97416000  0.43834000  1.0
  C  C54  1  0.63756000  0.01945000  0.44514000  1.0
  C  C55  1  0.26206000  0.95478000  0.49363000  1.0
  C  C56  1  0.13811000  0.15421000  0.34628000  1.0
  C  C57  1  0.02551000  0.22191000  0.37706000  1.0
  C  C58  1  0.82767000  0.24596000  0.34737000  1.0
  C  C59  1  0.75864000  0.19901000  0.28633000  1.0
  C  C60  1  0.88159000  0.13212000  0.25819000  1.0
  C  C61  1  0.69657000  0.31506000  0.37672000  1.0
  C  C62  1  0.73676000  0.35946000  0.43684000  1.0
  C  C63  1  0.61254000  0.42978000  0.46755000  1.0
  C  C64  1  0.42045000  0.45933000  0.43861000  1.0
  C  C65  1  0.68835000  0.47216000  0.52965000  1.0
  C  C66  1  0.32868000  0.04695000  0.12711000  1.0
  C  C67  1  0.42358000  0.02548000  0.06165000  1.0
  C  C68  1  0.61738000  0.98001000  0.05490000  1.0
  C  C69  1  0.30726000  0.04543000  0.00634000  1.0
  C  C70  1  0.01555000  0.15498000  0.84653000  1.0
  C  C71  1  0.19550000  0.22246000  0.87741000  1.0
  C  C72  1  0.41689000  0.24668000  0.84763000  1.0
  C  C73  1  0.43892000  0.20008000  0.78646000  1.0
  C  C74  1  0.24938000  0.13341000  0.75822000  1.0
  C  C75  1  0.61691000  0.31564000  0.87695000  1.0
  C  C76  1  0.62177000  0.36004000  0.93708000  1.0
  C  C77  1  0.81665000  0.43006000  0.96768000  1.0
  C  C78  1  0.03739000  0.45972000  0.93843000  1.0
  C  C79  1  0.78472000  0.47207000  0.03000000  1.0
  C  C80  1  0.71758000  0.04758000  0.62717000  1.0
  C  C81  1  0.60144000  0.02580000  0.56168000  1.0
  C  C82  1  0.36240000  0.98052000  0.55488000  1.0
  C  C83  1  0.73789000  0.04518000  0.50639000  1.0
  C  C84  1  0.86194000  0.84580000  0.65372000  1.0
  C  C85  1  0.97456000  0.77812000  0.62293000  1.0
  C  C86  1  0.17240000  0.75406000  0.65262000  1.0
  C  C87  1  0.24137000  0.80097000  0.71367000  1.0
  C  C88  1  0.11840000  0.86785000  0.74181000  1.0
  C  C89  1  0.30354000  0.68498000  0.62325000  1.0
  C  C90  1  0.26337000  0.64061000  0.56312000  1.0
  C  C91  1  0.38758000  0.57029000  0.53240000  1.0
  C  C92  1  0.57966000  0.54072000  0.56135000  1.0
  C  C93  1  0.31174000  0.52789000  0.47031000  1.0
  C  C94  1  0.67127000  0.95306000  0.87290000  1.0
  C  C95  1  0.57638000  0.97454000  0.93835000  1.0
  C  C96  1  0.38258000  0.02000000  0.94510000  1.0
  C  C97  1  0.69271000  0.95460000  0.99367000  1.0
  N  N98  1  0.95955000  0.88936000  0.21213000  1.0
  N  N99  1  0.06834000  0.10948000  0.28778000  1.0
  N  N100  1  0.04043000  0.11063000  0.78787000  1.0
  N  N101  1  0.93168000  0.89051000  0.71223000  1.0
  O  O102  1  0.41788000  0.98124000  0.32425000  1.0
  O  O103  1  0.06784000  0.91486000  0.36704000  1.0
  O  O104  1  0.43558000  0.01802000  0.17570000  1.0
  O  O105  1  0.15137000  0.08444000  0.13292000  1.0
  O  O106  1  0.58207000  0.01873000  0.67576000  1.0
  O  O107  1  0.93205000  0.08516000  0.63298000  1.0
  O  O108  1  0.56440000  0.98200000  0.82431000  1.0
  O  O109  1  0.84856000  0.91556000  0.86709000  1.0
