# generated using pymatgen
data_Cd3H28C52Br12(NO6)2
_symmetry_space_group_name_H-M   'P 1'
_cell_length_a   9.62283000
_cell_length_b   11.01850000
_cell_length_c   15.44290000
_cell_angle_alpha   71.62590000
_cell_angle_beta   82.02750000
_cell_angle_gamma   87.87960000
_symmetry_Int_Tables_number   1
_chemical_formula_structural   Cd3H28C52Br12(NO6)2
_chemical_formula_sum   'Cd3 H28 C52 Br12 N2 O12'
_cell_volume   1538.86240070
_cell_formula_units_Z   1
loop_
 _symmetry_equiv_pos_site_id
 _symmetry_equiv_pos_as_xyz
  1  'x, y, z'
loop_
 _atom_site_type_symbol
 _atom_site_label
 _atom_site_symmetry_multiplicity
 _atom_site_fract_x
 _atom_site_fract_y
 _atom_site_fract_z
 _atom_site_occupancy
  Cd  Cd0  1  0.15497000  0.10004000  0.98903000  1.0
  Cd  Cd1  1  0.84504000  0.89996000  0.01097000  1.0
  Cd  Cd2  1  0.50000000  0.00000000  0.00000000  1.0
  H  H3  1  0.33567000  0.52394000  0.81662000  1.0
  H  H4  1  0.66434000  0.47607000  0.18338000  1.0
  H  H5  1  0.73773000  0.67576000  0.83124000  1.0
  H  H6  1  0.26228000  0.32424000  0.16876000  1.0
  H  H7  1  0.61013000  0.29210000  0.99944000  1.0
  H  H8  1  0.38987000  0.70789000  0.00056000  1.0
  H  H9  1  0.93818000  0.68644000  0.18998000  1.0
  H  H10  1  0.06182000  0.31355000  0.81003000  1.0
  H  H11  1  0.12645000  0.45604000  0.42637000  1.0
  H  H12  1  0.87355000  0.54396000  0.57363000  1.0
  H  H13  1  0.36763000  0.75680000  0.21377000  1.0
  H  H14  1  0.63237000  0.24320000  0.78623000  1.0
  H  H15  1  0.58881000  0.08019000  0.69364000  1.0
  H  H16  1  0.41119000  0.91980000  0.30636000  1.0
  H  H17  1  0.38210000  0.20346000  0.44888000  1.0
  H  H18  1  0.61790000  0.79655000  0.55112000  1.0
  H  H19  1  0.13962000  0.11486000  0.71975000  1.0
  H  H20  1  0.86038000  0.88514000  0.28025000  1.0
  H  H21  1  0.26540000  0.04716000  0.18048000  1.0
  H  H22  1  0.73460000  0.95283000  0.81952000  1.0
  H  H23  1  0.19716000  0.07532000  0.33589000  1.0
  H  H24  1  0.80284000  0.92467000  0.66411000  1.0
  H  H25  1  0.96792000  0.18027000  0.36612000  1.0
  H  H26  1  0.03208000  0.81973000  0.63387000  1.0
  H  H27  1  0.81137000  0.24556000  0.24176000  1.0
  H  H28  1  0.18863000  0.75445000  0.75824000  1.0
  H  H29  1  0.89068000  0.20249000  0.09298000  1.0
  H  H30  1  0.10933000  0.79752000  0.90702000  1.0
  C  C31  1  0.35885000  0.29168000  0.94106000  1.0
  C  C32  1  0.64115000  0.70833000  0.05893000  1.0
  C  C33  1  0.46397000  0.39842000  0.91036000  1.0
  C  C34  1  0.53603000  0.60159000  0.08964000  1.0
  C  C35  1  0.43455000  0.51379000  0.84483000  1.0
  C  C36  1  0.56545000  0.48621000  0.15517000  1.0
  C  C37  1  0.53329000  0.61214000  0.81854000  1.0
  C  C38  1  0.46671000  0.38786000  0.18147000  1.0
  C  C39  1  0.66138000  0.59812000  0.85322000  1.0
  C  C40  1  0.33862000  0.40188000  0.14678000  1.0
  C  C41  1  0.68764000  0.48163000  0.91770000  1.0
  C  C42  1  0.31237000  0.51837000  0.08230000  1.0
  C  C43  1  0.59025000  0.38200000  0.94789000  1.0
  C  C44  1  0.40975000  0.61799000  0.05211000  1.0
  C  C45  1  0.16572000  0.84179000  0.10624000  1.0
  C  C46  1  0.83428000  0.15821000  0.89376000  1.0
  C  C47  1  0.15440000  0.73180000  0.19363000  1.0
  C  C48  1  0.84560000  0.26820000  0.80637000  1.0
  C  C49  1  0.02780000  0.66364000  0.22813000  1.0
  C  C50  1  0.97220000  0.33636000  0.77187000  1.0
  C  C51  1  0.02003000  0.56619000  0.31201000  1.0
  C  C52  1  0.97996000  0.43381000  0.68799000  1.0
  C  C53  1  0.13449000  0.53304000  0.36120000  1.0
  C  C54  1  0.86550000  0.46696000  0.63880000  1.0
  C  C55  1  0.25989000  0.60101000  0.32400000  1.0
  C  C56  1  0.74010000  0.39899000  0.67601000  1.0
  C  C57  1  0.27114000  0.70139000  0.24166000  1.0
  C  C58  1  0.72886000  0.29861000  0.75835000  1.0
  C  C59  1  0.35449000  0.05520000  0.81936000  1.0
  C  C60  1  0.64551000  0.94479000  0.18064000  1.0
  C  C61  1  0.36341000  0.09295000  0.71623000  1.0
  C  C62  1  0.63659000  0.90705000  0.28377000  1.0
  C  C63  1  0.49354000  0.10205000  0.66127000  1.0
  C  C64  1  0.50646000  0.89795000  0.33873000  1.0
  C  C65  1  0.49780000  0.14099000  0.56604000  1.0
  C  C66  1  0.50220000  0.85901000  0.43396000  1.0
  C  C67  1  0.37655000  0.17194000  0.52351000  1.0
  C  C68  1  0.62345000  0.82805000  0.47649000  1.0
  C  C69  1  0.24851000  0.16087000  0.58052000  1.0
  C  C70  1  0.75149000  0.83913000  0.41948000  1.0
  C  C71  1  0.23974000  0.12209000  0.67593000  1.0
  C  C72  1  0.76026000  0.87791000  0.32406000  1.0
  C  C73  1  0.16494000  0.08888000  0.19781000  1.0
  C  C74  1  0.83505000  0.91111000  0.80219000  1.0
  C  C75  1  0.12682000  0.10575000  0.28358000  1.0
  C  C76  1  0.87318000  0.89425000  0.71642000  1.0
  C  C77  1  0.99882000  0.16359000  0.30026000  1.0
  C  C78  1  0.00118000  0.83641000  0.69973000  1.0
  C  C79  1  0.91221000  0.20049000  0.23139000  1.0
  C  C80  1  0.08780000  0.79951000  0.76860000  1.0
  C  C81  1  0.95596000  0.17761000  0.14818000  1.0
  C  C82  1  0.04405000  0.82241000  0.85181000  1.0
  Br  Br83  1  0.49205000  0.77321000  0.73434000  1.0
  Br  Br84  1  0.50794000  0.22681000  0.26567000  1.0
  Br  Br85  1  0.86236000  0.45868000  0.96483000  1.0
  Br  Br86  1  0.13765000  0.54132000  0.03517000  1.0
  Br  Br87  1  0.84775000  0.47449000  0.36291000  1.0
  Br  Br88  1  0.15225000  0.52550000  0.63709000  1.0
  Br  Br89  1  0.41998000  0.55258000  0.38735000  1.0
  Br  Br90  1  0.58002000  0.44741000  0.61265000  1.0
  Br  Br91  1  0.67605000  0.15295000  0.49198000  1.0
  Br  Br92  1  0.32395000  0.84705000  0.50802000  1.0
  Br  Br93  1  0.07786000  0.19821000  0.52762000  1.0
  Br  Br94  1  0.92214000  0.80178000  0.47238000  1.0
  N  N95  1  0.08051000  0.12410000  0.13131000  1.0
  N  N96  1  0.91949000  0.87591000  0.86868000  1.0
  O  O97  1  0.24491000  0.30665000  0.90659000  1.0
  O  O98  1  0.75509000  0.69335000  0.09340000  1.0
  O  O99  1  0.38728000  0.18805000  0.00334000  1.0
  O  O100  1  0.61273000  0.81195000  0.99666000  1.0
  O  O101  1  0.06021000  0.87420000  0.06252000  1.0
  O  O102  1  0.93979000  0.12580000  0.93748000  1.0
  O  O103  1  0.27974000  0.90602000  0.08054000  1.0
  O  O104  1  0.72027000  0.09397000  0.91946000  1.0
  O  O105  1  0.47053000  0.04253000  0.85231000  1.0
  O  O106  1  0.52947000  0.95747000  0.14769000  1.0
  O  O107  1  0.23234000  0.04044000  0.86433000  1.0
  O  O108  1  0.76766000  0.95956000  0.13566000  1.0
