# generated using pymatgen
data_CdH16C19N3O8
_symmetry_space_group_name_H-M   'P 1'
_cell_length_a   9.09326000
_cell_length_b   11.12230000
_cell_length_c   22.55640000
_cell_angle_alpha   90.00000000
_cell_angle_beta   89.99990000
_cell_angle_gamma   102.43200000
_symmetry_Int_Tables_number   1
_chemical_formula_structural   CdH16C19N3O8
_chemical_formula_sum   'Cd4 H64 C76 N12 O32'
_cell_volume   2227.81673515
_cell_formula_units_Z   4
loop_
 _symmetry_equiv_pos_site_id
 _symmetry_equiv_pos_as_xyz
  1  'x, y, z'
loop_
 _atom_site_type_symbol
 _atom_site_label
 _atom_site_symmetry_multiplicity
 _atom_site_fract_x
 _atom_site_fract_y
 _atom_site_fract_z
 _atom_site_occupancy
  Cd  Cd0  1  0.93467000  0.68843000  0.53740000  1.0
  Cd  Cd1  1  0.06533000  0.81157000  0.03740000  1.0
  Cd  Cd2  1  0.06533000  0.31158000  0.46260000  1.0
  Cd  Cd3  1  0.93467000  0.18843000  0.96260000  1.0
  H  H4  1  0.89087000  0.54129000  0.43215000  1.0
  H  H5  1  0.10913000  0.95871000  0.93215000  1.0
  H  H6  1  0.10914000  0.45871000  0.56785000  1.0
  H  H7  1  0.89087000  0.04129000  0.06785000  1.0
  H  H8  1  0.80545000  0.45952000  0.48144000  1.0
  H  H9  1  0.19455000  0.04048000  0.98144000  1.0
  H  H10  1  0.19455000  0.54048000  0.51856000  1.0
  H  H11  1  0.80546000  0.95952000  0.01856000  1.0
  H  H12  1  0.38852000  0.61649000  0.43997000  1.0
  H  H13  1  0.61148000  0.88351000  0.93997000  1.0
  H  H14  1  0.61148000  0.38351000  0.56003000  1.0
  H  H15  1  0.38852000  0.11649000  0.06003000  1.0
  H  H16  1  0.62339000  0.67625000  0.37820000  1.0
  H  H17  1  0.37662000  0.82376000  0.87820000  1.0
  H  H18  1  0.37661000  0.32375000  0.62180000  1.0
  H  H19  1  0.62339000  0.17625000  0.12180000  1.0
  H  H20  1  0.66458000  0.87496000  0.32033000  1.0
  H  H21  1  0.33542000  0.62505000  0.82032000  1.0
  H  H22  1  0.33542000  0.12505000  0.67968000  1.0
  H  H23  1  0.66458000  0.37495000  0.17967000  1.0
  H  H24  1  0.24644000  0.93567000  0.37225000  1.0
  H  H25  1  0.75355000  0.56433000  0.87224000  1.0
  H  H26  1  0.75355000  0.06433000  0.62776000  1.0
  H  H27  1  0.24645000  0.43567000  0.12776000  1.0
  H  H28  1  0.53438000  0.10076000  0.34619000  1.0
  H  H29  1  0.46561000  0.39924000  0.84619000  1.0
  H  H30  1  0.46561000  0.89924000  0.65381000  1.0
  H  H31  1  0.53438000  0.60076000  0.15381000  1.0
  H  H32  1  0.58745000  0.02718000  0.28339000  1.0
  H  H33  1  0.41255000  0.47281000  0.78339000  1.0
  H  H34  1  0.41255000  0.97281000  0.71662000  1.0
  H  H35  1  0.58745000  0.52719000  0.21661000  1.0
  H  H36  1  0.31611000  0.19466000  0.34228000  1.0
  H  H37  1  0.68388000  0.30534000  0.84228000  1.0
  H  H38  1  0.68389000  0.80534000  0.65772000  1.0
  H  H39  1  0.31611000  0.69466000  0.15772000  1.0
  H  H40  1  0.10547000  0.24309000  0.28539000  1.0
  H  H41  1  0.89453000  0.25691000  0.78539000  1.0
  H  H42  1  0.89453000  0.75691000  0.71461000  1.0
  H  H43  1  0.10547000  0.74309000  0.21461000  1.0
  H  H44  1  0.02593000  0.13502000  0.18945000  1.0
  H  H45  1  0.97407000  0.36498000  0.68945000  1.0
  H  H46  1  0.97407000  0.86497000  0.81055000  1.0
  H  H47  1  0.02593000  0.63502000  0.31055000  1.0
  H  H48  1  0.37461000  0.93225000  0.20732000  1.0
  H  H49  1  0.62540000  0.56776000  0.70732000  1.0
  H  H50  1  0.62540000  0.06776000  0.79268000  1.0
  H  H51  1  0.37460000  0.43224000  0.29268000  1.0
  H  H52  1  0.90741000  0.93082000  0.46568000  1.0
  H  H53  1  0.09259000  0.56918000  0.96568000  1.0
  H  H54  1  0.09259000  0.06919000  0.53432000  1.0
  H  H55  1  0.90741000  0.43081000  0.03432000  1.0
  H  H56  1  0.73747000  0.07594000  0.45588000  1.0
  H  H57  1  0.26253000  0.42406000  0.95588000  1.0
  H  H58  1  0.26253000  0.92407000  0.54411000  1.0
  H  H59  1  0.73746000  0.57593000  0.04412000  1.0
  H  H60  1  0.40151000  0.81320000  0.55310000  1.0
  H  H61  1  0.59850000  0.68681000  0.05309000  1.0
  H  H62  1  0.59850000  0.18681000  0.44691000  1.0
  H  H63  1  0.40150000  0.31319000  0.94691000  1.0
  H  H64  1  0.59050000  0.68407000  0.56203000  1.0
  H  H65  1  0.40950000  0.81594000  0.06203000  1.0
  H  H66  1  0.40950000  0.31594000  0.43797000  1.0
  H  H67  1  0.59050000  0.18406000  0.93797000  1.0
  C  C68  1  0.30115000  0.77221000  0.41086000  1.0
  C  C69  1  0.69884000  0.72779000  0.91086000  1.0
  C  C70  1  0.69885000  0.22779000  0.58915000  1.0
  C  C71  1  0.30115000  0.27220000  0.08914000  1.0
  C  C72  1  0.40791000  0.69856000  0.41225000  1.0
  C  C73  1  0.59208000  0.80145000  0.91224000  1.0
  C  C74  1  0.59208000  0.30145000  0.58776000  1.0
  C  C75  1  0.40791000  0.19855000  0.08776000  1.0
  C  C76  1  0.53782000  0.73130000  0.37793000  1.0
  C  C77  1  0.46218000  0.76870000  0.87792000  1.0
  C  C78  1  0.46218000  0.26870000  0.62208000  1.0
  C  C79  1  0.53782000  0.23130000  0.12208000  1.0
  C  C80  1  0.56146000  0.83878000  0.34488000  1.0
  C  C81  1  0.43853000  0.66122000  0.84487000  1.0
  C  C82  1  0.43853000  0.16122000  0.65513000  1.0
  C  C83  1  0.56146000  0.33878000  0.15513000  1.0
  C  C84  1  0.32735000  0.87651000  0.37532000  1.0
  C  C85  1  0.67265000  0.62349000  0.87532000  1.0
  C  C86  1  0.67265000  0.12349000  0.62468000  1.0
  C  C87  1  0.32735000  0.37651000  0.12468000  1.0
  C  C88  1  0.16289000  0.74855000  0.44949000  1.0
  C  C89  1  0.83710000  0.75144000  0.94949000  1.0
  C  C90  1  0.83710000  0.25145000  0.55052000  1.0
  C  C91  1  0.16290000  0.24855000  0.05051000  1.0
  C  C92  1  0.49195000  0.03069000  0.31246000  1.0
  C  C93  1  0.50804000  0.46931000  0.81245000  1.0
  C  C94  1  0.50805000  0.96931000  0.68755000  1.0
  C  C95  1  0.49195000  0.53068000  0.18755000  1.0
  C  C96  1  0.36039000  0.05910000  0.27918000  1.0
  C  C97  1  0.63961000  0.44090000  0.77918000  1.0
  C  C98  1  0.63961000  0.94090000  0.72082000  1.0
  C  C99  1  0.36039000  0.55910000  0.22082000  1.0
  C  C100  1  0.28369000  0.14700000  0.30046000  1.0
  C  C101  1  0.71631000  0.35300000  0.80046000  1.0
  C  C102  1  0.71631000  0.85300000  0.69954000  1.0
  C  C103  1  0.28369000  0.64700000  0.19954000  1.0
  C  C104  1  0.16404000  0.17474000  0.26824000  1.0
  C  C105  1  0.83595000  0.32526000  0.76824000  1.0
  C  C106  1  0.83596000  0.82526000  0.73176000  1.0
  C  C107  1  0.16404000  0.67475000  0.23176000  1.0
  C  C108  1  0.11946000  0.11480000  0.21494000  1.0
  C  C109  1  0.88054000  0.38519000  0.71494000  1.0
  C  C110  1  0.88054000  0.88519000  0.78506000  1.0
  C  C111  1  0.11946000  0.61481000  0.28506000  1.0
  C  C112  1  0.19583000  0.02724000  0.19313000  1.0
  C  C113  1  0.80417000  0.47276000  0.69313000  1.0
  C  C114  1  0.80417000  0.97277000  0.80687000  1.0
  C  C115  1  0.19583000  0.52724000  0.30687000  1.0
  C  C116  1  0.31609000  0.00004000  0.22533000  1.0
  C  C117  1  0.68391000  0.49996000  0.72533000  1.0
  C  C118  1  0.68392000  0.99996000  0.77467000  1.0
  C  C119  1  0.31608000  0.50004000  0.27466000  1.0
  C  C120  1  0.15164000  0.96295000  0.13543000  1.0
  C  C121  1  0.84837000  0.53705000  0.63543000  1.0
  C  C122  1  0.84837000  0.03705000  0.86457000  1.0
  C  C123  1  0.15163000  0.46295000  0.36457000  1.0
  C  C124  1  0.79506000  0.90929000  0.48508000  1.0
  C  C125  1  0.20495000  0.59071000  0.98508000  1.0
  C  C126  1  0.20495000  0.09072000  0.51492000  1.0
  C  C127  1  0.79505000  0.40928000  0.01492000  1.0
  C  C128  1  0.69791000  0.98931000  0.47900000  1.0
  C  C129  1  0.30209000  0.51070000  0.97900000  1.0
  C  C130  1  0.30209000  0.01070000  0.52100000  1.0
  C  C131  1  0.69791000  0.48930000  0.02100000  1.0
  C  C132  1  0.55284000  0.95843000  0.50326000  1.0
  C  C133  1  0.44716000  0.54157000  0.00325000  1.0
  C  C134  1  0.44717000  0.04158000  0.49675000  1.0
  C  C135  1  0.55284000  0.45842000  0.99674000  1.0
  C  C136  1  0.51256000  0.84550000  0.53351000  1.0
  C  C137  1  0.48744000  0.65450000  0.03351000  1.0
  C  C138  1  0.48745000  0.15451000  0.46649000  1.0
  C  C139  1  0.51255000  0.34549000  0.96649000  1.0
  C  C140  1  0.61683000  0.77127000  0.53811000  1.0
  C  C141  1  0.38317000  0.72874000  0.03811000  1.0
  C  C142  1  0.38317000  0.22875000  0.46189000  1.0
  C  C143  1  0.61683000  0.27125000  0.96189000  1.0
  N  N144  1  0.45672000  0.90924000  0.34420000  1.0
  N  N145  1  0.54327000  0.59076000  0.84419000  1.0
  N  N146  1  0.54328000  0.09076000  0.65581000  1.0
  N  N147  1  0.45672000  0.40924000  0.15580000  1.0
  N  N148  1  0.75552000  0.80217000  0.51439000  1.0
  N  N149  1  0.24449000  0.69783000  0.01439000  1.0
  N  N150  1  0.24448000  0.19784000  0.48561000  1.0
  N  N151  1  0.75551000  0.30216000  0.98561000  1.0
  N  N152  1  0.12310000  0.87651000  0.63466000  1.0
  N  N153  1  0.87690000  0.62349000  0.13466000  1.0
  N  N154  1  0.87690000  0.12349000  0.36534000  1.0
  N  N155  1  0.12310000  0.37651000  0.86534000  1.0
  O  O156  1  0.05616000  0.79809000  0.43630000  1.0
  O  O157  1  0.94384000  0.70190000  0.93630000  1.0
  O  O158  1  0.94384000  0.20191000  0.56370000  1.0
  O  O159  1  0.05616000  0.29809000  0.06370000  1.0
  O  O160  1  0.16825000  0.68294000  0.49615000  1.0
  O  O161  1  0.83175000  0.81706000  0.99615000  1.0
  O  O162  1  0.83175000  0.31706000  0.50385000  1.0
  O  O163  1  0.16825000  0.18294000  0.00385000  1.0
  O  O164  1  0.03505000  0.97942000  0.10805000  1.0
  O  O165  1  0.96495000  0.52057000  0.60805000  1.0
  O  O166  1  0.96495000  0.02058000  0.89195000  1.0
  O  O167  1  0.03505000  0.47942000  0.39195000  1.0
  O  O168  1  0.23384000  0.89188000  0.11569000  1.0
  O  O169  1  0.76617000  0.60812000  0.61570000  1.0
  O  O170  1  0.76617000  0.10812000  0.88430000  1.0
  O  O171  1  0.23384000  0.39188000  0.38430000  1.0
  O  O172  1  0.20676000  0.79960000  0.63097000  1.0
  O  O173  1  0.79324000  0.70040000  0.13097000  1.0
  O  O174  1  0.79325000  0.20041000  0.36902000  1.0
  O  O175  1  0.20675000  0.29959000  0.86902000  1.0
  O  O176  1  0.14620000  0.96223000  0.67210000  1.0
  O  O177  1  0.85380000  0.53778000  0.17210000  1.0
  O  O178  1  0.85380000  0.03778000  0.32790000  1.0
  O  O179  1  0.14620000  0.46222000  0.82790000  1.0
  O  O180  1  0.01113000  0.86826000  0.59843000  1.0
  O  O181  1  0.98887000  0.63174000  0.09843000  1.0
  O  O182  1  0.98887000  0.13174000  0.40157000  1.0
  O  O183  1  0.01113000  0.36826000  0.90157000  1.0
  O  O184  1  0.81732000  0.54311000  0.46417000  1.0
  O  O185  1  0.18268000  0.95689000  0.96417000  1.0
  O  O186  1  0.18268000  0.45689000  0.53583000  1.0
  O  O187  1  0.81733000  0.04311000  0.03583000  1.0
