# generated using pymatgen
data_CdH4CSeN
_symmetry_space_group_name_H-M   'P 1'
_cell_length_a   6.69838000
_cell_length_b   7.11871000
_cell_length_c   16.70590000
_cell_angle_alpha   90.00020000
_cell_angle_beta   89.99930000
_cell_angle_gamma   89.99960000
_symmetry_Int_Tables_number   1
_chemical_formula_structural   CdH4CSeN
_chemical_formula_sum   'Cd8 H32 C8 Se8 N8'
_cell_volume   796.60120680
_cell_formula_units_Z   8
loop_
 _symmetry_equiv_pos_site_id
 _symmetry_equiv_pos_as_xyz
  1  'x, y, z'
loop_
 _atom_site_type_symbol
 _atom_site_label
 _atom_site_symmetry_multiplicity
 _atom_site_fract_x
 _atom_site_fract_y
 _atom_site_fract_z
 _atom_site_occupancy
  Cd  Cd0  1  0.07440000  0.40161000  0.29972000  1.0
  Cd  Cd1  1  0.57440000  0.09838000  0.29971000  1.0
  Cd  Cd2  1  0.42560000  0.40161000  0.79971000  1.0
  Cd  Cd3  1  0.07439000  0.90162000  0.20029000  1.0
  Cd  Cd4  1  0.92560000  0.59840000  0.70028000  1.0
  Cd  Cd5  1  0.42560000  0.90162000  0.70029000  1.0
  Cd  Cd6  1  0.57439000  0.59838000  0.20029000  1.0
  Cd  Cd7  1  0.92560000  0.09838000  0.79971000  1.0
  H  H8  1  0.78025000  0.55463000  0.40205000  1.0
  H  H9  1  0.28026000  0.94537000  0.40205000  1.0
  H  H10  1  0.71974000  0.55462000  0.90204000  1.0
  H  H11  1  0.78022000  0.05463000  0.09795000  1.0
  H  H12  1  0.21975000  0.44538000  0.59796000  1.0
  H  H13  1  0.71974000  0.05462000  0.59795000  1.0
  H  H14  1  0.28023000  0.44539000  0.09796000  1.0
  H  H15  1  0.21975000  0.94538000  0.90205000  1.0
  H  H16  1  0.93145000  0.72688000  0.37567000  1.0
  H  H17  1  0.43143000  0.77313000  0.37567000  1.0
  H  H18  1  0.56857000  0.72684000  0.87567000  1.0
  H  H19  1  0.93141000  0.22685000  0.12433000  1.0
  H  H20  1  0.06859000  0.27317000  0.62433000  1.0
  H  H21  1  0.56859000  0.22685000  0.62433000  1.0
  H  H22  1  0.43141000  0.27314000  0.12434000  1.0
  H  H23  1  0.06858000  0.77316000  0.87567000  1.0
  H  H24  1  0.97457000  0.71157000  0.51539000  1.0
  H  H25  1  0.47454000  0.78843000  0.51539000  1.0
  H  H26  1  0.52544000  0.71154000  0.01539000  1.0
  H  H27  1  0.97452000  0.21155000  0.98461000  1.0
  H  H28  1  0.02547000  0.28847000  0.48461000  1.0
  H  H29  1  0.52546000  0.21153000  0.48461000  1.0
  H  H30  1  0.47451000  0.28845000  0.98461000  1.0
  H  H31  1  0.02545000  0.78846000  0.01539000  1.0
  H  H32  1  0.18555000  0.60386000  0.47007000  1.0
  H  H33  1  0.68554000  0.89612000  0.47008000  1.0
  H  H34  1  0.31445000  0.60386000  0.97007000  1.0
  H  H35  1  0.18551000  0.10387000  0.02993000  1.0
  H  H36  1  0.81448000  0.39616000  0.52993000  1.0
  H  H37  1  0.31447000  0.10384000  0.52992000  1.0
  H  H38  1  0.68550000  0.39613000  0.02992000  1.0
  H  H39  1  0.81445000  0.89614000  0.97007000  1.0
  C  C40  1  0.02288000  0.59133000  0.47842000  1.0
  C  C41  1  0.52286000  0.90866000  0.47842000  1.0
  C  C42  1  0.47713000  0.59132000  0.97841000  1.0
  C  C43  1  0.02285000  0.09132000  0.02158000  1.0
  C  C44  1  0.97716000  0.40869000  0.52159000  1.0
  C  C45  1  0.47715000  0.09130000  0.52159000  1.0
  C  C46  1  0.52285000  0.40868000  0.02158000  1.0
  C  C47  1  0.97715000  0.90868000  0.97841000  1.0
  Se  Se48  1  0.95759000  0.05555000  0.33633000  1.0
  Se  Se49  1  0.45759000  0.44445000  0.33633000  1.0
  Se  Se50  1  0.54242000  0.05555000  0.83633000  1.0
  Se  Se51  1  0.95758000  0.55555000  0.16368000  1.0
  Se  Se52  1  0.04243000  0.94446000  0.66367000  1.0
  Se  Se53  1  0.54241000  0.55556000  0.66367000  1.0
  Se  Se54  1  0.45758000  0.94445000  0.16368000  1.0
  Se  Se55  1  0.04241000  0.44445000  0.83632000  1.0
  N  N56  1  0.92847000  0.59255000  0.39886000  1.0
  N  N57  1  0.42844000  0.90745000  0.39886000  1.0
  N  N58  1  0.57156000  0.59255000  0.89887000  1.0
  N  N59  1  0.92844000  0.09255000  0.10114000  1.0
  N  N60  1  0.07157000  0.40744000  0.60112000  1.0
  N  N61  1  0.57158000  0.09254000  0.60113000  1.0
  N  N62  1  0.42844000  0.40747000  0.10114000  1.0
  N  N63  1  0.07155000  0.90743000  0.89887000  1.0
