# generated using pymatgen
data_CuH15C13SNO4
_symmetry_space_group_name_H-M   'P 1'
_cell_length_a   4.96608000
_cell_length_b   11.94770000
_cell_length_c   12.45410000
_cell_angle_alpha   80.51950000
_cell_angle_beta   89.99980000
_cell_angle_gamma   89.99980000
_symmetry_Int_Tables_number   1
_chemical_formula_structural   CuH15C13SNO4
_chemical_formula_sum   'Cu2 H30 C26 S2 N2 O8'
_cell_volume   728.84935008
_cell_formula_units_Z   2
loop_
 _symmetry_equiv_pos_site_id
 _symmetry_equiv_pos_as_xyz
  1  'x, y, z'
loop_
 _atom_site_type_symbol
 _atom_site_label
 _atom_site_symmetry_multiplicity
 _atom_site_fract_x
 _atom_site_fract_y
 _atom_site_fract_z
 _atom_site_occupancy
  Cu  Cu0  1  0.75080000  0.91524000  0.07893000  1.0
  Cu  Cu1  1  0.25081000  0.08476000  0.92107000  1.0
  H  H2  1  0.74580000  0.56861000  0.11540000  1.0
  H  H3  1  0.24581000  0.43139000  0.88461000  1.0
  H  H4  1  0.98543000  0.49761000  0.04289000  1.0
  H  H5  1  0.48542000  0.50239000  0.95712000  1.0
  H  H6  1  0.80436000  0.61855000  0.97369000  1.0
  H  H7  1  0.30437000  0.38145000  0.02631000  1.0
  H  H8  1  0.05705000  0.47950000  0.23313000  1.0
  H  H9  1  0.55707000  0.52051000  0.76688000  1.0
  H  H10  1  0.70173000  0.59091000  0.42186000  1.0
  H  H11  1  0.20172000  0.40908000  0.57814000  1.0
  H  H12  1  0.34725000  0.44884000  0.39804000  1.0
  H  H13  1  0.84725000  0.55117000  0.60196000  1.0
  H  H14  1  0.93412000  0.75693000  0.36505000  1.0
  H  H15  1  0.43410000  0.24307000  0.63495000  1.0
  H  H16  1  0.26314000  0.89619000  0.29714000  1.0
  H  H17  1  0.76314000  0.10381000  0.70285000  1.0
  H  H18  1  0.80511000  0.07066000  0.28166000  1.0
  H  H19  1  0.30511000  0.92934000  0.71834000  1.0
  H  H20  1  0.88459000  0.96763000  0.39642000  1.0
  H  H21  1  0.38459000  0.03236000  0.60358000  1.0
  H  H22  1  0.25442000  0.16536000  0.29941000  1.0
  H  H23  1  0.75442000  0.83464000  0.70059000  1.0
  H  H24  1  0.34848000  0.05316000  0.40417000  1.0
  H  H25  1  0.84848000  0.94684000  0.59583000  1.0
  H  H26  1  0.64570000  0.23594000  0.36553000  1.0
  H  H27  1  0.14570000  0.76406000  0.63447000  1.0
  H  H28  1  0.92496000  0.32991000  0.32955000  1.0
  H  H29  1  0.42496000  0.67010000  0.67045000  1.0
  H  H30  1  0.74900000  0.33106000  0.45407000  1.0
  H  H31  1  0.24900000  0.66894000  0.54593000  1.0
  C  C32  1  0.89843000  0.58058000  0.05058000  1.0
  C  C33  1  0.39844000  0.41942000  0.94943000  1.0
  C  C34  1  0.24627000  0.63574000  0.16346000  1.0
  C  C35  1  0.74629000  0.36426000  0.83655000  1.0
  C  C36  1  0.21300000  0.54104000  0.24292000  1.0
  C  C37  1  0.71301000  0.45896000  0.75709000  1.0
  C  C38  1  0.57230000  0.60293000  0.35011000  1.0
  C  C39  1  0.07230000  0.39707000  0.64990000  1.0
  C  C40  1  0.37661000  0.52442000  0.33702000  1.0
  C  C41  1  0.87662000  0.47559000  0.66299000  1.0
  C  C42  1  0.61332000  0.70088000  0.26992000  1.0
  C  C43  1  0.11332000  0.29912000  0.73008000  1.0
  C  C44  1  0.45028000  0.71915000  0.17387000  1.0
  C  C45  1  0.95029000  0.28085000  0.82614000  1.0
  C  C46  1  0.82388000  0.77780000  0.28776000  1.0
  C  C47  1  0.32388000  0.22220000  0.71223000  1.0
  C  C48  1  0.21698000  0.01447000  0.14954000  1.0
  C  C49  1  0.71698000  0.98553000  0.85045000  1.0
  C  C50  1  0.09772000  0.94504000  0.25245000  1.0
  C  C51  1  0.59772000  0.05496000  0.74754000  1.0
  C  C52  1  0.97209000  0.02352000  0.32608000  1.0
  C  C53  1  0.47210000  0.97648000  0.67391000  1.0
  C  C54  1  0.17584000  0.10246000  0.36639000  1.0
  C  C55  1  0.67585000  0.89753000  0.63360000  1.0
  C  C56  1  0.81969000  0.27682000  0.39686000  1.0
  C  C57  1  0.31969000  0.72318000  0.60314000  1.0
  S  S58  1  0.04732000  0.17550000  0.47228000  1.0
  S  S59  1  0.54734000  0.82450000  0.52772000  1.0
  N  N60  1  0.89135000  0.86929000  0.22187000  1.0
  N  N61  1  0.39136000  0.13071000  0.77812000  1.0
  O  O62  1  0.42986000  0.06784000  0.15168000  1.0
  O  O63  1  0.92986000  0.93216000  0.84831000  1.0
  O  O64  1  0.07598000  0.01424000  0.06009000  1.0
  O  O65  1  0.57599000  0.98575000  0.93991000  1.0
  O  O66  1  0.47224000  0.80370000  0.09383000  1.0
  O  O67  1  0.97225000  0.19631000  0.90618000  1.0
  O  O68  1  0.10052000  0.65966000  0.06997000  1.0
  O  O69  1  0.60054000  0.34034000  0.93004000  1.0
