# generated using pymatgen
data_NaH18C11SNO2
_symmetry_space_group_name_H-M   'P 1'
_cell_length_a   7.29156000
_cell_length_b   11.42519350
_cell_length_c   15.71870000
_cell_angle_alpha   90.00037228
_cell_angle_beta   90.00090000
_cell_angle_gamma   72.39051765
_symmetry_Int_Tables_number   1
_chemical_formula_structural   NaH18C11SNO2
_chemical_formula_sum   'Na4 H72 C44 S4 N4 O8'
_cell_volume   1248.12366719
_cell_formula_units_Z   4
loop_
 _symmetry_equiv_pos_site_id
 _symmetry_equiv_pos_as_xyz
  1  'x, y, z'
loop_
 _atom_site_type_symbol
 _atom_site_label
 _atom_site_symmetry_multiplicity
 _atom_site_fract_x
 _atom_site_fract_y
 _atom_site_fract_z
 _atom_site_occupancy
  Na  Na0  1  0.28166000  0.48563000  0.97765000  1.0
  Na  Na1  1  0.21834000  0.01437000  0.47765000  1.0
  Na  Na2  1  0.71834000  0.51436000  0.02235000  1.0
  Na  Na3  1  0.78167000  0.98564000  0.52235000  1.0
  H  H4  1  0.78693000  0.00652000  0.02280000  1.0
  H  H5  1  0.71309000  0.49347000  0.52280000  1.0
  H  H6  1  0.21310000  0.99346000  0.97720000  1.0
  H  H7  1  0.28691000  0.50653000  0.47721000  1.0
  H  H8  1  0.88841000  0.94811000  0.17177000  1.0
  H  H9  1  0.61159000  0.55190000  0.67176000  1.0
  H  H10  1  0.11161000  0.05189000  0.82824000  1.0
  H  H11  1  0.38842000  0.44810000  0.32825000  1.0
  H  H12  1  0.81275000  0.11185000  0.28484000  1.0
  H  H13  1  0.68723000  0.38816000  0.78484000  1.0
  H  H14  1  0.18725000  0.88815000  0.71516000  1.0
  H  H15  1  0.31279000  0.61184000  0.21517000  1.0
  H  H16  1  0.63422000  0.32567000  0.24870000  1.0
  H  H17  1  0.86577000  0.17433000  0.74869000  1.0
  H  H18  1  0.36576000  0.67433000  0.75130000  1.0
  H  H19  1  0.13428000  0.82566000  0.25130000  1.0
  H  H20  1  0.79037000  0.05768000  0.88854000  1.0
  H  H21  1  0.70963000  0.44233000  0.38855000  1.0
  H  H22  1  0.20964000  0.94232000  0.11145000  1.0
  H  H23  1  0.29036000  0.55768000  0.61145000  1.0
  H  H24  1  0.59834000  0.13803000  0.82070000  1.0
  H  H25  1  0.90167000  0.36198000  0.32070000  1.0
  H  H26  1  0.40167000  0.86198000  0.17930000  1.0
  H  H27  1  0.09834000  0.63801000  0.67930000  1.0
  H  H28  1  0.54985000  0.05241000  0.90869000  1.0
  H  H29  1  0.95016000  0.44759000  0.40869000  1.0
  H  H30  1  0.45017000  0.94757000  0.09130000  1.0
  H  H31  1  0.04984000  0.55242000  0.59130000  1.0
  H  H32  1  0.15912000  0.40105000  0.71388000  1.0
  H  H33  1  0.34085000  0.09895000  0.21389000  1.0
  H  H34  1  0.84086000  0.59895000  0.28611000  1.0
  H  H35  1  0.65915000  0.90105000  0.78612000  1.0
  H  H36  1  0.16589000  0.29944000  0.80077000  1.0
  H  H37  1  0.33409000  0.20056000  0.30078000  1.0
  H  H38  1  0.83411000  0.70056000  0.19922000  1.0
  H  H39  1  0.66590000  0.79944000  0.69922000  1.0
  H  H40  1  0.37496000  0.34537000  0.77549000  1.0
  H  H41  1  0.12500000  0.15464000  0.27549000  1.0
  H  H42  1  0.62503000  0.65464000  0.22450000  1.0
  H  H43  1  0.87498000  0.84536000  0.72451000  1.0
  H  H44  1  0.88452000  0.47601000  0.86486000  1.0
  H  H45  1  0.61546000  0.02400000  0.36486000  1.0
  H  H46  1  0.11547000  0.52400000  0.13515000  1.0
  H  H47  1  0.38453000  0.97600000  0.63515000  1.0
  H  H48  1  0.90376000  0.55246000  0.76870000  1.0
  H  H49  1  0.59620000  0.94756000  0.26870000  1.0
  H  H50  1  0.09623000  0.44755000  0.23130000  1.0
  H  H51  1  0.40379000  0.05244000  0.73130000  1.0
  H  H52  1  0.99876000  0.71370000  0.85284000  1.0
  H  H53  1  0.50122000  0.78630000  0.35284000  1.0
  H  H54  1  0.00125000  0.28629000  0.14716000  1.0
  H  H55  1  0.49876000  0.21370000  0.64716000  1.0
  H  H56  1  0.75837000  0.70655000  0.87242000  1.0
  H  H57  1  0.74161000  0.79346000  0.37242000  1.0
  H  H58  1  0.24163000  0.29346000  0.12758000  1.0
  H  H59  1  0.25838000  0.20654000  0.62758000  1.0
  H  H60  1  0.75843000  0.79781000  0.01450000  1.0
  H  H61  1  0.74156000  0.70219000  0.51451000  1.0
  H  H62  1  0.24157000  0.20219000  0.98549000  1.0
  H  H63  1  0.25843000  0.29781000  0.48550000  1.0
  H  H64  1  0.98814000  0.81323000  0.98173000  1.0
  H  H65  1  0.51185000  0.68678000  0.48173000  1.0
  H  H66  1  0.01185000  0.18678000  0.01827000  1.0
  H  H67  1  0.48815000  0.31322000  0.51828000  1.0
  H  H68  1  0.97043000  0.73399000  0.07783000  1.0
  H  H69  1  0.52956000  0.76601000  0.57784000  1.0
  H  H70  1  0.02956000  0.26602000  0.92217000  1.0
  H  H71  1  0.47043000  0.23399000  0.42217000  1.0
  H  H72  1  0.48777000  0.46441000  0.14378000  1.0
  H  H73  1  0.01224000  0.03559000  0.64378000  1.0
  H  H74  1  0.51224000  0.53558000  0.85622000  1.0
  H  H75  1  0.98778000  0.96441000  0.35622000  1.0
  C  C76  1  0.60308000  0.29330000  0.11483000  1.0
  C  C77  1  0.89691000  0.20670000  0.61483000  1.0
  C  C78  1  0.39692000  0.70669000  0.88517000  1.0
  C  C79  1  0.10309000  0.79330000  0.38517000  1.0
  C  C80  1  0.65144000  0.19749000  0.05151000  1.0
  C  C81  1  0.84858000  0.30251000  0.55151000  1.0
  C  C82  1  0.34858000  0.80250000  0.94849000  1.0
  C  C83  1  0.15143000  0.69750000  0.44849000  1.0
  C  C84  1  0.75166000  0.07643000  0.07237000  1.0
  C  C85  1  0.74836000  0.42357000  0.57236000  1.0
  C  C86  1  0.24836000  0.92356000  0.92764000  1.0
  C  C87  1  0.25165000  0.57643000  0.42764000  1.0
  C  C88  1  0.81155000  0.04333000  0.15626000  1.0
  C  C89  1  0.68846000  0.45667000  0.65625000  1.0
  C  C90  1  0.18846000  0.95667000  0.84375000  1.0
  C  C91  1  0.31154000  0.54332000  0.34376000  1.0
  C  C92  1  0.76853000  0.13465000  0.21898000  1.0
  C  C93  1  0.73144000  0.36536000  0.71897000  1.0
  C  C94  1  0.23146000  0.86535000  0.78102000  1.0
  C  C95  1  0.26857000  0.63464000  0.28104000  1.0
  C  C96  1  0.66630000  0.25542000  0.19913000  1.0
  C  C97  1  0.83367000  0.24460000  0.69912000  1.0
  C  C98  1  0.33368000  0.74459000  0.80087000  1.0
  C  C99  1  0.16634000  0.75541000  0.30087000  1.0
  C  C100  1  0.63686000  0.10999000  0.88667000  1.0
  C  C101  1  0.86315000  0.39001000  0.38668000  1.0
  C  C102  1  0.36315000  0.89000000  0.11332000  1.0
  C  C103  1  0.13685000  0.61000000  0.61332000  1.0
  C  C104  1  0.21741000  0.37530000  0.77818000  1.0
  C  C105  1  0.28257000  0.12470000  0.27818000  1.0
  C  C106  1  0.78259000  0.62470000  0.22182000  1.0
  C  C107  1  0.71742000  0.87530000  0.72182000  1.0
  C  C108  1  0.95836000  0.53649000  0.83451000  1.0
  C  C109  1  0.54161000  0.96352000  0.33452000  1.0
  C  C110  1  0.04162000  0.46352000  0.16548000  1.0
  C  C111  1  0.45838000  0.03648000  0.66548000  1.0
  C  C112  1  0.91308000  0.65785000  0.87988000  1.0
  C  C113  1  0.58691000  0.84216000  0.37989000  1.0
  C  C114  1  0.08693000  0.34215000  0.12011000  1.0
  C  C115  1  0.41308000  0.15785000  0.62012000  1.0
  C  C116  1  0.91520000  0.75325000  0.01285000  1.0
  C  C117  1  0.58479000  0.74676000  0.51286000  1.0
  C  C118  1  0.08480000  0.24675000  0.98714000  1.0
  C  C119  1  0.41520000  0.25325000  0.48715000  1.0
  S  S120  1  0.58538000  0.25017000  0.94702000  1.0
  S  S121  1  0.91462000  0.24984000  0.44701000  1.0
  S  S122  1  0.41462000  0.74983000  0.05299000  1.0
  S  S123  1  0.08536000  0.75017000  0.55299000  1.0
  N  N124  1  0.50741000  0.40942000  0.09089000  1.0
  N  N125  1  0.99259000  0.09057000  0.59089000  1.0
  N  N126  1  0.49260000  0.59057000  0.90910000  1.0
  N  N127  1  0.00740000  0.90943000  0.40910000  1.0
  O  O128  1  0.16195000  0.47845000  0.83409000  1.0
  O  O129  1  0.33804000  0.02155000  0.33409000  1.0
  O  O130  1  0.83805000  0.52155000  0.16591000  1.0
  O  O131  1  0.66195000  0.97845000  0.66591000  1.0
  O  O132  1  0.95781000  0.63791000  0.96904000  1.0
  O  O133  1  0.54219000  0.86209000  0.46905000  1.0
  O  O134  1  0.04220000  0.36209000  0.03096000  1.0
  O  O135  1  0.45780000  0.13791000  0.53096000  1.0
