# generated using pymatgen
data_KCuH6(C5N3)2
_symmetry_space_group_name_H-M   'P 1'
_cell_length_a   8.05394000
_cell_length_b   8.66173000
_cell_length_c   17.20010000
_cell_angle_alpha   90.00040000
_cell_angle_beta   90.00020000
_cell_angle_gamma   107.91300000
_symmetry_Int_Tables_number   1
_chemical_formula_structural   KCuH6(C5N3)2
_chemical_formula_sum   'K4 Cu4 H24 C40 N24'
_cell_volume   1141.73165895
_cell_formula_units_Z   4
loop_
 _symmetry_equiv_pos_site_id
 _symmetry_equiv_pos_as_xyz
  1  'x, y, z'
loop_
 _atom_site_type_symbol
 _atom_site_label
 _atom_site_symmetry_multiplicity
 _atom_site_fract_x
 _atom_site_fract_y
 _atom_site_fract_z
 _atom_site_occupancy
  K  K0  1  0.83406000  0.71760000  0.19418000  1.0
  K  K1  1  0.33405000  0.71761000  0.30582000  1.0
  K  K2  1  0.16596000  0.28239000  0.80582000  1.0
  K  K3  1  0.66596000  0.28239000  0.69418000  1.0
  Cu  Cu4  1  0.86414000  0.22551000  0.16524000  1.0
  Cu  Cu5  1  0.36415000  0.22552000  0.33476000  1.0
  Cu  Cu6  1  0.13586000  0.77449000  0.83476000  1.0
  Cu  Cu7  1  0.63587000  0.77450000  0.66524000  1.0
  H  H8  1  0.77920000  0.42680000  0.84372000  1.0
  H  H9  1  0.27920000  0.42680000  0.65628000  1.0
  H  H10  1  0.22080000  0.57320000  0.15628000  1.0
  H  H11  1  0.72080000  0.57321000  0.34372000  1.0
  H  H12  1  0.56510000  0.46097000  0.94096000  1.0
  H  H13  1  0.06510000  0.46096000  0.55904000  1.0
  H  H14  1  0.43490000  0.53903000  0.05904000  1.0
  H  H15  1  0.93490000  0.53903000  0.44096000  1.0
  H  H16  1  0.60803000  0.38741000  0.08348000  1.0
  H  H17  1  0.10804000  0.38741000  0.41652000  1.0
  H  H18  1  0.39196000  0.61259000  0.91652000  1.0
  H  H19  1  0.89196000  0.61259000  0.58348000  1.0
  H  H20  1  0.37771000  0.10296000  0.94928000  1.0
  H  H21  1  0.87772000  0.10297000  0.55072000  1.0
  H  H22  1  0.62227000  0.89703000  0.05072000  1.0
  H  H23  1  0.12229000  0.89703000  0.44928000  1.0
  H  H24  1  0.41127000  0.04656000  0.09429000  1.0
  H  H25  1  0.91129000  0.04657000  0.40571000  1.0
  H  H26  1  0.58871000  0.95343000  0.90571000  1.0
  H  H27  1  0.08872000  0.95342000  0.59428000  1.0
  H  H28  1  0.19716000  0.10723000  0.18630000  1.0
  H  H29  1  0.69717000  0.10724000  0.31371000  1.0
  H  H30  1  0.80283000  0.89277000  0.81371000  1.0
  H  H31  1  0.30284000  0.89277000  0.68629000  1.0
  C  C32  1  0.68303000  0.02962000  0.18558000  1.0
  C  C33  1  0.18305000  0.02962000  0.31442000  1.0
  C  C34  1  0.31696000  0.97039000  0.81442000  1.0
  C  C35  1  0.81697000  0.97039000  0.68558000  1.0
  C  C36  1  0.95022000  0.38068000  0.24524000  1.0
  C  C37  1  0.45022000  0.38068000  0.25476000  1.0
  C  C38  1  0.04978000  0.61933000  0.75476000  1.0
  C  C39  1  0.54979000  0.61934000  0.74524000  1.0
  C  C40  1  0.92294000  0.28670000  0.99741000  1.0
  C  C41  1  0.42295000  0.28671000  0.50259000  1.0
  C  C42  1  0.07704000  0.71329000  0.00259000  1.0
  C  C43  1  0.57706000  0.71329000  0.49741000  1.0
  C  C44  1  0.78546000  0.38903000  0.90382000  1.0
  C  C45  1  0.28546000  0.38904000  0.59618000  1.0
  C  C46  1  0.21454000  0.61096000  0.09618000  1.0
  C  C47  1  0.71455000  0.61097000  0.40382000  1.0
  C  C48  1  0.66815000  0.41197000  0.95904000  1.0
  C  C49  1  0.16815000  0.41197000  0.54096000  1.0
  C  C50  1  0.33185000  0.58803000  0.04096000  1.0
  C  C51  1  0.83185000  0.58803000  0.45904000  1.0
  C  C52  1  0.69027000  0.37070000  0.03555000  1.0
  C  C53  1  0.19028000  0.37070000  0.46445000  1.0
  C  C54  1  0.30972000  0.62930000  0.96445000  1.0
  C  C55  1  0.80973000  0.62929000  0.53555000  1.0
  C  C56  1  0.06076000  0.21668000  0.02193000  1.0
  C  C57  1  0.56077000  0.21669000  0.47808000  1.0
  C  C58  1  0.93923000  0.78331000  0.97807000  1.0
  C  C59  1  0.43924000  0.78331000  0.52192000  1.0
  C  C60  1  0.29241000  0.12660000  0.99398000  1.0
  C  C61  1  0.79242000  0.12661000  0.50603000  1.0
  C  C62  1  0.70758000  0.87338000  0.00603000  1.0
  C  C63  1  0.20759000  0.87339000  0.49397000  1.0
  C  C64  1  0.30964000  0.09430000  0.07256000  1.0
  C  C65  1  0.80966000  0.09431000  0.42744000  1.0
  C  C66  1  0.69034000  0.90569000  0.92744000  1.0
  C  C67  1  0.19035000  0.90569000  0.57255000  1.0
  C  C68  1  0.19180000  0.12742000  0.12397000  1.0
  C  C69  1  0.69182000  0.12744000  0.37603000  1.0
  C  C70  1  0.80818000  0.87257000  0.87603000  1.0
  C  C71  1  0.30819000  0.87257000  0.62397000  1.0
  N  N72  1  0.00732000  0.47383000  0.29595000  1.0
  N  N73  1  0.50733000  0.47382000  0.20405000  1.0
  N  N74  1  0.99268000  0.52618000  0.70405000  1.0
  N  N75  1  0.49268000  0.52619000  0.79595000  1.0
  N  N76  1  0.81838000  0.30834000  0.05536000  1.0
  N  N77  1  0.31839000  0.30835000  0.44464000  1.0
  N  N78  1  0.18162000  0.69166000  0.94464000  1.0
  N  N79  1  0.68162000  0.69166000  0.55536000  1.0
  N  N80  1  0.91220000  0.32538000  0.92240000  1.0
  N  N81  1  0.41220000  0.32539000  0.57761000  1.0
  N  N82  1  0.08779000  0.67461000  0.07760000  1.0
  N  N83  1  0.58780000  0.67462000  0.42240000  1.0
  N  N84  1  0.06467000  0.18604000  0.09891000  1.0
  N  N85  1  0.56469000  0.18605000  0.40109000  1.0
  N  N86  1  0.93531000  0.81395000  0.90109000  1.0
  N  N87  1  0.43532000  0.81396000  0.59891000  1.0
  N  N88  1  0.16956000  0.18958000  0.96841000  1.0
  N  N89  1  0.66958000  0.18959000  0.53160000  1.0
  N  N90  1  0.83042000  0.81041000  0.03159000  1.0
  N  N91  1  0.33044000  0.81041000  0.46840000  1.0
  N  N92  1  0.57082000  0.90818000  0.19940000  1.0
  N  N93  1  0.07083000  0.90819000  0.30060000  1.0
  N  N94  1  0.42917000  0.09182000  0.80060000  1.0
  N  N95  1  0.92918000  0.09183000  0.69939000  1.0
