# generated using pymatgen
data_CaH12C14(NO5)2
_symmetry_space_group_name_H-M   'P 1'
_cell_length_a   7.66507000
_cell_length_b   10.18520000
_cell_length_c   11.17800000
_cell_angle_alpha   81.31200000
_cell_angle_beta   81.77270000
_cell_angle_gamma   89.81430000
_symmetry_Int_Tables_number   1
_chemical_formula_structural   CaH12C14(NO5)2
_chemical_formula_sum   'Ca2 H24 C28 N4 O20'
_cell_volume   853.62716902
_cell_formula_units_Z   2
loop_
 _symmetry_equiv_pos_site_id
 _symmetry_equiv_pos_as_xyz
  1  'x, y, z'
loop_
 _atom_site_type_symbol
 _atom_site_label
 _atom_site_symmetry_multiplicity
 _atom_site_fract_x
 _atom_site_fract_y
 _atom_site_fract_z
 _atom_site_occupancy
  Ca  Ca0  1  0.23997000  0.97277000  0.04406000  1.0
  Ca  Ca1  1  0.76003000  0.02723000  0.95594000  1.0
  H  H2  1  0.98238000  0.69239000  0.79012000  1.0
  H  H3  1  0.01762000  0.30761000  0.20987000  1.0
  H  H4  1  0.92651000  0.60894000  0.60169000  1.0
  H  H5  1  0.07349000  0.39106000  0.39831000  1.0
  H  H6  1  0.04945000  0.73332000  0.39481000  1.0
  H  H7  1  0.95055000  0.26669000  0.60518000  1.0
  H  H8  1  0.22404000  0.94268000  0.38202000  1.0
  H  H9  1  0.77596000  0.05732000  0.61798000  1.0
  H  H10  1  0.38359000  0.68642000  0.78845000  1.0
  H  H11  1  0.61641000  0.31358000  0.21155000  1.0
  H  H12  1  0.57031000  0.67426000  0.58815000  1.0
  H  H13  1  0.42969000  0.32574000  0.41185000  1.0
  H  H14  1  0.68111000  0.45354000  0.54038000  1.0
  H  H15  1  0.31890000  0.54646000  0.45963000  1.0
  H  H16  1  0.59507000  0.24861000  0.68816000  1.0
  H  H17  1  0.40493000  0.75139000  0.31184000  1.0
  H  H18  1  0.14158000  0.68740000  0.10529000  1.0
  H  H19  1  0.85842000  0.31260000  0.89471000  1.0
  H  H20  1  0.97224000  0.76984000  0.12788000  1.0
  H  H21  1  0.02776000  0.23016000  0.87212000  1.0
  H  H22  1  0.46170000  0.08922000  0.19880000  1.0
  H  H23  1  0.53830000  0.91077000  0.80120000  1.0
  H  H24  1  0.27599000  0.15153000  0.23221000  1.0
  H  H25  1  0.72401000  0.84847000  0.76779000  1.0
  C  C26  1  0.13190000  0.86479000  0.69393000  1.0
  C  C27  1  0.86810000  0.13521000  0.30606000  1.0
  C  C28  1  0.03378000  0.74731000  0.70048000  1.0
  C  C29  1  0.96622000  0.25269000  0.29952000  1.0
  C  C30  1  0.00445000  0.70003000  0.59393000  1.0
  C  C31  1  0.99555000  0.29997000  0.40607000  1.0
  C  C32  1  0.07304000  0.76859000  0.47866000  1.0
  C  C33  1  0.92696000  0.23141000  0.52133000  1.0
  C  C34  1  0.17093000  0.88542000  0.47024000  1.0
  C  C35  1  0.82907000  0.11458000  0.52976000  1.0
  C  C36  1  0.19793000  0.93208000  0.57754000  1.0
  C  C37  1  0.80207000  0.06793000  0.42246000  1.0
  C  C38  1  0.16548000  0.90779000  0.81192000  1.0
  C  C39  1  0.83452000  0.09221000  0.18808000  1.0
  C  C40  1  0.38244000  0.47494000  0.84471000  1.0
  C  C41  1  0.61755000  0.52506000  0.15528000  1.0
  C  C42  1  0.42731000  0.59134000  0.76270000  1.0
  C  C43  1  0.57269000  0.40866000  0.23730000  1.0
  C  C44  1  0.53466000  0.58362000  0.65249000  1.0
  C  C45  1  0.46535000  0.41638000  0.34751000  1.0
  C  C46  1  0.59708000  0.46041000  0.62651000  1.0
  C  C47  1  0.40292000  0.53959000  0.37350000  1.0
  C  C48  1  0.55047000  0.34510000  0.70920000  1.0
  C  C49  1  0.44953000  0.65490000  0.29080000  1.0
  C  C50  1  0.44088000  0.34990000  0.81965000  1.0
  C  C51  1  0.55912000  0.65010000  0.18035000  1.0
  C  C52  1  0.38157000  0.22050000  0.89811000  1.0
  C  C53  1  0.61843000  0.77949000  0.10189000  1.0
  N  N54  1  0.29099000  0.05975000  0.56597000  1.0
  N  N55  1  0.70901000  0.94025000  0.43403000  1.0
  N  N56  1  0.28244000  0.48889000  0.96361000  1.0
  N  N57  1  0.71755000  0.51110000  0.03639000  1.0
  O  O58  1  0.37313000  0.10662000  0.46445000  1.0
  O  O59  1  0.62687000  0.89338000  0.53555000  1.0
  O  O60  1  0.27993000  0.11625000  0.65763000  1.0
  O  O61  1  0.72008000  0.88375000  0.34237000  1.0
  O  O62  1  0.03752000  0.95129000  0.87829000  1.0
  O  O63  1  0.96248000  0.04871000  0.12171000  1.0
  O  O64  1  0.31635000  0.88821000  0.84535000  1.0
  O  O65  1  0.68364000  0.11179000  0.15465000  1.0
  O  O66  1  0.18062000  0.58448000  0.96849000  1.0
  O  O67  1  0.81937000  0.41552000  0.03151000  1.0
  O  O68  1  0.30767000  0.40822000  0.05402000  1.0
  O  O69  1  0.69232000  0.59178000  0.94598000  1.0
  O  O70  1  0.21786000  0.19725000  0.92997000  1.0
  O  O71  1  0.78214000  0.80275000  0.07003000  1.0
  O  O72  1  0.49745000  0.13617000  0.92489000  1.0
  O  O73  1  0.50255000  0.86383000  0.07512000  1.0
  O  O74  1  0.09730000  0.76398000  0.14333000  1.0
  O  O75  1  0.90270000  0.23602000  0.85667000  1.0
  O  O76  1  0.33246000  0.07351000  0.20500000  1.0
  O  O77  1  0.66753000  0.92649000  0.79500000  1.0
