# generated using pymatgen
data_Zn4H39C48N3O19
_symmetry_space_group_name_H-M   'P 1'
_cell_length_a   25.92170000
_cell_length_b   26.36390000
_cell_length_c   26.43190000
_cell_angle_alpha   61.52480000
_cell_angle_beta   60.91580000
_cell_angle_gamma   60.93070000
_symmetry_Int_Tables_number   1
_chemical_formula_structural   Zn4H39C48N3O19
_chemical_formula_sum   'Zn8 H78 C96 N6 O38'
_cell_volume   13094.91981305
_cell_formula_units_Z   2
loop_
 _symmetry_equiv_pos_site_id
 _symmetry_equiv_pos_as_xyz
  1  'x, y, z'
loop_
 _atom_site_type_symbol
 _atom_site_label
 _atom_site_symmetry_multiplicity
 _atom_site_fract_x
 _atom_site_fract_y
 _atom_site_fract_z
 _atom_site_occupancy
  Zn  Zn0  1  0.10044000  0.95581000  0.96557000  1.0
  Zn  Zn1  1  0.97725000  0.95653000  0.96527000  1.0
  Zn  Zn2  1  0.98097000  0.07700000  0.96320000  1.0
  Zn  Zn3  1  0.97770000  0.96091000  0.08429000  1.0
  Zn  Zn4  1  0.41764000  0.51548000  0.52266000  1.0
  Zn  Zn5  1  0.52556000  0.52407000  0.53197000  1.0
  Zn  Zn6  1  0.53726000  0.51952000  0.40518000  1.0
  Zn  Zn7  1  0.53408000  0.39827000  0.53090000  1.0
  H  H8  1  0.16747000  0.88159000  0.81202000  1.0
  H  H9  1  0.08368000  0.80121000  0.89322000  1.0
  H  H10  1  0.07301000  0.86470000  0.82827000  1.0
  H  H11  1  0.17514000  0.81167000  0.76157000  1.0
  H  H12  1  0.12618000  0.76570000  0.80452000  1.0
  H  H13  1  0.18065000  0.70663000  0.88112000  1.0
  H  H14  1  0.27726000  0.72134000  0.86152000  1.0
  H  H15  1  0.26579000  0.78521000  0.79613000  1.0
  H  H16  1  0.22412000  0.82041000  0.88561000  1.0
  H  H17  1  0.17655000  0.77330000  0.92851000  1.0
  H  H18  1  0.27378000  0.51222000  0.81663000  1.0
  H  H19  1  0.34348000  0.48831000  0.71760000  1.0
  H  H20  1  0.37223000  0.66307000  0.63238000  1.0
  H  H21  1  0.17794000  0.10855000  0.89780000  1.0
  H  H22  1  0.09179000  0.19065000  0.82009000  1.0
  H  H23  1  0.08557000  0.20184000  0.88355000  1.0
  H  H24  1  0.18936000  0.21933000  0.82767000  1.0
  H  H25  1  0.13789000  0.26958000  0.78462000  1.0
  H  H26  1  0.18599000  0.19863000  0.72483000  1.0
  H  H27  1  0.28401000  0.11076000  0.73493000  1.0
  H  H28  1  0.27590000  0.12440000  0.79842000  1.0
  H  H29  1  0.23149000  0.04267000  0.83393000  1.0
  H  H30  1  0.18257000  0.09205000  0.78852000  1.0
  H  H31  1  0.27389000  0.35975000  0.52708000  1.0
  H  H32  1  0.34668000  0.41429000  0.49768000  1.0
  H  H33  1  0.38645000  0.30337000  0.66666667  1.0
  H  H34  1  0.16765000  0.79325000  0.11891000  1.0
  H  H35  1  0.08535000  0.86979000  0.20618000  1.0
  H  H36  1  0.07572000  0.80528000  0.21229000  1.0
  H  H37  1  0.17863000  0.73835000  0.23053000  1.0
  H  H38  1  0.12918000  0.77989000  0.28342000  1.0
  H  H39  1  0.18117000  0.85896000  0.21748000  1.0
  H  H40  1  0.27967000  0.83894000  0.13000000  1.0
  H  H41  1  0.26772000  0.77393000  0.13893000  1.0
  H  H42  1  0.22607000  0.86479000  0.05851000  1.0
  H  H43  1  0.17952000  0.90718000  0.11042000  1.0
  H  H44  1  0.27081000  0.80433000  0.38212000  1.0
  H  H45  1  0.34706000  0.71015000  0.43061000  1.0
  H  H46  1  0.38481000  0.62001000  0.31004000  1.0
  H  H47  1  0.91560000  0.10873000  0.80332000  1.0
  H  H48  1  0.83425000  0.19583000  0.87997000  1.0
  H  H49  1  0.90127000  0.20289000  0.81541000  1.0
  H  H50  1  0.84704000  0.21917000  0.74911000  1.0
  H  H51  1  0.80190000  0.27235000  0.79044000  1.0
  H  H52  1  0.73865000  0.20465000  0.86966000  1.0
  H  H53  1  0.74878000  0.11612000  0.84951000  1.0
  H  H54  1  0.81570000  0.12619000  0.78451000  1.0
  H  H55  1  0.84804000  0.04637000  0.87512000  1.0
  H  H56  1  0.80022000  0.09837000  0.91733000  1.0
  H  H57  1  0.54253000  0.37388000  0.81273000  1.0
  H  H58  1  0.51314000  0.42499000  0.71744000  1.0
  H  H59  1  0.68186000  0.30133000  0.62909000  1.0
  H  H60  1  0.81475000  0.89156000  0.12000000  1.0
  H  H61  1  0.89193000  0.81924000  0.20621000  1.0
  H  H62  1  0.82502000  0.88463000  0.21224000  1.0
  H  H63  1  0.75893000  0.82847000  0.23128000  1.0
  H  H64  1  0.79995000  0.78797000  0.28423000  1.0
  H  H65  1  0.88223000  0.72136000  0.22055000  1.0
  H  H66  1  0.86713000  0.72561000  0.13221000  1.0
  H  H67  1  0.79966000  0.79134000  0.13975000  1.0
  H  H68  1  0.89271000  0.82226000  0.05988000  1.0
  H  H69  1  0.93389000  0.78006000  0.11258000  1.0
  H  H70  1  0.81471000  0.53433000  0.39275000  1.0
  H  H71  1  0.71545000  0.50897000  0.44204000  1.0
  H  H72  1  0.63385000  0.67103000  0.31295000  1.0
  H  H73  1  0.91181000  0.15142000  0.11881000  1.0
  H  H74  1  0.82464000  0.07461000  0.19926000  1.0
  H  H75  1  0.89141000  0.06316000  0.21075000  1.0
  H  H76  1  0.84154000  0.16468000  0.22836000  1.0
  H  H77  1  0.79224000  0.11922000  0.27822000  1.0
  H  H78  1  0.73156000  0.17191000  0.20736000  1.0
  H  H79  1  0.74917000  0.26466000  0.11962000  1.0
  H  H80  1  0.81594000  0.25145000  0.13325000  1.0
  H  H81  1  0.84810000  0.20844000  0.05183000  1.0
  H  H82  1  0.79709000  0.16514000  0.10093000  1.0
  H  H83  1  0.53631000  0.26547000  0.37103000  1.0
  H  H84  1  0.51367000  0.33537000  0.42438000  1.0
  H  H85  1  0.69202000  0.36386000  0.30867000  1.0
  C  C86  1  0.10374000  0.89284000  0.89748000  1.0
  C  C87  1  0.14516000  0.85243000  0.85664000  1.0
  C  C88  1  0.10891000  0.82704000  0.84811000  1.0
  C  C89  1  0.15271000  0.78545000  0.80809000  1.0
  C  C90  1  0.20350000  0.73386000  0.83540000  1.0
  C  C91  1  0.24140000  0.75929000  0.84165000  1.0
  C  C92  1  0.19783000  0.80060000  0.88194000  1.0
  C  C93  1  0.24021000  0.63049000  0.82627000  1.0
  C  C94  1  0.28264000  0.60186000  0.77697000  1.0
  C  C95  1  0.29492000  0.54471000  0.77630000  1.0
  C  C96  1  0.33395000  0.53155000  0.72156000  1.0
  C  C97  1  0.36166000  0.57368000  0.67031000  1.0
  C  C98  1  0.35056000  0.63064000  0.67216000  1.0
  C  C99  1  0.30939000  0.64420000  0.72585000  1.0
  C  C100  1  0.28362000  0.70183000  0.74073000  1.0
  C  C101  1  0.40190000  0.55734000  0.61291000  1.0
  C  C102  1  0.11101000  0.07808000  0.90691000  1.0
  C  C103  1  0.15445000  0.11605000  0.86820000  1.0
  C  C104  1  0.11945000  0.18442000  0.84493000  1.0
  C  C105  1  0.16429000  0.22123000  0.80272000  1.0
  C  C106  1  0.21184000  0.19552000  0.74980000  1.0
  C  C107  1  0.24970000  0.12828000  0.77346000  1.0
  C  C108  1  0.20545000  0.09082000  0.81524000  1.0
  C  C109  1  0.24458000  0.26896000  0.64594000  1.0
  C  C110  1  0.28826000  0.30439000  0.61419000  1.0
  C  C111  1  0.29823000  0.34814000  0.55708000  1.0
  C  C112  1  0.33904000  0.37769000  0.54081000  1.0
  C  C113  1  0.37063000  0.36162000  0.57981000  1.0
  C  C114  1  0.36190000  0.31563000  0.63664000  1.0
  C  C115  1  0.31903000  0.28869000  0.65340000  1.0
  C  C116  1  0.29489000  0.24330000  0.71202000  1.0
  C  C117  1  0.41080000  0.39744000  0.56100000  1.0
  C  C118  1  0.10436000  0.88109000  0.09013000  1.0
  C  C119  1  0.14647000  0.83670000  0.12893000  1.0
  C  C120  1  0.11117000  0.82546000  0.19749000  1.0
  C  C121  1  0.15557000  0.78458000  0.23480000  1.0
  C  C122  1  0.20537000  0.81298000  0.21235000  1.0
  C  C123  1  0.24359000  0.81942000  0.14496000  1.0
  C  C124  1  0.20005000  0.86071000  0.10694000  1.0
  C  C125  1  0.23900000  0.80769000  0.28919000  1.0
  C  C126  1  0.28412000  0.76173000  0.32231000  1.0
  C  C127  1  0.29543000  0.76401000  0.36725000  1.0
  C  C128  1  0.33814000  0.71204000  0.39340000  1.0
  C  C129  1  0.37030000  0.66088000  0.37275000  1.0
  C  C130  1  0.35996000  0.65981000  0.32580000  1.0
  C  C131  1  0.31508000  0.71059000  0.30235000  1.0
  C  C132  1  0.28911000  0.72199000  0.25676000  1.0
  C  C133  1  0.41255000  0.60593000  0.40548000  1.0
  C  C134  1  0.92146000  0.08057000  0.89033000  1.0
  C  C135  1  0.88383000  0.11836000  0.84687000  1.0
  C  C136  1  0.86111000  0.18719000  0.83570000  1.0
  C  C137  1  0.81997000  0.22349000  0.79520000  1.0
  C  C138  1  0.76517000  0.19974000  0.82371000  1.0
  C  C139  1  0.78869000  0.13208000  0.82993000  1.0
  C  C140  1  0.82925000  0.09499000  0.87098000  1.0
  C  C141  1  0.66101000  0.27733000  0.81801000  1.0
  C  C142  1  0.62952000  0.31221000  0.77122000  1.0
  C  C143  1  0.57249000  0.35887000  0.77256000  1.0
  C  C144  1  0.55625000  0.38657000  0.71992000  1.0
  C  C145  1  0.59498000  0.36578000  0.66894000  1.0
  C  C146  1  0.65188000  0.31726000  0.66870000  1.0
  C  C147  1  0.66892000  0.29226000  0.72017000  1.0
  C  C148  1  0.72792000  0.24493000  0.73246000  1.0
  C  C149  1  0.57434000  0.39893000  0.61420000  1.0
  C  C150  1  0.90203000  0.90173000  0.09002000  1.0
  C  C151  1  0.85936000  0.86290000  0.12943000  1.0
  C  C152  1  0.84686000  0.84394000  0.19779000  1.0
  C  C153  1  0.80586000  0.80308000  0.23566000  1.0
  C  C154  1  0.83609000  0.74711000  0.21424000  1.0
  C  C155  1  0.84544000  0.76637000  0.14660000  1.0
  C  C156  1  0.88683000  0.80679000  0.10839000  1.0
  C  C157  1  0.82596000  0.64739000  0.29416000  1.0
  C  C158  1  0.77663000  0.61820000  0.32853000  1.0
  C  C159  1  0.77509000  0.56391000  0.37621000  1.0
  C  C160  1  0.72015000  0.54985000  0.40294000  1.0
  C  C161  1  0.66997000  0.58775000  0.38022000  1.0
  C  C162  1  0.67277000  0.64162000  0.33057000  1.0
  C  C163  1  0.72631000  0.65668000  0.30659000  1.0
  C  C164  1  0.74153000  0.71269000  0.25848000  1.0
  C  C165  1  0.61263000  0.56957000  0.41227000  1.0
  C  C166  1  0.91799000  0.08824000  0.08711000  1.0
  C  C167  1  0.87923000  0.13150000  0.12522000  1.0
  C  C168  1  0.85306000  0.09864000  0.19333000  1.0
  C  C169  1  0.81288000  0.14350000  0.23004000  1.0
  C  C170  1  0.76060000  0.19374000  0.20414000  1.0
  C  C171  1  0.78747000  0.22876000  0.13708000  1.0
  C  C172  1  0.82720000  0.18444000  0.09984000  1.0
  C  C173  1  0.65600000  0.23132000  0.27836000  1.0
  C  C174  1  0.62765000  0.27419000  0.31351000  1.0
  C  C175  1  0.56980000  0.28669000  0.35827000  1.0
  C  C176  1  0.55736000  0.32603000  0.38714000  1.0
  C  C177  1  0.60064000  0.35390000  0.36927000  1.0
  C  C178  1  0.65827000  0.34249000  0.32247000  1.0
  C  C179  1  0.67129000  0.30093000  0.29636000  1.0
  C  C180  1  0.72975000  0.27449000  0.25060000  1.0
  C  C181  1  0.58398000  0.39398000  0.40406000  1.0
  N  N182  1  0.24302000  0.69003000  0.80144000  1.0
  N  N183  1  0.25108000  0.23344000  0.70393000  1.0
  N  N184  1  0.24442000  0.78098000  0.25096000  1.0
  N  N185  1  0.71939000  0.23807000  0.79188000  1.0
  N  N186  1  0.80192000  0.70354000  0.25314000  1.0
  N  N187  1  0.71684000  0.23379000  0.24182000  1.0
  O  O188  1  0.00856000  0.98766000  0.99512000  1.0
  O  O189  1  0.04654000  0.89587000  0.92506000  1.0
  O  O190  1  0.13034000  0.92017000  0.90151000  1.0
  O  O191  1  0.20825000  0.60859000  0.87795000  1.0
  O  O192  1  0.29396000  0.75013000  0.70772000  1.0
  O  O193  1  0.44846000  0.57669000  0.57796000  1.0
  O  O194  1  0.38619000  0.52445000  0.60326000  1.0
  O  O195  1  0.05356000  0.10554000  0.91115000  1.0
  O  O196  1  0.13612000  0.02102000  0.93137000  1.0
  O  O197  1  0.20911000  0.26981000  0.62732000  1.0
  O  O198  1  0.30869000  0.21968000  0.75836000  1.0
  O  O199  1  0.45819000  0.37139000  0.57855000  1.0
  O  O200  1  0.39304000  0.45330000  0.52823000  1.0
  O  O201  1  0.04715000  0.90685000  0.11713000  1.0
  O  O202  1  0.13065000  0.88982000  0.03277000  1.0
  O  O203  1  0.20343000  0.85853000  0.29330000  1.0
  O  O204  1  0.30228000  0.68775000  0.23015000  1.0
  O  O205  1  0.46476000  0.57546000  0.37495000  1.0
  O  O206  1  0.39120000  0.59428000  0.46339000  1.0
  O  O207  1  0.92942000  0.10892000  0.91244000  1.0
  O  O208  1  0.94145000  0.02275000  0.90177000  1.0
  O  O209  1  0.64199000  0.28104000  0.86894000  1.0
  O  O210  1  0.77488000  0.21795000  0.69851000  1.0
  O  O211  1  0.58175000  0.36742000  0.58495000  1.0
  O  O212  1  0.55010000  0.45676000  0.60218000  1.0
  O  O213  1  0.92256000  0.91334000  0.11703000  1.0
  O  O214  1  0.91424000  0.91916000  0.03244000  1.0
  O  O215  1  0.87714000  0.62835000  0.29946000  1.0
  O  O216  1  0.70881000  0.75813000  0.22986000  1.0
  O  O217  1  0.58939000  0.56856000  0.38009000  1.0
  O  O218  1  0.59289000  0.55610000  0.47031000  1.0
  O  O219  1  0.93056000  0.03100000  0.11542000  1.0
  O  O220  1  0.93485000  0.11327000  0.02934000  1.0
  O  O221  1  0.63310000  0.19922000  0.27998000  1.0
  O  O222  1  0.77940000  0.28440000  0.22605000  1.0
  O  O223  1  0.58370000  0.44894000  0.37404000  1.0
  O  O224  1  0.57081000  0.36812000  0.46157000  1.0
  O  O225  1  0.50939000  0.48738000  0.49440000  1.0
