# generated using pymatgen
data_CuH7C7BrN5
_symmetry_space_group_name_H-M   'P 1'
_cell_length_a   9.48105000
_cell_length_b   10.08110000
_cell_length_c   10.11770000
_cell_angle_alpha   89.99860000
_cell_angle_beta   98.39550000
_cell_angle_gamma   89.99970000
_symmetry_Int_Tables_number   1
_chemical_formula_structural   CuH7C7BrN5
_chemical_formula_sum   'Cu4 H28 C28 Br4 N20'
_cell_volume   956.68079622
_cell_formula_units_Z   4
loop_
 _symmetry_equiv_pos_site_id
 _symmetry_equiv_pos_as_xyz
  1  'x, y, z'
loop_
 _atom_site_type_symbol
 _atom_site_label
 _atom_site_symmetry_multiplicity
 _atom_site_fract_x
 _atom_site_fract_y
 _atom_site_fract_z
 _atom_site_occupancy
  Cu  Cu0  1  0.84154000  0.94579000  0.40456000  1.0
  Cu  Cu1  1  0.65847000  0.44577000  0.59545000  1.0
  Cu  Cu2  1  0.15847000  0.05421000  0.59544000  1.0
  Cu  Cu3  1  0.34154000  0.55422000  0.40456000  1.0
  H  H4  1  0.04762000  0.12208000  0.15581000  1.0
  H  H5  1  0.45238000  0.62208000  0.84419000  1.0
  H  H6  1  0.95239000  0.87791000  0.84421000  1.0
  H  H7  1  0.54760000  0.37794000  0.15582000  1.0
  H  H8  1  0.15652000  0.16782000  0.03230000  1.0
  H  H9  1  0.34348000  0.66781000  0.96770000  1.0
  H  H10  1  0.84348000  0.83218000  0.96771000  1.0
  H  H11  1  0.65650000  0.33221000  0.03231000  1.0
  H  H12  1  0.17508000  0.25708000  0.18756000  1.0
  H  H13  1  0.32492000  0.75707000  0.81242000  1.0
  H  H14  1  0.82492000  0.74291000  0.81244000  1.0
  H  H15  1  0.67507000  0.24294000  0.18759000  1.0
  H  H16  1  0.13790000  0.90753000  0.11629000  1.0
  H  H17  1  0.36211000  0.40752000  0.88371000  1.0
  H  H18  1  0.86212000  0.09246000  0.88372000  1.0
  H  H19  1  0.63789000  0.59250000  0.11629000  1.0
  H  H20  1  0.31473000  0.73589000  0.21321000  1.0
  H  H21  1  0.18528000  0.23588000  0.78679000  1.0
  H  H22  1  0.68527000  0.26410000  0.78680000  1.0
  H  H23  1  0.81473000  0.76413000  0.21322000  1.0
  H  H24  1  0.58430000  0.05975000  0.38375000  1.0
  H  H25  1  0.91570000  0.55974000  0.61622000  1.0
  H  H26  1  0.41571000  0.94025000  0.61621000  1.0
  H  H27  1  0.08429000  0.44025000  0.38378000  1.0
  H  H28  1  0.39822000  0.21574000  0.27637000  1.0
  H  H29  1  0.10177000  0.71573000  0.72359000  1.0
  H  H30  1  0.60178000  0.78426000  0.72361000  1.0
  H  H31  1  0.89821000  0.28427000  0.27640000  1.0
  C  C32  1  0.15251000  0.16031000  0.14010000  1.0
  C  C33  1  0.34748000  0.66031000  0.85989000  1.0
  C  C34  1  0.84749000  0.83968000  0.85990000  1.0
  C  C35  1  0.65250000  0.33971000  0.14012000  1.0
  C  C36  1  0.23867000  0.93378000  0.17629000  1.0
  C  C37  1  0.26134000  0.43377000  0.82369000  1.0
  C  C38  1  0.76134000  0.06622000  0.82371000  1.0
  C  C39  1  0.73866000  0.56625000  0.17631000  1.0
  C  C40  1  0.33702000  0.84115000  0.23160000  1.0
  C  C41  1  0.16299000  0.34114000  0.76840000  1.0
  C  C42  1  0.66299000  0.15885000  0.76840000  1.0
  C  C43  1  0.83702000  0.65887000  0.23161000  1.0
  C  C44  1  0.46260000  0.88274000  0.31247000  1.0
  C  C45  1  0.03740000  0.38274000  0.68752000  1.0
  C  C46  1  0.53740000  0.11725000  0.68752000  1.0
  C  C47  1  0.96260000  0.61726000  0.31248000  1.0
  C  C48  1  0.48810000  0.02009000  0.32516000  1.0
  C  C49  1  0.01191000  0.52007000  0.67482000  1.0
  C  C50  1  0.51191000  0.97990000  0.67483000  1.0
  C  C51  1  0.98809000  0.47991000  0.32517000  1.0
  C  C52  1  0.38643000  0.10852000  0.26713000  1.0
  C  C53  1  0.11358000  0.60852000  0.73285000  1.0
  C  C54  1  0.61359000  0.89147000  0.73286000  1.0
  C  C55  1  0.88641000  0.39149000  0.26714000  1.0
  C  C56  1  0.55883000  0.78801000  0.38715000  1.0
  C  C57  1  0.94118000  0.28800000  0.61285000  1.0
  C  C58  1  0.44117000  0.21197000  0.61285000  1.0
  C  C59  1  0.05884000  0.71198000  0.38715000  1.0
  Br  Br60  1  0.79659000  0.00934000  0.16353000  1.0
  Br  Br61  1  0.70340000  0.50932000  0.83648000  1.0
  Br  Br62  1  0.20340000  0.99068000  0.83648000  1.0
  Br  Br63  1  0.29657000  0.49066000  0.16351000  1.0
  N  N64  1  0.52288000  0.66400000  0.42245000  1.0
  N  N65  1  0.97713000  0.16399000  0.57755000  1.0
  N  N66  1  0.47711000  0.33600000  0.57755000  1.0
  N  N67  1  0.02289000  0.83601000  0.42245000  1.0
  N  N68  1  0.63941000  0.61705000  0.50043000  1.0
  N  N69  1  0.86059000  0.11705000  0.49957000  1.0
  N  N70  1  0.36060000  0.38295000  0.49957000  1.0
  N  N71  1  0.13941000  0.88295000  0.50043000  1.0
  N  N72  1  0.74303000  0.70650000  0.51229000  1.0
  N  N73  1  0.75697000  0.20650000  0.48772000  1.0
  N  N74  1  0.25698000  0.29350000  0.48771000  1.0
  N  N75  1  0.24303000  0.79350000  0.51229000  1.0
  N  N76  1  0.69540000  0.81424000  0.44196000  1.0
  N  N77  1  0.80460000  0.31423000  0.55805000  1.0
  N  N78  1  0.30460000  0.18575000  0.55804000  1.0
  N  N79  1  0.19540000  0.68576000  0.44195000  1.0
  N  N80  1  0.26204000  0.06535000  0.19716000  1.0
  N  N81  1  0.23796000  0.56534000  0.80283000  1.0
  N  N82  1  0.73796000  0.93465000  0.80285000  1.0
  N  N83  1  0.76203000  0.43468000  0.19716000  1.0
