# generated using pymatgen
data_AgH12C13N7
_symmetry_space_group_name_H-M   'P 1'
_cell_length_a   7.32994000
_cell_length_b   10.41850000
_cell_length_c   17.99760000
_cell_angle_alpha   90.00000000
_cell_angle_beta   92.81640000
_cell_angle_gamma   90.00000000
_symmetry_Int_Tables_number   1
_chemical_formula_structural   AgH12C13N7
_chemical_formula_sum   'Ag4 H48 C52 N28'
_cell_volume   1372.76221169
_cell_formula_units_Z   4
loop_
 _symmetry_equiv_pos_site_id
 _symmetry_equiv_pos_as_xyz
  1  'x, y, z'
loop_
 _atom_site_type_symbol
 _atom_site_label
 _atom_site_symmetry_multiplicity
 _atom_site_fract_x
 _atom_site_fract_y
 _atom_site_fract_z
 _atom_site_occupancy
  Ag  Ag0  1  0.32795000  0.93240000  0.03558000  1.0
  Ag  Ag1  1  0.67204000  0.43241000  0.46442000  1.0
  Ag  Ag2  1  0.67205000  0.06759000  0.96442000  1.0
  Ag  Ag3  1  0.32795000  0.56760000  0.53558000  1.0
  H  H4  1  0.94743000  0.10219000  0.07792000  1.0
  H  H5  1  0.05257000  0.60219000  0.42209000  1.0
  H  H6  1  0.05257000  0.89781000  0.92208000  1.0
  H  H7  1  0.94743000  0.39781000  0.57791000  1.0
  H  H8  1  0.84109000  0.94324000  0.22903000  1.0
  H  H9  1  0.15890000  0.44324000  0.27097000  1.0
  H  H10  1  0.15890000  0.05675000  0.77097000  1.0
  H  H11  1  0.84109000  0.55676000  0.72903000  1.0
  H  H12  1  0.65097000  0.81722000  0.31155000  1.0
  H  H13  1  0.34903000  0.31722000  0.18845000  1.0
  H  H14  1  0.34902000  0.18278000  0.68845000  1.0
  H  H15  1  0.65098000  0.68278000  0.81155000  1.0
  H  H16  1  0.43542000  0.03248000  0.20608000  1.0
  H  H17  1  0.56459000  0.53248000  0.29392000  1.0
  H  H18  1  0.56458000  0.96752000  0.79392000  1.0
  H  H19  1  0.43541000  0.46752000  0.70608000  1.0
  H  H20  1  0.18311000  0.15632000  0.29512000  1.0
  H  H21  1  0.81690000  0.65631000  0.20488000  1.0
  H  H22  1  0.81689000  0.84369000  0.70488000  1.0
  H  H23  1  0.18310000  0.34368000  0.79512000  1.0
  H  H24  1  0.58258000  0.73695000  0.42561000  1.0
  H  H25  1  0.41742000  0.23695000  0.07439000  1.0
  H  H26  1  0.41742000  0.26305000  0.57439000  1.0
  H  H27  1  0.58258000  0.76305000  0.92561000  1.0
  H  H28  1  0.45092000  0.16761000  0.40592000  1.0
  H  H29  1  0.54908000  0.66761000  0.09408000  1.0
  H  H30  1  0.54908000  0.83239000  0.59408000  1.0
  H  H31  1  0.45093000  0.33239000  0.90592000  1.0
  H  H32  1  0.63901000  0.29366000  0.32268000  1.0
  H  H33  1  0.36099000  0.79366000  0.17732000  1.0
  H  H34  1  0.36099000  0.70634000  0.67732000  1.0
  H  H35  1  0.63901000  0.20634000  0.82268000  1.0
  H  H36  1  0.76780000  0.22356000  0.16462000  1.0
  H  H37  1  0.23220000  0.72356000  0.33538000  1.0
  H  H38  1  0.23220000  0.77644000  0.83538000  1.0
  H  H39  1  0.76779000  0.27644000  0.66462000  1.0
  H  H40  1  0.88708000  0.30216000  0.23977000  1.0
  H  H41  1  0.11292000  0.80216000  0.26023000  1.0
  H  H42  1  0.11292000  0.69784000  0.76023000  1.0
  H  H43  1  0.88708000  0.19784000  0.73977000  1.0
  H  H44  1  0.20266000  0.04580000  0.42470000  1.0
  H  H45  1  0.79734000  0.54580000  0.07530000  1.0
  H  H46  1  0.79734000  0.95420000  0.57530000  1.0
  H  H47  1  0.20267000  0.45420000  0.92470000  1.0
  H  H48  1  0.07545000  0.84025000  0.50889000  1.0
  H  H49  1  0.92455000  0.34024000  0.99111000  1.0
  H  H50  1  0.92455000  0.15976000  0.49111000  1.0
  H  H51  1  0.07545000  0.65975000  0.00889000  1.0
  C  C52  1  0.05027000  0.10027000  0.12343000  1.0
  C  C53  1  0.94973000  0.60026000  0.37657000  1.0
  C  C54  1  0.94973000  0.89974000  0.87656000  1.0
  C  C55  1  0.05027000  0.39974000  0.62344000  1.0
  C  C56  1  0.75261000  0.12752000  0.26966000  1.0
  C  C57  1  0.24739000  0.62752000  0.23034000  1.0
  C  C58  1  0.24739000  0.87248000  0.73034000  1.0
  C  C59  1  0.75260000  0.37248000  0.76966000  1.0
  C  C60  1  0.75767000  0.99318000  0.26840000  1.0
  C  C61  1  0.24232000  0.49317000  0.23161000  1.0
  C  C62  1  0.24232000  0.00682000  0.73160000  1.0
  C  C63  1  0.75768000  0.50683000  0.76839000  1.0
  C  C64  1  0.65099000  0.92164000  0.31520000  1.0
  C  C65  1  0.34901000  0.42164000  0.18480000  1.0
  C  C66  1  0.34901000  0.07836000  0.68480000  1.0
  C  C67  1  0.65099000  0.57836000  0.81520000  1.0
  C  C68  1  0.29706000  0.06474000  0.19301000  1.0
  C  C69  1  0.70295000  0.56474000  0.30699000  1.0
  C  C70  1  0.70294000  0.93526000  0.80699000  1.0
  C  C71  1  0.29705000  0.43526000  0.69301000  1.0
  C  C72  1  0.53894000  0.98490000  0.36414000  1.0
  C  C73  1  0.46106000  0.48490000  0.13586000  1.0
  C  C74  1  0.46105000  0.01510000  0.63586000  1.0
  C  C75  1  0.53895000  0.51511000  0.86413000  1.0
  C  C76  1  0.17573000  0.12501000  0.23738000  1.0
  C  C77  1  0.82428000  0.62501000  0.26262000  1.0
  C  C78  1  0.82427000  0.87499000  0.76262000  1.0
  C  C79  1  0.17572000  0.37499000  0.73738000  1.0
  C  C80  1  0.46043000  0.79120000  0.43650000  1.0
  C  C81  1  0.53957000  0.29120000  0.06350000  1.0
  C  C82  1  0.53957000  0.20880000  0.56350000  1.0
  C  C83  1  0.46044000  0.70880000  0.93650000  1.0
  C  C84  1  0.53543000  0.11865000  0.36690000  1.0
  C  C85  1  0.46457000  0.61864000  0.13311000  1.0
  C  C86  1  0.46457000  0.88136000  0.63311000  1.0
  C  C87  1  0.53543000  0.38136000  0.86689000  1.0
  C  C88  1  0.64186000  0.18908000  0.31970000  1.0
  C  C89  1  0.35814000  0.68907000  0.18030000  1.0
  C  C90  1  0.35814000  0.81092000  0.68030000  1.0
  C  C91  1  0.64186000  0.31092000  0.81970000  1.0
  C  C92  1  0.85409000  0.20772000  0.21543000  1.0
  C  C93  1  0.14591000  0.70772000  0.28457000  1.0
  C  C94  1  0.14591000  0.79228000  0.78457000  1.0
  C  C95  1  0.85409000  0.29228000  0.71543000  1.0
  C  C96  1  0.26001000  0.95161000  0.43748000  1.0
  C  C97  1  0.73999000  0.45160000  0.06252000  1.0
  C  C98  1  0.73998000  0.04840000  0.56252000  1.0
  C  C99  1  0.26002000  0.54840000  0.93748000  1.0
  C  C100  1  0.19889000  0.85027000  0.47832000  1.0
  C  C101  1  0.80110000  0.35027000  0.02168000  1.0
  C  C102  1  0.80110000  0.14973000  0.52168000  1.0
  C  C103  1  0.19890000  0.64973000  0.97832000  1.0
  N  N104  1  0.42654000  0.91290000  0.41101000  1.0
  N  N105  1  0.57346000  0.41290000  0.08899000  1.0
  N  N106  1  0.57346000  0.08710000  0.58899000  1.0
  N  N107  1  0.42654000  0.58710000  0.91101000  1.0
  N  N108  1  0.21708000  0.04963000  0.12221000  1.0
  N  N109  1  0.78293000  0.54963000  0.37779000  1.0
  N  N110  1  0.78292000  0.95037000  0.87779000  1.0
  N  N111  1  0.21708000  0.45037000  0.62221000  1.0
  N  N112  1  0.02113000  0.14753000  0.19222000  1.0
  N  N113  1  0.97887000  0.64753000  0.30778000  1.0
  N  N114  1  0.97887000  0.85247000  0.80778000  1.0
  N  N115  1  0.02113000  0.35247000  0.69222000  1.0
  N  N116  1  0.66194000  0.93747000  0.07995000  1.0
  N  N117  1  0.33807000  0.43747000  0.42005000  1.0
  N  N118  1  0.33807000  0.06253000  0.92005000  1.0
  N  N119  1  0.66194000  0.56254000  0.57995000  1.0
  N  N120  1  0.32487000  0.75134000  0.47712000  1.0
  N  N121  1  0.67513000  0.25134000  0.02287000  1.0
  N  N122  1  0.67513000  0.24866000  0.52288000  1.0
  N  N123  1  0.32488000  0.74866000  0.97712000  1.0
  N  N124  1  0.76428000  0.84823000  0.08619000  1.0
  N  N125  1  0.23573000  0.34824000  0.41381000  1.0
  N  N126  1  0.23573000  0.15176000  0.91381000  1.0
  N  N127  1  0.76428000  0.65177000  0.58619000  1.0
  N  N128  1  0.86665000  0.76075000  0.09382000  1.0
  N  N129  1  0.13336000  0.26076000  0.40618000  1.0
  N  N130  1  0.13336000  0.23924000  0.90618000  1.0
  N  N131  1  0.86665000  0.73925000  0.59382000  1.0
