# generated using pymatgen
data_MnH7C8NO8
_symmetry_space_group_name_H-M   'P 1'
_cell_length_a   7.61076000
_cell_length_b   7.74986000
_cell_length_c   9.89853000
_cell_angle_alpha   68.76920000
_cell_angle_beta   79.02090000
_cell_angle_gamma   62.77370000
_symmetry_Int_Tables_number   1
_chemical_formula_structural   MnH7C8NO8
_chemical_formula_sum   'Mn2 H14 C16 N2 O16'
_cell_volume   483.70127107
_cell_formula_units_Z   2
loop_
 _symmetry_equiv_pos_site_id
 _symmetry_equiv_pos_as_xyz
  1  'x, y, z'
loop_
 _atom_site_type_symbol
 _atom_site_label
 _atom_site_symmetry_multiplicity
 _atom_site_fract_x
 _atom_site_fract_y
 _atom_site_fract_z
 _atom_site_occupancy
  Mn  Mn0  1  0.79230000  0.72075000  0.02235000  1.0
  Mn  Mn1  1  0.20770000  0.27926000  0.97765000  1.0
  H  H2  1  0.14076000  0.52905000  0.64669000  1.0
  H  H3  1  0.85924000  0.47095000  0.35331000  1.0
  H  H4  1  0.25455000  0.03433000  0.62857000  1.0
  H  H5  1  0.74545000  0.96567000  0.37143000  1.0
  H  H6  1  0.35614000  0.08143000  0.37048000  1.0
  H  H7  1  0.64385000  0.91857000  0.62953000  1.0
  H  H8  1  0.63753000  0.61528000  0.83906000  1.0
  H  H9  1  0.36247000  0.38472000  0.16094000  1.0
  H  H10  1  0.45435000  0.75967000  0.91096000  1.0
  H  H11  1  0.54565000  0.24033000  0.08905000  1.0
  H  H12  1  0.08142000  0.78344000  0.05788000  1.0
  H  H13  1  0.91858000  0.21656000  0.94212000  1.0
  H  H14  1  0.90593000  0.91186000  0.14300000  1.0
  H  H15  1  0.09407000  0.08814000  0.85700000  1.0
  C  C16  1  0.40700000  0.85089000  0.21060000  1.0
  C  C17  1  0.59300000  0.14910000  0.78940000  1.0
  C  C18  1  0.32457000  0.82258000  0.36423000  1.0
  C  C19  1  0.67544000  0.17742000  0.63577000  1.0
  C  C20  1  0.26040000  0.66969000  0.44561000  1.0
  C  C21  1  0.73960000  0.33031000  0.55439000  1.0
  C  C22  1  0.18993000  0.64871000  0.58881000  1.0
  C  C23  1  0.81008000  0.35129000  0.41118000  1.0
  C  C24  1  0.19392000  0.77592000  0.65717000  1.0
  C  C25  1  0.80608000  0.22407000  0.34283000  1.0
  C  C26  1  0.25431000  0.93187000  0.57704000  1.0
  C  C27  1  0.74569000  0.06813000  0.42296000  1.0
  C  C28  1  0.31437000  0.95700000  0.43216000  1.0
  C  C29  1  0.68563000  0.04301000  0.56784000  1.0
  C  C30  1  0.14601000  0.73851000  0.81530000  1.0
  C  C31  1  0.85400000  0.26148000  0.18470000  1.0
  N  N32  1  0.27421000  0.52140000  0.38252000  1.0
  N  N33  1  0.72579000  0.47860000  0.61748000  1.0
  O  O34  1  0.59372000  0.76292000  0.19792000  1.0
  O  O35  1  0.40628000  0.23708000  0.80208000  1.0
  O  O36  1  0.28714000  0.96915000  0.10898000  1.0
  O  O37  1  0.71286000  0.03085000  0.89102000  1.0
  O  O38  1  0.19514000  0.82138000  0.88260000  1.0
  O  O39  1  0.80486000  0.17861000  0.11740000  1.0
  O  O40  1  0.05887000  0.61919000  0.87916000  1.0
  O  O41  1  0.94113000  0.38081000  0.12084000  1.0
  O  O42  1  0.35713000  0.52992000  0.25936000  1.0
  O  O43  1  0.64288000  0.47008000  0.74064000  1.0
  O  O44  1  0.20890000  0.39333000  0.45113000  1.0
  O  O45  1  0.79109000  0.60668000  0.54887000  1.0
  O  O46  1  0.59980000  0.70355000  0.90102000  1.0
  O  O47  1  0.40020000  0.29645000  0.09898000  1.0
  O  O48  1  0.97545000  0.77333000  0.13280000  1.0
  O  O49  1  0.02455000  0.22667000  0.86720000  1.0
