# generated using pymatgen
data_CdH15C19BrN2O5
_symmetry_space_group_name_H-M   'P 1'
_cell_length_a   8.74199000
_cell_length_b   9.57404000
_cell_length_c   11.73930000
_cell_angle_alpha   103.54100000
_cell_angle_beta   89.99950000
_cell_angle_gamma   89.99750000
_symmetry_Int_Tables_number   1
_chemical_formula_structural   CdH15C19BrN2O5
_chemical_formula_sum   'Cd2 H30 C38 Br2 N4 O10'
_cell_volume   955.22247340
_cell_formula_units_Z   2
loop_
 _symmetry_equiv_pos_site_id
 _symmetry_equiv_pos_as_xyz
  1  'x, y, z'
loop_
 _atom_site_type_symbol
 _atom_site_label
 _atom_site_symmetry_multiplicity
 _atom_site_fract_x
 _atom_site_fract_y
 _atom_site_fract_z
 _atom_site_occupancy
  Cd  Cd0  1  0.70560000  0.35782000  0.01642000  1.0
  Cd  Cd1  1  0.20561000  0.64216000  0.98356000  1.0
  H  H2  1  0.55956000  0.98412000  0.44944000  1.0
  H  H3  1  0.05962000  0.01591000  0.55058000  1.0
  H  H4  1  0.38354000  0.12658000  0.35395000  1.0
  H  H5  1  0.88359000  0.87346000  0.64607000  1.0
  H  H6  1  0.42425000  0.13485000  0.14650000  1.0
  H  H7  1  0.92426000  0.86518000  0.85352000  1.0
  H  H8  1  0.95732000  0.84608000  0.16162000  1.0
  H  H9  1  0.45736000  0.15389000  0.83840000  1.0
  H  H10  1  0.88242000  0.88550000  0.03504000  1.0
  H  H11  1  0.38243000  0.11449000  0.96499000  1.0
  H  H12  1  0.61311000  0.57100000  0.85010000  1.0
  H  H13  1  0.11313000  0.42900000  0.14989000  1.0
  H  H14  1  0.62605000  0.58524000  0.64153000  1.0
  H  H15  1  0.12606000  0.41477000  0.35847000  1.0
  H  H16  1  0.79083000  0.14657000  0.55806000  1.0
  H  H17  1  0.29081000  0.85343000  0.44191000  1.0
  H  H18  1  0.77894000  0.15419000  0.77233000  1.0
  H  H19  1  0.27891000  0.84581000  0.22765000  1.0
  H  H20  1  0.51678000  0.51150000  0.46352000  1.0
  H  H21  1  0.01679000  0.48849000  0.53647000  1.0
  H  H22  1  0.52589000  0.50459000  0.24965000  1.0
  H  H23  1  0.02588000  0.49541000  0.75034000  1.0
  H  H24  1  0.89212000  0.22184000  0.19769000  1.0
  H  H25  1  0.39209000  0.77813000  0.80228000  1.0
  H  H26  1  0.90174000  0.21913000  0.40857000  1.0
  H  H27  1  0.40174000  0.78084000  0.59140000  1.0
  H  H28  1  0.01164000  0.22619000  0.02686000  1.0
  H  H29  1  0.51163000  0.77382000  0.97314000  1.0
  H  H30  1  0.03553000  0.34685000  0.95512000  1.0
  H  H31  1  0.53553000  0.65314000  0.04488000  1.0
  C  C32  1  0.62065000  0.99339000  0.12289000  1.0
  C  C33  1  0.12067000  0.00661000  0.87713000  1.0
  C  C34  1  0.72164000  0.91116000  0.17502000  1.0
  C  C35  1  0.22166000  0.08884000  0.82500000  1.0
  C  C36  1  0.69488000  0.91110000  0.29282000  1.0
  C  C37  1  0.19490000  0.08895000  0.70722000  1.0
  C  C38  1  0.57520000  0.98658000  0.35785000  1.0
  C  C39  1  0.07523000  0.01346000  0.64217000  1.0
  C  C40  1  0.47756000  0.06690000  0.30396000  1.0
  C  C41  1  0.97762000  0.93312000  0.69606000  1.0
  C  C42  1  0.50055000  0.07077000  0.18729000  1.0
  C  C43  1  0.00056000  0.92924000  0.81273000  1.0
  C  C44  1  0.64105000  0.99595000  0.99446000  1.0
  C  C45  1  0.14105000  0.00403000  0.00554000  1.0
  C  C46  1  0.85413000  0.83434000  0.10655000  1.0
  C  C47  1  0.35415000  0.16565000  0.89348000  1.0
  C  C48  1  0.83631000  0.67320000  0.05186000  1.0
  C  C49  1  0.33633000  0.32679000  0.94813000  1.0
  C  C50  1  0.65395000  0.48010000  0.78260000  1.0
  C  C51  1  0.15397000  0.51990000  0.21739000  1.0
  C  C52  1  0.65920000  0.48626000  0.66557000  1.0
  C  C53  1  0.15920000  0.51374000  0.33442000  1.0
  C  C54  1  0.70832000  0.36580000  0.58068000  1.0
  C  C55  1  0.20832000  0.63420000  0.41932000  1.0
  C  C56  1  0.75344000  0.24417000  0.61964000  1.0
  C  C57  1  0.25343000  0.75583000  0.38035000  1.0
  C  C58  1  0.74589000  0.24670000  0.73847000  1.0
  C  C59  1  0.24587000  0.75331000  0.26152000  1.0
  C  C60  1  0.71018000  0.36661000  0.45518000  1.0
  C  C61  1  0.21018000  0.63339000  0.54482000  1.0
  C  C62  1  0.60406000  0.44801000  0.40848000  1.0
  C  C63  1  0.10405000  0.55198000  0.59151000  1.0
  C  C64  1  0.60744000  0.44399000  0.28940000  1.0
  C  C65  1  0.10742000  0.55601000  0.71058000  1.0
  C  C66  1  0.81159000  0.28578000  0.25971000  1.0
  C  C67  1  0.31159000  0.71418000  0.74027000  1.0
  C  C68  1  0.81600000  0.28434000  0.37776000  1.0
  C  C69  1  0.31601000  0.71563000  0.62222000  1.0
  Br  Br70  1  0.82966000  0.80766000  0.37308000  1.0
  Br  Br71  1  0.32968000  0.19233000  0.62693000  1.0
  N  N72  1  0.69598000  0.36216000  0.81836000  1.0
  N  N73  1  0.19599000  0.63785000  0.18163000  1.0
  N  N74  1  0.70908000  0.36421000  0.21641000  1.0
  N  N75  1  0.20906000  0.63577000  0.78357000  1.0
  O  O76  1  0.69611000  0.10734000  0.96965000  1.0
  O  O77  1  0.19609000  0.89265000  0.03035000  1.0
  O  O78  1  0.60134000  0.88405000  0.91859000  1.0
  O  O79  1  0.10136000  0.11597000  0.08142000  1.0
  O  O80  1  0.72191000  0.60735000  0.08271000  1.0
  O  O81  1  0.22192000  0.39264000  0.91729000  1.0
  O  O82  1  0.93628000  0.61346000  0.97845000  1.0
  O  O83  1  0.43631000  0.38653000  0.02154000  1.0
  O  O84  1  0.95914000  0.30805000  0.00107000  1.0
  O  O85  1  0.45913000  0.69196000  0.99894000  1.0
