# generated using pymatgen
data_Zn3H18(C14O5)2
_symmetry_space_group_name_H-M   'P 1'
_cell_length_a   11.96840000
_cell_length_b   15.59530000
_cell_length_c   15.59530000
_cell_angle_alpha   84.36410000
_cell_angle_beta   74.90940000
_cell_angle_gamma   74.90950000
_symmetry_Int_Tables_number   1
_chemical_formula_structural   Zn3H18(C14O5)2
_chemical_formula_sum   'Zn6 H36 C56 O20'
_cell_volume   2712.13114438
_cell_formula_units_Z   2
loop_
 _symmetry_equiv_pos_site_id
 _symmetry_equiv_pos_as_xyz
  1  'x, y, z'
loop_
 _atom_site_type_symbol
 _atom_site_label
 _atom_site_symmetry_multiplicity
 _atom_site_fract_x
 _atom_site_fract_y
 _atom_site_fract_z
 _atom_site_occupancy
  Zn  Zn0  1  0.00000000  0.00000000  0.00000000  1.0
  Zn  Zn1  1  0.50000000  0.00000000  0.00000000  1.0
  Zn  Zn2  1  0.25000000  0.07455000  0.92545000  1.0
  Zn  Zn3  1  0.25000000  0.92937000  0.07063000  1.0
  Zn  Zn4  1  0.75000000  0.92545000  0.07455000  1.0
  Zn  Zn5  1  0.75000000  0.07063000  0.92937000  1.0
  H  H6  1  0.09225000  0.35436000  0.92299000  1.0
  H  H7  1  0.95816000  0.50619000  0.93445000  1.0
  H  H8  1  0.65265000  0.39256000  0.00300000  1.0
  H  H9  1  0.78705000  0.24226000  0.98722000  1.0
  H  H10  1  0.82897000  0.61275000  0.87610000  1.0
  H  H11  1  0.68898000  0.76206000  0.89078000  1.0
  H  H12  1  0.43964000  0.66077000  0.10017000  1.0
  H  H13  1  0.57873000  0.51090000  0.08660000  1.0
  H  H14  1  0.20582000  0.92152000  0.91434000  1.0
  H  H15  1  0.40775000  0.07701000  0.64564000  1.0
  H  H16  1  0.54183000  0.06556000  0.49381000  1.0
  H  H17  1  0.84735000  0.99700000  0.60744000  1.0
  H  H18  1  0.71295000  0.01279000  0.75774000  1.0
  H  H19  1  0.67103000  0.12390000  0.38725000  1.0
  H  H20  1  0.81102000  0.10922000  0.23794000  1.0
  H  H21  1  0.06036000  0.89983000  0.33923000  1.0
  H  H22  1  0.92127000  0.91340000  0.48910000  1.0
  H  H23  1  0.29418000  0.08566000  0.07849000  1.0
  H  H24  1  0.90775000  0.64564000  0.07701000  1.0
  H  H25  1  0.04183000  0.49381000  0.06556000  1.0
  H  H26  1  0.34735000  0.60744000  0.99700000  1.0
  H  H27  1  0.21295000  0.75774000  0.01278000  1.0
  H  H28  1  0.17103000  0.38725000  0.12390000  1.0
  H  H29  1  0.31102000  0.23794000  0.10922000  1.0
  H  H30  1  0.56036000  0.33923000  0.89983000  1.0
  H  H31  1  0.42127000  0.48910000  0.91340000  1.0
  H  H32  1  0.79418000  0.07849000  0.08566000  1.0
  H  H33  1  0.59225000  0.92299000  0.35436000  1.0
  H  H34  1  0.45816000  0.93444000  0.50619000  1.0
  H  H35  1  0.15265000  0.00300000  0.39256000  1.0
  H  H36  1  0.28705000  0.98722000  0.24226000  1.0
  H  H37  1  0.32897000  0.87610000  0.61275000  1.0
  H  H38  1  0.18898000  0.89078000  0.76206000  1.0
  H  H39  1  0.93964000  0.10017000  0.66077000  1.0
  H  H40  1  0.07873000  0.08660000  0.51089000  1.0
  H  H41  1  0.70582000  0.91434000  0.92151000  1.0
  C  C42  1  0.02758000  0.19690000  0.94848000  1.0
  C  C43  1  0.94828000  0.28857000  0.95554000  1.0
  C  C44  1  0.99571000  0.36361000  0.94003000  1.0
  C  C45  1  0.92003000  0.44851000  0.94646000  1.0
  C  C46  1  0.79523000  0.46079000  0.97083000  1.0
  C  C47  1  0.74887000  0.38495000  0.98633000  1.0
  C  C48  1  0.82417000  0.30020000  0.97775000  1.0
  C  C49  1  0.71394000  0.55048000  0.97991000  1.0
  C  C50  1  0.74425000  0.62289000  0.92603000  1.0
  C  C51  1  0.66598000  0.70665000  0.93386000  1.0
  C  C52  1  0.55509000  0.72074000  0.99590000  1.0
  C  C53  1  0.52486000  0.64928000  0.05089000  1.0
  C  C54  1  0.60300000  0.56552000  0.04276000  1.0
  C  C55  1  0.47074000  0.81044000  0.00325000  1.0
  C  C56  1  0.47242000  0.05152000  0.80310000  1.0
  C  C57  1  0.55172000  0.04446000  0.71144000  1.0
  C  C58  1  0.50429000  0.05997000  0.63639000  1.0
  C  C59  1  0.57997000  0.05354000  0.55149000  1.0
  C  C60  1  0.70477000  0.02917000  0.53921000  1.0
  C  C61  1  0.75113000  0.01367000  0.61505000  1.0
  C  C62  1  0.67583000  0.02225000  0.69980000  1.0
  C  C63  1  0.78606000  0.02009000  0.44952000  1.0
  C  C64  1  0.75575000  0.07398000  0.37711000  1.0
  C  C65  1  0.83403000  0.06614000  0.29335000  1.0
  C  C66  1  0.94491000  0.00410000  0.27926000  1.0
  C  C67  1  0.97513000  0.94911000  0.35072000  1.0
  C  C68  1  0.89700000  0.95723000  0.43448000  1.0
  C  C69  1  0.02926000  0.99674000  0.18956000  1.0
  C  C70  1  0.97242000  0.80310000  0.05152000  1.0
  C  C71  1  0.05172000  0.71144000  0.04446000  1.0
  C  C72  1  0.00430000  0.63639000  0.05997000  1.0
  C  C73  1  0.07997000  0.55149000  0.05354000  1.0
  C  C74  1  0.20477000  0.53921000  0.02917000  1.0
  C  C75  1  0.25113000  0.61505000  0.01367000  1.0
  C  C76  1  0.17583000  0.69980000  0.02225000  1.0
  C  C77  1  0.28606000  0.44952000  0.02009000  1.0
  C  C78  1  0.25575000  0.37711000  0.07398000  1.0
  C  C79  1  0.33403000  0.29335000  0.06614000  1.0
  C  C80  1  0.44491000  0.27926000  0.00410000  1.0
  C  C81  1  0.47513000  0.35072000  0.94911000  1.0
  C  C82  1  0.39700000  0.43448000  0.95724000  1.0
  C  C83  1  0.52926000  0.18956000  0.99674000  1.0
  C  C84  1  0.52758000  0.94848000  0.19690000  1.0
  C  C85  1  0.44828000  0.95554000  0.28856000  1.0
  C  C86  1  0.49571000  0.94003000  0.36361000  1.0
  C  C87  1  0.42003000  0.94646000  0.44851000  1.0
  C  C88  1  0.29523000  0.97083000  0.46079000  1.0
  C  C89  1  0.24887000  0.98633000  0.38495000  1.0
  C  C90  1  0.32417000  0.97775000  0.30020000  1.0
  C  C91  1  0.21394000  0.97990000  0.55048000  1.0
  C  C92  1  0.24425000  0.92602000  0.62289000  1.0
  C  C93  1  0.16597000  0.93386000  0.70665000  1.0
  C  C94  1  0.05509000  0.99590000  0.72074000  1.0
  C  C95  1  0.02487000  0.05089000  0.64928000  1.0
  C  C96  1  0.10300000  0.04276000  0.56552000  1.0
  C  C97  1  0.97074000  0.00326000  0.81044000  1.0
  O  O98  1  0.18552000  0.96503000  0.96002000  1.0
  O  O99  1  0.13914000  0.19023000  0.94234000  1.0
  O  O100  1  0.98202000  0.13230000  0.94825000  1.0
  O  O101  1  0.36721000  0.81600000  0.05715000  1.0
  O  O102  1  0.50360000  0.87488000  0.95647000  1.0
  O  O103  1  0.31448000  0.03998000  0.03497000  1.0
  O  O104  1  0.36086000  0.05766000  0.80977000  1.0
  O  O105  1  0.51798000  0.05175000  0.86770000  1.0
  O  O106  1  0.13279000  0.94285000  0.18400000  1.0
  O  O107  1  0.99640000  0.04352000  0.12512000  1.0
  O  O108  1  0.81448000  0.03497000  0.03998000  1.0
  O  O109  1  0.86086000  0.80977000  0.05766000  1.0
  O  O110  1  0.01798000  0.86770000  0.05175000  1.0
  O  O111  1  0.63279000  0.18400000  0.94285000  1.0
  O  O112  1  0.49640000  0.12512000  0.04353000  1.0
  O  O113  1  0.68552000  0.96002000  0.96503000  1.0
  O  O114  1  0.63914000  0.94234000  0.19023000  1.0
  O  O115  1  0.48202000  0.94825000  0.13230000  1.0
  O  O116  1  0.86721000  0.05715000  0.81600000  1.0
  O  O117  1  0.00359000  0.95648000  0.87488000  1.0
