# generated using pymatgen
data_ZnH18C22N4O5
_symmetry_space_group_name_H-M   'P 1'
_cell_length_a   9.95539000
_cell_length_b   10.97240000
_cell_length_c   11.64739600
_cell_angle_alpha   117.03199206
_cell_angle_beta   99.59845652
_cell_angle_gamma   106.86600000
_symmetry_Int_Tables_number   1
_chemical_formula_structural   ZnH18C22N4O5
_chemical_formula_sum   'Zn2 H36 C44 N8 O10'
_cell_volume   1015.83688356
_cell_formula_units_Z   2
loop_
 _symmetry_equiv_pos_site_id
 _symmetry_equiv_pos_as_xyz
  1  'x, y, z'
loop_
 _atom_site_type_symbol
 _atom_site_label
 _atom_site_symmetry_multiplicity
 _atom_site_fract_x
 _atom_site_fract_y
 _atom_site_fract_z
 _atom_site_occupancy
  Zn  Zn0  1  0.17904000  0.03467000  0.62153000  1.0
  Zn  Zn1  1  0.82096000  0.96533000  0.37847000  1.0
  H  H2  1  0.61957000  0.01850000  0.63168000  1.0
  H  H3  1  0.38043000  0.98150000  0.36832000  1.0
  H  H4  1  0.98934000  0.07723000  0.93353000  1.0
  H  H5  1  0.01067000  0.92277000  0.06647000  1.0
  H  H6  1  0.59206000  0.10287000  0.02400000  1.0
  H  H7  1  0.40794000  0.89713000  0.97600000  1.0
  H  H8  1  0.17147000  0.31332000  0.86439000  1.0
  H  H9  1  0.82853000  0.68668000  0.13561000  1.0
  H  H10  1  0.31982000  0.59509000  0.01119000  1.0
  H  H11  1  0.68019000  0.40493000  0.98882000  1.0
  H  H12  1  0.53521000  0.71236000  0.95862000  1.0
  H  H13  1  0.46479000  0.28764000  0.04138000  1.0
  H  H14  1  0.43006000  0.26760000  0.61691000  1.0
  H  H15  1  0.56994000  0.73240000  0.38309000  1.0
  H  H16  1  0.84206000  0.74196000  0.82301000  1.0
  H  H17  1  0.15794000  0.25804000  0.17699000  1.0
  H  H18  1  0.77193000  0.72971000  0.95219000  1.0
  H  H19  1  0.22808000  0.27030000  0.04782000  1.0
  H  H20  1  0.70196000  0.80482000  0.86377000  1.0
  H  H21  1  0.29804000  0.19518000  0.13623000  1.0
  H  H22  1  0.69614000  0.24560000  0.37133000  1.0
  H  H23  1  0.30385000  0.75439000  0.62866000  1.0
  H  H24  1  0.60935000  0.29144000  0.26070000  1.0
  H  H25  1  0.39065000  0.70856000  0.73930000  1.0
  H  H26  1  0.53757000  0.28422000  0.39024000  1.0
  H  H27  1  0.46243000  0.71578000  0.60976000  1.0
  H  H28  1  0.91884000  0.77675000  0.61030000  1.0
  H  H29  1  0.08116000  0.22325000  0.38970000  1.0
  H  H30  1  0.19911000  0.77729000  0.38388000  1.0
  H  H31  1  0.80089000  0.22272000  0.61612000  1.0
  H  H32  1  0.06551000  0.49673000  0.22360000  1.0
  H  H33  1  0.93449000  0.50328000  0.77640000  1.0
  H  H34  1  0.84876000  0.35498000  0.25879000  1.0
  H  H35  1  0.15124000  0.64502000  0.74121000  1.0
  H  H36  1  0.78293000  0.05873000  0.14137000  1.0
  H  H37  1  0.21707000  0.94127000  0.85863000  1.0
  C  C38  1  0.43456000  0.04890000  0.78023000  1.0
  C  C39  1  0.56544000  0.95111000  0.21977000  1.0
  C  C40  1  0.59165000  0.06345000  0.82491000  1.0
  C  C41  1  0.40834000  0.93653000  0.17508000  1.0
  C  C42  1  0.67110000  0.04351000  0.73441000  1.0
  C  C43  1  0.32890000  0.95649000  0.26559000  1.0
  C  C44  1  0.81541000  0.05182000  0.77568000  1.0
  C  C45  1  0.18459000  0.94817000  0.22431000  1.0
  C  C46  1  0.88022000  0.07882000  0.90580000  1.0
  C  C47  1  0.11978000  0.92118000  0.09420000  1.0
  C  C48  1  0.79972000  0.09578000  0.99563000  1.0
  C  C49  1  0.20028000  0.90422000  0.00437000  1.0
  C  C50  1  0.65611000  0.09036000  0.95540000  1.0
  C  C51  1  0.34388000  0.90963000  0.04459000  1.0
  C  C52  1  0.89779000  0.02389000  0.67680000  1.0
  C  C53  1  0.10221000  0.97611000  0.32320000  1.0
  C  C54  1  0.26514000  0.37088000  0.84443000  1.0
  C  C55  1  0.73487000  0.62913000  0.15558000  1.0
  C  C56  1  0.34792000  0.52600000  0.92490000  1.0
  C  C57  1  0.65208000  0.47400000  0.07510000  1.0
  C  C58  1  0.46754000  0.59109000  0.89429000  1.0
  C  C59  1  0.53246000  0.40891000  0.10571000  1.0
  C  C60  1  0.49898000  0.49934000  0.78054000  1.0
  C  C61  1  0.50102000  0.50066000  0.21946000  1.0
  C  C62  1  0.40924000  0.34384000  0.70495000  1.0
  C  C63  1  0.59077000  0.65617000  0.29506000  1.0
  C  C64  1  0.62268000  0.56556000  0.74328000  1.0
  C  C65  1  0.37732000  0.43444000  0.25672000  1.0
  C  C66  1  0.74282000  0.71812000  0.85154000  1.0
  C  C67  1  0.25718000  0.28188000  0.14846000  1.0
  C  C68  1  0.73924000  0.47846000  0.46788000  1.0
  C  C69  1  0.26076000  0.52153000  0.53212000  1.0
  C  C70  1  0.63888000  0.31590000  0.36625000  1.0
  C  C71  1  0.36112000  0.68410000  0.63375000  1.0
  C  C72  1  0.86357000  0.55551000  0.43734000  1.0
  C  C73  1  0.13643000  0.44448000  0.56266000  1.0
  C  C74  1  0.94681000  0.71245000  0.52208000  1.0
  C  C75  1  0.05319000  0.28755000  0.47792000  1.0
  C  C76  1  0.10273000  0.71097000  0.39495000  1.0
  C  C77  1  0.89726000  0.28903000  0.60504000  1.0
  C  C78  1  0.02788000  0.55584000  0.30653000  1.0
  C  C79  1  0.97211000  0.44415000  0.69346000  1.0
  C  C80  1  0.90609000  0.47697000  0.32672000  1.0
  C  C81  1  0.09392000  0.52303000  0.67328000  1.0
  N  N82  1  0.29621000  0.28126000  0.73699000  1.0
  N  N83  1  0.70380000  0.71875000  0.26302000  1.0
  N  N84  1  0.61576000  0.48734000  0.61638000  1.0
  N  N85  1  0.38425000  0.51267000  0.38363000  1.0
  N  N86  1  0.73005000  0.56006000  0.58711000  1.0
  N  N87  1  0.26995000  0.43994000  0.41289000  1.0
  N  N88  1  0.06150000  0.78844000  0.50078000  1.0
  N  N89  1  0.93850000  0.21156000  0.49922000  1.0
  O  O90  1  0.38195000  0.02571000  0.66034000  1.0
  O  O91  1  0.61806000  0.97430000  0.33966000  1.0
  O  O92  1  0.36163000  0.05960000  0.86130000  1.0
  O  O93  1  0.63837000  0.94041000  0.13870000  1.0
  O  O94  1  0.82228000  0.96332000  0.55123000  1.0
  O  O95  1  0.17771000  0.03667000  0.44876000  1.0
  O  O96  1  0.03782000  0.06075000  0.72630000  1.0
  O  O97  1  0.96217000  0.93924000  0.27369000  1.0
  O  O98  1  0.86348000  0.11441000  0.11897000  1.0
  O  O99  1  0.13653000  0.88560000  0.88103000  1.0
