# generated using pymatgen
data_TbAgH12C24(NO2)4
_symmetry_space_group_name_H-M   'P 1'
_cell_length_a   7.37785000
_cell_length_b   12.11400000
_cell_length_c   13.65424301
_cell_angle_alpha   116.33814679
_cell_angle_beta   92.24090012
_cell_angle_gamma   89.97090000
_symmetry_Int_Tables_number   1
_chemical_formula_structural   TbAgH12C24(NO2)4
_chemical_formula_sum   'Tb2 Ag2 H24 C48 N8 O16'
_cell_volume   1092.63890508
_cell_formula_units_Z   2
loop_
 _symmetry_equiv_pos_site_id
 _symmetry_equiv_pos_as_xyz
  1  'x, y, z'
loop_
 _atom_site_type_symbol
 _atom_site_label
 _atom_site_symmetry_multiplicity
 _atom_site_fract_x
 _atom_site_fract_y
 _atom_site_fract_z
 _atom_site_occupancy
  Tb  Tb0  1  0.25003000  0.94382000  0.00005000  1.0
  Tb  Tb1  1  0.74997000  0.05618000  0.99995000  1.0
  Ag  Ag2  1  0.00000000  1.00000000  0.50000000  1.0
  Ag  Ag3  1  0.50000000  0.50000000  0.50000000  1.0
  H  H4  1  0.01267000  0.62539000  0.30112000  1.0
  H  H5  1  0.48705000  0.32437000  0.69889000  1.0
  H  H6  1  0.98733000  0.37461000  0.69888000  1.0
  H  H7  1  0.51296000  0.67563000  0.30111000  1.0
  H  H8  1  0.12638000  0.58123000  0.11966000  1.0
  H  H9  1  0.37350000  0.46187000  0.88041000  1.0
  H  H10  1  0.87362000  0.41877000  0.88034000  1.0
  H  H11  1  0.62650000  0.53813000  0.11959000  1.0
  H  H12  1  0.05306000  0.72760000  0.03971000  1.0
  H  H13  1  0.44697000  0.68811000  0.96033000  1.0
  H  H14  1  0.94694000  0.27240000  0.96029000  1.0
  H  H15  1  0.55303000  0.31189000  0.03967000  1.0
  H  H16  1  0.26795000  0.06360000  0.32797000  1.0
  H  H17  1  0.23166000  0.73575000  0.67199000  1.0
  H  H18  1  0.73206000  0.93640000  0.67203000  1.0
  H  H19  1  0.76833000  0.26425000  0.32801000  1.0
  H  H20  1  0.69316000  0.18794000  0.58216000  1.0
  H  H21  1  0.80629000  0.60564000  0.41790000  1.0
  H  H22  1  0.30684000  0.81207000  0.41785000  1.0
  H  H23  1  0.19370000  0.39436000  0.58210000  1.0
  H  H24  1  0.38109000  0.21442000  0.51804000  1.0
  H  H25  1  0.11816000  0.69646000  0.48195000  1.0
  H  H26  1  0.61890000  0.78558000  0.48196000  1.0
  H  H27  1  0.88184000  0.30352000  0.51804000  1.0
  C  C28  1  0.97697000  0.68583000  0.26360000  1.0
  C  C29  1  0.52290000  0.42230000  0.73641000  1.0
  C  C30  1  0.02303000  0.31417000  0.73640000  1.0
  C  C31  1  0.47711000  0.57770000  0.26359000  1.0
  C  C32  1  0.85485000  0.93304000  0.12974000  1.0
  C  C33  1  0.64501000  0.80333000  0.87018000  1.0
  C  C34  1  0.14515000  0.06696000  0.87026000  1.0
  C  C35  1  0.35500000  0.19667000  0.12982000  1.0
  C  C36  1  0.04317000  0.66136000  0.16201000  1.0
  C  C37  1  0.45674000  0.49953000  0.83802000  1.0
  C  C38  1  0.95683000  0.33864000  0.83799000  1.0
  C  C39  1  0.54326000  0.50047000  0.16198000  1.0
  C  C40  1  0.00219000  0.74285000  0.11835000  1.0
  C  C41  1  0.49778000  0.62464000  0.88169000  1.0
  C  C42  1  0.99781000  0.25716000  0.88166000  1.0
  C  C43  1  0.50222000  0.37536000  0.11831000  1.0
  C  C44  1  0.68723000  0.95192000  0.33679000  1.0
  C  C45  1  0.81278000  0.61498000  0.66326000  1.0
  C  C46  1  0.31277000  0.04809000  0.66322000  1.0
  C  C47  1  0.18722000  0.38502000  0.33674000  1.0
  C  C48  1  0.51122000  0.95800000  0.29638000  1.0
  C  C49  1  0.98872000  0.66157000  0.70363000  1.0
  C  C50  1  0.48878000  0.04200000  0.70362000  1.0
  C  C51  1  0.01128000  0.33843000  0.29636000  1.0
  C  C52  1  0.40174000  0.05520000  0.36066000  1.0
  C  C53  1  0.09798000  0.69453000  0.63931000  1.0
  C  C54  1  0.59826000  0.94479000  0.63934000  1.0
  C  C55  1  0.90202000  0.30546000  0.36068000  1.0
  C  C56  1  0.89035000  0.84307000  0.17478000  1.0
  C  C57  1  0.60962000  0.66830000  0.82522000  1.0
  C  C58  1  0.10965000  0.15693000  0.82522000  1.0
  C  C59  1  0.39037000  0.33170000  0.17478000  1.0
  C  C60  1  0.63809000  0.12557000  0.50089000  1.0
  C  C61  1  0.86151000  0.62454000  0.49914000  1.0
  C  C62  1  0.36191000  0.87443000  0.49911000  1.0
  C  C63  1  0.13849000  0.37546000  0.50086000  1.0
  C  C64  1  0.81775000  0.85422000  0.27269000  1.0
  C  C65  1  0.68232000  0.58145000  0.72737000  1.0
  C  C66  1  0.18225000  0.14578000  0.72731000  1.0
  C  C67  1  0.31768000  0.41855000  0.27263000  1.0
  C  C68  1  0.44184000  0.85995000  0.18635000  1.0
  C  C69  1  0.05824000  0.67376000  0.81371000  1.0
  C  C70  1  0.55816000  0.14005000  0.81365000  1.0
  C  C71  1  0.94176000  0.32624000  0.18628000  1.0
  C  C72  1  0.46537000  0.13986000  0.46470000  1.0
  C  C73  1  0.03413000  0.67514000  0.53530000  1.0
  C  C74  1  0.53463000  0.86014000  0.53530000  1.0
  C  C75  1  0.96587000  0.32486000  0.46470000  1.0
  N  N76  1  0.86710000  0.78002000  0.31870000  1.0
  N  N77  1  0.63290000  0.46126000  0.68135000  1.0
  N  N78  1  0.13290000  0.21998000  0.68130000  1.0
  N  N79  1  0.36710000  0.53874000  0.31865000  1.0
  N  N80  1  0.74732000  0.03402000  0.43778000  1.0
  N  N81  1  0.75254000  0.59608000  0.56229000  1.0
  N  N82  1  0.25268000  0.96598000  0.56223000  1.0
  N  N83  1  0.24746000  0.40392000  0.43771000  1.0
  O  O84  1  0.72883000  0.00960000  0.16130000  1.0
  O  O85  1  0.77079000  0.84830000  0.83850000  1.0
  O  O86  1  0.27118000  0.99040000  0.83870000  1.0
  O  O87  1  0.22921000  0.15170000  0.16150000  1.0
  O  O88  1  0.49569000  0.75277000  0.15472000  1.0
  O  O89  1  0.00454000  0.59839000  0.84556000  1.0
  O  O90  1  0.50431000  0.24723000  0.84528000  1.0
  O  O91  1  0.99546000  0.40161000  0.15444000  1.0
  O  O92  1  0.32547000  0.89692000  0.13488000  1.0
  O  O93  1  0.17458000  0.76220000  0.86502000  1.0
  O  O94  1  0.67454000  0.10307000  0.86511000  1.0
  O  O95  1  0.82542000  0.23781000  0.13498000  1.0
  O  O96  1  0.95576000  0.92882000  0.05210000  1.0
  O  O97  1  0.54422000  0.87675000  0.94791000  1.0
  O  O98  1  0.04425000  0.07118000  0.94790000  1.0
  O  O99  1  0.45579000  0.12325000  0.05209000  1.0
