# generated using pymatgen
data_CsH4C4O3
_symmetry_space_group_name_H-M   'P 1'
_cell_length_a   4.09221000
_cell_length_b   12.46440000
_cell_length_c   12.82660000
_cell_angle_alpha   113.03900000
_cell_angle_beta   89.99990000
_cell_angle_gamma   89.99970000
_symmetry_Int_Tables_number   1
_chemical_formula_structural   CsH4C4O3
_chemical_formula_sum   'Cs4 H16 C16 O12'
_cell_volume   602.06214872
_cell_formula_units_Z   4
loop_
 _symmetry_equiv_pos_site_id
 _symmetry_equiv_pos_as_xyz
  1  'x, y, z'
loop_
 _atom_site_type_symbol
 _atom_site_label
 _atom_site_symmetry_multiplicity
 _atom_site_fract_x
 _atom_site_fract_y
 _atom_site_fract_z
 _atom_site_occupancy
  Cs  Cs0  1  0.26301000  0.18014000  0.64911000  1.0
  Cs  Cs1  1  0.76302000  0.31986000  0.35088000  1.0
  Cs  Cs2  1  0.73699000  0.81986000  0.35088000  1.0
  Cs  Cs3  1  0.23698000  0.68014000  0.64911000  1.0
  H  H4  1  0.09016000  0.17298000  0.95267000  1.0
  H  H5  1  0.59018000  0.32702000  0.04732000  1.0
  H  H6  1  0.90984000  0.82702000  0.04732000  1.0
  H  H7  1  0.40983000  0.67299000  0.95268000  1.0
  H  H8  1  0.71843000  0.82504000  0.86335000  1.0
  H  H9  1  0.21843000  0.67496000  0.13666000  1.0
  H  H10  1  0.28157000  0.17496000  0.13665000  1.0
  H  H11  1  0.78158000  0.32504000  0.86334000  1.0
  H  H12  1  0.57366000  0.09429000  0.38912000  1.0
  H  H13  1  0.07365000  0.40571000  0.61087000  1.0
  H  H14  1  0.42634000  0.90571000  0.61088000  1.0
  H  H15  1  0.92635000  0.59429000  0.38913000  1.0
  H  H16  1  0.95692000  0.09810000  0.39573000  1.0
  H  H17  1  0.45690000  0.40190000  0.60427000  1.0
  H  H18  1  0.04308000  0.90190000  0.60427000  1.0
  H  H19  1  0.54310000  0.59810000  0.39573000  1.0
  C  C20  1  0.78266000  0.99963000  0.78349000  1.0
  C  C21  1  0.28267000  0.50037000  0.21651000  1.0
  C  C22  1  0.21734000  0.00038000  0.21651000  1.0
  C  C23  1  0.71733000  0.49963000  0.78349000  1.0
  C  C24  1  0.89184000  0.99926000  0.89544000  1.0
  C  C25  1  0.39186000  0.50073000  0.10456000  1.0
  C  C26  1  0.10815000  0.00074000  0.10456000  1.0
  C  C27  1  0.60815000  0.49927000  0.89544000  1.0
  C  C28  1  0.04990000  0.09753000  0.97395000  1.0
  C  C29  1  0.54992000  0.40247000  0.02604000  1.0
  C  C30  1  0.95010000  0.90247000  0.02604000  1.0
  C  C31  1  0.45009000  0.59753000  0.97396000  1.0
  C  C32  1  0.84289000  0.90188000  0.92284000  1.0
  C  C33  1  0.34289000  0.59812000  0.07716000  1.0
  C  C34  1  0.15711000  0.09812000  0.07716000  1.0
  C  C35  1  0.65712000  0.40189000  0.92284000  1.0
  O  O36  1  0.76194000  0.09565000  0.77262000  1.0
  O  O37  1  0.26195000  0.40434000  0.22738000  1.0
  O  O38  1  0.23806000  0.90435000  0.22738000  1.0
  O  O39  1  0.73805000  0.59566000  0.77263000  1.0
  O  O40  1  0.72474000  0.89935000  0.70233000  1.0
  O  O41  1  0.22475000  0.60065000  0.29767000  1.0
  O  O42  1  0.27526000  0.10065000  0.29767000  1.0
  O  O43  1  0.77525000  0.39935000  0.70233000  1.0
  O  O44  1  0.76051000  0.10011000  0.44166000  1.0
  O  O45  1  0.26050000  0.39988000  0.55834000  1.0
  O  O46  1  0.23949000  0.89989000  0.55834000  1.0
  O  O47  1  0.73951000  0.60012000  0.44166000  1.0
