# generated using pymatgen
data_ZnH11C19(NO2)3
_symmetry_space_group_name_H-M   'P 1'
_cell_length_a   10.87960000
_cell_length_b   15.85070000
_cell_length_c   17.27850000
_cell_angle_alpha   85.27820000
_cell_angle_beta   88.50240000
_cell_angle_gamma   86.08840000
_symmetry_Int_Tables_number   1
_chemical_formula_structural   ZnH11C19(NO2)3
_chemical_formula_sum   'Zn2 H22 C38 N6 O12'
_cell_volume   2962.00366182
_cell_formula_units_Z   2
loop_
 _symmetry_equiv_pos_site_id
 _symmetry_equiv_pos_as_xyz
  1  'x, y, z'
loop_
 _atom_site_type_symbol
 _atom_site_label
 _atom_site_symmetry_multiplicity
 _atom_site_fract_x
 _atom_site_fract_y
 _atom_site_fract_z
 _atom_site_occupancy
  Zn  Zn0  1  0.49400000  0.58759000  0.50146000  1.0
  Zn  Zn1  1  0.50601000  0.41241000  0.49854000  1.0
  H  H2  1  0.09467000  0.44790000  0.38128000  1.0
  H  H3  1  0.64895000  0.44427000  0.10480000  1.0
  H  H4  1  0.31956000  0.61105000  0.10728000  1.0
  H  H5  1  0.68043000  0.38895000  0.89272000  1.0
  H  H6  1  0.64100000  0.28792000  0.40330000  1.0
  H  H7  1  0.35898000  0.71208000  0.59669000  1.0
  H  H8  1  0.04926000  0.64821000  0.50771000  1.0
  H  H9  1  0.95075000  0.35180000  0.49229000  1.0
  H  H10  1  0.29440000  0.61114000  0.32457000  1.0
  H  H11  1  0.70560000  0.38885000  0.67543000  1.0
  H  H12  1  0.61171000  0.73132000  0.41345000  1.0
  H  H13  1  0.90534000  0.55210000  0.61871000  1.0
  H  H14  1  0.38829000  0.26868000  0.58656000  1.0
  H  H15  1  0.56630000  0.95936000  0.36172000  1.0
  H  H16  1  0.43370000  0.04064000  0.63828000  1.0
  H  H17  1  0.66658000  0.12796000  0.40015000  1.0
  H  H18  1  0.33340000  0.87204000  0.59984000  1.0
  H  H19  1  0.91544000  0.58719000  0.38752000  1.0
  H  H20  1  0.08457000  0.41282000  0.61247000  1.0
  H  H21  1  0.34281000  0.55704000  0.75028000  1.0
  H  H22  1  0.65718000  0.44295000  0.24972000  1.0
  H  H23  1  0.35104000  0.55572000  0.89520000  1.0
  C  C24  1  0.50110000  0.51962000  0.34657000  1.0
  C  C25  1  0.55269000  0.76472000  0.45461000  1.0
  C  C26  1  0.45374000  0.14667000  0.54828000  1.0
  C  C27  1  0.54625000  0.85333000  0.45172000  1.0
  C  C28  1  0.53331000  0.10776000  0.49377000  1.0
  C  C29  1  0.46668000  0.89224000  0.50623000  1.0
  C  C30  1  0.60405000  0.15777000  0.44165000  1.0
  C  C31  1  0.39593000  0.84223000  0.55835000  1.0
  C  C32  1  0.59023000  0.24536000  0.44313000  1.0
  C  C33  1  0.40976000  0.75464000  0.55686000  1.0
  C  C34  1  0.73978000  0.49359000  0.49890000  1.0
  C  C35  1  0.49890000  0.48038000  0.65343000  1.0
  C  C36  1  0.26022000  0.50642000  0.50111000  1.0
  C  C37  1  0.95442000  0.54853000  0.43750000  1.0
  C  C38  1  0.04559000  0.45148000  0.56250000  1.0
  C  C39  1  0.05083000  0.47084000  0.43401000  1.0
  C  C40  1  0.94918000  0.52917000  0.56598000  1.0
  C  C41  1  0.12391000  0.50558000  0.50116000  1.0
  C  C42  1  0.87609000  0.49443000  0.49884000  1.0
  C  C43  1  0.02656000  0.58246000  0.50448000  1.0
  C  C44  1  0.97345000  0.41755000  0.49552000  1.0
  C  C45  1  0.49347000  0.52583000  0.25954000  1.0
  C  C46  1  0.48207000  0.52622000  0.09752000  1.0
  C  C47  1  0.50653000  0.47416000  0.74046000  1.0
  C  C48  1  0.58358000  0.47947000  0.21775000  1.0
  C  C49  1  0.41641000  0.52053000  0.78225000  1.0
  C  C50  1  0.57937000  0.47990000  0.13765000  1.0
  C  C51  1  0.42062000  0.52010000  0.86235000  1.0
  C  C52  1  0.29847000  0.62320000  0.26031000  1.0
  C  C53  1  0.70152000  0.37679000  0.73969000  1.0
  C  C54  1  0.61486000  0.90005000  0.38781000  1.0
  C  C55  1  0.38514000  0.09996000  0.61220000  1.0
  C  C56  1  0.51792000  0.47377000  0.90247000  1.0
  C  C57  1  0.39429000  0.57459000  0.13829000  1.0
  C  C58  1  0.60571000  0.42540000  0.86171000  1.0
  C  C59  1  0.39870000  0.57487000  0.21928000  1.0
  C  C60  1  0.60130000  0.42513000  0.78072000  1.0
  C  C61  1  0.44731000  0.23528000  0.54539000  1.0
  N  N62  1  0.46519000  0.52700000  0.01662000  1.0
  N  N63  1  0.53480000  0.47299000  0.98338000  1.0
  N  N64  1  0.51306000  0.28287000  0.49413000  1.0
  N  N65  1  0.48694000  0.71713000  0.50587000  1.0
  N  N66  1  0.54654000  0.01949000  0.48821000  1.0
  N  N67  1  0.45345000  0.98050000  0.51180000  1.0
  O  O68  1  0.49528000  0.58820000  0.38020000  1.0
  O  O69  1  0.77714000  0.32684000  0.77347000  1.0
  O  O70  1  0.71386000  0.87304000  0.36168000  1.0
  O  O71  1  0.28614000  0.12697000  0.63833000  1.0
  O  O72  1  0.50475000  0.41179000  0.61980000  1.0
  O  O73  1  0.51316000  0.44456000  0.37897000  1.0
  O  O74  1  0.48682000  0.55543000  0.62103000  1.0
  O  O75  1  0.68000000  0.56572000  0.49998000  1.0
  O  O76  1  0.32001000  0.43428000  0.50004000  1.0
  O  O77  1  0.69253000  0.42211000  0.49879000  1.0
  O  O78  1  0.30747000  0.57789000  0.50119000  1.0
  O  O79  1  0.22286000  0.67317000  0.22653000  1.0
