# generated using pymatgen
data_AgH12C17N7O2
_symmetry_space_group_name_H-M   'P 1'
_cell_length_a   7.79681000
_cell_length_b   22.41660000
_cell_length_c   22.41793718
_cell_angle_alpha   88.26384610
_cell_angle_beta   79.98675650
_cell_angle_gamma   79.98530000
_symmetry_Int_Tables_number   1
_chemical_formula_structural   AgH12C17N7O2
_chemical_formula_sum   'Ag8 H96 C136 N56 O16'
_cell_volume   3799.68753605
_cell_formula_units_Z   8
loop_
 _symmetry_equiv_pos_site_id
 _symmetry_equiv_pos_as_xyz
  1  'x, y, z'
loop_
 _atom_site_type_symbol
 _atom_site_label
 _atom_site_symmetry_multiplicity
 _atom_site_fract_x
 _atom_site_fract_y
 _atom_site_fract_z
 _atom_site_occupancy
  Ag  Ag0  1  0.78832000  0.49148000  0.11954000  1.0
  Ag  Ag1  1  0.89927000  0.00850000  0.38043000  1.0
  Ag  Ag2  1  0.90783000  0.88051000  0.99149000  1.0
  Ag  Ag3  1  0.27999000  0.61951000  0.50844000  1.0
  Ag  Ag4  1  0.21170000  0.50852000  0.88045000  1.0
  Ag  Ag5  1  0.10074000  0.99151000  0.61957000  1.0
  Ag  Ag6  1  0.09217000  0.11949000  0.00851000  1.0
  Ag  Ag7  1  0.72001000  0.38049000  0.49156000  1.0
  H  H8  1  0.64661000  0.46765000  0.27424000  1.0
  H  H9  1  0.72109000  0.46486000  0.37698000  1.0
  H  H10  1  0.62751000  0.28902000  0.40644000  1.0
  H  H11  1  0.54967000  0.28290000  0.30411000  1.0
  H  H12  1  0.60406000  0.37106000  0.01713000  1.0
  H  H13  1  0.49228000  0.42008000  0.92648000  1.0
  H  H14  1  0.08709000  0.53345000  0.03464000  1.0
  H  H15  1  0.17960000  0.49006000  0.12827000  1.0
  H  H16  1  0.53447000  0.61106000  0.17779000  1.0
  H  H17  1  0.26194000  0.64623000  0.25456000  1.0
  H  H18  1  0.07973000  0.56907000  0.30096000  1.0
  H  H19  1  0.18299000  0.45928000  0.27086000  1.0
  H  H20  1  0.88879000  0.03230000  0.22574000  1.0
  H  H21  1  0.06308000  0.03514000  0.12296000  1.0
  H  H22  1  0.82298000  0.21101000  0.09362000  1.0
  H  H23  1  0.63645000  0.21698000  0.19591000  1.0
  H  H24  1  0.49220000  0.12899000  0.48286000  1.0
  H  H25  1  0.33870000  0.08003000  0.57355000  1.0
  H  H26  1  0.15518000  0.96656000  0.46544000  1.0
  H  H27  1  0.29786000  0.00996000  0.37179000  1.0
  H  H28  1  0.82358000  0.88891000  0.32195000  1.0
  H  H29  1  0.66312000  0.85375000  0.24515000  1.0
  H  H30  1  0.44970000  0.93091000  0.19891000  1.0
  H  H31  1  0.41279000  0.04067000  0.22914000  1.0
  H  H32  1  0.92062000  0.72578000  0.96761000  1.0
  H  H33  1  0.09782000  0.62303000  0.96484000  1.0
  H  H34  1  0.03410000  0.59363000  0.78895000  1.0
  H  H35  1  0.85332000  0.69586000  0.78292000  1.0
  H  H36  1  0.62113000  0.98287000  0.87095000  1.0
  H  H37  1  0.41872000  0.07356000  0.91995000  1.0
  H  H38  1  0.12204000  0.96540000  0.03349000  1.0
  H  H39  1  0.30811000  0.87175000  0.99006000  1.0
  H  H40  1  0.71262000  0.82205000  0.11098000  1.0
  H  H41  1  0.51687000  0.74529000  0.14615000  1.0
  H  H42  1  0.38071000  0.69899000  0.06899000  1.0
  H  H43  1  0.45368000  0.72920000  0.95922000  1.0
  H  H44  1  0.11366000  0.77427000  0.53233000  1.0
  H  H45  1  0.18541000  0.87700000  0.53505000  1.0
  H  H46  1  0.91714000  0.90632000  0.71106000  1.0
  H  H47  1  0.83243000  0.80412000  0.71711000  1.0
  H  H48  1  0.97577000  0.51696000  0.62887000  1.0
  H  H49  1  0.91260000  0.42637000  0.57989000  1.0
  H  H50  1  0.62051000  0.53463000  0.46664000  1.0
  H  H51  1  0.66987000  0.62824000  0.51008000  1.0
  H  H52  1  0.14548000  0.67792000  0.38901000  1.0
  H  H53  1  0.90813000  0.75470000  0.35385000  1.0
  H  H54  1  0.64859000  0.80098000  0.43101000  1.0
  H  H55  1  0.64200000  0.77079000  0.54077000  1.0
  H  H56  1  0.35340000  0.53235000  0.72576000  1.0
  H  H57  1  0.27892000  0.53514000  0.62302000  1.0
  H  H58  1  0.37249000  0.71098000  0.59356000  1.0
  H  H59  1  0.45033000  0.71710000  0.69589000  1.0
  H  H60  1  0.39594000  0.62894000  0.98287000  1.0
  H  H61  1  0.50772000  0.57992000  0.07352000  1.0
  H  H62  1  0.91292000  0.46655000  0.96536000  1.0
  H  H63  1  0.82040000  0.50994000  0.87173000  1.0
  H  H64  1  0.46553000  0.38895000  0.82221000  1.0
  H  H65  1  0.73806000  0.35377000  0.74544000  1.0
  H  H66  1  0.92027000  0.43094000  0.69904000  1.0
  H  H67  1  0.81701000  0.54072000  0.72914000  1.0
  H  H68  1  0.11121000  0.96770000  0.77426000  1.0
  H  H69  1  0.93692000  0.96486000  0.87704000  1.0
  H  H70  1  0.17703000  0.78899000  0.90637000  1.0
  H  H71  1  0.36355000  0.78302000  0.80409000  1.0
  H  H72  1  0.50779000  0.87101000  0.51714000  1.0
  H  H73  1  0.66129000  0.91997000  0.42645000  1.0
  H  H74  1  0.84482000  0.03344000  0.53456000  1.0
  H  H75  1  0.70214000  0.99003000  0.62821000  1.0
  H  H76  1  0.17643000  0.11109000  0.67805000  1.0
  H  H77  1  0.33689000  0.14625000  0.75485000  1.0
  H  H78  1  0.55030000  0.06909000  0.80109000  1.0
  H  H79  1  0.58721000  0.95933000  0.77086000  1.0
  H  H80  1  0.07938000  0.27422000  0.03239000  1.0
  H  H81  1  0.90219000  0.37698000  0.03515000  1.0
  H  H82  1  0.96589000  0.40637000  0.21105000  1.0
  H  H83  1  0.14667000  0.30414000  0.21708000  1.0
  H  H84  1  0.37886000  0.01713000  0.12906000  1.0
  H  H85  1  0.58129000  0.92644000  0.08005000  1.0
  H  H86  1  0.87795000  0.03460000  0.96652000  1.0
  H  H87  1  0.69188000  0.12825000  0.00994000  1.0
  H  H88  1  0.28738000  0.17795000  0.88902000  1.0
  H  H89  1  0.48313000  0.25472000  0.85384000  1.0
  H  H90  1  0.61929000  0.30101000  0.93101000  1.0
  H  H91  1  0.54631000  0.27080000  0.04078000  1.0
  H  H92  1  0.88633000  0.22574000  0.46767000  1.0
  H  H93  1  0.81459000  0.12300000  0.46495000  1.0
  H  H94  1  0.08286000  0.09368000  0.28894000  1.0
  H  H95  1  0.16756000  0.19588000  0.28289000  1.0
  H  H96  1  0.02423000  0.48304000  0.37113000  1.0
  H  H97  1  0.08739000  0.57363000  0.42012000  1.0
  H  H98  1  0.37950000  0.46537000  0.53336000  1.0
  H  H99  1  0.33013000  0.37176000  0.48992000  1.0
  H  H100  1  0.85452000  0.32208000  0.61099000  1.0
  H  H101  1  0.09187000  0.24530000  0.64615000  1.0
  H  H102  1  0.35140000  0.19902000  0.56899000  1.0
  H  H103  1  0.35800000  0.22921000  0.45923000  1.0
  C  C104  1  0.63498000  0.42738000  0.30208000  1.0
  C  C105  1  0.67969000  0.42574000  0.35952000  1.0
  C  C106  1  0.62927000  0.32751000  0.37551000  1.0
  C  C107  1  0.58375000  0.32463000  0.31869000  1.0
  C  C108  1  0.58425000  0.37580000  0.28112000  1.0
  C  C109  1  0.54138000  0.37205000  0.22078000  1.0
  C  C110  1  0.46627000  0.39498000  0.13207000  1.0
  C  C111  1  0.40141000  0.42617000  0.08037000  1.0
  C  C112  1  0.48798000  0.40655000  0.02231000  1.0
  C  C113  1  0.42605000  0.43376000  0.97213000  1.0
  C  C114  1  0.20217000  0.49745000  0.03176000  1.0
  C  C115  1  0.25551000  0.47312000  0.08486000  1.0
  C  C116  1  0.40427000  0.48103000  0.20726000  1.0
  C  C117  1  0.44925000  0.57962000  0.19878000  1.0
  C  C118  1  0.29990000  0.59853000  0.24221000  1.0
  C  C119  1  0.20063000  0.55556000  0.26856000  1.0
  C  C120  1  0.25450000  0.49495000  0.25146000  1.0
  C  C121  1  0.86462000  0.07256000  0.19791000  1.0
  C  C122  1  0.96511000  0.07424000  0.14046000  1.0
  C  C123  1  0.83226000  0.17250000  0.12452000  1.0
  C  C124  1  0.72690000  0.17527000  0.18130000  1.0
  C  C125  1  0.74113000  0.12410000  0.21886000  1.0
  C  C126  1  0.63412000  0.12785000  0.27918000  1.0
  C  C127  1  0.49322000  0.10497000  0.36791000  1.0
  C  C128  1  0.40791000  0.07385000  0.41965000  1.0
  C  C129  1  0.41676000  0.09352000  0.47770000  1.0
  C  C130  1  0.33177000  0.06635000  0.52790000  1.0
  C  C131  1  0.23127000  0.00260000  0.46830000  1.0
  C  C132  1  0.31342000  0.02690000  0.41520000  1.0
  C  C133  1  0.59229000  0.01891000  0.29270000  1.0
  C  C134  1  0.72773000  0.92033000  0.30102000  1.0
  C  C135  1  0.64075000  0.90143000  0.25758000  1.0
  C  C136  1  0.52471000  0.94439000  0.23131000  1.0
  C  C137  1  0.50071000  0.00499000  0.24849000  1.0
  C  C138  1  0.93684000  0.69793000  0.92735000  1.0
  C  C139  1  0.03905000  0.64050000  0.92571000  1.0
  C  C140  1  0.00480000  0.62454000  0.82745000  1.0
  C  C141  1  0.90209000  0.68130000  0.82463000  1.0
  C  C142  1  0.86497000  0.71886000  0.87580000  1.0
  C  C143  1  0.76174000  0.77918000  0.87201000  1.0
  C  C144  1  0.59814000  0.86793000  0.89491000  1.0
  C  C145  1  0.48175000  0.91966000  0.92610000  1.0
  C  C146  1  0.51027000  0.97771000  0.90643000  1.0
  C  C147  1  0.39822000  0.02790000  0.93364000  1.0
  C  C148  1  0.23410000  0.96827000  0.99744000  1.0
  C  C149  1  0.34050000  0.91518000  0.97310000  1.0
  C  C150  1  0.61132000  0.79278000  0.98100000  1.0
  C  C151  1  0.64816000  0.80114000  0.07956000  1.0
  C  C152  1  0.54226000  0.75770000  0.09846000  1.0
  C  C153  1  0.46918000  0.73140000  0.05550000  1.0
  C  C154  1  0.50579000  0.74858000  0.99490000  1.0
  C  C155  1  0.06196000  0.80209000  0.57260000  1.0
  C  C156  1  0.10514000  0.85953000  0.57422000  1.0
  C  C157  1  0.95709000  0.87544000  0.67254000  1.0
  C  C158  1  0.90823000  0.81869000  0.67537000  1.0
  C  C159  1  0.95967000  0.78112000  0.62420000  1.0
  C  C160  1  0.91305000  0.72078000  0.62797000  1.0
  C  C161  1  0.86146000  0.63197000  0.60506000  1.0
  C  C162  1  0.82797000  0.58025000  0.57387000  1.0
  C  C163  1  0.89500000  0.52218000  0.59344000  1.0
  C  C164  1  0.86001000  0.47204000  0.56625000  1.0
  C  C165  1  0.69962000  0.53174000  0.50263000  1.0
  C  C166  1  0.72884000  0.58480000  0.52697000  1.0
  C  C167  1  0.88504000  0.70721000  0.51900000  1.0
  C  C168  1  0.02871000  0.69885000  0.42044000  1.0
  C  C169  1  0.89826000  0.74230000  0.40154000  1.0
  C  C170  1  0.75599000  0.76859000  0.44451000  1.0
  C  C171  1  0.74920000  0.75142000  0.50510000  1.0
  C  C172  1  0.36503000  0.57262000  0.69792000  1.0
  C  C173  1  0.32032000  0.57426000  0.64048000  1.0
  C  C174  1  0.37074000  0.67249000  0.62449000  1.0
  C  C175  1  0.41626000  0.67537000  0.68131000  1.0
  C  C176  1  0.41575000  0.62420000  0.71888000  1.0
  C  C177  1  0.45861000  0.62795000  0.77922000  1.0
  C  C178  1  0.53373000  0.60503000  0.86793000  1.0
  C  C179  1  0.59859000  0.57383000  0.91963000  1.0
  C  C180  1  0.51202000  0.59345000  0.97769000  1.0
  C  C181  1  0.57395000  0.56624000  0.02787000  1.0
  C  C182  1  0.79783000  0.50255000  0.96824000  1.0
  C  C183  1  0.74449000  0.52688000  0.91514000  1.0
  C  C184  1  0.59573000  0.51897000  0.79274000  1.0
  C  C185  1  0.55075000  0.42038000  0.80122000  1.0
  C  C186  1  0.70011000  0.40147000  0.75778000  1.0
  C  C187  1  0.79938000  0.44444000  0.73144000  1.0
  C  C188  1  0.74550000  0.50505000  0.74854000  1.0
  C  C189  1  0.13538000  0.92744000  0.80209000  1.0
  C  C190  1  0.03489000  0.92576000  0.85954000  1.0
  C  C191  1  0.16773000  0.82750000  0.87548000  1.0
  C  C192  1  0.27310000  0.82473000  0.81870000  1.0
  C  C193  1  0.25888000  0.87590000  0.78114000  1.0
  C  C194  1  0.36589000  0.87215000  0.72082000  1.0
  C  C195  1  0.50678000  0.89503000  0.63209000  1.0
  C  C196  1  0.59210000  0.92615000  0.58034000  1.0
  C  C197  1  0.58324000  0.90648000  0.52229000  1.0
  C  C198  1  0.66822000  0.93365000  0.47210000  1.0
  C  C199  1  0.76874000  0.99740000  0.53169000  1.0
  C  C200  1  0.68659000  0.97310000  0.58479000  1.0
  C  C201  1  0.40771000  0.98109000  0.70730000  1.0
  C  C202  1  0.27227000  0.07966000  0.69898000  1.0
  C  C203  1  0.35924000  0.09857000  0.74243000  1.0
  C  C204  1  0.47529000  0.05561000  0.76869000  1.0
  C  C205  1  0.49931000  0.99501000  0.75150000  1.0
  C  C206  1  0.06316000  0.30207000  0.07265000  1.0
  C  C207  1  0.96095000  0.35950000  0.07429000  1.0
  C  C208  1  0.99520000  0.37547000  0.17254000  1.0
  C  C209  1  0.09790000  0.31870000  0.17537000  1.0
  C  C210  1  0.13503000  0.28114000  0.12420000  1.0
  C  C211  1  0.23827000  0.22082000  0.12798000  1.0
  C  C212  1  0.40186000  0.13207000  0.10509000  1.0
  C  C213  1  0.51825000  0.08034000  0.07390000  1.0
  C  C214  1  0.48973000  0.02229000  0.09357000  1.0
  C  C215  1  0.60178000  0.97210000  0.06636000  1.0
  C  C216  1  0.76589000  0.03173000  0.00257000  1.0
  C  C217  1  0.65950000  0.08482000  0.02690000  1.0
  C  C218  1  0.38867000  0.20722000  0.01900000  1.0
  C  C219  1  0.35184000  0.19886000  0.92044000  1.0
  C  C220  1  0.45774000  0.24230000  0.90153000  1.0
  C  C221  1  0.53082000  0.26860000  0.94450000  1.0
  C  C222  1  0.49421000  0.25142000  0.00509000  1.0
  C  C223  1  0.93804000  0.19791000  0.42740000  1.0
  C  C224  1  0.89486000  0.14048000  0.42578000  1.0
  C  C225  1  0.04291000  0.12456000  0.32746000  1.0
  C  C226  1  0.09176000  0.18131000  0.32463000  1.0
  C  C227  1  0.04032000  0.21888000  0.37580000  1.0
  C  C228  1  0.08695000  0.27922000  0.37203000  1.0
  C  C229  1  0.13854000  0.36803000  0.39495000  1.0
  C  C230  1  0.17203000  0.41975000  0.42613000  1.0
  C  C231  1  0.10500000  0.47782000  0.40656000  1.0
  C  C232  1  0.13999000  0.52796000  0.43375000  1.0
  C  C233  1  0.30038000  0.46826000  0.49737000  1.0
  C  C234  1  0.27116000  0.41520000  0.47303000  1.0
  C  C235  1  0.11497000  0.29279000  0.48100000  1.0
  C  C236  1  0.97129000  0.30115000  0.57956000  1.0
  C  C237  1  0.10174000  0.25770000  0.59846000  1.0
  C  C238  1  0.24401000  0.23141000  0.55549000  1.0
  C  C239  1  0.25080000  0.24858000  0.49490000  1.0
  N  N240  1  0.67611000  0.37716000  0.39619000  1.0
  N  N241  1  0.58137000  0.32203000  0.18718000  1.0
  N  N242  1  0.53568000  0.33632000  0.13184000  1.0
  N  N243  1  0.46572000  0.41942000  0.18784000  1.0
  N  N244  1  0.28472000  0.47843000  0.97613000  1.0
  N  N245  1  0.50042000  0.52163000  0.18077000  1.0
  N  N246  1  0.90509000  0.58440000  0.18849000  1.0
  N  N247  1  0.94954000  0.12285000  0.10383000  1.0
  N  N248  1  0.59062000  0.17788000  0.31277000  1.0
  N  N249  1  0.50391000  0.16361000  0.36812000  1.0
  N  N250  1  0.57274000  0.08051000  0.31214000  1.0
  N  N251  1  0.23918000  0.02165000  0.52393000  1.0
  N  N252  1  0.70269000  0.97831000  0.31914000  1.0
  N  N253  1  0.17766000  0.91557000  0.31144000  1.0
  N  N254  1  0.07228000  0.60386000  0.87712000  1.0
  N  N255  1  0.76809000  0.81276000  0.82198000  1.0
  N  N256  1  0.66720000  0.86813000  0.83624000  1.0
  N  N257  1  0.65335000  0.81218000  0.91938000  1.0
  N  N258  1  0.26102000  0.02390000  0.97837000  1.0
  N  N259  1  0.68115000  0.81922000  0.02158000  1.0
  N  N260  1  0.09318000  0.81150000  0.08446000  1.0
  N  N261  1  0.05339000  0.89614000  0.62285000  1.0
  N  N262  1  0.90320000  0.68718000  0.67799000  1.0
  N  N263  1  0.87215000  0.63179000  0.66371000  1.0
  N  N264  1  0.88497000  0.68777000  0.58061000  1.0
  N  N265  1  0.76319000  0.47608000  0.52162000  1.0
  N  N266  1  0.02186000  0.68077000  0.47842000  1.0
  N  N267  1  0.48972000  0.68855000  0.41567000  1.0
  N  N268  1  0.32390000  0.62284000  0.60381000  1.0
  N  N269  1  0.41862000  0.67797000  0.81282000  1.0
  N  N270  1  0.46431000  0.66368000  0.86816000  1.0
  N  N271  1  0.53428000  0.58058000  0.81216000  1.0
  N  N272  1  0.71528000  0.52157000  0.02387000  1.0
  N  N273  1  0.49959000  0.47838000  0.81923000  1.0
  N  N274  1  0.09491000  0.41560000  0.81151000  1.0
  N  N275  1  0.05046000  0.87714000  0.89617000  1.0
  N  N276  1  0.40940000  0.82212000  0.68723000  1.0
  N  N277  1  0.49610000  0.83639000  0.63188000  1.0
  N  N278  1  0.42726000  0.91949000  0.68786000  1.0
  N  N279  1  0.76082000  0.97835000  0.47607000  1.0
  N  N280  1  0.29731000  0.02169000  0.68086000  1.0
  N  N281  1  0.82233000  0.08444000  0.68856000  1.0
  N  N282  1  0.92771000  0.39615000  0.12288000  1.0
  N  N283  1  0.23190000  0.18724000  0.17802000  1.0
  N  N284  1  0.33279000  0.13188000  0.16376000  1.0
  N  N285  1  0.34665000  0.18782000  0.08062000  1.0
  N  N286  1  0.73899000  0.97610000  0.02163000  1.0
  N  N287  1  0.31884000  0.18078000  0.97842000  1.0
  N  N288  1  0.90682000  0.18849000  0.91554000  1.0
  N  N289  1  0.94660000  0.10386000  0.37716000  1.0
  N  N290  1  0.09680000  0.31282000  0.32201000  1.0
  N  N291  1  0.12786000  0.36821000  0.33629000  1.0
  N  N292  1  0.11503000  0.31223000  0.41939000  1.0
  N  N293  1  0.23681000  0.52392000  0.47838000  1.0
  N  N294  1  0.97813000  0.31923000  0.52159000  1.0
  N  N295  1  0.51027000  0.31146000  0.58433000  1.0
  O  O296  1  0.88241000  0.53506000  0.21525000  1.0
  O  O297  1  0.87943000  0.58788000  0.13368000  1.0
  O  O298  1  0.13276000  0.96495000  0.28471000  1.0
  O  O299  1  0.10047000  0.91207000  0.36622000  1.0
  O  O300  1  0.09748000  0.78468000  0.03515000  1.0
  O  O301  1  0.01272000  0.86633000  0.08785000  1.0
  O  O302  1  0.41752000  0.71529000  0.46499000  1.0
  O  O303  1  0.46770000  0.63372000  0.41216000  1.0
  O  O304  1  0.11760000  0.46494000  0.78475000  1.0
  O  O305  1  0.12057000  0.41212000  0.86632000  1.0
  O  O306  1  0.86723000  0.03505000  0.71529000  1.0
  O  O307  1  0.89954000  0.08793000  0.63377000  1.0
  O  O308  1  0.90252000  0.21531000  0.96485000  1.0
  O  O309  1  0.98728000  0.13367000  0.91215000  1.0
  O  O310  1  0.58247000  0.28471000  0.53501000  1.0
  O  O311  1  0.53230000  0.36628000  0.58784000  1.0
