# generated using pymatgen
data_CdH16C26(SN4)2
_symmetry_space_group_name_H-M   'P 1'
_cell_length_a   9.22989000
_cell_length_b   9.78019000
_cell_length_c   15.10470000
_cell_angle_alpha   103.98900000
_cell_angle_beta   106.03200000
_cell_angle_gamma   97.90770000
_symmetry_Int_Tables_number   1
_chemical_formula_structural   CdH16C26(SN4)2
_chemical_formula_sum   'Cd2 H32 C52 S4 N16'
_cell_volume   1240.70812704
_cell_formula_units_Z   2
loop_
 _symmetry_equiv_pos_site_id
 _symmetry_equiv_pos_as_xyz
  1  'x, y, z'
loop_
 _atom_site_type_symbol
 _atom_site_label
 _atom_site_symmetry_multiplicity
 _atom_site_fract_x
 _atom_site_fract_y
 _atom_site_fract_z
 _atom_site_occupancy
  Cd  Cd0  1  0.00774000  0.73633000  0.28278000  1.0
  Cd  Cd1  1  0.99226000  0.26367000  0.71722000  1.0
  H  H2  1  0.41498000  0.00462000  0.64954000  1.0
  H  H3  1  0.58502000  0.99538000  0.35046000  1.0
  H  H4  1  0.64150000  0.90839000  0.62936000  1.0
  H  H5  1  0.35850000  0.09160000  0.37064000  1.0
  H  H6  1  0.61195000  0.72321000  0.47123000  1.0
  H  H7  1  0.38805000  0.27679000  0.52878000  1.0
  H  H8  1  0.36042000  0.65840000  0.34009000  1.0
  H  H9  1  0.63958000  0.34160000  0.65991000  1.0
  H  H10  1  0.79841000  0.24210000  0.35834000  1.0
  H  H11  1  0.20159000  0.75790000  0.64166000  1.0
  H  H12  1  0.70999000  0.25534000  0.19103000  1.0
  H  H13  1  0.29001000  0.74465000  0.80897000  1.0
  H  H14  1  0.72555000  0.05293000  0.05567000  1.0
  H  H15  1  0.27445000  0.94707000  0.94433000  1.0
  H  H16  1  0.83071000  0.84423000  0.09857000  1.0
  H  H17  1  0.16929000  0.15577000  0.90143000  1.0
  H  H18  1  0.14728000  0.22161000  0.09559000  1.0
  H  H19  1  0.85272000  0.77839000  0.90441000  1.0
  H  H20  1  0.22772000  0.14132000  0.24255000  1.0
  H  H21  1  0.77228000  0.85868000  0.75745000  1.0
  H  H22  1  0.19414000  0.28979000  0.39682000  1.0
  H  H23  1  0.80586000  0.71021000  0.60318000  1.0
  H  H24  1  0.08505000  0.50718000  0.39292000  1.0
  H  H25  1  0.91495000  0.49283000  0.60708000  1.0
  H  H26  1  0.63281000  0.28366000  0.97661000  1.0
  H  H27  1  0.36719000  0.71634000  0.02339000  1.0
  H  H28  1  0.40415000  0.27982000  0.03587000  1.0
  H  H29  1  0.59585000  0.72018000  0.96413000  1.0
  H  H30  1  0.40765000  0.48898000  0.17113000  1.0
  H  H31  1  0.59235000  0.51102000  0.82887000  1.0
  H  H32  1  0.64642000  0.68760000  0.24789000  1.0
  H  H33  1  0.35357000  0.31240000  0.75211000  1.0
  C  C34  1  0.12911000  0.94386000  0.50706000  1.0
  C  C35  1  0.87089000  0.05614000  0.49294000  1.0
  C  C36  1  0.92641000  0.01997000  0.41386000  1.0
  C  C37  1  0.07359000  0.98003000  0.58614000  1.0
  C  C38  1  0.26718000  0.88312000  0.50434000  1.0
  C  C39  1  0.73282000  0.11688000  0.49566000  1.0
  C  C40  1  0.40514000  0.92720000  0.58170000  1.0
  C  C41  1  0.59486000  0.07280000  0.41830000  1.0
  C  C42  1  0.53238000  0.87207000  0.57048000  1.0
  C  C43  1  0.46762000  0.12792000  0.42952000  1.0
  C  C44  1  0.51795000  0.77312000  0.48333000  1.0
  C  C45  1  0.48205000  0.22688000  0.51667000  1.0
  C  C46  1  0.37659000  0.73533000  0.40960000  1.0
  C  C47  1  0.62341000  0.26467000  0.59040000  1.0
  C  C48  1  0.85976000  0.03475000  0.31608000  1.0
  C  C49  1  0.14024000  0.96525000  0.68392000  1.0
  C  C50  1  0.80299000  0.15457000  0.29938000  1.0
  C  C51  1  0.19701000  0.84543000  0.70062000  1.0
  C  C52  1  0.75376000  0.16214000  0.20510000  1.0
  C  C53  1  0.24624000  0.83786000  0.79490000  1.0
  C  C54  1  0.76238000  0.05068000  0.13044000  1.0
  C  C55  1  0.23762000  0.94932000  0.86956000  1.0
  C  C56  1  0.82065000  0.93482000  0.15360000  1.0
  C  C57  1  0.17934000  0.06518000  0.84640000  1.0
  C  C58  1  0.03077000  0.45500000  0.07996000  1.0
  C  C59  1  0.96922000  0.54500000  0.92004000  1.0
  C  C60  1  0.89133000  0.49719000  0.04446000  1.0
  C  C61  1  0.10867000  0.50281000  0.95554000  1.0
  C  C62  1  0.07286000  0.40473000  0.16689000  1.0
  C  C63  1  0.92714000  0.59527000  0.83311000  1.0
  C  C64  1  0.13468000  0.28137000  0.16293000  1.0
  C  C65  1  0.86533000  0.71864000  0.83707000  1.0
  C  C66  1  0.17890000  0.23702000  0.24548000  1.0
  C  C67  1  0.82110000  0.76298000  0.75452000  1.0
  C  C68  1  0.16059000  0.31787000  0.32968000  1.0
  C  C69  1  0.83941000  0.68213000  0.67032000  1.0
  C  C70  1  0.09881000  0.43984000  0.32805000  1.0
  C  C71  1  0.90119000  0.56016000  0.67195000  1.0
  C  C72  1  0.75955000  0.48663000  0.08384000  1.0
  C  C73  1  0.24045000  0.51337000  0.91616000  1.0
  C  C74  1  0.63209000  0.37064000  0.03740000  1.0
  C  C75  1  0.36791000  0.62936000  0.96260000  1.0
  C  C76  1  0.50490000  0.36915000  0.07017000  1.0
  C  C77  1  0.49510000  0.63085000  0.92983000  1.0
  C  C78  1  0.50689000  0.48457000  0.14593000  1.0
  C  C79  1  0.49310000  0.51543000  0.85407000  1.0
  C  C80  1  0.63856000  0.59543000  0.18799000  1.0
  C  C81  1  0.36144000  0.40457000  0.81202000  1.0
  C  C82  1  0.24610000  0.86104000  0.17338000  1.0
  C  C83  1  0.75390000  0.13896000  0.82662000  1.0
  C  C84  1  0.79822000  0.57778000  0.39639000  1.0
  C  C85  1  0.20178000  0.42222000  0.60361000  1.0
  S  S86  1  0.38572000  0.95519000  0.15303000  1.0
  S  S87  1  0.61428000  0.04481000  0.84697000  1.0
  S  S88  1  0.66897000  0.45983000  0.40774000  1.0
  S  S89  1  0.33103000  0.54018000  0.59226000  1.0
  N  N90  1  0.05319000  0.96554000  0.42415000  1.0
  N  N91  1  0.94681000  0.03446000  0.57585000  1.0
  N  N92  1  0.25448000  0.78965000  0.41901000  1.0
  N  N93  1  0.74552000  0.21035000  0.58099000  1.0
  N  N94  1  0.86858000  0.92706000  0.24395000  1.0
  N  N95  1  0.13142000  0.07294000  0.75605000  1.0
  N  N96  1  0.05551000  0.48331000  0.24869000  1.0
  N  N97  1  0.94449000  0.51669000  0.75131000  1.0
  N  N98  1  0.76381000  0.59576000  0.15904000  1.0
  N  N99  1  0.23619000  0.40424000  0.84096000  1.0
  N  N100  1  0.86387000  0.54267000  0.96597000  1.0
  N  N101  1  0.13613000  0.45733000  0.03403000  1.0
  N  N102  1  0.14400000  0.79190000  0.18837000  1.0
  N  N103  1  0.85600000  0.20810000  0.81163000  1.0
  N  N104  1  0.89209000  0.66705000  0.38868000  1.0
  N  N105  1  0.10792000  0.33296000  0.61132000  1.0
