# generated using pymatgen
data_AlH33(C8O)6
_symmetry_space_group_name_H-M   'P 1'
_cell_length_a   3.93876000
_cell_length_b   23.46800000
_cell_length_c   23.49336071
_cell_angle_alpha   60.21033205
_cell_angle_beta   89.56019477
_cell_angle_gamma   85.49410000
_symmetry_Int_Tables_number   1
_chemical_formula_structural   AlH33(C8O)6
_chemical_formula_sum   'Al1 H33 C48 O6'
_cell_volume   1877.57881161
_cell_formula_units_Z   1
loop_
 _symmetry_equiv_pos_site_id
 _symmetry_equiv_pos_as_xyz
  1  'x, y, z'
loop_
 _atom_site_type_symbol
 _atom_site_label
 _atom_site_symmetry_multiplicity
 _atom_site_fract_x
 _atom_site_fract_y
 _atom_site_fract_z
 _atom_site_occupancy
  Al  Al0  1  0.01595000  0.99997000  0.50112000  1.0
  H  H1  1  0.47166000  0.99896000  0.68216000  1.0
  H  H2  1  0.46980000  0.93951000  0.80383000  1.0
  H  H3  1  0.16485000  0.88234000  0.89191000  1.0
  H  H4  1  0.15544000  0.82248000  0.01237000  1.0
  H  H5  1  0.52664000  0.94045000  0.25629000  1.0
  H  H6  1  0.75296000  0.87790000  0.22378000  1.0
  H  H7  1  0.74485000  0.81722000  0.16439000  1.0
  H  H8  1  0.47413000  0.78843000  0.10542000  1.0
  H  H9  1  0.43157000  0.82422000  0.49727000  1.0
  H  H10  1  0.42867000  0.76081000  0.43886000  1.0
  H  H11  1  0.20164000  0.72992000  0.37941000  1.0
  H  H12  1  0.19627000  0.66908000  0.32016000  1.0
  H  H13  1  0.43589000  0.30575000  0.43832000  1.0
  H  H14  1  0.72117000  0.38997000  0.38145000  1.0
  H  H15  1  0.73218000  0.51007000  0.32166000  1.0
  H  H16  1  0.45169000  0.60631000  0.28785000  1.0
  H  H17  1  0.37950000  0.18125000  0.32012000  1.0
  H  H18  1  0.38723000  0.30281000  0.25666000  1.0
  H  H19  1  0.13558000  0.40140000  0.22137000  1.0
  H  H20  1  0.14872000  0.52145000  0.16147000  1.0
  H  H21  1  0.50279000  0.75559000  0.80399000  1.0
  H  H22  1  0.80100000  0.72132000  0.89809000  1.0
  H  H23  1  0.78874000  0.66126000  0.01857000  1.0
  H  H24  1  0.45383000  0.60592000  0.10510000  1.0
  H  H25  1  0.74458000  0.16191000  0.54000000  1.0
  H  H26  1  0.34789000  0.13011000  0.54498000  1.0
  H  H27  1  0.36515000  0.20847000  0.53952000  1.0
  H  H28  1  0.76889000  0.76835000  0.68837000  1.0
  H  H29  1  0.51952000  0.83252000  0.62138000  1.0
  H  H30  1  0.31952000  0.77054000  0.68979000  1.0
  H  H31  1  0.85924000  0.03114000  0.29956000  1.0
  H  H32  1  0.46481000  0.04935000  0.32549000  1.0
  H  H33  1  0.48088000  0.04279000  0.25293000  1.0
  C  C34  1  0.52844000  0.94966000  0.60241000  1.0
  C  C35  1  0.46968000  0.10179000  0.44910000  1.0
  C  C36  1  0.53361000  0.94916000  0.45039000  1.0
  C  C37  1  0.48469000  0.94528000  0.70969000  1.0
  C  C38  1  0.47935000  0.91190000  0.77770000  1.0
  C  C39  1  0.30934000  0.83445000  0.91944000  1.0
  C  C40  1  0.30418000  0.80062000  0.98757000  1.0
  C  C41  1  0.54569000  0.94948000  0.34228000  1.0
  C  C42  1  0.52102000  0.91366000  0.30977000  1.0
  C  C43  1  0.62133000  0.83301000  0.24468000  1.0
  C  C44  1  0.61754000  0.79842000  0.21093000  1.0
  C  C45  1  0.51506000  0.91063000  0.67525000  1.0
  C  C46  1  0.49142000  0.84269000  0.81314000  1.0
  C  C47  1  0.48341000  0.80656000  0.88542000  1.0
  C  C48  1  0.47165000  0.73725000  0.02482000  1.0
  C  C49  1  0.46501000  0.70126000  0.09714000  1.0
  C  C50  1  0.46767000  0.73505000  0.13231000  1.0
  C  C51  1  0.46209000  0.84866000  0.44437000  1.0
  C  C52  1  0.45522000  0.81358000  0.41126000  1.0
  C  C53  1  0.32929000  0.74887000  0.33290000  1.0
  C  C54  1  0.32654000  0.71416000  0.29924000  1.0
  C  C55  1  0.45245000  0.20988000  0.44835000  1.0
  C  C56  1  0.43718000  0.27854000  0.41178000  1.0
  C  C57  1  0.58667000  0.41863000  0.33385000  1.0
  C  C58  1  0.59268000  0.48670000  0.30002000  1.0
  C  C59  1  0.51620000  0.91582000  0.41098000  1.0
  C  C60  1  0.48447000  0.84565000  0.34270000  1.0
  C  C61  1  0.47687000  0.80920000  0.30658000  1.0
  C  C62  1  0.46992000  0.73811000  0.23730000  1.0
  C  C63  1  0.46427000  0.70169000  0.20107000  1.0
  C  C64  1  0.45519000  0.63302000  0.23444000  1.0
  C  C65  1  0.39783000  0.20924000  0.34547000  1.0
  C  C66  1  0.39800000  0.27743000  0.31013000  1.0
  C  C67  1  0.27461000  0.42465000  0.24318000  1.0
  C  C68  1  0.28142000  0.49275000  0.20926000  1.0
  C  C69  1  0.52610000  0.84142000  0.70924000  1.0
  C  C70  1  0.50949000  0.80910000  0.77762000  1.0
  C  C71  1  0.65143000  0.74319000  0.92276000  1.0
  C  C72  1  0.64514000  0.70928000  0.99088000  1.0
  C  C73  1  0.43517000  0.17504000  0.41406000  1.0
  C  C74  1  0.42026000  0.31356000  0.34282000  1.0
  C  C75  1  0.42668000  0.38585000  0.30641000  1.0
  C  C76  1  0.44042000  0.52545000  0.23686000  1.0
  C  C77  1  0.45010000  0.59774000  0.20075000  1.0
  C  C78  1  0.45619000  0.63262000  0.13205000  1.0
  C  C79  1  0.47718000  0.17572000  0.52216000  1.0
  C  C80  1  0.53427000  0.80161000  0.67485000  1.0
  C  C81  1  0.58809000  0.02217000  0.30304000  1.0
  O  O82  1  0.76324000  0.98871000  0.43827000  1.0
  O  O83  1  0.78146000  0.93711000  0.57504000  1.0
  O  O84  1  0.72041000  0.07298000  0.49040000  1.0
  O  O85  1  0.31635000  0.93542000  0.49531000  1.0
  O  O86  1  0.25350000  0.07197000  0.43568000  1.0
  O  O87  1  0.28506000  0.99422000  0.57170000  1.0
