# generated using pymatgen
data_CdH30C22(IN2)2
_symmetry_space_group_name_H-M   'P 1'
_cell_length_a   6.01945000
_cell_length_b   12.09310000
_cell_length_c   17.10960000
_cell_angle_alpha   93.46220000
_cell_angle_beta   90.00590000
_cell_angle_gamma   104.40800000
_symmetry_Int_Tables_number   1
_chemical_formula_structural   CdH30C22(IN2)2
_chemical_formula_sum   'Cd2 H60 C44 I4 N8'
_cell_volume   1203.95177728
_cell_formula_units_Z   2
loop_
 _symmetry_equiv_pos_site_id
 _symmetry_equiv_pos_as_xyz
  1  'x, y, z'
loop_
 _atom_site_type_symbol
 _atom_site_label
 _atom_site_symmetry_multiplicity
 _atom_site_fract_x
 _atom_site_fract_y
 _atom_site_fract_z
 _atom_site_occupancy
  Cd  Cd0  1  0.90734000  0.00002000  0.75000000  1.0
  Cd  Cd1  1  0.09266000  0.99997000  0.25000000  1.0
  H  H2  1  0.73212000  0.05763000  0.91076000  1.0
  H  H3  1  0.67473000  0.94225000  0.58926000  1.0
  H  H4  1  0.26787000  0.94237000  0.08923000  1.0
  H  H5  1  0.32524000  0.05775000  0.41075000  1.0
  H  H6  1  0.78907000  0.36731000  0.71528000  1.0
  H  H7  1  0.42222000  0.63250000  0.78465000  1.0
  H  H8  1  0.21096000  0.63269000  0.28472000  1.0
  H  H9  1  0.57779000  0.36749000  0.21536000  1.0
  H  H10  1  0.55624000  0.25945000  0.67375000  1.0
  H  H11  1  0.29688000  0.74025000  0.82612000  1.0
  H  H12  1  0.44376000  0.74055000  0.32625000  1.0
  H  H13  1  0.70314000  0.25973000  0.17390000  1.0
  H  H14  1  0.83543000  0.23495000  0.67712000  1.0
  H  H15  1  0.60066000  0.76492000  0.82289000  1.0
  H  H16  1  0.16457000  0.76505000  0.32286000  1.0
  H  H17  1  0.39936000  0.23507000  0.17711000  1.0
  H  H18  1  0.51643000  0.27065000  0.02358000  1.0
  H  H19  1  0.24601000  0.72952000  0.47635000  1.0
  H  H20  1  0.48359000  0.72936000  0.97641000  1.0
  H  H21  1  0.75395000  0.27048000  0.52367000  1.0
  H  H22  1  0.55432000  0.12961000  0.02519000  1.0
  H  H23  1  0.42502000  0.87051000  0.47486000  1.0
  H  H24  1  0.44570000  0.87040000  0.97480000  1.0
  H  H25  1  0.57492000  0.12949000  0.52515000  1.0
  H  H26  1  0.28815000  0.15164000  0.99431000  1.0
  H  H27  1  0.13689000  0.84855000  0.50569000  1.0
  H  H28  1  0.71187000  0.84837000  0.00569000  1.0
  H  H29  1  0.86305000  0.15145000  0.49433000  1.0
  H  H30  1  0.24553000  0.32759000  0.83725000  1.0
  H  H31  1  0.91818000  0.67247000  0.66271000  1.0
  H  H32  1  0.75451000  0.67242000  0.16272000  1.0
  H  H33  1  0.08180000  0.32754000  0.33730000  1.0
  H  H34  1  0.49677000  0.41422000  0.80252000  1.0
  H  H35  1  0.08265000  0.58576000  0.69752000  1.0
  H  H36  1  0.50329000  0.58578000  0.19746000  1.0
  H  H37  1  0.91732000  0.41423000  0.30249000  1.0
  H  H38  1  0.07763000  0.63238000  0.03090000  1.0
  H  H39  1  0.44507000  0.36741000  0.46901000  1.0
  H  H40  1  0.92241000  0.36760000  0.96907000  1.0
  H  H41  1  0.55489000  0.63259000  0.53101000  1.0
  H  H42  1  0.93578000  0.72873000  0.07833000  1.0
  H  H43  1  0.20655000  0.27106000  0.42172000  1.0
  H  H44  1  0.06428000  0.27126000  0.92165000  1.0
  H  H45  1  0.79341000  0.72894000  0.57829000  1.0
  H  H46  1  0.96685000  0.72529000  0.97581000  1.0
  H  H47  1  0.24145000  0.27470000  0.52426000  1.0
  H  H48  1  0.03319000  0.27470000  0.02418000  1.0
  H  H49  1  0.75851000  0.72530000  0.47576000  1.0
  H  H50  1  0.83353000  0.47225000  0.83525000  1.0
  H  H51  1  0.36118000  0.52759000  0.66481000  1.0
  H  H52  1  0.16649000  0.52775000  0.16474000  1.0
  H  H53  1  0.63879000  0.47242000  0.33520000  1.0
  H  H54  1  0.02830000  0.54560000  0.90917000  1.0
  H  H55  1  0.48276000  0.45435000  0.59091000  1.0
  H  H56  1  0.97172000  0.45440000  0.09081000  1.0
  H  H57  1  0.51722000  0.54567000  0.40910000  1.0
  H  H58  1  0.86962000  0.62141000  0.85646000  1.0
  H  H59  1  0.24823000  0.37846000  0.64351000  1.0
  H  H60  1  0.13041000  0.37859000  0.14352000  1.0
  H  H61  1  0.75176000  0.62155000  0.35651000  1.0
  C  C62  1  0.71419000  0.27436000  0.70931000  1.0
  C  C63  1  0.44014000  0.72545000  0.79064000  1.0
  C  C64  1  0.28582000  0.72564000  0.29069000  1.0
  C  C65  1  0.55988000  0.27454000  0.20937000  1.0
  C  C66  1  0.66626000  0.22623000  0.78743000  1.0
  C  C67  1  0.44040000  0.77362000  0.71253000  1.0
  C  C68  1  0.33376000  0.77377000  0.21256000  1.0
  C  C69  1  0.55959000  0.22637000  0.28748000  1.0
  C  C70  1  0.54434000  0.26338000  0.85052000  1.0
  C  C71  1  0.28120000  0.73654000  0.64946000  1.0
  C  C72  1  0.45568000  0.73662000  0.14948000  1.0
  C  C73  1  0.71877000  0.26347000  0.35055000  1.0
  C  C74  1  0.55795000  0.19183000  0.91099000  1.0
  C  C75  1  0.36633000  0.80813000  0.58902000  1.0
  C  C76  1  0.44206000  0.80818000  0.08901000  1.0
  C  C77  1  0.63364000  0.19187000  0.41100000  1.0
  C  C78  1  0.47485000  0.18578000  0.99270000  1.0
  C  C79  1  0.28938000  0.81433000  0.50731000  1.0
  C  C80  1  0.52516000  0.81423000  0.00729000  1.0
  C  C81  1  0.71057000  0.18568000  0.49271000  1.0
  C  C82  1  0.42919000  0.36086000  0.85117000  1.0
  C  C83  1  0.06847000  0.63908000  0.64884000  1.0
  C  C84  1  0.57084000  0.63914000  0.14882000  1.0
  C  C85  1  0.93150000  0.36091000  0.35117000  1.0
  C  C86  1  0.46276000  0.43402000  0.92780000  1.0
  C  C87  1  0.02875000  0.56593000  0.57223000  1.0
  C  C88  1  0.53727000  0.56598000  0.07219000  1.0
  C  C89  1  0.97122000  0.43407000  0.42778000  1.0
  C  C90  1  0.67172000  0.51651000  0.94274000  1.0
  C  C91  1  0.15519000  0.48343000  0.55724000  1.0
  C  C92  1  0.32830000  0.48349000  0.05724000  1.0
  C  C93  1  0.84478000  0.51657000  0.44277000  1.0
  C  C94  1  0.70861000  0.58252000  0.01469000  1.0
  C  C95  1  0.12612000  0.41747000  0.48527000  1.0
  C  C96  1  0.29143000  0.41747000  0.98529000  1.0
  C  C97  1  0.87385000  0.58254000  0.51475000  1.0
  C  C98  1  0.93198000  0.67154000  0.02618000  1.0
  C  C99  1  0.26033000  0.32834000  0.47381000  1.0
  C  C100  1  0.06806000  0.32845000  0.97381000  1.0
  C  C101  1  0.73963000  0.67166000  0.52620000  1.0
  C  C102  1  0.85894000  0.53918000  0.88267000  1.0
  C  C103  1  0.31973000  0.46072000  0.61736000  1.0
  C  C104  1  0.14108000  0.46082000  0.11732000  1.0
  C  C105  1  0.68025000  0.53929000  0.38265000  1.0
  I  I106  1  0.06866000  0.92631000  0.88140000  1.0
  I  I107  1  0.14128000  0.07363000  0.61839000  1.0
  I  I108  1  0.93138000  0.07370000  0.11860000  1.0
  I  I109  1  0.85867000  0.92637000  0.38161000  1.0
  N  N110  1  0.74663000  0.13708000  0.80788000  1.0
  N  N111  1  0.60990000  0.86276000  0.69211000  1.0
  N  N112  1  0.25337000  0.86291000  0.19211000  1.0
  N  N113  1  0.39009000  0.13723000  0.30790000  1.0
  N  N114  1  0.67741000  0.11792000  0.88215000  1.0
  N  N115  1  0.55967000  0.88204000  0.61788000  1.0
  N  N116  1  0.32260000  0.88208000  0.11785000  1.0
  N  N117  1  0.44031000  0.11796000  0.38213000  1.0
