# generated using pymatgen
data_Er2CuH16C24(N2O5)4
_symmetry_space_group_name_H-M   'P 1'
_cell_length_a   6.06455000
_cell_length_b   12.19590000
_cell_length_c   21.55750000
_cell_angle_alpha   90.00060000
_cell_angle_beta   90.00310000
_cell_angle_gamma   87.28970000
_symmetry_Int_Tables_number   1
_chemical_formula_structural   Er2CuH16C24(N2O5)4
_chemical_formula_sum   'Er4 Cu2 H32 C48 N16 O40'
_cell_volume   1592.66615811
_cell_formula_units_Z   2
loop_
 _symmetry_equiv_pos_site_id
 _symmetry_equiv_pos_as_xyz
  1  'x, y, z'
loop_
 _atom_site_type_symbol
 _atom_site_label
 _atom_site_symmetry_multiplicity
 _atom_site_fract_x
 _atom_site_fract_y
 _atom_site_fract_z
 _atom_site_occupancy
  Er  Er0  1  0.51728000  0.42622000  0.33896000  1.0
  Er  Er1  1  0.98281000  0.07378000  0.83897000  1.0
  Er  Er2  1  0.48272000  0.57378000  0.66104000  1.0
  Er  Er3  1  0.01719000  0.92622000  0.16103000  1.0
  Cu  Cu4  1  0.00000000  0.00000000  0.50000000  1.0
  Cu  Cu5  1  0.50000000  0.50000000  1.00000000  1.0
  H  H6  1  0.29078000  0.34259000  0.45257000  1.0
  H  H7  1  0.20934000  0.15743000  0.95257000  1.0
  H  H8  1  0.70922000  0.65741000  0.54743000  1.0
  H  H9  1  0.79066000  0.84258000  0.04743000  1.0
  H  H10  1  0.10616000  0.40994000  0.40951000  1.0
  H  H11  1  0.39397000  0.09008000  0.90952000  1.0
  H  H12  1  0.89383000  0.59005000  0.59049000  1.0
  H  H13  1  0.60603000  0.90992000  0.09048000  1.0
  H  H14  1  0.56805000  0.63989000  0.42065000  1.0
  H  H15  1  0.93207000  0.86012000  0.92064000  1.0
  H  H16  1  0.43194000  0.36011000  0.57935000  1.0
  H  H17  1  0.06793000  0.13988000  0.07936000  1.0
  H  H18  1  0.37941000  0.65018000  0.36969000  1.0
  H  H19  1  0.12075000  0.84983000  0.86970000  1.0
  H  H20  1  0.62059000  0.34982000  0.63031000  1.0
  H  H21  1  0.87925000  0.15017000  0.13030000  1.0
  H  H22  1  0.37635000  0.59615000  0.20428000  1.0
  H  H23  1  0.12369000  0.90384000  0.70427000  1.0
  H  H24  1  0.62365000  0.40385000  0.79572000  1.0
  H  H25  1  0.87631000  0.09616000  0.29573000  1.0
  H  H26  1  0.53342000  0.76047000  0.15068000  1.0
  H  H27  1  0.96658000  0.73952000  0.65067000  1.0
  H  H28  1  0.46659000  0.23953000  0.84932000  1.0
  H  H29  1  0.03342000  0.26048000  0.34933000  1.0
  H  H30  1  0.49797000  0.90276000  0.31661000  1.0
  H  H31  1  0.00195000  0.59724000  0.81661000  1.0
  H  H32  1  0.50201000  0.09724000  0.68339000  1.0
  H  H33  1  0.99806000  0.40276000  0.18339000  1.0
  H  H34  1  0.81475000  0.13276000  0.60962000  1.0
  H  H35  1  0.68529000  0.36724000  0.10963000  1.0
  H  H36  1  0.18524000  0.86724000  0.39038000  1.0
  H  H37  1  0.31471000  0.63276000  0.89037000  1.0
  C  C38  1  0.70551000  0.20002000  0.42080000  1.0
  C  C39  1  0.79447000  0.29998000  0.92078000  1.0
  C  C40  1  0.29449000  0.79998000  0.57920000  1.0
  C  C41  1  0.20553000  0.70002000  0.07922000  1.0
  C  C42  1  0.99511000  0.52188000  0.31273000  1.0
  C  C43  1  0.50498000  0.97812000  0.81273000  1.0
  C  C44  1  0.00489000  0.47812000  0.68727000  1.0
  C  C45  1  0.49502000  0.02188000  0.18727000  1.0
  C  C46  1  0.53813000  0.62558000  0.21661000  1.0
  C  C47  1  0.96192000  0.87442000  0.71660000  1.0
  C  C48  1  0.46187000  0.37442000  0.78339000  1.0
  C  C49  1  0.03808000  0.12558000  0.28340000  1.0
  C  C50  1  0.85744000  0.60269000  0.27399000  1.0
  C  C51  1  0.64264000  0.89731000  0.77398000  1.0
  C  C52  1  0.14257000  0.39731000  0.72601000  1.0
  C  C53  1  0.35736000  0.10269000  0.22601000  1.0
  C  C54  1  0.54181000  0.11189000  0.41109000  1.0
  C  C55  1  0.95814000  0.38812000  0.91109000  1.0
  C  C56  1  0.45818000  0.88811000  0.58891000  1.0
  C  C57  1  0.04186000  0.61189000  0.08891000  1.0
  C  C58  1  0.62249000  0.71765000  0.18795000  1.0
  C  C59  1  0.87753000  0.78235000  0.68794000  1.0
  C  C60  1  0.37751000  0.28235000  0.81205000  1.0
  C  C61  1  0.12247000  0.21765000  0.31206000  1.0
  C  C62  1  0.92834000  0.70285000  0.25125000  1.0
  C  C63  1  0.57172000  0.79716000  0.75125000  1.0
  C  C64  1  0.07167000  0.29716000  0.74875000  1.0
  C  C65  1  0.42828000  0.20285000  0.24875000  1.0
  C  C66  1  0.36465000  0.09530000  0.45102000  1.0
  C  C67  1  0.13532000  0.40471000  0.95102000  1.0
  C  C68  1  0.63535000  0.90470000  0.54898000  1.0
  C  C69  1  0.86469000  0.59529000  0.04898000  1.0
  C  C70  1  0.12336000  0.76068000  0.27700000  1.0
  C  C71  1  0.37672000  0.73933000  0.77701000  1.0
  C  C72  1  0.87664000  0.23932000  0.72299000  1.0
  C  C73  1  0.62328000  0.26068000  0.22299000  1.0
  C  C74  1  0.46245000  0.95793000  0.35553000  1.0
  C  C75  1  0.03749000  0.54208000  0.85553000  1.0
  C  C76  1  0.53754000  0.04207000  0.64447000  1.0
  C  C77  1  0.96252000  0.45792000  0.14447000  1.0
  C  C78  1  0.29812000  0.16386000  0.50726000  1.0
  C  C79  1  0.20187000  0.33615000  0.00726000  1.0
  C  C80  1  0.70187000  0.83613000  0.49274000  1.0
  C  C81  1  0.79814000  0.66385000  0.99274000  1.0
  C  C82  1  0.71292000  0.06219000  0.60451000  1.0
  C  C83  1  0.78713000  0.43780000  0.10451000  1.0
  C  C84  1  0.28707000  0.93781000  0.39549000  1.0
  C  C85  1  0.21288000  0.56220000  0.89549000  1.0
  N  N86  1  0.65449000  0.56987000  0.26006000  1.0
  N  N87  1  0.84559000  0.93013000  0.76005000  1.0
  N  N88  1  0.34551000  0.43013000  0.73995000  1.0
  N  N89  1  0.15441000  0.06988000  0.23995000  1.0
  N  N90  1  0.31154000  0.25851000  0.29264000  1.0
  N  N91  1  0.18844000  0.24150000  0.79264000  1.0
  N  N92  1  0.68846000  0.74149000  0.70736000  1.0
  N  N93  1  0.81156000  0.75850000  0.20736000  1.0
  N  N94  1  0.58741000  0.04419000  0.36281000  1.0
  N  N95  1  0.91253000  0.45582000  0.86281000  1.0
  N  N96  1  0.41257000  0.95581000  0.63719000  1.0
  N  N97  1  0.08748000  0.54418000  0.13719000  1.0
  N  N98  1  0.75837000  0.99252000  0.55809000  1.0
  N  N99  1  0.74167000  0.50747000  0.05809000  1.0
  N  N100  1  0.24162000  0.00748000  0.44191000  1.0
  N  N101  1  0.25833000  0.49254000  0.94191000  1.0
  O  O102  1  0.67189000  0.29059000  0.39195000  1.0
  O  O103  1  0.82819000  0.20939000  0.89197000  1.0
  O  O104  1  0.32812000  0.70940000  0.60805000  1.0
  O  O105  1  0.17181000  0.79062000  0.10803000  1.0
  O  O106  1  0.89202000  0.47087000  0.35425000  1.0
  O  O107  1  0.60809000  0.02912000  0.85426000  1.0
  O  O108  1  0.10798000  0.52913000  0.64575000  1.0
  O  O109  1  0.39191000  0.97089000  0.14574000  1.0
  O  O110  1  0.26377000  0.38952000  0.41537000  1.0
  O  O111  1  0.23637000  0.11050000  0.91536000  1.0
  O  O112  1  0.73623000  0.61047000  0.58463000  1.0
  O  O113  1  0.76363000  0.88950000  0.08464000  1.0
  O  O114  1  0.49159000  0.59842000  0.38854000  1.0
  O  O115  1  0.00857000  0.90159000  0.88854000  1.0
  O  O116  1  0.50840000  0.40158000  0.61146000  1.0
  O  O117  1  0.99143000  0.09841000  0.11146000  1.0
  O  O118  1  0.19655000  0.50501000  0.29860000  1.0
  O  O119  1  0.30355000  0.99500000  0.79859000  1.0
  O  O120  1  0.80345000  0.49499000  0.70140000  1.0
  O  O121  1  0.69645000  0.00500000  0.20140000  1.0
  O  O122  1  0.68415000  0.34221000  0.25514000  1.0
  O  O123  1  0.81581000  0.15779000  0.75516000  1.0
  O  O124  1  0.31585000  0.65779000  0.74485000  1.0
  O  O125  1  0.18419000  0.84221000  0.24484000  1.0
  O  O126  1  0.87099000  0.17454000  0.45280000  1.0
  O  O127  1  0.62893000  0.32545000  0.95276000  1.0
  O  O128  1  0.12900000  0.82545000  0.54720000  1.0
  O  O129  1  0.37108000  0.67455000  0.04725000  1.0
  O  O130  1  0.82857000  0.88337000  0.45467000  1.0
  O  O131  1  0.67139000  0.61663000  0.95468000  1.0
  O  O132  1  0.17142000  0.11663000  0.54533000  1.0
  O  O133  1  0.32861000  0.38337000  0.04532000  1.0
  O  O134  1  0.20261000  0.72981000  0.32793000  1.0
  O  O135  1  0.29754000  0.77020000  0.82795000  1.0
  O  O136  1  0.79741000  0.27019000  0.67206000  1.0
  O  O137  1  0.70246000  0.22980000  0.17205000  1.0
  O  O138  1  0.37210000  0.25815000  0.51350000  1.0
  O  O139  1  0.12787000  0.24187000  0.01351000  1.0
  O  O140  1  0.62789000  0.74185000  0.48650000  1.0
  O  O141  1  0.87214000  0.75813000  0.98650000  1.0
