# generated using pymatgen
data_MnH12C13S(N2O3)2
_symmetry_space_group_name_H-M   'P 1'
_cell_length_a   6.95813000
_cell_length_b   10.79120000
_cell_length_c   19.52480000
_cell_angle_alpha   80.77080000
_cell_angle_beta   89.99820000
_cell_angle_gamma   89.99870000
_symmetry_Int_Tables_number   1
_chemical_formula_structural   MnH12C13S(N2O3)2
_chemical_formula_sum   'Mn4 H48 C52 S4 N16 O24'
_cell_volume   1447.07178285
_cell_formula_units_Z   4
loop_
 _symmetry_equiv_pos_site_id
 _symmetry_equiv_pos_as_xyz
  1  'x, y, z'
loop_
 _atom_site_type_symbol
 _atom_site_label
 _atom_site_symmetry_multiplicity
 _atom_site_fract_x
 _atom_site_fract_y
 _atom_site_fract_z
 _atom_site_occupancy
  Mn  Mn0  1  0.16883000  0.34312000  0.82715000  1.0
  Mn  Mn1  1  0.66883000  0.65689000  0.67284000  1.0
  Mn  Mn2  1  0.83115000  0.65694000  0.17289000  1.0
  Mn  Mn3  1  0.33114000  0.34304000  0.32713000  1.0
  H  H4  1  0.84590000  0.26610000  0.77427000  1.0
  H  H5  1  0.34592000  0.73389000  0.72572000  1.0
  H  H6  1  0.15410000  0.73394000  0.22571000  1.0
  H  H7  1  0.65409000  0.26609000  0.27429000  1.0
  H  H8  1  0.89914000  0.54152000  0.82365000  1.0
  H  H9  1  0.39915000  0.45849000  0.67635000  1.0
  H  H10  1  0.10092000  0.45853000  0.17639000  1.0
  H  H11  1  0.60088000  0.54142000  0.32361000  1.0
  H  H12  1  0.42931000  0.21008000  0.72418000  1.0
  H  H13  1  0.92930000  0.78992000  0.77582000  1.0
  H  H14  1  0.57064000  0.78996000  0.27583000  1.0
  H  H15  1  0.07066000  0.21008000  0.22417000  1.0
  H  H16  1  0.56351000  0.99361000  0.72201000  1.0
  H  H17  1  0.06352000  0.00638000  0.77799000  1.0
  H  H18  1  0.43648000  0.00644000  0.27799000  1.0
  H  H19  1  0.93651000  0.99360000  0.22201000  1.0
  H  H20  1  0.53093000  0.83147000  0.82735000  1.0
  H  H21  1  0.03093000  0.16853000  0.67265000  1.0
  H  H22  1  0.46911000  0.16858000  0.17264000  1.0
  H  H23  1  0.96912000  0.83145000  0.32735000  1.0
  H  H24  1  0.13231000  0.02853000  0.11586000  1.0
  H  H25  1  0.63233000  0.97147000  0.38414000  1.0
  H  H26  1  0.86768000  0.97144000  0.88414000  1.0
  H  H27  1  0.36767000  0.02855000  0.61585000  1.0
  H  H28  1  0.03890000  0.25785000  0.10184000  1.0
  H  H29  1  0.53890000  0.74216000  0.39816000  1.0
  H  H30  1  0.96107000  0.74213000  0.89817000  1.0
  H  H31  1  0.46106000  0.25786000  0.60182000  1.0
  H  H32  1  0.07274000  0.39049000  0.98541000  1.0
  H  H33  1  0.57275000  0.60951000  0.51459000  1.0
  H  H34  1  0.92727000  0.60950000  0.01460000  1.0
  H  H35  1  0.42726000  0.39050000  0.48539000  1.0
  H  H36  1  0.36909000  0.62399000  0.06580000  1.0
  H  H37  1  0.86909000  0.37601000  0.43419000  1.0
  H  H38  1  0.63087000  0.37600000  0.93419000  1.0
  H  H39  1  0.13086000  0.62401000  0.56581000  1.0
  H  H40  1  0.46019000  0.68701000  0.94065000  1.0
  H  H41  1  0.96020000  0.31299000  0.55935000  1.0
  H  H42  1  0.53974000  0.31295000  0.05935000  1.0
  H  H43  1  0.03974000  0.68705000  0.44065000  1.0
  H  H44  1  0.12068000  0.57929000  0.83184000  1.0
  H  H45  1  0.62070000  0.42071000  0.66815000  1.0
  H  H46  1  0.87939000  0.42076000  0.16818000  1.0
  H  H47  1  0.37936000  0.57922000  0.33181000  1.0
  H  H48  1  0.82498000  0.21293000  0.85877000  1.0
  H  H49  1  0.32499000  0.78707000  0.64123000  1.0
  H  H50  1  0.17503000  0.78713000  0.14123000  1.0
  H  H51  1  0.67503000  0.21288000  0.35877000  1.0
  C  C52  1  0.42209000  0.13688000  0.76966000  1.0
  C  C53  1  0.92209000  0.86311000  0.73035000  1.0
  C  C54  1  0.57789000  0.86316000  0.23035000  1.0
  C  C55  1  0.07790000  0.13687000  0.26965000  1.0
  C  C56  1  0.49576000  0.01636000  0.76861000  1.0
  C  C57  1  0.99575000  0.98364000  0.73138000  1.0
  C  C58  1  0.50425000  0.98367000  0.23139000  1.0
  C  C59  1  0.00424000  0.01634000  0.26861000  1.0
  C  C60  1  0.47769000  0.92619000  0.82724000  1.0
  C  C61  1  0.97768000  0.07380000  0.67276000  1.0
  C  C62  1  0.52233000  0.07384000  0.17276000  1.0
  C  C63  1  0.02233000  0.92618000  0.32724000  1.0
  C  C64  1  0.38696000  0.95794000  0.88668000  1.0
  C  C65  1  0.88695000  0.04206000  0.61332000  1.0
  C  C66  1  0.61306000  0.04207000  0.11332000  1.0
  C  C67  1  0.11306000  0.95793000  0.38668000  1.0
  C  C68  1  0.32138000  0.08368000  0.88402000  1.0
  C  C69  1  0.82137000  0.91632000  0.61598000  1.0
  C  C70  1  0.67863000  0.91633000  0.11598000  1.0
  C  C71  1  0.17863000  0.08367000  0.38401000  1.0
  C  C72  1  0.23910000  0.12606000  0.94489000  1.0
  C  C73  1  0.73910000  0.87394000  0.55512000  1.0
  C  C74  1  0.76092000  0.87394000  0.05513000  1.0
  C  C75  1  0.26092000  0.12605000  0.44487000  1.0
  C  C76  1  0.22277000  0.04292000  0.00898000  1.0
  C  C77  1  0.72277000  0.95709000  0.49102000  1.0
  C  C78  1  0.77726000  0.95707000  0.99103000  1.0
  C  C79  1  0.27724000  0.04291000  0.50897000  1.0
  C  C80  1  0.14789000  0.09105000  0.06645000  1.0
  C  C81  1  0.64789000  0.90895000  0.43355000  1.0
  C  C82  1  0.85213000  0.90893000  0.93356000  1.0
  C  C83  1  0.35211000  0.09105000  0.56644000  1.0
  C  C84  1  0.09590000  0.21631000  0.05882000  1.0
  C  C85  1  0.59589000  0.78370000  0.44118000  1.0
  C  C86  1  0.90410000  0.78367000  0.94119000  1.0
  C  C87  1  0.40410000  0.21632000  0.55882000  1.0
  C  C88  1  0.11477000  0.29184000  0.99354000  1.0
  C  C89  1  0.61477000  0.70817000  0.50647000  1.0
  C  C90  1  0.88524000  0.70815000  0.00648000  1.0
  C  C91  1  0.38523000  0.29184000  0.49352000  1.0
  C  C92  1  0.28339000  0.91590000  0.01015000  1.0
  C  C93  1  0.78338000  0.08410000  0.48985000  1.0
  C  C94  1  0.71665000  0.08409000  0.98985000  1.0
  C  C95  1  0.21663000  0.91591000  0.51015000  1.0
  C  C96  1  0.35965000  0.87597000  0.95081000  1.0
  C  C97  1  0.85965000  0.12403000  0.54919000  1.0
  C  C98  1  0.64037000  0.12403000  0.04919000  1.0
  C  C99  1  0.14036000  0.87598000  0.45080000  1.0
  C  C100  1  0.35037000  0.71883000  0.03796000  1.0
  C  C101  1  0.85036000  0.28118000  0.46204000  1.0
  C  C102  1  0.64964000  0.28117000  0.96204000  1.0
  C  C103  1  0.14963000  0.71884000  0.53796000  1.0
  S  S104  1  0.99785000  0.43145000  0.66701000  1.0
  S  S105  1  0.49784000  0.56856000  0.83299000  1.0
  S  S106  1  0.00214000  0.56848000  0.33299000  1.0
  S  S107  1  0.50212000  0.43151000  0.16703000  1.0
  N  N108  1  0.33773000  0.16921000  0.82544000  1.0
  N  N109  1  0.83772000  0.83079000  0.67456000  1.0
  N  N110  1  0.66227000  0.83081000  0.17458000  1.0
  N  N111  1  0.16226000  0.16919000  0.32542000  1.0
  N  N112  1  0.18305000  0.24799000  0.93828000  1.0
  N  N113  1  0.68306000  0.75201000  0.56172000  1.0
  N  N114  1  0.81697000  0.75200000  0.06174000  1.0
  N  N115  1  0.31696000  0.24799000  0.43827000  1.0
  N  N116  1  0.27999000  0.81628000  0.06412000  1.0
  N  N117  1  0.77999000  0.18372000  0.43588000  1.0
  N  N118  1  0.72004000  0.18371000  0.93588000  1.0
  N  N119  1  0.22002000  0.81629000  0.56411000  1.0
  N  N120  1  0.40044000  0.75067000  0.97014000  1.0
  N  N121  1  0.90044000  0.24933000  0.52985000  1.0
  N  N122  1  0.59956000  0.24933000  0.02985000  1.0
  N  N123  1  0.09955000  0.75068000  0.47015000  1.0
  O  O124  1  0.91506000  0.23135000  0.81733000  1.0
  O  O125  1  0.41507000  0.76864000  0.68266000  1.0
  O  O126  1  0.08495000  0.76878000  0.18266000  1.0
  O  O127  1  0.58494000  0.23122000  0.31734000  1.0
  O  O128  1  0.02135000  0.51373000  0.84724000  1.0
  O  O129  1  0.52138000  0.48627000  0.65276000  1.0
  O  O130  1  0.97872000  0.48632000  0.15280000  1.0
  O  O131  1  0.47868000  0.51366000  0.34721000  1.0
  O  O132  1  0.16701000  0.38913000  0.71327000  1.0
  O  O133  1  0.66701000  0.61087000  0.78673000  1.0
  O  O134  1  0.83312000  0.61057000  0.28659000  1.0
  O  O135  1  0.33312000  0.38942000  0.21342000  1.0
  O  O136  1  0.94451000  0.56134000  0.67613000  1.0
  O  O137  1  0.44450000  0.43866000  0.82387000  1.0
  O  O138  1  0.05556000  0.43850000  0.32407000  1.0
  O  O139  1  0.55554000  0.56151000  0.17594000  1.0
  O  O140  1  0.05507000  0.42797000  0.59436000  1.0
  O  O141  1  0.55505000  0.57204000  0.90564000  1.0
  O  O142  1  0.94462000  0.57226000  0.40558000  1.0
  O  O143  1  0.44459000  0.42772000  0.09443000  1.0
  O  O144  1  0.83153000  0.34433000  0.68700000  1.0
  O  O145  1  0.33154000  0.65568000  0.81300000  1.0
  O  O146  1  0.16845000  0.65558000  0.31297000  1.0
  O  O147  1  0.66843000  0.34442000  0.18704000  1.0
