# generated using pymatgen
data_CuH4C6N8O
_symmetry_space_group_name_H-M   'P 1'
_cell_length_a   6.81278000
_cell_length_b   8.61719000
_cell_length_c   17.01680000
_cell_angle_alpha   76.98440000
_cell_angle_beta   78.49310000
_cell_angle_gamma   66.77500000
_symmetry_Int_Tables_number   1
_chemical_formula_structural   CuH4C6N8O
_chemical_formula_sum   'Cu4 H16 C24 N32 O4'
_cell_volume   887.60414584
_cell_formula_units_Z   4
loop_
 _symmetry_equiv_pos_site_id
 _symmetry_equiv_pos_as_xyz
  1  'x, y, z'
loop_
 _atom_site_type_symbol
 _atom_site_label
 _atom_site_symmetry_multiplicity
 _atom_site_fract_x
 _atom_site_fract_y
 _atom_site_fract_z
 _atom_site_occupancy
  Cu  Cu0  1  0.55690000  0.77918000  0.76450000  1.0
  Cu  Cu1  1  0.10059000  0.72070000  0.73544000  1.0
  Cu  Cu2  1  0.44311000  0.22082000  0.23550000  1.0
  Cu  Cu3  1  0.89941000  0.27930000  0.26456000  1.0
  H  H4  1  0.96029000  0.09177000  0.82125000  1.0
  H  H5  1  0.87211000  0.40795000  0.67866000  1.0
  H  H6  1  0.03971000  0.90822000  0.17875000  1.0
  H  H7  1  0.12788000  0.59205000  0.32135000  1.0
  H  H8  1  0.64276000  0.01376000  0.89411000  1.0
  H  H9  1  0.54963000  0.48613000  0.60565000  1.0
  H  H10  1  0.35724000  0.98624000  0.10589000  1.0
  H  H11  1  0.45036000  0.51388000  0.39435000  1.0
  H  H12  1  0.69878000  0.77618000  0.01510000  1.0
  H  H13  1  0.48953000  0.72372000  0.48471000  1.0
  H  H14  1  0.30121000  0.22382000  0.98490000  1.0
  H  H15  1  0.51047000  0.27628000  0.51529000  1.0
  H  H16  1  0.37571000  0.70594000  0.97088000  1.0
  H  H17  1  0.05200000  0.79391000  0.52921000  1.0
  H  H18  1  0.62428000  0.29405000  0.02912000  1.0
  H  H19  1  0.94800000  0.20609000  0.47079000  1.0
  C  C20  1  0.97264000  0.98829000  0.87243000  1.0
  C  C21  1  0.83244000  0.51147000  0.62749000  1.0
  C  C22  1  0.02736000  0.01171000  0.12757000  1.0
  C  C23  1  0.16756000  0.48853000  0.37251000  1.0
  C  C24  1  0.80085000  0.94386000  0.91436000  1.0
  C  C25  1  0.65833000  0.55589000  0.58542000  1.0
  C  C26  1  0.19916000  0.05614000  0.08564000  1.0
  C  C27  1  0.34167000  0.44412000  0.41458000  1.0
  C  C28  1  0.83160000  0.81178000  0.98051000  1.0
  C  C29  1  0.62342000  0.68796000  0.51930000  1.0
  C  C30  1  0.16839000  0.18822000  0.01949000  1.0
  C  C31  1  0.37659000  0.31204000  0.48070000  1.0
  C  C32  1  0.04051000  0.72317000  0.00220000  1.0
  C  C33  1  0.76548000  0.77664000  0.49776000  1.0
  C  C34  1  0.95949000  0.27683000  0.99781000  1.0
  C  C35  1  0.23452000  0.22336000  0.50224000  1.0
  C  C36  1  0.20963000  0.77046000  0.95851000  1.0
  C  C37  1  0.93803000  0.72933000  0.54153000  1.0
  C  C38  1  0.79036000  0.22954000  0.04149000  1.0
  C  C39  1  0.06198000  0.27067000  0.45847000  1.0
  C  C40  1  0.08253000  0.58391000  0.07111000  1.0
  C  C41  1  0.73738000  0.91607000  0.42892000  1.0
  C  C42  1  0.91747000  0.41609000  0.92889000  1.0
  C  C43  1  0.26263000  0.08393000  0.57108000  1.0
  N  N44  1  0.92553000  0.54124000  0.12168000  1.0
  N  N45  1  0.58816000  0.95884000  0.37835000  1.0
  N  N46  1  0.07446000  0.45877000  0.87832000  1.0
  N  N47  1  0.41186000  0.04116000  0.62165000  1.0
  N  N48  1  0.02764000  0.41535000  0.17642000  1.0
  N  N49  1  0.61923000  0.08474000  0.32364000  1.0
  N  N50  1  0.97235000  0.58465000  0.82359000  1.0
  N  N51  1  0.38078000  0.91526000  0.67636000  1.0
  N  N52  1  0.23922000  0.38137000  0.16002000  1.0
  N  N53  1  0.78062000  0.11866000  0.34004000  1.0
  N  N54  1  0.76078000  0.61863000  0.83998000  1.0
  N  N55  1  0.21938000  0.88135000  0.65996000  1.0
  N  N56  1  0.27883000  0.48472000  0.09389000  1.0
  N  N57  1  0.85748000  0.01523000  0.40615000  1.0
  N  N58  1  0.72117000  0.51527000  0.90610000  1.0
  N  N59  1  0.14252000  0.98478000  0.59385000  1.0
  N  N60  1  0.17472000  0.90292000  0.89517000  1.0
  N  N61  1  0.97204000  0.59681000  0.60485000  1.0
  N  N62  1  0.82528000  0.09708000  0.10483000  1.0
  N  N63  1  0.02796000  0.40320000  0.39515000  1.0
  N  N64  1  0.38868000  0.62045000  0.77930000  1.0
  N  N65  1  0.78871000  0.87935000  0.72061000  1.0
  N  N66  1  0.61132000  0.37955000  0.22069000  1.0
  N  N67  1  0.21129000  0.12065000  0.27939000  1.0
  N  N68  1  0.47629000  0.46763000  0.80292000  1.0
  N  N69  1  0.74731000  0.03219000  0.69703000  1.0
  N  N70  1  0.52372000  0.53235000  0.19708000  1.0
  N  N71  1  0.25268000  0.96782000  0.30296000  1.0
  N  N72  1  0.56326000  0.32411000  0.82620000  1.0
  N  N73  1  0.71419000  0.17574000  0.67378000  1.0
  N  N74  1  0.43673000  0.67589000  0.17379000  1.0
  N  N75  1  0.28580000  0.82427000  0.32621000  1.0
  O  O76  1  0.33508000  0.94829000  0.85567000  1.0
  O  O77  1  0.13830000  0.55140000  0.64436000  1.0
  O  O78  1  0.66492000  0.05171000  0.14433000  1.0
  O  O79  1  0.86170000  0.44861000  0.35564000  1.0
