# generated using pymatgen
data_ErH13(C4O3)4
_symmetry_space_group_name_H-M   'P 1'
_cell_length_a   7.74544000
_cell_length_b   10.19030000
_cell_length_c   10.97250000
_cell_angle_alpha   88.46630000
_cell_angle_beta   80.26060000
_cell_angle_gamma   75.53830000
_symmetry_Int_Tables_number   1
_chemical_formula_structural   ErH13(C4O3)4
_chemical_formula_sum   'Er2 H26 C32 O24'
_cell_volume   826.40550170
_cell_formula_units_Z   2
loop_
 _symmetry_equiv_pos_site_id
 _symmetry_equiv_pos_as_xyz
  1  'x, y, z'
loop_
 _atom_site_type_symbol
 _atom_site_label
 _atom_site_symmetry_multiplicity
 _atom_site_fract_x
 _atom_site_fract_y
 _atom_site_fract_z
 _atom_site_occupancy
  Er  Er0  1  0.19066000  0.73354000  0.92992000  1.0
  Er  Er1  1  0.80935000  0.26645000  0.07008000  1.0
  H  H2  1  0.21665000  0.32595000  0.57348000  1.0
  H  H3  1  0.78335000  0.67405000  0.42652000  1.0
  H  H4  1  0.33833000  0.53031000  0.55362000  1.0
  H  H5  1  0.66166000  0.46969000  0.44638000  1.0
  H  H6  1  0.32199000  0.66560000  0.35947000  1.0
  H  H7  1  0.67798000  0.33441000  0.64054000  1.0
  H  H8  1  0.29171000  0.09398000  0.25128000  1.0
  H  H9  1  0.70828000  0.90601000  0.74871000  1.0
  H  H10  1  0.46291000  0.76954000  0.50254000  1.0
  H  H11  1  0.53709000  0.23046000  0.49746000  1.0
  H  H12  1  0.03654000  0.12060000  0.63252000  1.0
  H  H13  1  0.96346000  0.87940000  0.36748000  1.0
  H  H14  1  0.68561000  0.66798000  0.21412000  1.0
  H  H15  1  0.31440000  0.33203000  0.78587000  1.0
  H  H16  1  0.40063000  0.95718000  0.91199000  1.0
  H  H17  1  0.59937000  0.04284000  0.08802000  1.0
  H  H18  1  0.39814000  0.88922000  0.04287000  1.0
  H  H19  1  0.60185000  0.11079000  0.95713000  1.0
  H  H20  1  0.55169000  0.63976000  0.81927000  1.0
  H  H21  1  0.44832000  0.36026000  0.18073000  1.0
  H  H22  1  0.60185000  0.58083000  0.94550000  1.0
  H  H23  1  0.39817000  0.41918000  0.05450000  1.0
  H  H24  1  0.95186000  0.92381000  0.12496000  1.0
  H  H25  1  0.04813000  0.07619000  0.87504000  1.0
  H  H26  1  0.84739000  0.91170000  0.01815000  1.0
  H  H27  1  0.15261000  0.08828000  0.98186000  1.0
  C  C28  1  0.19565000  0.61503000  0.15985000  1.0
  C  C29  1  0.80436000  0.38497000  0.84015000  1.0
  C  C30  1  0.18049000  0.54366000  0.28002000  1.0
  C  C31  1  0.81952000  0.45634000  0.71998000  1.0
  C  C32  1  0.10352000  0.43117000  0.29329000  1.0
  C  C33  1  0.89648000  0.56883000  0.70671000  1.0
  C  C34  1  0.12302000  0.35292000  0.39915000  1.0
  C  C35  1  0.87698000  0.64708000  0.60085000  1.0
  C  C36  1  0.20872000  0.38708000  0.49108000  1.0
  C  C37  1  0.79128000  0.61292000  0.50892000  1.0
  C  C38  1  0.27767000  0.50123000  0.47922000  1.0
  C  C39  1  0.72232000  0.49878000  0.52078000  1.0
  C  C40  1  0.26439000  0.57859000  0.37326000  1.0
  C  C41  1  0.73561000  0.42141000  0.62674000  1.0
  C  C42  1  0.00012000  0.39129000  0.20188000  1.0
  C  C43  1  0.99989000  0.60871000  0.79812000  1.0
  C  C44  1  0.15992000  0.12083000  0.44043000  1.0
  C  C45  1  0.84007000  0.87918000  0.55957000  1.0
  C  C46  1  0.28542000  0.05035000  0.34318000  1.0
  C  C47  1  0.71458000  0.94965000  0.65682000  1.0
  C  C48  1  0.39483000  0.92262000  0.36463000  1.0
  C  C49  1  0.60517000  0.07737000  0.63537000  1.0
  C  C50  1  0.37884000  0.86803000  0.48357000  1.0
  C  C51  1  0.62115000  0.13197000  0.51643000  1.0
  C  C52  1  0.25119000  0.93929000  0.58002000  1.0
  C  C53  1  0.74880000  0.06071000  0.41999000  1.0
  C  C54  1  0.13991000  0.06627000  0.55846000  1.0
  C  C55  1  0.86009000  0.93373000  0.44154000  1.0
  C  C56  1  0.22958000  0.87686000  0.70498000  1.0
  C  C57  1  0.77041000  0.12314000  0.29503000  1.0
  C  C58  1  0.51883000  0.84612000  0.25770000  1.0
  C  C59  1  0.48117000  0.15387000  0.74231000  1.0
  O  O60  1  0.24096000  0.72675000  0.14940000  1.0
  O  O61  1  0.75903000  0.27325000  0.85060000  1.0
  O  O62  1  0.17160000  0.55539000  0.06386000  1.0
  O  O63  1  0.82844000  0.44460000  0.93613000  1.0
  O  O64  1  0.83885000  0.45831000  0.19662000  1.0
  O  O65  1  0.16115000  0.54169000  0.80338000  1.0
  O  O66  1  0.07285000  0.28172000  0.13956000  1.0
  O  O67  1  0.92716000  0.71829000  0.86044000  1.0
  O  O68  1  0.53981000  0.89277000  0.15212000  1.0
  O  O69  1  0.46018000  0.10724000  0.84787000  1.0
  O  O70  1  0.60519000  0.72143000  0.28504000  1.0
  O  O71  1  0.39481000  0.27857000  0.71496000  1.0
  O  O72  1  0.34045000  0.76597000  0.72552000  1.0
  O  O73  1  0.65956000  0.23401000  0.27447000  1.0
  O  O74  1  0.09929000  0.93340000  0.78966000  1.0
  O  O75  1  0.90071000  0.06660000  0.21034000  1.0
  O  O76  1  0.04434000  0.24330000  0.41645000  1.0
  O  O77  1  0.95566000  0.75670000  0.58355000  1.0
  O  O78  1  0.32950000  0.91072000  0.97371000  1.0
  O  O79  1  0.67050000  0.08929000  0.02630000  1.0
  O  O80  1  0.49909000  0.62227000  0.90357000  1.0
  O  O81  1  0.50093000  0.37773000  0.09643000  1.0
  O  O82  1  0.94674000  0.86086000  0.05859000  1.0
  O  O83  1  0.05327000  0.13913000  0.94141000  1.0
