# generated using pymatgen
data_SmH9(C2O3)3
_symmetry_space_group_name_H-M   'P 1'
_cell_length_a   6.01652000
_cell_length_b   9.07835962
_cell_length_c   10.12200000
_cell_angle_alpha   96.61864684
_cell_angle_beta   97.55040000
_cell_angle_gamma   108.21550478
_symmetry_Int_Tables_number   1
_chemical_formula_structural   SmH9(C2O3)3
_chemical_formula_sum   'Sm2 H18 C12 O18'
_cell_volume   513.38130967
_cell_formula_units_Z   2
loop_
 _symmetry_equiv_pos_site_id
 _symmetry_equiv_pos_as_xyz
  1  'x, y, z'
loop_
 _atom_site_type_symbol
 _atom_site_label
 _atom_site_symmetry_multiplicity
 _atom_site_fract_x
 _atom_site_fract_y
 _atom_site_fract_z
 _atom_site_occupancy
  Sm  Sm0  1  0.70980000  0.23019000  0.11167000  1.0
  Sm  Sm1  1  0.29022000  0.76981000  0.88832000  1.0
  H  H2  1  0.63517000  0.10397000  0.61135000  1.0
  H  H3  1  0.36482000  0.89602000  0.38865000  1.0
  H  H4  1  0.84800000  0.93540000  0.52809000  1.0
  H  H5  1  0.15200000  0.06459000  0.47190000  1.0
  H  H6  1  0.73605000  0.63988000  0.54452000  1.0
  H  H7  1  0.26389000  0.36010000  0.45548000  1.0
  H  H8  1  0.27680000  0.38729000  0.22620000  1.0
  H  H9  1  0.72317000  0.61272000  0.77379000  1.0
  H  H10  1  0.08767000  0.47619000  0.26194000  1.0
  H  H11  1  0.91233000  0.52381000  0.73803000  1.0
  H  H12  1  0.78820000  0.50778000  0.95531000  1.0
  H  H13  1  0.21179000  0.49221000  0.04468000  1.0
  H  H14  1  0.90626000  0.58379000  0.10459000  1.0
  H  H15  1  0.09373000  0.41621000  0.89540000  1.0
  H  H16  1  0.33490000  0.33031000  0.95048000  1.0
  H  H17  1  0.66509000  0.66968000  0.04952000  1.0
  H  H18  1  0.23051000  0.13914000  0.92559000  1.0
  H  H19  1  0.76949000  0.86085000  0.07442000  1.0
  C  C20  1  0.73787000  0.10710000  0.82753000  1.0
  C  C21  1  0.26217000  0.89290000  0.17249000  1.0
  C  C22  1  0.74265000  0.06049000  0.68240000  1.0
  C  C23  1  0.25733000  0.93954000  0.31761000  1.0
  C  C24  1  0.86334000  0.97011000  0.63628000  1.0
  C  C25  1  0.13664000  0.02989000  0.36372000  1.0
  C  C26  1  0.02619000  0.91420000  0.72370000  1.0
  C  C27  1  0.97386000  0.08582000  0.27630000  1.0
  C  C28  1  0.68911000  0.47305000  0.36193000  1.0
  C  C29  1  0.31089000  0.52693000  0.63806000  1.0
  C  C30  1  0.60594000  0.53424000  0.48258000  1.0
  C  C31  1  0.39404000  0.46574000  0.51740000  1.0
  O  O32  1  0.86205000  0.24367000  0.89058000  1.0
  O  O33  1  0.13797000  0.75634000  0.10942000  1.0
  O  O34  1  0.59474000  0.01201000  0.88577000  1.0
  O  O35  1  0.40530000  0.98800000  0.11423000  1.0
  O  O36  1  0.05558000  0.94924000  0.85374000  1.0
  O  O37  1  0.94440000  0.05076000  0.14628000  1.0
  O  O38  1  0.13480000  0.83040000  0.66902000  1.0
  O  O39  1  0.86522000  0.16959000  0.33097000  1.0
  O  O40  1  0.90372000  0.53530000  0.35227000  1.0
  O  O41  1  0.09627000  0.46473000  0.64773000  1.0
  O  O42  1  0.53689000  0.35919000  0.27279000  1.0
  O  O43  1  0.46310000  0.64081000  0.72720000  1.0
  O  O44  1  0.13553000  0.41579000  0.18761000  1.0
  O  O45  1  0.86448000  0.58422000  0.81243000  1.0
  O  O46  1  0.76299000  0.50046000  0.05060000  1.0
  O  O47  1  0.23700000  0.49953000  0.94940000  1.0
  O  O48  1  0.37192000  0.23381000  0.96220000  1.0
  O  O49  1  0.62808000  0.76620000  0.03781000  1.0
