# generated using pymatgen
data_ZnH30C30(N4O3)2
_symmetry_space_group_name_H-M   'P 1'
_cell_length_a   9.01635000
_cell_length_b   13.09206784
_cell_length_c   13.48020709
_cell_angle_alpha   81.53841688
_cell_angle_beta   70.47088594
_cell_angle_gamma   69.86996844
_symmetry_Int_Tables_number   1
_chemical_formula_structural   ZnH30C30(N4O3)2
_chemical_formula_sum   'Zn2 H60 C60 N16 O12'
_cell_volume   1407.16094951
_cell_formula_units_Z   2
loop_
 _symmetry_equiv_pos_site_id
 _symmetry_equiv_pos_as_xyz
  1  'x, y, z'
loop_
 _atom_site_type_symbol
 _atom_site_label
 _atom_site_symmetry_multiplicity
 _atom_site_fract_x
 _atom_site_fract_y
 _atom_site_fract_z
 _atom_site_occupancy
  Zn  Zn0  1  0.56114000  0.25035000  0.25008000  1.0
  Zn  Zn1  1  0.43886000  0.74965000  0.74992000  1.0
  H  H2  1  0.20882000  0.35180000  0.35384000  1.0
  H  H3  1  0.41297000  0.14908000  0.14665000  1.0
  H  H4  1  0.79119000  0.64820000  0.64615000  1.0
  H  H5  1  0.58703000  0.85092000  0.85335000  1.0
  H  H6  1  0.26238000  0.22588000  0.33856000  1.0
  H  H7  1  0.32519000  0.27500000  0.16213000  1.0
  H  H8  1  0.73762000  0.77412000  0.66145000  1.0
  H  H9  1  0.67481000  0.72500000  0.83787000  1.0
  H  H10  1  0.59374000  0.86439000  0.19887000  1.0
  H  H11  1  0.15661000  0.63592000  0.30085000  1.0
  H  H12  1  0.40626000  0.13562000  0.80113000  1.0
  H  H13  1  0.84340000  0.36407000  0.69915000  1.0
  H  H14  1  0.97744000  0.56651000  0.08059000  1.0
  H  H15  1  0.12443000  0.93366000  0.41939000  1.0
  H  H16  1  0.02255000  0.43350000  0.91941000  1.0
  H  H17  1  0.87556000  0.06634000  0.58061000  1.0
  H  H18  1  0.38455000  0.04496000  0.35973000  1.0
  H  H19  1  0.28912000  0.45545000  0.14024000  1.0
  H  H20  1  0.61544000  0.95504000  0.64027000  1.0
  H  H21  1  0.71089000  0.54455000  0.85976000  1.0
  H  H22  1  0.79201000  0.61774000  0.41275000  1.0
  H  H23  1  0.32259000  0.88259000  0.08724000  1.0
  H  H24  1  0.20798000  0.38226000  0.58725000  1.0
  H  H25  1  0.67741000  0.11740000  0.91276000  1.0
  H  H26  1  0.43278000  0.84254000  0.41471000  1.0
  H  H27  1  0.18991000  0.65785000  0.08501000  1.0
  H  H28  1  0.56721000  0.15747000  0.58529000  1.0
  H  H29  1  0.81011000  0.34214000  0.91499000  1.0
  H  H30  1  0.58504000  0.78744000  0.48168000  1.0
  H  H31  1  0.35396000  0.71299000  0.01815000  1.0
  H  H32  1  0.41495000  0.21256000  0.51833000  1.0
  H  H33  1  0.64605000  0.28701000  0.98185000  1.0
  H  H34  1  0.80296000  0.70549000  0.96688000  1.0
  H  H35  1  0.97499000  0.79472000  0.53293000  1.0
  H  H36  1  0.19705000  0.29451000  0.03312000  1.0
  H  H37  1  0.02500000  0.20528000  0.46707000  1.0
  H  H38  1  0.68744000  0.83798000  0.01643000  1.0
  H  H39  1  0.04120000  0.66229000  0.48325000  1.0
  H  H40  1  0.31255000  0.16203000  0.98357000  1.0
  H  H41  1  0.95881000  0.33770000  0.51675000  1.0
  H  H42  1  0.86061000  0.85604000  0.37891000  1.0
  H  H43  1  0.59527000  0.64466000  0.12073000  1.0
  H  H44  1  0.13938000  0.14397000  0.62110000  1.0
  H  H45  1  0.40474000  0.35534000  0.87927000  1.0
  H  H46  1  0.86678000  0.06207000  0.29891000  1.0
  H  H47  1  0.72723000  0.43889000  0.20134000  1.0
  H  H48  1  0.13321000  0.93794000  0.70111000  1.0
  H  H49  1  0.27279000  0.56111000  0.79865000  1.0
  H  H50  1  0.05654000  0.70042000  0.83364000  1.0
  H  H51  1  0.09007000  0.79907000  0.66655000  1.0
  H  H52  1  0.94347000  0.29958000  0.16636000  1.0
  H  H53  1  0.90993000  0.20093000  0.33345000  1.0
  H  H54  1  0.91959000  0.90859000  0.08239000  1.0
  H  H55  1  0.40999000  0.59181000  0.41716000  1.0
  H  H56  1  0.08041000  0.09142000  0.91761000  1.0
  H  H57  1  0.59000000  0.40819000  0.58284000  1.0
  H  H58  1  0.22614000  0.91275000  0.94290000  1.0
  H  H59  1  0.58128000  0.58716000  0.55678000  1.0
  H  H60  1  0.77387000  0.08724000  0.05711000  1.0
  H  H61  1  0.41872000  0.41283000  0.44322000  1.0
  C  C62  1  0.01878000  0.47173000  0.26567000  1.0
  C  C63  1  0.25579000  0.02862000  0.23445000  1.0
  C  C64  1  0.98121000  0.52828000  0.73433000  1.0
  C  C65  1  0.74420000  0.97138000  0.76555000  1.0
  C  C66  1  0.67683000  0.78436000  0.21366000  1.0
  C  C67  1  0.17454000  0.71593000  0.28616000  1.0
  C  C68  1  0.32316000  0.21565000  0.78635000  1.0
  C  C69  1  0.82547000  0.28406000  0.71384000  1.0
  C  C70  1  0.67482000  0.74706000  0.31700000  1.0
  C  C71  1  0.23874000  0.75328000  0.18285000  1.0
  C  C72  1  0.32517000  0.25295000  0.68300000  1.0
  C  C73  1  0.76127000  0.24671000  0.81715000  1.0
  C  C74  1  0.89324000  0.61823000  0.14632000  1.0
  C  C75  1  0.15768000  0.88193000  0.35365000  1.0
  C  C76  1  0.10676000  0.38177000  0.85368000  1.0
  C  C77  1  0.84232000  0.11806000  0.64635000  1.0
  C  C78  1  0.89357000  0.57985000  0.24862000  1.0
  C  C79  1  0.22203000  0.92037000  0.25140000  1.0
  C  C80  1  0.10642000  0.42016000  0.75138000  1.0
  C  C81  1  0.77795000  0.07963000  0.74861000  1.0
  C  C82  1  0.51459000  0.02390000  0.35413000  1.0
  C  C83  1  0.39242000  0.47662000  0.14586000  1.0
  C  C84  1  0.48541000  0.97610000  0.64587000  1.0
  C  C85  1  0.60760000  0.52338000  0.85412000  1.0
  C  C86  1  0.78749000  0.72152000  0.12826000  1.0
  C  C87  1  0.13703000  0.77868000  0.37161000  1.0
  C  C88  1  0.21251000  0.27849000  0.87174000  1.0
  C  C89  1  0.86298000  0.22131000  0.62839000  1.0
  C  C90  1  0.78539000  0.64600000  0.33365000  1.0
  C  C91  1  0.26505000  0.85430000  0.16630000  1.0
  C  C92  1  0.21459000  0.35400000  0.66636000  1.0
  C  C93  1  0.73496000  0.14569000  0.83370000  1.0
  C  C94  1  0.56485000  0.82294000  0.40650000  1.0
  C  C95  1  0.29411000  0.67748000  0.09329000  1.0
  C  C96  1  0.43514000  0.17707000  0.59350000  1.0
  C  C97  1  0.70591000  0.32251000  0.90670000  1.0
  C  C98  1  0.79588000  0.76653000  0.01751000  1.0
  C  C99  1  0.07946000  0.73363000  0.48232000  1.0
  C  C100  1  0.20412000  0.23348000  0.98249000  1.0
  C  C101  1  0.92054000  0.26636000  0.51768000  1.0
  C  C102  1  0.76384000  0.92738000  0.36535000  1.0
  C  C103  1  0.55631000  0.57328000  0.13444000  1.0
  C  C104  1  0.23615000  0.07263000  0.63465000  1.0
  C  C105  1  0.44370000  0.42672000  0.86555000  1.0
  C  C106  1  0.76446000  0.02944000  0.32475000  1.0
  C  C107  1  0.61824000  0.47136000  0.17534000  1.0
  C  C108  1  0.23554000  0.97057000  0.67525000  1.0
  C  C109  1  0.38178000  0.52864000  0.82465000  1.0
  C  C110  1  0.06773000  0.75736000  0.87969000  1.0
  C  C111  1  0.20422000  0.74225000  0.62041000  1.0
  C  C112  1  0.93228000  0.24264000  0.12031000  1.0
  C  C113  1  0.79578000  0.25775000  0.37959000  1.0
  C  C114  1  0.99371000  0.86877000  0.00883000  1.0
  C  C115  1  0.37076000  0.63135000  0.49089000  1.0
  C  C116  1  0.00630000  0.13123000  0.99117000  1.0
  C  C117  1  0.62922000  0.36865000  0.50912000  1.0
  C  C118  1  0.14532000  0.86919000  0.93975000  1.0
  C  C119  1  0.45375000  0.63067000  0.56005000  1.0
  C  C120  1  0.85468000  0.13080000  0.06026000  1.0
  C  C121  1  0.54623000  0.36933000  0.43996000  1.0
  N  N122  1  0.60534000  0.92483000  0.38355000  1.0
  N  N123  1  0.41358000  0.57564000  0.11619000  1.0
  N  N124  1  0.39466000  0.07517000  0.61645000  1.0
  N  N125  1  0.58644000  0.42436000  0.88380000  1.0
  N  N126  1  0.60808000  0.08927000  0.31800000  1.0
  N  N127  1  0.51499000  0.41143000  0.18221000  1.0
  N  N128  1  0.39191000  0.91073000  0.68201000  1.0
  N  N129  1  0.48502000  0.58857000  0.81778000  1.0
  N  N130  1  0.94641000  0.79778000  0.96913000  1.0
  N  N131  1  0.21277000  0.70216000  0.53079000  1.0
  N  N132  1  0.05358000  0.20222000  0.03088000  1.0
  N  N133  1  0.78721000  0.29784000  0.46922000  1.0
  N  N134  1  0.19102000  0.79905000  0.86008000  1.0
  N  N135  1  0.34963000  0.70051000  0.63996000  1.0
  N  N136  1  0.80900000  0.20094000  0.13992000  1.0
  N  N137  1  0.65037000  0.29950000  0.36003000  1.0
  O  O138  1  0.29834000  0.27960000  0.36027000  1.0
  O  O139  1  0.43661000  0.22130000  0.14046000  1.0
  O  O140  1  0.70165000  0.72041000  0.63973000  1.0
  O  O141  1  0.56340000  0.77869000  0.85954000  1.0
  O  O142  1  0.07890000  0.40224000  0.19397000  1.0
  O  O143  1  0.17495000  0.09783000  0.30639000  1.0
  O  O144  1  0.92110000  0.59777000  0.80602000  1.0
  O  O145  1  0.82504000  0.90216000  0.69361000  1.0
  O  O146  1  0.06051000  0.46131000  0.34902000  1.0
  O  O147  1  0.36984000  0.03946000  0.15091000  1.0
  O  O148  1  0.93949000  0.53869000  0.65097000  1.0
  O  O149  1  0.63014000  0.96055000  0.84908000  1.0
