# generated using pymatgen
data_NaH7C6(N3O4)2
_symmetry_space_group_name_H-M   'P 1'
_cell_length_a   6.55326000
_cell_length_b   12.93310000
_cell_length_c   13.08700000
_cell_angle_alpha   90.00000000
_cell_angle_beta   90.53900000
_cell_angle_gamma   90.00000000
_symmetry_Int_Tables_number   1
_chemical_formula_structural   NaH7C6(N3O4)2
_chemical_formula_sum   'Na4 H28 C24 N24 O32'
_cell_volume   1109.12608550
_cell_formula_units_Z   4
loop_
 _symmetry_equiv_pos_site_id
 _symmetry_equiv_pos_as_xyz
  1  'x, y, z'
loop_
 _atom_site_type_symbol
 _atom_site_label
 _atom_site_symmetry_multiplicity
 _atom_site_fract_x
 _atom_site_fract_y
 _atom_site_fract_z
 _atom_site_occupancy
  Na  Na0  1  0.73170000  0.87189000  0.06189000  1.0
  Na  Na1  1  0.76831000  0.37189000  0.93811000  1.0
  Na  Na2  1  0.26831000  0.12811000  0.93810000  1.0
  Na  Na3  1  0.23170000  0.62811000  0.06189000  1.0
  H  H4  1  0.86386000  0.04765000  0.94012000  1.0
  H  H5  1  0.63615000  0.54765000  0.05988000  1.0
  H  H6  1  0.13615000  0.95235000  0.05988000  1.0
  H  H7  1  0.36385000  0.45235000  0.94012000  1.0
  H  H8  1  0.50205000  0.93775000  0.92516000  1.0
  H  H9  1  0.99796000  0.43775000  0.07484000  1.0
  H  H10  1  0.49795000  0.06225000  0.07484000  1.0
  H  H11  1  0.00205000  0.56225000  0.92516000  1.0
  H  H12  1  0.36779000  0.83883000  0.94060000  1.0
  H  H13  1  0.13222000  0.33882000  0.05940000  1.0
  H  H14  1  0.63222000  0.16117000  0.05940000  1.0
  H  H15  1  0.86779000  0.66118000  0.94060000  1.0
  H  H16  1  0.79100000  0.72954000  0.62052000  1.0
  H  H17  1  0.70900000  0.22954000  0.37948000  1.0
  H  H18  1  0.20899000  0.27045000  0.37947000  1.0
  H  H19  1  0.29101000  0.77046000  0.62053000  1.0
  H  H20  1  0.74045000  0.80484000  0.50836000  1.0
  H  H21  1  0.75955000  0.30484000  0.49164000  1.0
  H  H22  1  0.25955000  0.19515000  0.49164000  1.0
  H  H23  1  0.24045000  0.69516000  0.50836000  1.0
  H  H24  1  0.68517000  0.94971000  0.28994000  1.0
  H  H25  1  0.81484000  0.44971000  0.71006000  1.0
  H  H26  1  0.31484000  0.05029000  0.71006000  1.0
  H  H27  1  0.18516000  0.55029000  0.28994000  1.0
  H  H28  1  0.69669000  0.04605000  0.21998000  1.0
  H  H29  1  0.80331000  0.54605000  0.78002000  1.0
  H  H30  1  0.30332000  0.95395000  0.78003000  1.0
  H  H31  1  0.19668000  0.45395000  0.21998000  1.0
  C  C32  1  0.83630000  0.97199000  0.81436000  1.0
  C  C33  1  0.66370000  0.47199000  0.18564000  1.0
  C  C34  1  0.16370000  0.02801000  0.18564000  1.0
  C  C35  1  0.33630000  0.52801000  0.81436000  1.0
  C  C36  1  0.81403000  0.87956000  0.75061000  1.0
  C  C37  1  0.68597000  0.37955000  0.24940000  1.0
  C  C38  1  0.18597000  0.12044000  0.24939000  1.0
  C  C39  1  0.31402000  0.62044000  0.75060000  1.0
  C  C40  1  0.78690000  0.88453000  0.63964000  1.0
  C  C41  1  0.71309000  0.38453000  0.36037000  1.0
  C  C42  1  0.21310000  0.11547000  0.36036000  1.0
  C  C43  1  0.28689000  0.61547000  0.63964000  1.0
  C  C44  1  0.77227000  0.98364000  0.58851000  1.0
  C  C45  1  0.72771000  0.48364000  0.41149000  1.0
  C  C46  1  0.22772000  0.01635000  0.41149000  1.0
  C  C47  1  0.27227000  0.51636000  0.58851000  1.0
  C  C48  1  0.80537000  0.07587000  0.64687000  1.0
  C  C49  1  0.69462000  0.57586000  0.35314000  1.0
  C  C50  1  0.19462000  0.92414000  0.35313000  1.0
  C  C51  1  0.30537000  0.42414000  0.64687000  1.0
  C  C52  1  0.84126000  0.06696000  0.75395000  1.0
  C  C53  1  0.65875000  0.56696000  0.24606000  1.0
  C  C54  1  0.15875000  0.93304000  0.24605000  1.0
  C  C55  1  0.34125000  0.43304000  0.75395000  1.0
  N  N56  1  0.81413000  0.17437000  0.61728000  1.0
  N  N57  1  0.68586000  0.67436000  0.38272000  1.0
  N  N58  1  0.18587000  0.82564000  0.38272000  1.0
  N  N59  1  0.31413000  0.32563000  0.61728000  1.0
  N  N60  1  0.85234000  0.97324000  0.91343000  1.0
  N  N61  1  0.64767000  0.47325000  0.08657000  1.0
  N  N62  1  0.14767000  0.02676000  0.08657000  1.0
  N  N63  1  0.35234000  0.52676000  0.91343000  1.0
  N  N64  1  0.87673000  0.16112000  0.79008000  1.0
  N  N65  1  0.62327000  0.66112000  0.20992000  1.0
  N  N66  1  0.12327000  0.83888000  0.20991000  1.0
  N  N67  1  0.37673000  0.33888000  0.79008000  1.0
  N  N68  1  0.81329000  0.78346000  0.79939000  1.0
  N  N69  1  0.68672000  0.28346000  0.20061000  1.0
  N  N70  1  0.18672000  0.21654000  0.20061000  1.0
  N  N71  1  0.31328000  0.71654000  0.79939000  1.0
  N  N72  1  0.77055000  0.79904000  0.58504000  1.0
  N  N73  1  0.72946000  0.29904000  0.41496000  1.0
  N  N74  1  0.22945000  0.20096000  0.41496000  1.0
  N  N75  1  0.27055000  0.70096000  0.58504000  1.0
  N  N76  1  0.74000000  0.99350000  0.48378000  1.0
  N  N77  1  0.75999000  0.49350000  0.51623000  1.0
  N  N78  1  0.26000000  0.00649000  0.51622000  1.0
  N  N79  1  0.23999000  0.50650000  0.48378000  1.0
  O  O80  1  0.78518000  0.77779000  0.89483000  1.0
  O  O81  1  0.71482000  0.27779000  0.10516000  1.0
  O  O82  1  0.21482000  0.22221000  0.10516000  1.0
  O  O83  1  0.28519000  0.72222000  0.89484000  1.0
  O  O84  1  0.42300000  0.90067000  0.97629000  1.0
  O  O85  1  0.07701000  0.40068000  0.02371000  1.0
  O  O86  1  0.57701000  0.09933000  0.02371000  1.0
  O  O87  1  0.92300000  0.59933000  0.97629000  1.0
  O  O88  1  0.68408000  0.97056000  0.21714000  1.0
  O  O89  1  0.81593000  0.47056000  0.78287000  1.0
  O  O90  1  0.31592000  0.02944000  0.78287000  1.0
  O  O91  1  0.18407000  0.52944000  0.21713000  1.0
  O  O92  1  0.84122000  0.69973000  0.74985000  1.0
  O  O93  1  0.65878000  0.19972000  0.25016000  1.0
  O  O94  1  0.15878000  0.30027000  0.25015000  1.0
  O  O95  1  0.34122000  0.80028000  0.74985000  1.0
  O  O96  1  0.70760000  0.91436000  0.42680000  1.0
  O  O97  1  0.79240000  0.41436000  0.57321000  1.0
  O  O98  1  0.29240000  0.08564000  0.57321000  1.0
  O  O99  1  0.20760000  0.58564000  0.42680000  1.0
  O  O100  1  0.74306000  0.08235000  0.44511000  1.0
  O  O101  1  0.75692000  0.58234000  0.55490000  1.0
  O  O102  1  0.25694000  0.91765000  0.55490000  1.0
  O  O103  1  0.24305000  0.41765000  0.44511000  1.0
  O  O104  1  0.85917000  0.23173000  0.70319000  1.0
  O  O105  1  0.64083000  0.73173000  0.29681000  1.0
  O  O106  1  0.14083000  0.76827000  0.29681000  1.0
  O  O107  1  0.35917000  0.26827000  0.70319000  1.0
  O  O108  1  0.92462000  0.19828000  0.87528000  1.0
  O  O109  1  0.57538000  0.69827000  0.12472000  1.0
  O  O110  1  0.07538000  0.80172000  0.12471000  1.0
  O  O111  1  0.42462000  0.30173000  0.87529000  1.0
