# generated using pymatgen
data_CdH15C18N5O4
_symmetry_space_group_name_H-M   'P 1'
_cell_length_a   9.95525000
_cell_length_b   12.47130000
_cell_length_c   15.10740000
_cell_angle_alpha   97.60930000
_cell_angle_beta   89.99990000
_cell_angle_gamma   90.00000000
_symmetry_Int_Tables_number   1
_chemical_formula_structural   CdH15C18N5O4
_chemical_formula_sum   'Cd4 H60 C72 N20 O16'
_cell_volume   1859.14094625
_cell_formula_units_Z   4
loop_
 _symmetry_equiv_pos_site_id
 _symmetry_equiv_pos_as_xyz
  1  'x, y, z'
loop_
 _atom_site_type_symbol
 _atom_site_label
 _atom_site_symmetry_multiplicity
 _atom_site_fract_x
 _atom_site_fract_y
 _atom_site_fract_z
 _atom_site_occupancy
  Cd  Cd0  1  0.24381000  0.86917000  0.81561000  1.0
  Cd  Cd1  1  0.24381000  0.13083000  0.68440000  1.0
  Cd  Cd2  1  0.75619000  0.13083000  0.18439000  1.0
  Cd  Cd3  1  0.75619000  0.86917000  0.31561000  1.0
  H  H4  1  0.41602000  0.55585000  0.68784000  1.0
  H  H5  1  0.41602000  0.44415000  0.81216000  1.0
  H  H6  1  0.58398000  0.44415000  0.31216000  1.0
  H  H7  1  0.58398000  0.55585000  0.18784000  1.0
  H  H8  1  0.40581000  0.67431000  0.76517000  1.0
  H  H9  1  0.40581000  0.32570000  0.73483000  1.0
  H  H10  1  0.59419000  0.32569000  0.23483000  1.0
  H  H11  1  0.59419000  0.67431000  0.26517000  1.0
  H  H12  1  0.51883000  0.71878000  0.05007000  1.0
  H  H13  1  0.51883000  0.28122000  0.44993000  1.0
  H  H14  1  0.48118000  0.28121000  0.94993000  1.0
  H  H15  1  0.48117000  0.71878000  0.55007000  1.0
  H  H16  1  0.38094000  0.79279000  0.10188000  1.0
  H  H17  1  0.38093000  0.20721000  0.39813000  1.0
  H  H18  1  0.61907000  0.20721000  0.89812000  1.0
  H  H19  1  0.61906000  0.79279000  0.60188000  1.0
  H  H20  1  0.85455000  0.60230000  0.67325000  1.0
  H  H21  1  0.85454000  0.39770000  0.82675000  1.0
  H  H22  1  0.14545000  0.39770000  0.32675000  1.0
  H  H23  1  0.14545000  0.60229000  0.17325000  1.0
  H  H24  1  0.74698000  0.72777000  0.73759000  1.0
  H  H25  1  0.74697000  0.27223000  0.76240000  1.0
  H  H26  1  0.25303000  0.27223000  0.26240000  1.0
  H  H27  1  0.25303000  0.72777000  0.23759000  1.0
  H  H28  1  0.62427000  0.88250000  0.81711000  1.0
  H  H29  1  0.62427000  0.11750000  0.68288000  1.0
  H  H30  1  0.37573000  0.11750000  0.18288000  1.0
  H  H31  1  0.37574000  0.88250000  0.31712000  1.0
  H  H32  1  0.75748000  0.03506000  0.90673000  1.0
  H  H33  1  0.75749000  0.96494000  0.59326000  1.0
  H  H34  1  0.24251000  0.96494000  0.09326000  1.0
  H  H35  1  0.24252000  0.03506000  0.40673000  1.0
  H  H36  1  0.00923000  0.02692000  0.89586000  1.0
  H  H37  1  0.00923000  0.97308000  0.60414000  1.0
  H  H38  1  0.99077000  0.97309000  0.10413000  1.0
  H  H39  1  0.99077000  0.02692000  0.39586000  1.0
  H  H40  1  0.18261000  0.35966000  0.55391000  1.0
  H  H41  1  0.18261000  0.64034000  0.94609000  1.0
  H  H42  1  0.81739000  0.64034000  0.44609000  1.0
  H  H43  1  0.81738000  0.35965000  0.05391000  1.0
  H  H44  1  0.08063000  0.19405000  0.46700000  1.0
  H  H45  1  0.08063000  0.80595000  0.03300000  1.0
  H  H46  1  0.91937000  0.80595000  0.53300000  1.0
  H  H47  1  0.91936000  0.19404000  0.96700000  1.0
  H  H48  1  0.82806000  0.18065000  0.45705000  1.0
  H  H49  1  0.82806000  0.81935000  0.04295000  1.0
  H  H50  1  0.17194000  0.81935000  0.54295000  1.0
  H  H51  1  0.17193000  0.18065000  0.95705000  1.0
  H  H52  1  0.69071000  0.33121000  0.53995000  1.0
  H  H53  1  0.69071000  0.66879000  0.96006000  1.0
  H  H54  1  0.30929000  0.66879000  0.46006000  1.0
  H  H55  1  0.30928000  0.33120000  0.03994000  1.0
  H  H56  1  0.61740000  0.90008000  0.01561000  1.0
  H  H57  1  0.61739000  0.09992000  0.48439000  1.0
  H  H58  1  0.38261000  0.09992000  0.98439000  1.0
  H  H59  1  0.38260000  0.90007000  0.51561000  1.0
  H  H60  1  0.48262000  0.96632000  0.07483000  1.0
  H  H61  1  0.48262000  0.03368000  0.42517000  1.0
  H  H62  1  0.51739000  0.03367000  0.92517000  1.0
  H  H63  1  0.51737000  0.96632000  0.57483000  1.0
  C  C64  1  0.45826000  0.79219000  0.04996000  1.0
  C  C65  1  0.45826000  0.20782000  0.45004000  1.0
  C  C66  1  0.54174000  0.20781000  0.95004000  1.0
  C  C67  1  0.54174000  0.79219000  0.54996000  1.0
  C  C68  1  0.39314000  0.79389000  0.95924000  1.0
  C  C69  1  0.39315000  0.20612000  0.54077000  1.0
  C  C70  1  0.60686000  0.20611000  0.04077000  1.0
  C  C71  1  0.60686000  0.79389000  0.45924000  1.0
  C  C72  1  0.23164000  0.62113000  0.70111000  1.0
  C  C73  1  0.23164000  0.37887000  0.79889000  1.0
  C  C74  1  0.76836000  0.37887000  0.29890000  1.0
  C  C75  1  0.76836000  0.62112000  0.20110000  1.0
  C  C76  1  0.04684000  0.52875000  0.64167000  1.0
  C  C77  1  0.04684000  0.47125000  0.85833000  1.0
  C  C78  1  0.95316000  0.47125000  0.35833000  1.0
  C  C79  1  0.95315000  0.52875000  0.14166000  1.0
  C  C80  1  0.96226000  0.61148000  0.68186000  1.0
  C  C81  1  0.96226000  0.38852000  0.81814000  1.0
  C  C82  1  0.03774000  0.38852000  0.31814000  1.0
  C  C83  1  0.03773000  0.61148000  0.18186000  1.0
  C  C84  1  0.02320000  0.70098000  0.73021000  1.0
  C  C85  1  0.02320000  0.29902000  0.76979000  1.0
  C  C86  1  0.97680000  0.29902000  0.26979000  1.0
  C  C87  1  0.97680000  0.70098000  0.23021000  1.0
  C  C88  1  0.94353000  0.79418000  0.77426000  1.0
  C  C89  1  0.94353000  0.20582000  0.72574000  1.0
  C  C90  1  0.05647000  0.20582000  0.22574000  1.0
  C  C91  1  0.05647000  0.79418000  0.27426000  1.0
  C  C92  1  0.80286000  0.79523000  0.77292000  1.0
  C  C93  1  0.80286000  0.20478000  0.72708000  1.0
  C  C94  1  0.19714000  0.20478000  0.22708000  1.0
  C  C95  1  0.19714000  0.79523000  0.27292000  1.0
  C  C96  1  0.73374000  0.88246000  0.81900000  1.0
  C  C97  1  0.73374000  0.11754000  0.68100000  1.0
  C  C98  1  0.26626000  0.11754000  0.18100000  1.0
  C  C99  1  0.26626000  0.88246000  0.31900000  1.0
  C  C100  1  0.80637000  0.96721000  0.86618000  1.0
  C  C101  1  0.80637000  0.03279000  0.63382000  1.0
  C  C102  1  0.19363000  0.03279000  0.13382000  1.0
  C  C103  1  0.19363000  0.96721000  0.36618000  1.0
  C  C104  1  0.94608000  0.96230000  0.86244000  1.0
  C  C105  1  0.94608000  0.03771000  0.63756000  1.0
  C  C106  1  0.05392000  0.03771000  0.13756000  1.0
  C  C107  1  0.05392000  0.96229000  0.36244000  1.0
  C  C108  1  0.98953000  0.43050000  0.58917000  1.0
  C  C109  1  0.98953000  0.56950000  0.91082000  1.0
  C  C110  1  0.01047000  0.56950000  0.41083000  1.0
  C  C111  1  0.01047000  0.43049000  0.08917000  1.0
  C  C112  1  0.07432000  0.34956000  0.54738000  1.0
  C  C113  1  0.07432000  0.65044000  0.95262000  1.0
  C  C114  1  0.92568000  0.65044000  0.45262000  1.0
  C  C115  1  0.92567000  0.34956000  0.04738000  1.0
  C  C116  1  0.01630000  0.25836000  0.49926000  1.0
  C  C117  1  0.01629000  0.74164000  0.00074000  1.0
  C  C118  1  0.98370000  0.74164000  0.50074000  1.0
  C  C119  1  0.98370000  0.25836000  0.99926000  1.0
  C  C120  1  0.87669000  0.25060000  0.49480000  1.0
  C  C121  1  0.87669000  0.74940000  0.00520000  1.0
  C  C122  1  0.12331000  0.74940000  0.50520000  1.0
  C  C123  1  0.12331000  0.25059000  0.99480000  1.0
  C  C124  1  0.80041000  0.33511000  0.53982000  1.0
  C  C125  1  0.80042000  0.66489000  0.96018000  1.0
  C  C126  1  0.19959000  0.66489000  0.46019000  1.0
  C  C127  1  0.19958000  0.33511000  0.03981000  1.0
  C  C128  1  0.62419000  0.89823000  0.15633000  1.0
  C  C129  1  0.62418000  0.10177000  0.34367000  1.0
  C  C130  1  0.37582000  0.10177000  0.84367000  1.0
  C  C131  1  0.37581000  0.89823000  0.65633000  1.0
  C  C132  1  0.54613000  0.89353000  0.07010000  1.0
  C  C133  1  0.54612000  0.10647000  0.42991000  1.0
  C  C134  1  0.45388000  0.10646000  0.92991000  1.0
  C  C135  1  0.45387000  0.89353000  0.57010000  1.0
  N  N136  1  0.15797000  0.70614000  0.73988000  1.0
  N  N137  1  0.15796000  0.29386000  0.76012000  1.0
  N  N138  1  0.84204000  0.29386000  0.26012000  1.0
  N  N139  1  0.84203000  0.70614000  0.23988000  1.0
  N  N140  1  0.36596000  0.62385000  0.71276000  1.0
  N  N141  1  0.36596000  0.37615000  0.78724000  1.0
  N  N142  1  0.63404000  0.37614000  0.28724000  1.0
  N  N143  1  0.63404000  0.62385000  0.21276000  1.0
  N  N144  1  0.18019000  0.53363000  0.65012000  1.0
  N  N145  1  0.18018000  0.46637000  0.84989000  1.0
  N  N146  1  0.81981000  0.46637000  0.34989000  1.0
  N  N147  1  0.81981000  0.53363000  0.15011000  1.0
  N  N148  1  0.01217000  0.87858000  0.81766000  1.0
  N  N149  1  0.01217000  0.12142000  0.68234000  1.0
  N  N150  1  0.98783000  0.12142000  0.18234000  1.0
  N  N151  1  0.98783000  0.87858000  0.31766000  1.0
  N  N152  1  0.85442000  0.42358000  0.58598000  1.0
  N  N153  1  0.85442000  0.57643000  0.91403000  1.0
  N  N154  1  0.14558000  0.57643000  0.41403000  1.0
  N  N155  1  0.14557000  0.42357000  0.08597000  1.0
  O  O156  1  0.29829000  0.86476000  0.95791000  1.0
  O  O157  1  0.29829000  0.13525000  0.54210000  1.0
  O  O158  1  0.70172000  0.13524000  0.04209000  1.0
  O  O159  1  0.70171000  0.86477000  0.45791000  1.0
  O  O160  1  0.43559000  0.73389000  0.89158000  1.0
  O  O161  1  0.43562000  0.26613000  0.60842000  1.0
  O  O162  1  0.56441000  0.26612000  0.10842000  1.0
  O  O163  1  0.56441000  0.73389000  0.39158000  1.0
  O  O164  1  0.56903000  0.86488000  0.22346000  1.0
  O  O165  1  0.56903000  0.13512000  0.27654000  1.0
  O  O166  1  0.43098000  0.13511000  0.77654000  1.0
  O  O167  1  0.43097000  0.86488000  0.72346000  1.0
  O  O168  1  0.74488000  0.93497000  0.15867000  1.0
  O  O169  1  0.74488000  0.06503000  0.34133000  1.0
  O  O170  1  0.25513000  0.06503000  0.84133000  1.0
  O  O171  1  0.25511000  0.93497000  0.65867000  1.0
