# generated using pymatgen
data_AgH8C3N7O4
_symmetry_space_group_name_H-M   'P 1'
_cell_length_a   6.48424000
_cell_length_b   6.48425000
_cell_length_c   11.14390000
_cell_angle_alpha   99.34060000
_cell_angle_beta   99.34080000
_cell_angle_gamma   101.89900000
_symmetry_Int_Tables_number   1
_chemical_formula_structural   AgH8C3N7O4
_chemical_formula_sum   'Ag2 H16 C6 N14 O8'
_cell_volume   443.00615037
_cell_formula_units_Z   2
loop_
 _symmetry_equiv_pos_site_id
 _symmetry_equiv_pos_as_xyz
  1  'x, y, z'
loop_
 _atom_site_type_symbol
 _atom_site_label
 _atom_site_symmetry_multiplicity
 _atom_site_fract_x
 _atom_site_fract_y
 _atom_site_fract_z
 _atom_site_occupancy
  Ag  Ag0  1  0.28356000  0.95999000  0.24452000  1.0
  Ag  Ag1  1  0.95998000  0.28357000  0.74451000  1.0
  H  H2  1  0.24409000  0.56471000  0.34190000  1.0
  H  H3  1  0.56471000  0.24409000  0.84191000  1.0
  H  H4  1  0.01768000  0.61956000  0.34949000  1.0
  H  H5  1  0.61956000  0.01768000  0.84949000  1.0
  H  H6  1  0.35693000  0.33304000  0.47292000  1.0
  H  H7  1  0.33304000  0.35694000  0.97293000  1.0
  H  H8  1  0.28897000  0.33856000  0.61833000  1.0
  H  H9  1  0.33856000  0.28898000  0.11833000  1.0
  H  H10  1  0.87578000  0.00776000  0.11659000  1.0
  H  H11  1  0.00777000  0.87578000  0.61659000  1.0
  H  H12  1  0.60471000  0.91124000  0.11282000  1.0
  H  H13  1  0.91124000  0.60471000  0.61282000  1.0
  H  H14  1  0.58940000  0.96497000  0.62757000  1.0
  H  H15  1  0.96497000  0.58940000  0.12757000  1.0
  H  H16  1  0.39711000  0.86761000  0.48889000  1.0
  H  H17  1  0.86761000  0.39711000  0.98889000  1.0
  C  C18  1  0.04640000  0.17900000  0.46649000  1.0
  C  C19  1  0.17900000  0.04640000  0.96649000  1.0
  C  C20  1  0.79723000  0.03976000  0.28577000  1.0
  C  C21  1  0.03977000  0.79723000  0.78577000  1.0
  C  C22  1  0.69300000  0.03277000  0.47260000  1.0
  C  C23  1  0.03278000  0.69301000  0.97260000  1.0
  N  N24  1  0.00626000  0.11683000  0.34141000  1.0
  N  N25  1  0.11684000  0.00626000  0.84141000  1.0
  N  N26  1  0.63294000  0.00247000  0.34721000  1.0
  N  N27  1  0.00247000  0.63294000  0.84721000  1.0
  N  N28  1  0.89603000  0.13152000  0.53708000  1.0
  N  N29  1  0.13152000  0.89603000  0.03708000  1.0
  N  N30  1  0.24453000  0.28784000  0.52372000  1.0
  N  N31  1  0.28784000  0.24453000  0.02373000  1.0
  N  N32  1  0.75062000  0.00049000  0.16145000  1.0
  N  N33  1  0.00049000  0.75062000  0.66145000  1.0
  N  N34  1  0.54364000  0.96404000  0.53601000  1.0
  N  N35  1  0.96404000  0.54364000  0.03601000  1.0
  N  N36  1  0.61548000  0.48323000  0.33668000  1.0
  N  N37  1  0.48323000  0.61548000  0.83668000  1.0
  O  O38  1  0.17565000  0.68223000  0.36913000  1.0
  O  O39  1  0.68223000  0.17565000  0.86913000  1.0
  O  O40  1  0.41666000  0.41440000  0.28282000  1.0
  O  O41  1  0.41440000  0.41666000  0.78281000  1.0
  O  O42  1  0.66561000  0.50414000  0.45249000  1.0
  O  O43  1  0.50415000  0.66560000  0.95249000  1.0
  O  O44  1  0.75504000  0.52555000  0.27175000  1.0
  O  O45  1  0.52554000  0.75504000  0.77174000  1.0
