# generated using pymatgen
data_CuAs2H10C5INO2
_symmetry_space_group_name_H-M   'P 1'
_cell_length_a   7.84389000
_cell_length_b   8.75477000
_cell_length_c   9.01201000
_cell_angle_alpha   63.82160000
_cell_angle_beta   84.48630000
_cell_angle_gamma   68.55480000
_symmetry_Int_Tables_number   1
_chemical_formula_structural   CuAs2H10C5INO2
_chemical_formula_sum   'Cu2 As4 H20 C10 I2 N2 O4'
_cell_volume   515.35876353
_cell_formula_units_Z   2
loop_
 _symmetry_equiv_pos_site_id
 _symmetry_equiv_pos_as_xyz
  1  'x, y, z'
loop_
 _atom_site_type_symbol
 _atom_site_label
 _atom_site_symmetry_multiplicity
 _atom_site_fract_x
 _atom_site_fract_y
 _atom_site_fract_z
 _atom_site_occupancy
  Cu  Cu0  1  0.44704000  0.17436000  0.83756000  1.0
  Cu  Cu1  1  0.55296000  0.82564000  0.16244000  1.0
  As  As2  1  0.65937000  0.23805000  0.64115000  1.0
  As  As3  1  0.34063000  0.76195000  0.35885000  1.0
  As  As4  1  0.41132000  0.41741000  0.29128000  1.0
  As  As5  1  0.58868000  0.58260000  0.70872000  1.0
  H  H6  1  0.97226000  0.04109000  0.79072000  1.0
  H  H7  1  0.02773000  0.95891000  0.20927000  1.0
  H  H8  1  0.98741000  0.12934000  0.57020000  1.0
  H  H9  1  0.01259000  0.87065000  0.42980000  1.0
  H  H10  1  0.91177000  0.94007000  0.67954000  1.0
  H  H11  1  0.08824000  0.05992000  0.32046000  1.0
  H  H12  1  0.14320000  0.30870000  0.37638000  1.0
  H  H13  1  0.85680000  0.69130000  0.62362000  1.0
  H  H14  1  0.34766000  0.12648000  0.38045000  1.0
  H  H15  1  0.65233000  0.87352000  0.61954000  1.0
  H  H16  1  0.31524000  0.18922000  0.54866000  1.0
  H  H17  1  0.68476000  0.81079000  0.45133000  1.0
  H  H18  1  0.21978000  0.49167000  0.66213000  1.0
  H  H19  1  0.78021000  0.50832000  0.33788000  1.0
  H  H20  1  0.11392000  0.34508000  0.71195000  1.0
  H  H21  1  0.88608000  0.65492000  0.28807000  1.0
  H  H22  1  0.21848000  0.64348000  0.83497000  1.0
  H  H23  1  0.78152000  0.35652000  0.16505000  1.0
  H  H24  1  0.94591000  0.26047000  0.95537000  1.0
  H  H25  1  0.05409000  0.73953000  0.04463000  1.0
  C  C26  1  0.91128000  0.06790000  0.67328000  1.0
  C  C27  1  0.08872000  0.93210000  0.32672000  1.0
  C  C28  1  0.29035000  0.23982000  0.41469000  1.0
  C  C29  1  0.70965000  0.76018000  0.58530000  1.0
  C  C30  1  0.09357000  0.44582000  0.87984000  1.0
  C  C31  1  0.90644000  0.55417000  0.12017000  1.0
  C  C32  1  0.12325000  0.57966000  0.90749000  1.0
  C  C33  1  0.87676000  0.42034000  0.09251000  1.0
  C  C34  1  0.96994000  0.36640000  0.97385000  1.0
  C  C35  1  0.03006000  0.63361000  0.02616000  1.0
  I  I36  1  0.38520000  0.87906000  0.89921000  1.0
  I  I37  1  0.61481000  0.12093000  0.10079000  1.0
  N  N38  1  0.19001000  0.38863000  0.75947000  1.0
  N  N39  1  0.80999000  0.61138000  0.24054000  1.0
  O  O40  1  0.63098000  0.29942000  0.42084000  1.0
  O  O41  1  0.36902000  0.70059000  0.57915000  1.0
  O  O42  1  0.72229000  0.43222000  0.60906000  1.0
  O  O43  1  0.27770000  0.56777000  0.39093000  1.0
