# generated using pymatgen
data_ZnH22C26NO4
_symmetry_space_group_name_H-M   'P 1'
_cell_length_a   11.01290000
_cell_length_b   13.93230000
_cell_length_c   15.35000000
_cell_angle_alpha   89.01330000
_cell_angle_beta   87.87130000
_cell_angle_gamma   89.18170000
_symmetry_Int_Tables_number   1
_chemical_formula_structural   ZnH22C26NO4
_chemical_formula_sum   'Zn2 H44 C52 N2 O8'
_cell_volume   2353.03400446
_cell_formula_units_Z   2
loop_
 _symmetry_equiv_pos_site_id
 _symmetry_equiv_pos_as_xyz
  1  'x, y, z'
loop_
 _atom_site_type_symbol
 _atom_site_label
 _atom_site_symmetry_multiplicity
 _atom_site_fract_x
 _atom_site_fract_y
 _atom_site_fract_z
 _atom_site_occupancy
  Zn  Zn0  1  0.50379000  0.40047000  0.49741000  1.0
  Zn  Zn1  1  0.49434000  0.59957000  0.49895000  1.0
  H  H2  1  0.58375000  0.92675000  0.62598000  1.0
  H  H3  1  0.46112000  0.30563000  0.00429000  1.0
  H  H4  1  0.61772000  0.29673000  0.02277000  1.0
  H  H5  1  0.51184000  0.25491000  0.10428000  1.0
  H  H6  1  0.57722000  0.74738000  0.61992000  1.0
  H  H7  1  0.35380000  0.25106000  0.42229000  1.0
  H  H8  1  0.42245000  0.75627000  0.37899000  1.0
  H  H9  1  0.65245000  0.24569000  0.57731000  1.0
  H  H10  1  0.42417000  0.93532000  0.37240000  1.0
  H  H11  1  0.66155000  0.06620000  0.58007000  1.0
  H  H12  1  0.77407000  0.69509000  0.19686000  1.0
  H  H13  1  0.34628000  0.07200000  0.41963000  1.0
  H  H14  1  0.23622000  0.31798000  0.80303000  1.0
  H  H15  1  0.95279000  0.50617000  0.27921000  1.0
  H  H16  1  0.80074000  0.48252000  0.31222000  1.0
  H  H17  1  0.83264000  0.53446000  0.20778000  1.0
  H  H18  1  0.02537000  0.48715000  0.72185000  1.0
  H  H19  1  0.14882000  0.47195000  0.79275000  1.0
  H  H20  1  0.17159000  0.52569000  0.68753000  1.0
  H  H21  1  0.91261000  0.69810000  0.56553000  1.0
  H  H22  1  0.98295000  0.80566000  0.52842000  1.0
  H  H23  1  0.82664000  0.80676000  0.56006000  1.0
  H  H24  1  0.80326000  0.88851000  0.41071000  1.0
  H  H25  1  0.13918000  0.28302000  0.43104000  1.0
  H  H26  1  0.12525000  0.15923000  0.46198000  1.0
  H  H27  1  0.99919000  0.23970000  0.47282000  1.0
  H  H28  1  0.11944000  0.62469000  0.42352000  1.0
  H  H29  1  0.87812000  0.37187000  0.57511000  1.0
  H  H30  1  0.69814000  0.43595000  0.93313000  1.0
  H  H31  1  0.50796000  0.64803000  0.04728000  1.0
  H  H32  1  0.71067000  0.36032000  0.72007000  1.0
  H  H33  1  0.76677000  0.47786000  0.71009000  1.0
  H  H34  1  0.80556000  0.40501000  0.80148000  1.0
  H  H35  1  0.20883000  0.11460000  0.59672000  1.0
  H  H36  1  0.55610000  0.70752000  0.26045000  1.0
  H  H37  1  0.48797000  0.74425000  0.16106000  1.0
  H  H38  1  0.39787000  0.69695000  0.25009000  1.0
  H  H39  1  0.34091000  0.56040000  0.78005000  1.0
  H  H40  1  0.52016000  0.35287000  0.22771000  1.0
  H  H41  1  0.74733000  0.85865000  0.25806000  1.0
  H  H42  1  0.27609000  0.15465000  0.74457000  1.0
  H  H43  1  0.27297000  0.51046000  0.00679000  1.0
  H  H44  1  0.31109000  0.63132000  0.98691000  1.0
  H  H45  1  0.22421000  0.57071000  0.91063000  1.0
  C  C46  1  0.51018000  0.49903000  0.66865000  1.0
  C  C47  1  0.50310000  0.59158000  0.17819000  1.0
  C  C48  1  0.51854000  0.49692000  0.76592000  1.0
  C  C49  1  0.50744000  0.50579000  0.22875000  1.0
  C  C50  1  0.41837000  0.53174000  0.81481000  1.0
  C  C51  1  0.51797000  0.41737000  0.18644000  1.0
  C  C52  1  0.41368000  0.52956000  0.90585000  1.0
  C  C53  1  0.52310000  0.40901000  0.09588000  1.0
  C  C54  1  0.51699000  0.49435000  0.94863000  1.0
  C  C55  1  0.51885000  0.49445000  0.04532000  1.0
  C  C56  1  0.54860000  0.89238000  0.56908000  1.0
  C  C57  1  0.50067000  0.50332000  0.32662000  1.0
  C  C58  1  0.41743000  0.10696000  0.45438000  1.0
  C  C59  1  0.54499000  0.79281000  0.56679000  1.0
  C  C60  1  0.41993000  0.20651000  0.45594000  1.0
  C  C61  1  0.73646000  0.49621000  0.49386000  1.0
  C  C62  1  0.26157000  0.50040000  0.50344000  1.0
  C  C63  1  0.45692000  0.79771000  0.43201000  1.0
  C  C64  1  0.58694000  0.20338000  0.54345000  1.0
  C  C65  1  0.45776000  0.89730000  0.42941000  1.0
  C  C66  1  0.59050000  0.10370000  0.54493000  1.0
  C  C67  1  0.50391000  0.94713000  0.49933000  1.0
  C  C68  1  0.12549000  0.49725000  0.50343000  1.0
  C  C69  1  0.50421000  0.05306000  0.49952000  1.0
  C  C70  1  0.79981000  0.70884000  0.26345000  1.0
  C  C71  1  0.20770000  0.30038000  0.73790000  1.0
  C  C72  1  0.84677000  0.63310000  0.31353000  1.0
  C  C73  1  0.14954000  0.37106000  0.68790000  1.0
  C  C74  1  0.88122000  0.65121000  0.39941000  1.0
  C  C75  1  0.11601000  0.34884000  0.60291000  1.0
  C  C76  1  0.86557000  0.74336000  0.43485000  1.0
  C  C77  1  0.13540000  0.25587000  0.57003000  1.0
  C  C78  1  0.81639000  0.81711000  0.38319000  1.0
  C  C79  1  0.87221000  0.49912000  0.49469000  1.0
  C  C80  1  0.19262000  0.18662000  0.62208000  1.0
  C  C81  1  0.78453000  0.80045000  0.29785000  1.0
  C  C82  1  0.23003000  0.20885000  0.70513000  1.0
  C  C83  1  0.06503000  0.56943000  0.45669000  1.0
  C  C84  1  0.93232000  0.42701000  0.54155000  1.0
  C  C85  1  0.29973000  0.56218000  0.95492000  1.0
  C  C86  1  0.52863000  0.31149000  0.05485000  1.0
  C  C87  1  0.85908000  0.53408000  0.27600000  1.0
  C  C88  1  0.12273000  0.46899000  0.72459000  1.0
  C  C89  1  0.89881000  0.76406000  0.52703000  1.0
  C  C90  1  0.05846000  0.42469000  0.54779000  1.0
  C  C91  1  0.09806000  0.23279000  0.47942000  1.0
  C  C92  1  0.73213000  0.42394000  0.75763000  1.0
  C  C93  1  0.48603000  0.69071000  0.21446000  1.0
  C  C94  1  0.93867000  0.57258000  0.45157000  1.0
  C  C95  1  0.61812000  0.46132000  0.89903000  1.0
  C  C96  1  0.51057000  0.58267000  0.08755000  1.0
  C  C97  1  0.62133000  0.46039000  0.80786000  1.0
  N  N98  1  0.49954000  0.74645000  0.49948000  1.0
  N  N99  1  0.50328000  0.25370000  0.49958000  1.0
  O  O100  1  0.52562000  0.41982000  0.62942000  1.0
  O  O101  1  0.50341000  0.58309000  0.36617000  1.0
  O  O102  1  0.48548000  0.57993000  0.63313000  1.0
  O  O103  1  0.49355000  0.42113000  0.36422000  1.0
  O  O104  1  0.68990000  0.41414000  0.48397000  1.0
  O  O105  1  0.30907000  0.58317000  0.49782000  1.0
  O  O106  1  0.67919000  0.57520000  0.50448000  1.0
  O  O107  1  0.31897000  0.42059000  0.50777000  1.0
