# generated using pymatgen
data_AlAgH18C19SN3(O3F)3
_symmetry_space_group_name_H-M   'P 1'
_cell_length_a   10.26690000
_cell_length_b   12.19790000
_cell_length_c   13.42080000
_cell_angle_alpha   114.44000000
_cell_angle_beta   107.03400000
_cell_angle_gamma   93.69980000
_symmetry_Int_Tables_number   1
_chemical_formula_structural   AlAgH18C19SN3(O3F)3
_chemical_formula_sum   'Al2 Ag2 H36 C38 S2 N6 O18 F6'
_cell_volume   1429.32831484
_cell_formula_units_Z   2
loop_
 _symmetry_equiv_pos_site_id
 _symmetry_equiv_pos_as_xyz
  1  'x, y, z'
loop_
 _atom_site_type_symbol
 _atom_site_label
 _atom_site_symmetry_multiplicity
 _atom_site_fract_x
 _atom_site_fract_y
 _atom_site_fract_z
 _atom_site_occupancy
  Al  Al0  1  0.43266000  0.66216000  0.76709000  1.0
  Al  Al1  1  0.56734000  0.33784000  0.23292000  1.0
  Ag  Ag2  1  0.07255000  0.95457000  0.36532000  1.0
  Ag  Ag3  1  0.92745000  0.04541000  0.63468000  1.0
  H  H4  1  0.97561000  0.63088000  0.51768000  1.0
  H  H5  1  0.02438000  0.36911000  0.48232000  1.0
  H  H6  1  0.98680000  0.77496000  0.63229000  1.0
  H  H7  1  0.01320000  0.22503000  0.36771000  1.0
  H  H8  1  0.98879000  0.64137000  0.65787000  1.0
  H  H9  1  0.01120000  0.35863000  0.34212000  1.0
  H  H10  1  0.57548000  0.92333000  0.65574000  1.0
  H  H11  1  0.42451000  0.07666000  0.34425000  1.0
  H  H12  1  0.41368000  0.96330000  0.60328000  1.0
  H  H13  1  0.58632000  0.03670000  0.39671000  1.0
  H  H14  1  0.45054000  0.82612000  0.51163000  1.0
  H  H15  1  0.54946000  0.17388000  0.48835000  1.0
  H  H16  1  0.32137000  0.40609000  0.89093000  1.0
  H  H17  1  0.67864000  0.59391000  0.10908000  1.0
  H  H18  1  0.37757000  0.28116000  0.79465000  1.0
  H  H19  1  0.62243000  0.71884000  0.20535000  1.0
  H  H20  1  0.20005000  0.29047000  0.75208000  1.0
  H  H21  1  0.79996000  0.70953000  0.24792000  1.0
  H  H22  1  0.26653000  0.41474000  0.39134000  1.0
  H  H23  1  0.73347000  0.58527000  0.60866000  1.0
  H  H24  1  0.27555000  0.26700000  0.38935000  1.0
  H  H25  1  0.72445000  0.73301000  0.61066000  1.0
  H  H26  1  0.42802000  0.37320000  0.42168000  1.0
  H  H27  1  0.57198000  0.62681000  0.57832000  1.0
  H  H28  1  0.85851000  0.61256000  0.84192000  1.0
  H  H29  1  0.14148000  0.38745000  0.15808000  1.0
  H  H30  1  0.89584000  0.65416000  0.99300000  1.0
  H  H31  1  0.10416000  0.34584000  0.00700000  1.0
  H  H32  1  0.93960000  0.76806000  0.95319000  1.0
  H  H33  1  0.06040000  0.23195000  0.04681000  1.0
  H  H34  1  0.45898000  0.97044000  0.09214000  1.0
  H  H35  1  0.54103000  0.02956000  0.90787000  1.0
  H  H36  1  0.64180000  0.99981000  0.17446000  1.0
  H  H37  1  0.35821000  0.00020000  0.82556000  1.0
  H  H38  1  0.52064000  0.88298000  0.16680000  1.0
  H  H39  1  0.47936000  0.11703000  0.83321000  1.0
  C  C40  1  0.02315000  0.68814000  0.61292000  1.0
  C  C41  1  0.97685000  0.31186000  0.38708000  1.0
  C  C42  1  0.17893000  0.71144000  0.65037000  1.0
  C  C43  1  0.82106000  0.28855000  0.34962000  1.0
  C  C44  1  0.24945000  0.77762000  0.60840000  1.0
  C  C45  1  0.75056000  0.22237000  0.39159000  1.0
  C  C46  1  0.39832000  0.81284000  0.64731000  1.0
  C  C47  1  0.60168000  0.18716000  0.35269000  1.0
  C  C48  1  0.46441000  0.88680000  0.60358000  1.0
  C  C49  1  0.53559000  0.11320000  0.39641000  1.0
  C  C50  1  0.16706000  0.81574000  0.52964000  1.0
  C  C51  1  0.83294000  0.18424000  0.47036000  1.0
  C  C52  1  0.30710000  0.34604000  0.79976000  1.0
  C  C53  1  0.69291000  0.65396000  0.20024000  1.0
  C  C54  1  0.34015000  0.42130000  0.74324000  1.0
  C  C55  1  0.65984000  0.57870000  0.25676000  1.0
  C  C56  1  0.31843000  0.36242000  0.62068000  1.0
  C  C57  1  0.68156000  0.63758000  0.37932000  1.0
  C  C58  1  0.35102000  0.42698000  0.56082000  1.0
  C  C59  1  0.64897000  0.57302000  0.43918000  1.0
  C  C60  1  0.32695000  0.36440000  0.43319000  1.0
  C  C61  1  0.67305000  0.63561000  0.56681000  1.0
  C  C62  1  0.26266000  0.23479000  0.55522000  1.0
  C  C63  1  0.73734000  0.76521000  0.44478000  1.0
  C  C64  1  0.86149000  0.68527000  0.92538000  1.0
  C  C65  1  0.13851000  0.31474000  0.07462000  1.0
  C  C66  1  0.71996000  0.71389000  0.91418000  1.0
  C  C67  1  0.28004000  0.28612000  0.08582000  1.0
  C  C68  1  0.69676000  0.80396000  0.01362000  1.0
  C  C69  1  0.30325000  0.19605000  0.98638000  1.0
  C  C70  1  0.56408000  0.83531000  0.01007000  1.0
  C  C71  1  0.43592000  0.16469000  0.98993000  1.0
  C  C72  1  0.54637000  0.92875000  0.11695000  1.0
  C  C73  1  0.45364000  0.07126000  0.88306000  1.0
  C  C74  1  0.80974000  0.86369000  0.12024000  1.0
  C  C75  1  0.19026000  0.13630000  0.87976000  1.0
  C  C76  1  0.25612000  0.64852000  0.10286000  1.0
  C  C77  1  0.74388000  0.35147000  0.89714000  1.0
  S  S78  1  0.32353000  0.76694000  0.25962000  1.0
  S  S79  1  0.67647000  0.23305000  0.74037000  1.0
  N  N80  1  0.09558000  0.84668000  0.46506000  1.0
  N  N81  1  0.90442000  0.15331000  0.53492000  1.0
  N  N82  1  0.21419000  0.12980000  0.49581000  1.0
  N  N83  1  0.78581000  0.87019000  0.50419000  1.0
  N  N84  1  0.90351000  0.91314000  0.20895000  1.0
  N  N85  1  0.09649000  0.08686000  0.79105000  1.0
  O  O86  1  0.24218000  0.67049000  0.72032000  1.0
  O  O87  1  0.75782000  0.32951000  0.27968000  1.0
  O  O88  1  0.47761000  0.78191000  0.71983000  1.0
  O  O89  1  0.52238000  0.21810000  0.28018000  1.0
  O  O90  1  0.38755000  0.53670000  0.80675000  1.0
  O  O91  1  0.61246000  0.46330000  0.19325000  1.0
  O  O92  1  0.40310000  0.54275000  0.61350000  1.0
  O  O93  1  0.59691000  0.45725000  0.38651000  1.0
  O  O94  1  0.62343000  0.65590000  0.81468000  1.0
  O  O95  1  0.37657000  0.34411000  0.18533000  1.0
  O  O96  1  0.45661000  0.78436000  0.91721000  1.0
  O  O97  1  0.54339000  0.21564000  0.08280000  1.0
  O  O98  1  0.30152000  0.69736000  0.32112000  1.0
  O  O99  1  0.69848000  0.30264000  0.67888000  1.0
  O  O100  1  0.46943000  0.80996000  0.27939000  1.0
  O  O101  1  0.53057000  0.19002000  0.72059000  1.0
  O  O102  1  0.23698000  0.85770000  0.25917000  1.0
  O  O103  1  0.76302000  0.14230000  0.74083000  1.0
  F  F104  1  0.26372000  0.69871000  0.03075000  1.0
  F  F105  1  0.73630000  0.30129000  0.96925000  1.0
  F  F106  1  0.33188000  0.55839000  0.08514000  1.0
  F  F107  1  0.66813000  0.44160000  0.91487000  1.0
  F  F108  1  0.12072000  0.59260000  0.06858000  1.0
  F  F109  1  0.87929000  0.40739000  0.93141000  1.0
