# generated using pymatgen
data_NdH9C8NO9
_symmetry_space_group_name_H-M   'P 1'
_cell_length_a   6.50211000
_cell_length_b   12.65070000
_cell_length_c   14.90210000
_cell_angle_alpha   107.41000000
_cell_angle_beta   97.12680000
_cell_angle_gamma   103.85100000
_symmetry_Int_Tables_number   1
_chemical_formula_structural   NdH9C8NO9
_chemical_formula_sum   'Nd4 H36 C32 N4 O36'
_cell_volume   1109.99929054
_cell_formula_units_Z   4
loop_
 _symmetry_equiv_pos_site_id
 _symmetry_equiv_pos_as_xyz
  1  'x, y, z'
loop_
 _atom_site_type_symbol
 _atom_site_label
 _atom_site_symmetry_multiplicity
 _atom_site_fract_x
 _atom_site_fract_y
 _atom_site_fract_z
 _atom_site_occupancy
  Nd  Nd0  1  0.14560000  0.83753000  0.30338000  1.0
  Nd  Nd1  1  0.85441000  0.16247000  0.69662000  1.0
  Nd  Nd2  1  0.34886000  0.66325000  0.69595000  1.0
  Nd  Nd3  1  0.65112000  0.33675000  0.30404000  1.0
  H  H4  1  0.88920000  0.68834000  0.06344000  1.0
  H  H5  1  0.11081000  0.31165000  0.93656000  1.0
  H  H6  1  0.90728000  0.68535000  0.89516000  1.0
  H  H7  1  0.09272000  0.31464000  0.10483000  1.0
  H  H8  1  0.33083000  0.03343000  0.02100000  1.0
  H  H9  1  0.66915000  0.96656000  0.97900000  1.0
  H  H10  1  0.59760000  0.81567000  0.94145000  1.0
  H  H11  1  0.40242000  0.18433000  0.05855000  1.0
  H  H12  1  0.57757000  0.81663000  0.10897000  1.0
  H  H13  1  0.42244000  0.18337000  0.89103000  1.0
  H  H14  1  0.17459000  0.46422000  0.98096000  1.0
  H  H15  1  0.82539000  0.53579000  0.01904000  1.0
  H  H16  1  0.74569000  0.93013000  0.31960000  1.0
  H  H17  1  0.25433000  0.06988000  0.68040000  1.0
  H  H18  1  0.84162000  0.98139000  0.24217000  1.0
  H  H19  1  0.15839000  0.01861000  0.75783000  1.0
  H  H20  1  0.92469000  0.85717000  0.46860000  1.0
  H  H21  1  0.07532000  0.14284000  0.53141000  1.0
  H  H22  1  0.72380000  0.80575000  0.38683000  1.0
  H  H23  1  0.27621000  0.19425000  0.61317000  1.0
  H  H24  1  0.30980000  0.66168000  0.36813000  1.0
  H  H25  1  0.69019000  0.33832000  0.63187000  1.0
  H  H26  1  0.05791000  0.63001000  0.36316000  1.0
  H  H27  1  0.94209000  0.36999000  0.63684000  1.0
  H  H28  1  0.66417000  0.52573000  0.75869000  1.0
  H  H29  1  0.33583000  0.47427000  0.24131000  1.0
  H  H30  1  0.75773000  0.57942000  0.68132000  1.0
  H  H31  1  0.24225000  0.42058000  0.31868000  1.0
  H  H32  1  0.62647000  0.63043000  0.54310000  1.0
  H  H33  1  0.37352000  0.36956000  0.45690000  1.0
  H  H34  1  0.79193000  0.73471000  0.62385000  1.0
  H  H35  1  0.20806000  0.26528000  0.37614000  1.0
  H  H36  1  0.41281000  0.85939000  0.62623000  1.0
  H  H37  1  0.58719000  0.14061000  0.37377000  1.0
  H  H38  1  0.26860000  0.76070000  0.52925000  1.0
  H  H39  1  0.73139000  0.23930000  0.47074000  1.0
  C  C40  1  0.98871000  0.76187000  0.04997000  1.0
  C  C41  1  0.01128000  0.23813000  0.95002000  1.0
  C  C42  1  0.99706000  0.76163000  0.95694000  1.0
  C  C43  1  0.00293000  0.23837000  0.04306000  1.0
  C  C44  1  0.12451000  0.86039000  0.94558000  1.0
  C  C45  1  0.87548000  0.13960000  0.05442000  1.0
  C  C46  1  0.23271000  0.95542000  0.02827000  1.0
  C  C47  1  0.76728000  0.04458000  0.97173000  1.0
  C  C48  1  0.21945000  0.94768000  0.11853000  1.0
  C  C49  1  0.78054000  0.05232000  0.88147000  1.0
  C  C50  1  0.15054000  0.86714000  0.84789000  1.0
  C  C51  1  0.84945000  0.13286000  0.15211000  1.0
  C  C52  1  0.33627000  0.04641000  0.21007000  1.0
  C  C53  1  0.66374000  0.95359000  0.78993000  1.0
  C  C54  1  0.50239000  0.74028000  0.95393000  1.0
  C  C55  1  0.49762000  0.25973000  0.04607000  1.0
  C  C56  1  0.49228000  0.73979000  0.04684000  1.0
  C  C57  1  0.50773000  0.26021000  0.95317000  1.0
  C  C58  1  0.36992000  0.63920000  0.05740000  1.0
  C  C59  1  0.63008000  0.36080000  0.94260000  1.0
  C  C60  1  0.26920000  0.54346000  0.97427000  1.0
  C  C61  1  0.73079000  0.45654000  0.02573000  1.0
  C  C62  1  0.28539000  0.55186000  0.88442000  1.0
  C  C63  1  0.71460000  0.44814000  0.11558000  1.0
  C  C64  1  0.34110000  0.62987000  0.15412000  1.0
  C  C65  1  0.65890000  0.37014000  0.84589000  1.0
  C  C66  1  0.17463000  0.45189000  0.79311000  1.0
  C  C67  1  0.82536000  0.54811000  0.20690000  1.0
  C  C68  1  0.41055000  0.02512000  0.51955000  1.0
  C  C69  1  0.58947000  0.97488000  0.48046000  1.0
  C  C70  1  0.09071000  0.47877000  0.47805000  1.0
  C  C71  1  0.90925000  0.52122000  0.52193000  1.0
  N  N72  1  0.10161000  0.85066000  0.12937000  1.0
  N  N73  1  0.89839000  0.14934000  0.87063000  1.0
  N  N74  1  0.39777000  0.65034000  0.87395000  1.0
  N  N75  1  0.60223000  0.34966000  0.12605000  1.0
  O  O76  1  0.12775000  0.77203000  0.78102000  1.0
  O  O77  1  0.87224000  0.22797000  0.21897000  1.0
  O  O78  1  0.19501000  0.96726000  0.84205000  1.0
  O  O79  1  0.80499000  0.03274000  0.15795000  1.0
  O  O80  1  0.40233000  0.14678000  0.20515000  1.0
  O  O81  1  0.59768000  0.85322000  0.79484000  1.0
  O  O82  1  0.35933000  0.02194000  0.28720000  1.0
  O  O83  1  0.64067000  0.97806000  0.71280000  1.0
  O  O84  1  0.36556000  0.72360000  0.22311000  1.0
  O  O85  1  0.63444000  0.27640000  0.77689000  1.0
  O  O86  1  0.29258000  0.52897000  0.15826000  1.0
  O  O87  1  0.70743000  0.47103000  0.84174000  1.0
  O  O88  1  0.10817000  0.35175000  0.79834000  1.0
  O  O89  1  0.89182000  0.64826000  0.20166000  1.0
  O  O90  1  0.15357000  0.47537000  0.71540000  1.0
  O  O91  1  0.84643000  0.52464000  0.28460000  1.0
  O  O92  1  0.22425000  0.98782000  0.46641000  1.0
  O  O93  1  0.77578000  0.01219000  0.53360000  1.0
  O  O94  1  0.46706000  0.10143000  0.60341000  1.0
  O  O95  1  0.53298000  0.89859000  0.39659000  1.0
  O  O96  1  0.27699000  0.51227000  0.53154000  1.0
  O  O97  1  0.72301000  0.48773000  0.46846000  1.0
  O  O98  1  0.03744000  0.41230000  0.39097000  1.0
  O  O99  1  0.96255000  0.58770000  0.60903000  1.0
  O  O100  1  0.86364000  0.93413000  0.28452000  1.0
  O  O101  1  0.13637000  0.06588000  0.71548000  1.0
  O  O102  1  0.86562000  0.79474000  0.40629000  1.0
  O  O103  1  0.13438000  0.20526000  0.59371000  1.0
  O  O104  1  0.19913000  0.69319000  0.39538000  1.0
  O  O105  1  0.80087000  0.30681000  0.60462000  1.0
  O  O106  1  0.63353000  0.56696000  0.71282000  1.0
  O  O107  1  0.36647000  0.43303000  0.28717000  1.0
  O  O108  1  0.63837000  0.70474000  0.59260000  1.0
  O  O109  1  0.36162000  0.29526000  0.40740000  1.0
  O  O110  1  0.27734000  0.79415000  0.59911000  1.0
  O  O111  1  0.72265000  0.20585000  0.40089000  1.0
