# generated using pymatgen
data_Na3GaH6(CO2)6
_symmetry_space_group_name_H-M   'P 1'
_cell_length_a   6.27036000
_cell_length_b   13.77100000
_cell_length_c   14.64750000
_cell_angle_alpha   90.00050000
_cell_angle_beta   89.99990000
_cell_angle_gamma   89.99990000
_symmetry_Int_Tables_number   1
_chemical_formula_structural   Na3GaH6(CO2)6
_chemical_formula_sum   'Na12 Ga4 H24 C24 O48'
_cell_volume   1264.79884588
_cell_formula_units_Z   4
loop_
 _symmetry_equiv_pos_site_id
 _symmetry_equiv_pos_as_xyz
  1  'x, y, z'
loop_
 _atom_site_type_symbol
 _atom_site_label
 _atom_site_symmetry_multiplicity
 _atom_site_fract_x
 _atom_site_fract_y
 _atom_site_fract_z
 _atom_site_occupancy
  Na  Na0  1  0.72761000  0.21838000  0.49810000  1.0
  Na  Na1  1  0.77240000  0.21839000  0.00190000  1.0
  Na  Na2  1  0.22761000  0.28162000  0.50190000  1.0
  Na  Na3  1  0.27239000  0.28162000  0.99810000  1.0
  Na  Na4  1  0.27239000  0.78162000  0.50190000  1.0
  Na  Na5  1  0.22761000  0.78162000  0.99810000  1.0
  Na  Na6  1  0.77239000  0.71838000  0.49810000  1.0
  Na  Na7  1  0.72760000  0.71838000  0.00190000  1.0
  Na  Na8  1  0.25000000  0.92062000  0.75000000  1.0
  Na  Na9  1  0.75000000  0.57938000  0.25000000  1.0
  Na  Na10  1  0.75000000  0.07938000  0.25000000  1.0
  Na  Na11  1  0.25000000  0.42062000  0.75000000  1.0
  Ga  Ga12  1  0.75000000  0.06099000  0.75000000  1.0
  Ga  Ga13  1  0.25000000  0.43900000  0.25000000  1.0
  Ga  Ga14  1  0.25000000  0.93900000  0.25000000  1.0
  Ga  Ga15  1  0.75000000  0.56099000  0.75000000  1.0
  H  H16  1  0.83004000  0.94213000  0.57850000  1.0
  H  H17  1  0.66996000  0.94213000  0.92150000  1.0
  H  H18  1  0.33004000  0.55787000  0.42150000  1.0
  H  H19  1  0.16995000  0.55787000  0.07851000  1.0
  H  H20  1  0.16996000  0.05787000  0.42150000  1.0
  H  H21  1  0.33005000  0.05787000  0.07850000  1.0
  H  H22  1  0.66996000  0.44213000  0.57850000  1.0
  H  H23  1  0.83004000  0.44213000  0.92149000  1.0
  H  H24  1  0.51132000  0.24210000  0.77683000  1.0
  H  H25  1  0.98868000  0.24210000  0.72317000  1.0
  H  H26  1  0.01133000  0.25789000  0.22317000  1.0
  H  H27  1  0.48868000  0.25790000  0.27683000  1.0
  H  H28  1  0.48867000  0.75790000  0.22317000  1.0
  H  H29  1  0.01132000  0.75790000  0.27683000  1.0
  H  H30  1  0.98868000  0.74210000  0.77683000  1.0
  H  H31  1  0.51133000  0.74210000  0.72317000  1.0
  H  H32  1  0.28141000  0.07054000  0.59877000  1.0
  H  H33  1  0.21859000  0.07054000  0.90123000  1.0
  H  H34  1  0.78141000  0.42946000  0.40123000  1.0
  H  H35  1  0.71859000  0.42947000  0.09877000  1.0
  H  H36  1  0.71858000  0.92946000  0.40123000  1.0
  H  H37  1  0.78142000  0.92946000  0.09877000  1.0
  H  H38  1  0.21858000  0.57054000  0.59877000  1.0
  H  H39  1  0.28141000  0.57054000  0.90123000  1.0
  C  C40  1  0.66951000  0.92017000  0.60160000  1.0
  C  C41  1  0.83049000  0.92016000  0.89839000  1.0
  C  C42  1  0.16951000  0.57983000  0.39840000  1.0
  C  C43  1  0.33049000  0.57983000  0.10160000  1.0
  C  C44  1  0.33050000  0.07983000  0.39840000  1.0
  C  C45  1  0.16952000  0.07984000  0.10161000  1.0
  C  C46  1  0.83050000  0.42017000  0.60160000  1.0
  C  C47  1  0.66950000  0.42017000  0.89840000  1.0
  C  C48  1  0.50970000  0.23375000  0.70148000  1.0
  C  C49  1  0.99031000  0.23375000  0.79852000  1.0
  C  C50  1  0.00970000  0.26625000  0.29852000  1.0
  C  C51  1  0.49031000  0.26625000  0.20148000  1.0
  C  C52  1  0.49030000  0.76625000  0.29852000  1.0
  C  C53  1  0.00969000  0.76625000  0.20148000  1.0
  C  C54  1  0.99031000  0.73375000  0.70148000  1.0
  C  C55  1  0.50970000  0.73375000  0.79852000  1.0
  C  C56  1  0.11117000  0.08876000  0.61044000  1.0
  C  C57  1  0.38883000  0.08876000  0.88957000  1.0
  C  C58  1  0.61117000  0.41124000  0.38957000  1.0
  C  C59  1  0.88883000  0.41125000  0.11043000  1.0
  C  C60  1  0.88882000  0.91124000  0.38956000  1.0
  C  C61  1  0.61118000  0.91124000  0.11044000  1.0
  C  C62  1  0.38883000  0.58876000  0.61044000  1.0
  C  C63  1  0.11117000  0.58876000  0.88957000  1.0
  O  O64  1  0.59856000  0.95988000  0.67557000  1.0
  O  O65  1  0.90143000  0.95988000  0.82444000  1.0
  O  O66  1  0.09856000  0.54011000  0.32444000  1.0
  O  O67  1  0.40143000  0.54012000  0.17556000  1.0
  O  O68  1  0.40143000  0.04012000  0.32444000  1.0
  O  O69  1  0.09857000  0.04012000  0.17557000  1.0
  O  O70  1  0.90144000  0.45988000  0.67556000  1.0
  O  O71  1  0.59855000  0.45988000  0.82444000  1.0
  O  O72  1  0.62155000  0.16338000  0.66772000  1.0
  O  O73  1  0.87844000  0.16338000  0.83228000  1.0
  O  O74  1  0.12156000  0.33662000  0.33228000  1.0
  O  O75  1  0.37846000  0.33663000  0.16772000  1.0
  O  O76  1  0.37844000  0.83663000  0.33228000  1.0
  O  O77  1  0.12155000  0.83662000  0.16772000  1.0
  O  O78  1  0.87845000  0.66337000  0.66772000  1.0
  O  O79  1  0.62156000  0.66338000  0.83228000  1.0
  O  O80  1  0.03088000  0.04699000  0.68159000  1.0
  O  O81  1  0.46912000  0.04700000  0.81841000  1.0
  O  O82  1  0.53088000  0.45301000  0.31841000  1.0
  O  O83  1  0.96912000  0.45301000  0.18159000  1.0
  O  O84  1  0.96912000  0.95301000  0.31841000  1.0
  O  O85  1  0.53088000  0.95301000  0.18159000  1.0
  O  O86  1  0.46912000  0.54699000  0.68159000  1.0
  O  O87  1  0.03087000  0.54699000  0.81841000  1.0
  O  O88  1  0.56759000  0.85869000  0.55695000  1.0
  O  O89  1  0.93240000  0.85869000  0.94305000  1.0
  O  O90  1  0.06759000  0.64131000  0.44305000  1.0
  O  O91  1  0.43240000  0.64130000  0.05695000  1.0
  O  O92  1  0.43241000  0.14131000  0.44305000  1.0
  O  O93  1  0.06760000  0.14131000  0.05695000  1.0
  O  O94  1  0.93241000  0.35870000  0.55695000  1.0
  O  O95  1  0.56759000  0.35869000  0.94305000  1.0
  O  O96  1  0.40375000  0.29194000  0.65414000  1.0
  O  O97  1  0.09625000  0.29194000  0.84586000  1.0
  O  O98  1  0.90375000  0.20806000  0.34586000  1.0
  O  O99  1  0.59626000  0.20806000  0.15414000  1.0
  O  O100  1  0.59624000  0.70807000  0.34586000  1.0
  O  O101  1  0.90375000  0.70806000  0.15414000  1.0
  O  O102  1  0.09625000  0.79193000  0.65414000  1.0
  O  O103  1  0.40375000  0.79193000  0.84586000  1.0
  O  O104  1  0.01902000  0.14484000  0.55693000  1.0
  O  O105  1  0.48098000  0.14484000  0.94307000  1.0
  O  O106  1  0.51902000  0.35516000  0.44308000  1.0
  O  O107  1  0.98098000  0.35517000  0.05692000  1.0
  O  O108  1  0.98097000  0.85517000  0.44307000  1.0
  O  O109  1  0.51903000  0.85516000  0.05693000  1.0
  O  O110  1  0.48097000  0.64483000  0.55693000  1.0
  O  O111  1  0.01902000  0.64484000  0.94308000  1.0
