# generated using pymatgen
data_AlH9C24(ClO2)3
_symmetry_space_group_name_H-M   'P 1'
_cell_length_a   3.99339000
_cell_length_b   29.01060000
_cell_length_c   29.01338095
_cell_angle_alpha   59.99751305
_cell_angle_beta   90.00000002
_cell_angle_gamma   89.99850000
_symmetry_Int_Tables_number   1
_chemical_formula_structural   AlH9C24(ClO2)3
_chemical_formula_sum   'Al2 H18 C48 Cl6 O12'
_cell_volume   2910.82787287
_cell_formula_units_Z   2
loop_
 _symmetry_equiv_pos_site_id
 _symmetry_equiv_pos_as_xyz
  1  'x, y, z'
loop_
 _atom_site_type_symbol
 _atom_site_label
 _atom_site_symmetry_multiplicity
 _atom_site_fract_x
 _atom_site_fract_y
 _atom_site_fract_z
 _atom_site_occupancy
  Al  Al0  1  0.00905000  0.99998000  0.50001000  1.0
  Al  Al1  1  0.00916000  0.66669000  0.16665000  1.0
  H  H2  1  0.20720000  0.52019000  0.30139000  1.0
  H  H3  1  0.21109000  0.42058000  0.35168000  1.0
  H  H4  1  0.78624000  0.51972000  0.17652000  1.0
  H  H5  1  0.78604000  0.14694000  0.49016000  1.0
  H  H6  1  0.20719000  0.14649000  0.36526000  1.0
  H  H7  1  0.21116000  0.24610000  0.31497000  1.0
  H  H8  1  0.20722000  0.80143000  0.17841000  1.0
  H  H9  1  0.21117000  0.85172000  0.22773000  1.0
  H  H10  1  0.78622000  0.67652000  0.30375000  1.0
  H  H11  1  0.78611000  0.99015000  0.36291000  1.0
  H  H12  1  0.20730000  0.86524000  0.48826000  1.0
  H  H13  1  0.21133000  0.81495000  0.43894000  1.0
  H  H14  1  0.20702000  0.67845000  0.02018000  1.0
  H  H15  1  0.21086000  0.72776000  0.92057000  1.0
  H  H16  1  0.78614000  0.80381000  0.01968000  1.0
  H  H17  1  0.78609000  0.86287000  0.64697000  1.0
  H  H18  1  0.20703000  0.98823000  0.64648000  1.0
  H  H19  1  0.21095000  0.93892000  0.74609000  1.0
  C  C20  1  0.50752000  0.95897000  0.58180000  1.0
  C  C21  1  0.50749000  0.08179000  0.45921000  1.0
  C  C22  1  0.50753000  0.95920000  0.45900000  1.0
  C  C23  1  0.50764000  0.58489000  0.20745000  1.0
  C  C24  1  0.50761000  0.70748000  0.20765000  1.0
  C  C25  1  0.50758000  0.70770000  0.08486000  1.0
  C  C26  1  0.49904000  0.52573000  0.23635000  1.0
  C  C27  1  0.33372000  0.49790000  0.28546000  1.0
  C  C28  1  0.33444000  0.44271000  0.31315000  1.0
  C  C29  1  0.48779000  0.41375000  0.29162000  1.0
  C  C30  1  0.64298000  0.44266000  0.24111000  1.0
  C  C31  1  0.65569000  0.49792000  0.21442000  1.0
  C  C32  1  0.48513000  0.35757000  0.32024000  1.0
  C  C33  1  0.48512000  0.30909000  0.34642000  1.0
  C  C34  1  0.48777000  0.25292000  0.37504000  1.0
  C  C35  1  0.64291000  0.22401000  0.42556000  1.0
  C  C36  1  0.65555000  0.16873000  0.45226000  1.0
  C  C37  1  0.49891000  0.14094000  0.43032000  1.0
  C  C38  1  0.33366000  0.16877000  0.38120000  1.0
  C  C39  1  0.33442000  0.22396000  0.35351000  1.0
  C  C40  1  0.49904000  0.73637000  0.23791000  1.0
  C  C41  1  0.33375000  0.78549000  0.21663000  1.0
  C  C42  1  0.33449000  0.81317000  0.24413000  1.0
  C  C43  1  0.48786000  0.79164000  0.29462000  1.0
  C  C44  1  0.64303000  0.74112000  0.31622000  1.0
  C  C45  1  0.65571000  0.71442000  0.28765000  1.0
  C  C46  1  0.48521000  0.82025000  0.32218000  1.0
  C  C47  1  0.48524000  0.84642000  0.34449000  1.0
  C  C48  1  0.48788000  0.87503000  0.37204000  1.0
  C  C49  1  0.64301000  0.92556000  0.35044000  1.0
  C  C50  1  0.65566000  0.95225000  0.37901000  1.0
  C  C51  1  0.49898000  0.93030000  0.42875000  1.0
  C  C52  1  0.33377000  0.88118000  0.45003000  1.0
  C  C53  1  0.33455000  0.85350000  0.42254000  1.0
  C  C54  1  0.49888000  0.73796000  0.02571000  1.0
  C  C55  1  0.33355000  0.71667000  0.99789000  1.0
  C  C56  1  0.33424000  0.74416000  0.94271000  1.0
  C  C57  1  0.48764000  0.79466000  0.91373000  1.0
  C  C58  1  0.64283000  0.81627000  0.94263000  1.0
  C  C59  1  0.65556000  0.78770000  0.99790000  1.0
  C  C60  1  0.48503000  0.82220000  0.85756000  1.0
  C  C61  1  0.48504000  0.84448000  0.80909000  1.0
  C  C62  1  0.48764000  0.87202000  0.75293000  1.0
  C  C63  1  0.64283000  0.85040000  0.72403000  1.0
  C  C64  1  0.65553000  0.87897000  0.66876000  1.0
  C  C65  1  0.49883000  0.92871000  0.64095000  1.0
  C  C66  1  0.33352000  0.95000000  0.66877000  1.0
  C  C67  1  0.33427000  0.92252000  0.72395000  1.0
  Cl  Cl68  1  0.82325000  0.40893000  0.21251000  1.0
  Cl  Cl69  1  0.82316000  0.25773000  0.45416000  1.0
  Cl  Cl70  1  0.82326000  0.71250000  0.37855000  1.0
  Cl  Cl71  1  0.82325000  0.95416000  0.28812000  1.0
  Cl  Cl72  1  0.82316000  0.87859000  0.90890000  1.0
  Cl  Cl73  1  0.82318000  0.78809000  0.75775000  1.0
  O  O74  1  0.74532000  0.99234000  0.44898000  1.0
  O  O75  1  0.74537000  0.94895000  0.55869000  1.0
  O  O76  1  0.74536000  0.05867000  0.49235000  1.0
  O  O77  1  0.27580000  0.94881000  0.49320000  1.0
  O  O78  1  0.27582000  0.05797000  0.44884000  1.0
  O  O79  1  0.27583000  0.99318000  0.55798000  1.0
  O  O80  1  0.74546000  0.71773000  0.10796000  1.0
  O  O81  1  0.74549000  0.60800000  0.17431000  1.0
  O  O82  1  0.74542000  0.67433000  0.21768000  1.0
  O  O83  1  0.27595000  0.67349000  0.10868000  1.0
  O  O84  1  0.27591000  0.71786000  0.17346000  1.0
  O  O85  1  0.27597000  0.60870000  0.21783000  1.0
