# generated using pymatgen
data_AlH8C15O6F
_symmetry_space_group_name_H-M   'P 1'
_cell_length_a   6.68033000
_cell_length_b   15.22230000
_cell_length_c   17.77010000
_cell_angle_alpha   88.62920000
_cell_angle_beta   80.32460000
_cell_angle_gamma   78.76110000
_symmetry_Int_Tables_number   1
_chemical_formula_structural   AlH8C15O6F
_chemical_formula_sum   'Al2 H16 C30 O12 F2'
_cell_volume   1747.10385853
_cell_formula_units_Z   2
loop_
 _symmetry_equiv_pos_site_id
 _symmetry_equiv_pos_as_xyz
  1  'x, y, z'
loop_
 _atom_site_type_symbol
 _atom_site_label
 _atom_site_symmetry_multiplicity
 _atom_site_fract_x
 _atom_site_fract_y
 _atom_site_fract_z
 _atom_site_occupancy
  Al  Al0  1  0.50000000  0.50001000  0.50000000  1.0
  Al  Al1  1  0.00001000  0.50000000  0.49999000  1.0
  H  H2  1  0.24332000  0.43171000  0.58066000  1.0
  H  H3  1  0.75671000  0.56830000  0.41933000  1.0
  H  H4  1  0.67795000  0.46324000  0.27152000  1.0
  H  H5  1  0.75730000  0.45793000  0.12939000  1.0
  H  H6  1  0.10426000  0.54720000  0.12260000  1.0
  H  H7  1  0.89588000  0.45292000  0.87737000  1.0
  H  H8  1  0.32207000  0.53672000  0.72848000  1.0
  H  H9  1  0.24277000  0.54201000  0.87061000  1.0
  H  H10  1  0.70257000  0.93367000  0.52275000  1.0
  H  H11  1  0.29738000  0.06629000  0.47709000  1.0
  H  H12  1  0.56782000  0.22475000  0.49913000  1.0
  H  H13  1  0.64134000  0.06198000  0.50971000  1.0
  H  H14  1  0.43211000  0.77528000  0.50102000  1.0
  H  H15  1  0.35853000  0.93805000  0.49049000  1.0
  H  H16  1  0.80323000  0.70049000  0.53516000  1.0
  H  H17  1  0.19679000  0.29947000  0.46473000  1.0
  C  C18  1  0.83525000  0.33751000  0.48372000  1.0
  C  C19  1  0.68526000  0.49480000  0.63755000  1.0
  C  C20  1  0.16474000  0.66248000  0.51629000  1.0
  C  C21  1  0.31477000  0.50521000  0.36244000  1.0
  C  C22  1  0.35063000  0.50533000  0.27747000  1.0
  C  C23  1  0.55435000  0.48057000  0.23776000  1.0
  C  C24  1  0.59851000  0.47804000  0.15878000  1.0
  C  C25  1  0.43720000  0.50170000  0.11548000  1.0
  C  C26  1  0.23227000  0.52735000  0.15401000  1.0
  C  C27  1  0.19278000  0.52841000  0.23315000  1.0
  C  C28  1  0.48036000  0.50049000  0.03481000  1.0
  C  C29  1  0.51978000  0.49955000  0.96518000  1.0
  C  C30  1  0.56290000  0.49834000  0.88451000  1.0
  C  C31  1  0.76783000  0.47275000  0.84597000  1.0
  C  C32  1  0.80730000  0.47168000  0.76683000  1.0
  C  C33  1  0.64941000  0.49470000  0.72252000  1.0
  C  C34  1  0.44568000  0.51942000  0.76224000  1.0
  C  C35  1  0.40157000  0.52195000  0.84122000  1.0
  C  C36  1  0.11386000  0.76077000  0.51618000  1.0
  C  C37  1  0.88609000  0.23923000  0.48385000  1.0
  C  C38  1  0.90593000  0.80796000  0.52341000  1.0
  C  C39  1  0.86468000  0.90139000  0.51725000  1.0
  C  C40  1  0.09402000  0.19202000  0.47654000  1.0
  C  C41  1  0.13526000  0.09859000  0.48269000  1.0
  C  C42  1  0.72729000  0.18935000  0.49512000  1.0
  C  C43  1  0.77026000  0.09711000  0.50079000  1.0
  C  C44  1  0.27264000  0.81066000  0.50498000  1.0
  C  C45  1  0.22964000  0.90291000  0.49932000  1.0
  C  C46  1  0.02354000  0.95060000  0.50422000  1.0
  C  C47  1  0.97637000  0.04940000  0.49582000  1.0
  O  O48  1  0.64677000  0.37725000  0.49473000  1.0
  O  O49  1  0.87090000  0.48439000  0.60251000  1.0
  O  O50  1  0.00994000  0.62091000  0.52564000  1.0
  O  O51  1  0.47514000  0.49425000  0.39427000  1.0
  O  O52  1  0.35324000  0.62276000  0.50529000  1.0
  O  O53  1  0.12911000  0.51561000  0.39747000  1.0
  O  O54  1  0.99007000  0.37908000  0.47434000  1.0
  O  O55  1  0.52487000  0.50576000  0.60573000  1.0
  O  O56  1  0.25554000  0.45677000  0.52974000  1.0
  O  O57  1  0.74448000  0.54322000  0.47025000  1.0
  O  O58  1  0.74278000  0.76620000  0.53549000  1.0
  O  O59  1  0.25722000  0.23376000  0.46439000  1.0
  F  F60  1  0.99158000  0.55456000  0.26639000  1.0
  F  F61  1  0.00851000  0.44559000  0.73358000  1.0
