# generated using pymatgen
data_ZnH11C20(NO2)2
_symmetry_space_group_name_H-M   'P 1'
_cell_length_a   7.68125000
_cell_length_b   10.33730000
_cell_length_c   10.78110000
_cell_angle_alpha   114.48600000
_cell_angle_beta   91.05960000
_cell_angle_gamma   90.15120000
_symmetry_Int_Tables_number   1
_chemical_formula_structural   ZnH11C20(NO2)2
_chemical_formula_sum   'Zn2 H22 C40 N4 O8'
_cell_volume   778.88121916
_cell_formula_units_Z   2
loop_
 _symmetry_equiv_pos_site_id
 _symmetry_equiv_pos_as_xyz
  1  'x, y, z'
loop_
 _atom_site_type_symbol
 _atom_site_label
 _atom_site_symmetry_multiplicity
 _atom_site_fract_x
 _atom_site_fract_y
 _atom_site_fract_z
 _atom_site_occupancy
  Zn  Zn0  1  0.97127000  0.53893000  0.69511000  1.0
  Zn  Zn1  1  0.02873000  0.46107000  0.30489000  1.0
  H  H2  1  0.87132000  0.86679000  0.86337000  1.0
  H  H3  1  0.12868000  0.13321000  0.13663000  1.0
  H  H4  1  0.69565000  0.00575000  0.07532000  1.0
  H  H5  1  0.30435000  0.99426000  0.92468000  1.0
  H  H6  1  0.58135000  0.87903000  0.21004000  1.0
  H  H7  1  0.41865000  0.12098000  0.78995000  1.0
  H  H8  1  0.56517000  0.64963000  0.24476000  1.0
  H  H9  1  0.43484000  0.35037000  0.75524000  1.0
  H  H10  1  0.62688000  0.39258000  0.15839000  1.0
  H  H11  1  0.37312000  0.60742000  0.84161000  1.0
  H  H12  1  0.74589000  0.17038000  0.97380000  1.0
  H  H13  1  0.25411000  0.82962000  0.02620000  1.0
  H  H14  1  0.89520000  0.05607000  0.74728000  1.0
  H  H15  1  0.10480000  0.94394000  0.25271000  1.0
  H  H16  1  0.98350000  0.21199000  0.63058000  1.0
  H  H17  1  0.01650000  0.78801000  0.36942000  1.0
  H  H18  1  0.45711000  0.62627000  0.63307000  1.0
  H  H19  1  0.54288000  0.37374000  0.36693000  1.0
  H  H20  1  0.22309000  0.97864000  0.58685000  1.0
  H  H21  1  0.77690000  0.02135000  0.41315000  1.0
  H  H22  1  0.75087000  0.85536000  0.45575000  1.0
  H  H23  1  0.24914000  0.14464000  0.54425000  1.0
  C  C24  1  0.81564000  0.81716000  0.92608000  1.0
  C  C25  1  0.18436000  0.18284000  0.07392000  1.0
  C  C26  1  0.71874000  0.89266000  0.04332000  1.0
  C  C27  1  0.28127000  0.10735000  0.95668000  1.0
  C  C28  1  0.65607000  0.82254000  0.11859000  1.0
  C  C29  1  0.34393000  0.17746000  0.88141000  1.0
  C  C30  1  0.68977000  0.67651000  0.07708000  1.0
  C  C31  1  0.31023000  0.32349000  0.92293000  1.0
  C  C32  1  0.63358000  0.59544000  0.14949000  1.0
  C  C33  1  0.36642000  0.40456000  0.85052000  1.0
  C  C34  1  0.66616000  0.45326000  0.10140000  1.0
  C  C35  1  0.33384000  0.54675000  0.89860000  1.0
  C  C36  1  0.75431000  0.38022000  0.97570000  1.0
  C  C37  1  0.24570000  0.61978000  0.02430000  1.0
  C  C38  1  0.78576000  0.23253000  0.91827000  1.0
  C  C39  1  0.21424000  0.76747000  0.08173000  1.0
  C  C40  1  0.86672000  0.16945000  0.79394000  1.0
  C  C41  1  0.13328000  0.83055000  0.20606000  1.0
  C  C42  1  0.91864000  0.25547000  0.72829000  1.0
  C  C43  1  0.08136000  0.74454000  0.27171000  1.0
  C  C44  1  0.78331000  0.60841000  0.95508000  1.0
  C  C45  1  0.21669000  0.39159000  0.04492000  1.0
  C  C46  1  0.81260000  0.45769000  0.90214000  1.0
  C  C47  1  0.18740000  0.54231000  0.09786000  1.0
  C  C48  1  0.76552000  0.63073000  0.51630000  1.0
  C  C49  1  0.23448000  0.36927000  0.48370000  1.0
  C  C50  1  0.61715000  0.73178000  0.54063000  1.0
  C  C51  1  0.38285000  0.26821000  0.45937000  1.0
  C  C52  1  0.46615000  0.71311000  0.60161000  1.0
  C  C53  1  0.53385000  0.28688000  0.39839000  1.0
  C  C54  1  0.32488000  0.80309000  0.61719000  1.0
  C  C55  1  0.67511000  0.19690000  0.38281000  1.0
  C  C56  1  0.15759000  0.78115000  0.67791000  1.0
  C  C57  1  0.84241000  0.21885000  0.32209000  1.0
  C  C58  1  0.33792000  0.91317000  0.57450000  1.0
  C  C59  1  0.66207000  0.08683000  0.42550000  1.0
  C  C60  1  0.49186000  0.93901000  0.51912000  1.0
  C  C61  1  0.50813000  0.06099000  0.48088000  1.0
  C  C62  1  0.62954000  0.84411000  0.50092000  1.0
  C  C63  1  0.37045000  0.15589000  0.49908000  1.0
  N  N64  1  0.84520000  0.67869000  0.88355000  1.0
  N  N65  1  0.15480000  0.32132000  0.11646000  1.0
  N  N66  1  0.89402000  0.39544000  0.78139000  1.0
  N  N67  1  0.10598000  0.60456000  0.21861000  1.0
  O  O68  1  0.76867000  0.55633000  0.58569000  1.0
  O  O69  1  0.23132000  0.44367000  0.41431000  1.0
  O  O70  1  0.87429000  0.62539000  0.42713000  1.0
  O  O71  1  0.12570000  0.37460000  0.57286000  1.0
  O  O72  1  0.16279000  0.67896000  0.71780000  1.0
  O  O73  1  0.83720000  0.32104000  0.28221000  1.0
  O  O74  1  0.03053000  0.86017000  0.68746000  1.0
  O  O75  1  0.96946000  0.13983000  0.31253000  1.0
