# generated using pymatgen
data_ErH26C30(NO3)2
_symmetry_space_group_name_H-M   'P 1'
_cell_length_a   9.36786000
_cell_length_b   13.14920000
_cell_length_c   16.31340000
_cell_angle_alpha   112.80700000
_cell_angle_beta   99.35810000
_cell_angle_gamma   91.65840000
_symmetry_Int_Tables_number   1
_chemical_formula_structural   ErH26C30(NO3)2
_chemical_formula_sum   'Er2 H52 C60 N4 O12'
_cell_volume   1818.35215801
_cell_formula_units_Z   2
loop_
 _symmetry_equiv_pos_site_id
 _symmetry_equiv_pos_as_xyz
  1  'x, y, z'
loop_
 _atom_site_type_symbol
 _atom_site_label
 _atom_site_symmetry_multiplicity
 _atom_site_fract_x
 _atom_site_fract_y
 _atom_site_fract_z
 _atom_site_occupancy
  Er  Er0  1  0.08584000  0.46099000  0.15726000  1.0
  Er  Er1  1  0.91416000  0.53901000  0.84273000  1.0
  H  H2  1  0.35854000  0.23419000  0.96013000  1.0
  H  H3  1  0.64145000  0.76581000  0.03987000  1.0
  H  H4  1  0.39502000  0.22337000  0.85402000  1.0
  H  H5  1  0.60498000  0.77663000  0.14599000  1.0
  H  H6  1  0.23345000  0.27662000  0.88965000  1.0
  H  H7  1  0.76656000  0.72339000  0.11035000  1.0
  H  H8  1  0.32635000  0.73288000  0.00619000  1.0
  H  H9  1  0.67366000  0.26712000  0.99381000  1.0
  H  H10  1  0.37669000  0.75252000  0.12110000  1.0
  H  H11  1  0.62331000  0.24748000  0.87890000  1.0
  H  H12  1  0.21779000  0.66566000  0.05240000  1.0
  H  H13  1  0.78222000  0.33434000  0.94760000  1.0
  H  H14  1  0.11742000  0.19623000  0.22124000  1.0
  H  H15  1  0.88256000  0.80378000  0.77877000  1.0
  H  H16  1  0.19373000  0.07344000  0.21864000  1.0
  H  H17  1  0.80626000  0.92655000  0.78137000  1.0
  H  H18  1  0.01102000  0.08934000  0.23156000  1.0
  H  H19  1  0.98897000  0.91066000  0.76844000  1.0
  H  H20  1  0.99269000  0.22228000  0.93328000  1.0
  H  H21  1  0.00731000  0.77773000  0.06673000  1.0
  H  H22  1  0.84883000  0.12384000  0.85681000  1.0
  H  H23  1  0.15117000  0.87616000  0.14318000  1.0
  H  H24  1  0.02931000  0.10734000  0.83985000  1.0
  H  H25  1  0.97070000  0.89266000  0.16015000  1.0
  H  H26  1  0.87290000  0.31760000  0.27515000  1.0
  H  H27  1  0.12709000  0.68240000  0.72485000  1.0
  H  H28  1  0.73103000  0.30990000  0.33318000  1.0
  H  H29  1  0.26896000  0.69010000  0.66682000  1.0
  H  H30  1  0.88212000  0.23371000  0.33813000  1.0
  H  H31  1  0.11787000  0.76629000  0.66187000  1.0
  H  H32  1  0.31139000  0.64847000  0.49689000  1.0
  H  H33  1  0.68861000  0.35152000  0.50310000  1.0
  H  H34  1  0.18758000  0.74898000  0.53115000  1.0
  H  H35  1  0.81241000  0.25102000  0.46885000  1.0
  H  H36  1  0.17486000  0.66338000  0.41478000  1.0
  H  H37  1  0.82513000  0.33661000  0.58521000  1.0
  H  H38  1  0.40787000  0.36135000  0.13855000  1.0
  H  H39  1  0.59214000  0.63866000  0.86146000  1.0
  H  H40  1  0.67900000  0.41626000  0.18944000  1.0
  H  H41  1  0.32101000  0.58375000  0.81057000  1.0
  H  H42  1  0.76816000  0.61052000  0.28609000  1.0
  H  H43  1  0.23185000  0.38949000  0.71391000  1.0
  H  H44  1  0.70843000  0.80929000  0.36289000  1.0
  H  H45  1  0.29157000  0.19072000  0.63712000  1.0
  H  H46  1  0.52441000  0.94383000  0.40181000  1.0
  H  H47  1  0.47559000  0.05618000  0.59819000  1.0
  H  H48  1  0.26064000  0.98018000  0.39315000  1.0
  H  H49  1  0.73936000  0.01983000  0.60686000  1.0
  H  H50  1  0.99790000  0.90415000  0.33481000  1.0
  H  H51  1  0.00209000  0.09585000  0.66519000  1.0
  H  H52  1  0.93801000  0.70081000  0.23698000  1.0
  H  H53  1  0.06200000  0.29919000  0.76302000  1.0
  C  C54  1  0.18641000  0.46675000  0.96545000  1.0
  C  C55  1  0.81359000  0.53324000  0.03454000  1.0
  C  C56  1  0.34993000  0.48439000  0.98348000  1.0
  C  C57  1  0.65006000  0.51561000  0.01652000  1.0
  C  C58  1  0.42807000  0.39101000  0.95701000  1.0
  C  C59  1  0.57192000  0.60899000  0.04300000  1.0
  C  C60  1  0.34984000  0.27575000  0.91274000  1.0
  C  C61  1  0.65016000  0.72426000  0.08726000  1.0
  C  C62  1  0.41892000  0.59302000  0.02622000  1.0
  C  C63  1  0.58107000  0.40698000  0.97378000  1.0
  C  C64  1  0.33068000  0.69057000  0.05289000  1.0
  C  C65  1  0.66933000  0.30944000  0.94711000  1.0
  C  C66  1  0.05015000  0.23765000  0.08774000  1.0
  C  C67  1  0.94984000  0.76235000  0.91225000  1.0
  C  C68  1  0.02493000  0.11401000  0.04244000  1.0
  C  C69  1  0.97507000  0.88599000  0.95756000  1.0
  C  C70  1  0.04566000  0.05134000  0.09536000  1.0
  C  C71  1  0.95432000  0.94865000  0.90464000  1.0
  C  C72  1  0.09435000  0.10605000  0.19661000  1.0
  C  C73  1  0.90563000  0.89395000  0.80340000  1.0
  C  C74  1  0.98037000  0.06483000  0.94796000  1.0
  C  C75  1  0.01963000  0.93517000  0.05204000  1.0
  C  C76  1  0.96200000  0.13366000  0.89244000  1.0
  C  C77  1  0.03800000  0.86634000  0.10756000  1.0
  C  C78  1  0.04720000  0.48045000  0.32484000  1.0
  C  C79  1  0.95280000  0.51955000  0.67515000  1.0
  C  C80  1  0.02265000  0.48960000  0.41578000  1.0
  C  C81  1  0.97733000  0.51039000  0.58421000  1.0
  C  C82  1  0.92681000  0.40933000  0.42133000  1.0
  C  C83  1  0.07320000  0.59066000  0.57867000  1.0
  C  C84  1  0.84970000  0.31334000  0.33753000  1.0
  C  C85  1  0.15030000  0.68666000  0.66247000  1.0
  C  C86  1  0.09565000  0.58012000  0.49265000  1.0
  C  C87  1  0.90435000  0.41987000  0.50734000  1.0
  C  C88  1  0.19701000  0.66451000  0.48323000  1.0
  C  C89  1  0.80299000  0.33548000  0.51677000  1.0
  C  C90  1  0.45150000  0.44728000  0.17955000  1.0
  C  C91  1  0.54851000  0.55273000  0.82045000  1.0
  C  C92  1  0.60196000  0.47788000  0.20870000  1.0
  C  C93  1  0.39804000  0.52212000  0.79130000  1.0
  C  C94  1  0.65158000  0.58745000  0.26195000  1.0
  C  C95  1  0.34843000  0.41254000  0.73805000  1.0
  C  C96  1  0.55031000  0.66645000  0.28484000  1.0
  C  C97  1  0.44971000  0.33355000  0.71516000  1.0
  C  C98  1  0.59250000  0.78195000  0.33891000  1.0
  C  C99  1  0.40751000  0.21805000  0.66110000  1.0
  C  C100  1  0.49123000  0.85599000  0.36067000  1.0
  C  C101  1  0.50877000  0.14401000  0.63934000  1.0
  C  C102  1  0.33914000  0.81996000  0.32984000  1.0
  C  C103  1  0.66087000  0.18004000  0.67017000  1.0
  C  C104  1  0.22961000  0.89214000  0.35156000  1.0
  C  C105  1  0.77039000  0.10787000  0.64844000  1.0
  C  C106  1  0.08496000  0.85059000  0.31951000  1.0
  C  C107  1  0.91505000  0.14942000  0.68049000  1.0
  C  C108  1  0.05032000  0.73714000  0.26475000  1.0
  C  C109  1  0.94969000  0.26287000  0.73525000  1.0
  C  C110  1  0.29355000  0.70606000  0.27483000  1.0
  C  C111  1  0.70645000  0.29394000  0.72517000  1.0
  C  C112  1  0.40047000  0.62811000  0.25208000  1.0
  C  C113  1  0.59953000  0.37189000  0.74793000  1.0
  N  N114  1  0.35297000  0.51993000  0.20055000  1.0
  N  N115  1  0.64705000  0.48008000  0.79946000  1.0
  N  N116  1  0.15103000  0.66692000  0.24282000  1.0
  N  N117  1  0.84896000  0.33307000  0.75717000  1.0
  O  O118  1  0.12591000  0.44419000  0.02135000  1.0
  O  O119  1  0.87407000  0.55580000  0.97863000  1.0
  O  O120  1  0.11810000  0.47332000  0.89407000  1.0
  O  O121  1  0.88190000  0.52667000  0.10592000  1.0
  O  O122  1  0.17773000  0.28615000  0.10378000  1.0
  O  O123  1  0.82227000  0.71384000  0.89621000  1.0
  O  O124  1  0.94207000  0.29401000  0.10867000  1.0
  O  O125  1  0.05793000  0.70599000  0.89133000  1.0
  O  O126  1  0.95371000  0.51427000  0.27718000  1.0
  O  O127  1  0.04629000  0.48573000  0.72282000  1.0
  O  O128  1  0.16067000  0.44082000  0.29570000  1.0
  O  O129  1  0.83933000  0.55918000  0.70430000  1.0
