# generated using pymatgen
data_NdH8C7NO8
_symmetry_space_group_name_H-M   'P 1'
_cell_length_a   7.74465000
_cell_length_b   9.25787000
_cell_length_c   15.54970000
_cell_angle_alpha   100.52600000
_cell_angle_beta   89.99960000
_cell_angle_gamma   89.99870000
_symmetry_Int_Tables_number   1
_chemical_formula_structural   NdH8C7NO8
_chemical_formula_sum   'Nd4 H32 C28 N4 O32'
_cell_volume   1096.13599332
_cell_formula_units_Z   4
loop_
 _symmetry_equiv_pos_site_id
 _symmetry_equiv_pos_as_xyz
  1  'x, y, z'
loop_
 _atom_site_type_symbol
 _atom_site_label
 _atom_site_symmetry_multiplicity
 _atom_site_fract_x
 _atom_site_fract_y
 _atom_site_fract_z
 _atom_site_occupancy
  Nd  Nd0  1  0.17474000  0.98780000  0.74652000  1.0
  Nd  Nd1  1  0.67473000  0.51221000  0.75348000  1.0
  Nd  Nd2  1  0.82526000  0.01220000  0.25348000  1.0
  Nd  Nd3  1  0.32527000  0.48780000  0.24652000  1.0
  H  H4  1  0.45542000  0.98659000  0.59054000  1.0
  H  H5  1  0.95539000  0.51348000  0.90949000  1.0
  H  H6  1  0.54459000  0.01345000  0.40947000  1.0
  H  H7  1  0.04461000  0.48653000  0.09052000  1.0
  H  H8  1  0.31707000  0.09475000  0.56525000  1.0
  H  H9  1  0.81706000  0.40529000  0.93476000  1.0
  H  H10  1  0.68293000  0.90527000  0.43475000  1.0
  H  H11  1  0.18295000  0.59471000  0.06524000  1.0
  H  H12  1  0.91969000  0.14813000  0.89788000  1.0
  H  H13  1  0.41968000  0.35188000  0.60212000  1.0
  H  H14  1  0.08030000  0.85186000  0.10212000  1.0
  H  H15  1  0.58032000  0.64812000  0.39787000  1.0
  H  H16  1  0.87832000  0.17966000  0.80058000  1.0
  H  H17  1  0.37831000  0.32035000  0.69943000  1.0
  H  H18  1  0.12167000  0.82033000  0.19941000  1.0
  H  H19  1  0.62169000  0.67965000  0.30057000  1.0
  H  H20  1  0.50859000  0.84602000  0.78642000  1.0
  H  H21  1  0.00859000  0.65398000  0.71357000  1.0
  H  H22  1  0.49141000  0.15399000  0.21358000  1.0
  H  H23  1  0.99141000  0.34601000  0.28643000  1.0
  H  H24  1  0.51661000  0.82022000  0.68615000  1.0
  H  H25  1  0.01661000  0.67976000  0.81384000  1.0
  H  H26  1  0.48339000  0.17978000  0.31385000  1.0
  H  H27  1  0.98340000  0.32023000  0.18616000  1.0
  H  H28  1  0.48634000  0.38036000  0.01479000  1.0
  H  H29  1  0.98636000  0.11964000  0.48521000  1.0
  H  H30  1  0.51366000  0.61965000  0.98521000  1.0
  H  H31  1  0.01364000  0.88035000  0.51479000  1.0
  H  H32  1  0.27011000  0.00700000  0.10724000  1.0
  H  H33  1  0.77013000  0.49300000  0.39275000  1.0
  H  H34  1  0.72989000  0.99300000  0.89276000  1.0
  H  H35  1  0.22988000  0.50699000  0.60725000  1.0
  C  C36  1  0.39970000  0.28169000  0.84284000  1.0
  C  C37  1  0.89971000  0.21831000  0.65717000  1.0
  C  C38  1  0.60030000  0.71831000  0.15717000  1.0
  C  C39  1  0.10030000  0.78170000  0.34283000  1.0
  C  C40  1  0.37252000  0.20786000  0.91984000  1.0
  C  C41  1  0.87253000  0.29214000  0.58016000  1.0
  C  C42  1  0.62747000  0.79214000  0.08016000  1.0
  C  C43  1  0.12747000  0.70785000  0.41984000  1.0
  C  C44  1  0.42201000  0.27416000  0.00326000  1.0
  C  C45  1  0.92202000  0.22583000  0.49674000  1.0
  C  C46  1  0.57798000  0.72583000  0.99674000  1.0
  C  C47  1  0.07797000  0.77417000  0.50326000  1.0
  C  C48  1  0.38237000  0.20396000  0.07420000  1.0
  C  C49  1  0.88240000  0.29603000  0.42580000  1.0
  C  C50  1  0.61762000  0.79603000  0.92580000  1.0
  C  C51  1  0.11761000  0.70397000  0.57420000  1.0
  C  C52  1  0.30177000  0.06447000  0.05424000  1.0
  C  C53  1  0.80179000  0.43552000  0.44575000  1.0
  C  C54  1  0.69822000  0.93553000  0.94576000  1.0
  C  C55  1  0.19822000  0.56447000  0.55424000  1.0
  C  C56  1  0.25847000  0.00592000  0.96825000  1.0
  C  C57  1  0.75848000  0.49408000  0.53175000  1.0
  C  C58  1  0.74153000  0.99408000  0.03175000  1.0
  C  C59  1  0.24152000  0.50592000  0.46825000  1.0
  C  C60  1  0.16574000  0.86027000  0.94119000  1.0
  C  C61  1  0.66574000  0.63973000  0.55880000  1.0
  C  C62  1  0.83427000  0.13973000  0.05880000  1.0
  C  C63  1  0.33425000  0.36025000  0.44120000  1.0
  N  N64  1  0.29175000  0.07691000  0.90164000  1.0
  N  N65  1  0.79175000  0.42309000  0.59836000  1.0
  N  N66  1  0.70825000  0.92309000  0.09836000  1.0
  N  N67  1  0.20825000  0.57691000  0.40164000  1.0
  O  O68  1  0.31804000  0.22721000  0.77245000  1.0
  O  O69  1  0.81804000  0.27281000  0.72755000  1.0
  O  O70  1  0.68195000  0.77280000  0.22755000  1.0
  O  O71  1  0.18199000  0.72720000  0.27245000  1.0
  O  O72  1  0.49816000  0.39208000  0.85062000  1.0
  O  O73  1  0.99815000  0.10793000  0.64938000  1.0
  O  O74  1  0.50185000  0.60792000  0.14938000  1.0
  O  O75  1  0.00184000  0.89206000  0.35062000  1.0
  O  O76  1  0.12826000  0.82765000  0.85930000  1.0
  O  O77  1  0.62823000  0.67235000  0.64068000  1.0
  O  O78  1  0.87176000  0.17235000  0.14069000  1.0
  O  O79  1  0.37175000  0.32764000  0.35931000  1.0
  O  O80  1  0.12935000  0.78073000  0.99651000  1.0
  O  O81  1  0.62936000  0.71926000  0.50348000  1.0
  O  O82  1  0.87064000  0.21926000  0.00349000  1.0
  O  O83  1  0.37064000  0.28074000  0.49652000  1.0
  O  O84  1  0.41837000  0.26588000  0.15520000  1.0
  O  O85  1  0.91839000  0.23410000  0.34480000  1.0
  O  O86  1  0.58161000  0.73412000  0.84481000  1.0
  O  O87  1  0.08162000  0.76588000  0.65519000  1.0
  O  O88  1  0.33466000  0.01536000  0.59812000  1.0
  O  O89  1  0.83466000  0.48465000  0.90187000  1.0
  O  O90  1  0.66534000  0.98465000  0.40187000  1.0
  O  O91  1  0.16534000  0.51537000  0.09814000  1.0
  O  O92  1  0.93844000  0.11122000  0.83411000  1.0
  O  O93  1  0.43843000  0.38880000  0.66590000  1.0
  O  O94  1  0.06156000  0.88876000  0.16588000  1.0
  O  O95  1  0.56158000  0.61120000  0.33410000  1.0
  O  O96  1  0.46410000  0.89074000  0.73604000  1.0
  O  O97  1  0.96409000  0.60925000  0.76394000  1.0
  O  O98  1  0.53591000  0.10927000  0.26395000  1.0
  O  O99  1  0.03592000  0.39075000  0.23606000  1.0
