# generated using pymatgen
data_ZnH11C14NO5
_symmetry_space_group_name_H-M   'P 1'
_cell_length_a   11.76770000
_cell_length_b   11.76770000
_cell_length_c   14.11940000
_cell_angle_alpha   69.28920000
_cell_angle_beta   69.28920000
_cell_angle_gamma   69.90690000
_symmetry_Int_Tables_number   1
_chemical_formula_structural   ZnH11C14NO5
_chemical_formula_sum   'Zn4 H44 C56 N4 O20'
_cell_volume   1656.50424825
_cell_formula_units_Z   4
loop_
 _symmetry_equiv_pos_site_id
 _symmetry_equiv_pos_as_xyz
  1  'x, y, z'
loop_
 _atom_site_type_symbol
 _atom_site_label
 _atom_site_symmetry_multiplicity
 _atom_site_fract_x
 _atom_site_fract_y
 _atom_site_fract_z
 _atom_site_occupancy
  Zn  Zn0  1  0.36821000  0.99702000  0.03992000  1.0
  Zn  Zn1  1  0.99702000  0.36821000  0.53992000  1.0
  Zn  Zn2  1  0.63179000  0.00297000  0.96008000  1.0
  Zn  Zn3  1  0.00298000  0.63179000  0.46008000  1.0
  H  H4  1  0.23747000  0.79334000  0.12864000  1.0
  H  H5  1  0.79334000  0.23748000  0.62864000  1.0
  H  H6  1  0.76252000  0.20666000  0.87136000  1.0
  H  H7  1  0.20666000  0.76253000  0.37136000  1.0
  H  H8  1  0.01742000  0.76990000  0.19996000  1.0
  H  H9  1  0.76990000  0.01742000  0.69995000  1.0
  H  H10  1  0.98258000  0.23010000  0.80005000  1.0
  H  H11  1  0.23010000  0.98258000  0.30005000  1.0
  H  H12  1  0.89339000  0.17556000  0.09910000  1.0
  H  H13  1  0.17556000  0.89339000  0.59910000  1.0
  H  H14  1  0.10661000  0.82444000  0.90091000  1.0
  H  H15  1  0.82444000  0.10662000  0.40091000  1.0
  H  H16  1  0.11811000  0.18069000  0.03535000  1.0
  H  H17  1  0.18069000  0.11811000  0.53535000  1.0
  H  H18  1  0.88189000  0.81931000  0.96465000  1.0
  H  H19  1  0.81931000  0.88189000  0.46465000  1.0
  H  H20  1  0.48241000  0.44791000  0.39173000  1.0
  H  H21  1  0.44791000  0.48241000  0.89173000  1.0
  H  H22  1  0.51759000  0.55209000  0.60827000  1.0
  H  H23  1  0.55210000  0.51759000  0.10827000  1.0
  H  H24  1  0.73343000  0.76345000  0.26861000  1.0
  H  H25  1  0.76346000  0.73342000  0.76861000  1.0
  H  H26  1  0.26658000  0.23654000  0.73139000  1.0
  H  H27  1  0.23655000  0.26658000  0.23139000  1.0
  H  H28  1  0.41674000  0.65918000  0.27166000  1.0
  H  H29  1  0.65918000  0.41674000  0.77166000  1.0
  H  H30  1  0.58326000  0.34082000  0.72834000  1.0
  H  H31  1  0.34082000  0.58326000  0.22834000  1.0
  H  H32  1  0.66922000  0.40250000  0.45769000  1.0
  H  H33  1  0.40251000  0.66922000  0.95769000  1.0
  H  H34  1  0.33078000  0.59749000  0.54231000  1.0
  H  H35  1  0.59750000  0.33078000  0.04231000  1.0
  H  H36  1  0.71922000  0.12264000  0.23891000  1.0
  H  H37  1  0.12264000  0.71922000  0.73891000  1.0
  H  H38  1  0.28078000  0.87736000  0.76110000  1.0
  H  H39  1  0.87736000  0.28078000  0.26110000  1.0
  H  H40  1  0.63247000  0.02723000  0.23216000  1.0
  H  H41  1  0.02723000  0.63247000  0.73216000  1.0
  H  H42  1  0.36753000  0.97277000  0.76784000  1.0
  H  H43  1  0.97277000  0.36753000  0.26784000  1.0
  H  H44  1  0.71560000  0.11647000  0.11378000  1.0
  H  H45  1  0.11647000  0.71560000  0.61378000  1.0
  H  H46  1  0.28440000  0.88353000  0.88622000  1.0
  H  H47  1  0.88353000  0.28441000  0.38622000  1.0
  C  C48  1  0.15792000  0.87513000  0.12391000  1.0
  C  C49  1  0.87513000  0.15793000  0.62391000  1.0
  C  C50  1  0.84207000  0.12487000  0.87609000  1.0
  C  C51  1  0.12487000  0.84207000  0.37609000  1.0
  C  C52  1  0.03639000  0.86217000  0.16227000  1.0
  C  C53  1  0.86217000  0.03639000  0.66227000  1.0
  C  C54  1  0.96361000  0.13783000  0.83773000  1.0
  C  C55  1  0.13783000  0.96361000  0.33773000  1.0
  C  C56  1  0.93720000  0.97105000  0.15608000  1.0
  C  C57  1  0.97105000  0.93720000  0.65608000  1.0
  C  C58  1  0.06280000  0.02895000  0.84392000  1.0
  C  C59  1  0.02895000  0.06280000  0.34392000  1.0
  C  C60  1  0.96607000  0.08834000  0.10799000  1.0
  C  C61  1  0.08834000  0.96607000  0.60799000  1.0
  C  C62  1  0.03393000  0.91166000  0.89202000  1.0
  C  C63  1  0.91166000  0.03393000  0.39202000  1.0
  C  C64  1  0.09138000  0.09175000  0.07185000  1.0
  C  C65  1  0.09175000  0.09138000  0.57185000  1.0
  C  C66  1  0.90862000  0.90825000  0.92815000  1.0
  C  C67  1  0.90825000  0.90862000  0.42815000  1.0
  C  C68  1  0.53695000  0.51702000  0.36560000  1.0
  C  C69  1  0.51702000  0.53695000  0.86560000  1.0
  C  C70  1  0.46305000  0.48298000  0.63440000  1.0
  C  C71  1  0.48299000  0.46305000  0.13440000  1.0
  C  C72  1  0.53876000  0.83595000  0.17473000  1.0
  C  C73  1  0.83595000  0.53876000  0.67473000  1.0
  C  C74  1  0.46124000  0.16405000  0.82527000  1.0
  C  C75  1  0.16405000  0.46124000  0.32527000  1.0
  C  C76  1  0.57282000  0.72109000  0.25982000  1.0
  C  C77  1  0.72109000  0.57281000  0.75982000  1.0
  C  C78  1  0.42719000  0.27891000  0.74018000  1.0
  C  C79  1  0.27891000  0.42718000  0.24018000  1.0
  C  C80  1  0.81197000  0.55745000  0.41994000  1.0
  C  C81  1  0.55745000  0.81197000  0.91993000  1.0
  C  C82  1  0.18803000  0.44256000  0.58006000  1.0
  C  C83  1  0.44256000  0.18803000  0.08006000  1.0
  C  C84  1  0.70874000  0.58213000  0.37080000  1.0
  C  C85  1  0.58214000  0.70874000  0.87080000  1.0
  C  C86  1  0.29126000  0.41787000  0.62920000  1.0
  C  C87  1  0.41787000  0.29126000  0.12920000  1.0
  C  C88  1  0.67715000  0.69562000  0.29660000  1.0
  C  C89  1  0.69562000  0.67715000  0.79660000  1.0
  C  C90  1  0.32286000  0.30438000  0.70340000  1.0
  C  C91  1  0.30438000  0.32285000  0.20340000  1.0
  C  C92  1  0.50055000  0.63358000  0.29806000  1.0
  C  C93  1  0.63358000  0.50055000  0.79806000  1.0
  C  C94  1  0.49945000  0.36642000  0.70194000  1.0
  C  C95  1  0.36643000  0.49945000  0.20194000  1.0
  C  C96  1  0.64134000  0.49126000  0.40179000  1.0
  C  C97  1  0.49126000  0.64134000  0.90179000  1.0
  C  C98  1  0.35866000  0.50874000  0.59821000  1.0
  C  C99  1  0.50875000  0.35866000  0.09821000  1.0
  C  C100  1  0.71653000  0.06308000  0.19501000  1.0
  C  C101  1  0.06307000  0.71653000  0.69501000  1.0
  C  C102  1  0.28347000  0.93693000  0.80499000  1.0
  C  C103  1  0.93692000  0.28347000  0.30499000  1.0
  N  N104  1  0.18631000  0.98785000  0.08016000  1.0
  N  N105  1  0.98785000  0.18631000  0.58016000  1.0
  N  N106  1  0.81369000  0.01215000  0.91984000  1.0
  N  N107  1  0.01215000  0.81369000  0.41984000  1.0
  O  O108  1  0.42402000  0.87424000  0.17284000  1.0
  O  O109  1  0.87424000  0.42402000  0.67284000  1.0
  O  O110  1  0.57598000  0.12576000  0.82716000  1.0
  O  O111  1  0.12576000  0.57598000  0.32716000  1.0
  O  O112  1  0.62825000  0.88268000  0.10878000  1.0
  O  O113  1  0.88268000  0.62825000  0.60878000  1.0
  O  O114  1  0.37175000  0.11732000  0.89122000  1.0
  O  O115  1  0.11732000  0.37175000  0.39122000  1.0
  O  O116  1  0.84481000  0.44647000  0.47646000  1.0
  O  O117  1  0.44647000  0.84481000  0.97646000  1.0
  O  O118  1  0.15519000  0.55353000  0.52354000  1.0
  O  O119  1  0.55354000  0.15519000  0.02354000  1.0
  O  O120  1  0.85735000  0.64877000  0.40325000  1.0
  O  O121  1  0.64878000  0.85735000  0.90325000  1.0
  O  O122  1  0.14265000  0.35123000  0.59675000  1.0
  O  O123  1  0.35123000  0.14265000  0.09675000  1.0
  O  O124  1  0.82048000  0.95395000  0.19819000  1.0
  O  O125  1  0.95395000  0.82049000  0.69819000  1.0
  O  O126  1  0.17951000  0.04605000  0.80181000  1.0
  O  O127  1  0.04605000  0.17951000  0.30181000  1.0
