# generated using pymatgen
data_Zn3H16C32(NO3)4
_symmetry_space_group_name_H-M   'P 1'
_cell_length_a   21.84540000
_cell_length_b   21.84530000
_cell_length_c   24.70386902
_cell_angle_alpha   63.76961355
_cell_angle_beta   63.75149702
_cell_angle_gamma   90.00460000
_symmetry_Int_Tables_number   1
_chemical_formula_structural   Zn3H16C32(NO3)4
_chemical_formula_sum   'Zn6 H32 C64 N8 O24'
_cell_volume   9200.24894310
_cell_formula_units_Z   2
loop_
 _symmetry_equiv_pos_site_id
 _symmetry_equiv_pos_as_xyz
  1  'x, y, z'
loop_
 _atom_site_type_symbol
 _atom_site_label
 _atom_site_symmetry_multiplicity
 _atom_site_fract_x
 _atom_site_fract_y
 _atom_site_fract_z
 _atom_site_occupancy
  Zn  Zn0  1  0.44168000  0.99998000  0.00000000  1.0
  Zn  Zn1  1  0.99998000  0.44168000  0.00000000  1.0
  Zn  Zn2  1  0.55832000  0.00004000  0.00000000  1.0
  Zn  Zn3  1  0.00004000  0.55832000  0.00000000  1.0
  Zn  Zn4  1  0.53308000  0.53303000  0.93392000  1.0
  Zn  Zn5  1  0.46695000  0.46700000  0.06608000  1.0
  H  H6  1  0.41656000  0.86326000  0.34901000  1.0
  H  H7  1  0.78774000  0.41647000  0.34911000  1.0
  H  H8  1  0.23446000  0.78772000  0.34903000  1.0
  H  H9  1  0.86330000  0.23445000  0.34892000  1.0
  H  H10  1  0.58338000  0.21225000  0.65108000  1.0
  H  H11  1  0.21228000  0.76557000  0.65099000  1.0
  H  H12  1  0.76557000  0.13684000  0.65088000  1.0
  H  H13  1  0.13674000  0.58350000  0.65097000  1.0
  H  H14  1  0.60985000  0.23088000  0.92371000  1.0
  H  H15  1  0.84541000  0.60995000  0.92373000  1.0
  H  H16  1  0.46634000  0.84546000  0.92378000  1.0
  H  H17  1  0.23081000  0.46624000  0.92375000  1.0
  H  H18  1  0.38999000  0.15456000  0.07625000  1.0
  H  H19  1  0.15459000  0.53356000  0.07629000  1.0
  H  H20  1  0.53368000  0.76914000  0.07627000  1.0
  H  H21  1  0.76924000  0.39012000  0.07623000  1.0
  H  H22  1  0.60854000  0.34738000  0.92022000  1.0
  H  H23  1  0.73240000  0.60857000  0.92021000  1.0
  H  H24  1  0.47120000  0.73252000  0.92013000  1.0
  H  H25  1  0.34741000  0.47117000  0.92011000  1.0
  H  H26  1  0.39128000  0.26752000  0.07989000  1.0
  H  H27  1  0.26759000  0.52876000  0.07978000  1.0
  H  H28  1  0.52878000  0.65261000  0.07979000  1.0
  H  H29  1  0.65264000  0.39132000  0.07987000  1.0
  H  H30  1  0.48198000  0.92652000  0.21895000  1.0
  H  H31  1  0.85455000  0.48197000  0.21906000  1.0
  H  H32  1  0.29908000  0.85456000  0.21897000  1.0
  H  H33  1  0.92651000  0.29917000  0.21886000  1.0
  H  H34  1  0.51803000  0.14540000  0.78114000  1.0
  H  H35  1  0.14547000  0.70094000  0.78104000  1.0
  H  H36  1  0.70102000  0.07358000  0.78094000  1.0
  H  H37  1  0.07352000  0.51806000  0.78103000  1.0
  C  C38  1  0.49991000  0.11797000  0.99997000  1.0
  C  C39  1  0.88206000  0.50005000  0.99999000  1.0
  C  C40  1  0.50004000  0.88206000  0.00001000  1.0
  C  C41  1  0.11794000  0.49988000  0.00003000  1.0
  C  C42  1  0.49991000  0.31389000  0.00005000  1.0
  C  C43  1  0.68608000  0.49994000  0.00004000  1.0
  C  C44  1  0.49998000  0.68612000  0.99996000  1.0
  C  C45  1  0.31394000  0.49995000  0.99996000  1.0
  C  C46  1  0.49990000  0.18623000  0.99995000  1.0
  C  C47  1  0.81381000  0.50005000  0.00000000  1.0
  C  C48  1  0.50004000  0.81381000  0.00000000  1.0
  C  C49  1  0.18618000  0.49985000  0.00005000  1.0
  C  C50  1  0.38226000  0.50005000  0.99992000  1.0
  C  C51  1  0.49998000  0.38219000  0.00007000  1.0
  C  C52  1  0.61778000  0.49993000  0.00004000  1.0
  C  C53  1  0.49997000  0.61781000  0.99996000  1.0
  C  C54  1  0.43297000  0.93296000  0.13414000  1.0
  C  C55  1  0.93293000  0.43295000  0.13414000  1.0
  C  C56  1  0.56710000  0.06707000  0.86586000  1.0
  C  C57  1  0.06710000  0.56712000  0.86585000  1.0
  C  C58  1  0.42757000  0.89654000  0.24811000  1.0
  C  C59  1  0.85539000  0.42756000  0.24817000  1.0
  C  C60  1  0.32433000  0.85541000  0.24812000  1.0
  C  C61  1  0.89654000  0.32438000  0.24806000  1.0
  C  C62  1  0.57245000  0.14462000  0.75193000  1.0
  C  C63  1  0.14466000  0.67568000  0.75189000  1.0
  C  C64  1  0.67572000  0.10355000  0.75183000  1.0
  C  C65  1  0.10352000  0.57246000  0.75188000  1.0
  C  C66  1  0.39137000  0.86125000  0.32017000  1.0
  C  C67  1  0.81863000  0.39132000  0.32024000  1.0
  C  C68  1  0.28846000  0.81863000  0.32019000  1.0
  C  C69  1  0.86126000  0.28847000  0.32013000  1.0
  C  C70  1  0.60860000  0.18140000  0.67987000  1.0
  C  C71  1  0.18143000  0.71155000  0.67982000  1.0
  C  C72  1  0.71155000  0.13885000  0.67976000  1.0
  C  C73  1  0.13881000  0.60866000  0.67981000  1.0
  C  C74  1  0.32164000  0.82165000  0.35675000  1.0
  C  C75  1  0.82164000  0.32158000  0.35676000  1.0
  C  C76  1  0.67834000  0.17840000  0.64324000  1.0
  C  C77  1  0.17840000  0.67839000  0.64325000  1.0
  C  C78  1  0.39419000  0.89426000  0.21161000  1.0
  C  C79  1  0.89419000  0.39424000  0.21161000  1.0
  C  C80  1  0.60585000  0.10580000  0.78839000  1.0
  C  C81  1  0.10587000  0.60581000  0.78838000  1.0
  C  C82  1  0.21649000  0.71649000  0.56706000  1.0
  C  C83  1  0.71642000  0.21644000  0.56706000  1.0
  C  C84  1  0.78351000  0.28348000  0.43294000  1.0
  C  C85  1  0.28354000  0.78355000  0.43294000  1.0
  C  C86  1  0.56193000  0.23994000  0.95662000  1.0
  C  C87  1  0.80342000  0.56205000  0.95667000  1.0
  C  C88  1  0.48136000  0.80348000  0.95665000  1.0
  C  C89  1  0.23989000  0.48118000  0.95669000  1.0
  C  C90  1  0.43787000  0.19658000  0.04331000  1.0
  C  C91  1  0.19656000  0.51855000  0.04338000  1.0
  C  C92  1  0.51872000  0.76009000  0.04333000  1.0
  C  C93  1  0.76013000  0.43801000  0.04335000  1.0
  C  C94  1  0.56140000  0.30428000  0.95519000  1.0
  C  C95  1  0.74053000  0.56146000  0.95520000  1.0
  C  C96  1  0.48337000  0.74061000  0.95511000  1.0
  C  C97  1  0.30429000  0.48327000  0.95514000  1.0
  C  C98  1  0.43841000  0.25943000  0.04486000  1.0
  C  C99  1  0.25947000  0.51659000  0.04481000  1.0
  C  C100  1  0.51666000  0.69572000  0.04481000  1.0
  C  C101  1  0.69572000  0.43848000  0.04489000  1.0
  N  N102  1  0.22854000  0.72806000  0.46586000  1.0
  N  N103  1  0.80604000  0.22847000  0.46586000  1.0
  N  N104  1  0.30563000  0.80612000  0.46585000  1.0
  N  N105  1  0.72801000  0.30556000  0.46585000  1.0
  N  N106  1  0.77140000  0.19385000  0.53415000  1.0
  N  N107  1  0.19391000  0.69440000  0.53415000  1.0
  N  N108  1  0.69434000  0.27191000  0.53414000  1.0
  N  N109  1  0.27197000  0.77149000  0.53414000  1.0
  O  O110  1  0.44193000  0.08346000  0.01535000  1.0
  O  O111  1  0.90116000  0.44205000  0.01535000  1.0
  O  O112  1  0.54266000  0.90120000  0.01535000  1.0
  O  O113  1  0.08350000  0.54254000  0.01537000  1.0
  O  O114  1  0.55791000  0.09887000  0.98462000  1.0
  O  O115  1  0.09881000  0.45728000  0.98465000  1.0
  O  O116  1  0.45740000  0.91650000  0.98466000  1.0
  O  O117  1  0.91655000  0.55801000  0.98465000  1.0
  O  O118  1  0.39768000  0.93537000  0.10374000  1.0
  O  O119  1  0.96087000  0.39764000  0.10374000  1.0
  O  O120  1  0.49868000  0.96092000  0.10373000  1.0
  O  O121  1  0.93540000  0.49867000  0.10372000  1.0
  O  O122  1  0.60238000  0.03912000  0.89628000  1.0
  O  O123  1  0.03911000  0.50142000  0.89626000  1.0
  O  O124  1  0.50138000  0.06461000  0.89626000  1.0
  O  O125  1  0.06465000  0.60242000  0.89626000  1.0
  O  O126  1  0.43727000  0.51295000  0.94349000  1.0
  O  O127  1  0.54356000  0.43716000  0.94364000  1.0
  O  O128  1  0.61925000  0.54349000  0.94360000  1.0
  O  O129  1  0.51289000  0.61925000  0.94352000  1.0
  O  O130  1  0.56276000  0.45640000  0.05649000  1.0
  O  O131  1  0.45643000  0.38076000  0.05652000  1.0
  O  O132  1  0.38080000  0.48719000  0.05637000  1.0
  O  O133  1  0.48708000  0.56284000  0.05641000  1.0
