# generated using pymatgen
data_Cd2H30C27(N3O5)2
_symmetry_space_group_name_H-M   'P 1'
_cell_length_a   14.63150000
_cell_length_b   15.99350000
_cell_length_c   17.13180000
_cell_angle_alpha   90.00010000
_cell_angle_beta   90.00010000
_cell_angle_gamma   112.87800000
_symmetry_Int_Tables_number   1
_chemical_formula_structural   Cd2H30C27(N3O5)2
_chemical_formula_sum   'Cd8 H120 C108 N24 O40'
_cell_volume   3693.62511060
_cell_formula_units_Z   4
loop_
 _symmetry_equiv_pos_site_id
 _symmetry_equiv_pos_as_xyz
  1  'x, y, z'
loop_
 _atom_site_type_symbol
 _atom_site_label
 _atom_site_symmetry_multiplicity
 _atom_site_fract_x
 _atom_site_fract_y
 _atom_site_fract_z
 _atom_site_occupancy
  Cd  Cd0  1  0.37844000  0.69921000  0.80777000  1.0
  Cd  Cd1  1  0.12156000  0.80079000  0.30777000  1.0
  Cd  Cd2  1  0.62156000  0.30079000  0.19223000  1.0
  Cd  Cd3  1  0.87844000  0.19921000  0.69223000  1.0
  Cd  Cd4  1  0.67191000  0.81274000  0.77968000  1.0
  Cd  Cd5  1  0.82809000  0.68726000  0.27967000  1.0
  Cd  Cd6  1  0.32809000  0.18726000  0.22033000  1.0
  Cd  Cd7  1  0.17191000  0.31274000  0.72033000  1.0
  H  H8  1  0.32362000  0.59075000  0.93271000  1.0
  H  H9  1  0.17638000  0.90925000  0.43271000  1.0
  H  H10  1  0.67638000  0.40925000  0.06729000  1.0
  H  H11  1  0.82362000  0.09075000  0.56729000  1.0
  H  H12  1  0.32218000  0.51300000  0.86515000  1.0
  H  H13  1  0.17782000  0.98700000  0.36515000  1.0
  H  H14  1  0.67782000  0.48700000  0.13485000  1.0
  H  H15  1  0.82218000  0.01300000  0.63485000  1.0
  H  H16  1  0.71307000  0.99687000  0.83373000  1.0
  H  H17  1  0.78693000  0.50313000  0.33373000  1.0
  H  H18  1  0.28693000  0.00313000  0.16627000  1.0
  H  H19  1  0.21307000  0.49687000  0.66627000  1.0
  H  H20  1  0.65154000  0.91730000  0.89435000  1.0
  H  H21  1  0.84847000  0.58270000  0.39435000  1.0
  H  H22  1  0.34846000  0.08270000  0.10565000  1.0
  H  H23  1  0.15154000  0.41730000  0.60565000  1.0
  H  H24  1  0.54400000  0.25594000  0.41872000  1.0
  H  H25  1  0.95599000  0.24406000  0.91872000  1.0
  H  H26  1  0.45600000  0.74406000  0.58128000  1.0
  H  H27  1  0.04401000  0.75594000  0.08128000  1.0
  H  H28  1  0.41364000  0.21555000  0.42831000  1.0
  H  H29  1  0.08636000  0.28445000  0.92831000  1.0
  H  H30  1  0.58636000  0.78445000  0.57169000  1.0
  H  H31  1  0.91364000  0.71555000  0.07169000  1.0
  H  H32  1  0.64571000  0.40155000  0.47412000  1.0
  H  H33  1  0.85428000  0.09845000  0.97413000  1.0
  H  H34  1  0.35429000  0.59844000  0.52588000  1.0
  H  H35  1  0.14571000  0.90156000  0.02588000  1.0
  H  H36  1  0.66204000  0.53390000  0.55505000  1.0
  H  H37  1  0.83795000  0.96610000  0.05505000  1.0
  H  H38  1  0.33796000  0.46610000  0.44495000  1.0
  H  H39  1  0.16204000  0.03390000  0.94495000  1.0
  H  H40  1  0.36304000  0.39023000  0.63974000  1.0
  H  H41  1  0.13696000  0.10977000  0.13974000  1.0
  H  H42  1  0.63696000  0.60977000  0.36026000  1.0
  H  H43  1  0.86304000  0.89023000  0.86026000  1.0
  H  H44  1  0.34518000  0.26198000  0.55635000  1.0
  H  H45  1  0.15481000  0.23802000  0.05635000  1.0
  H  H46  1  0.65482000  0.73802000  0.44365000  1.0
  H  H47  1  0.84519000  0.76198000  0.94365000  1.0
  H  H48  1  0.63119000  0.24057000  0.55926000  1.0
  H  H49  1  0.86881000  0.25943000  0.05927000  1.0
  H  H50  1  0.36881000  0.75943000  0.44074000  1.0
  H  H51  1  0.13119000  0.74057000  0.94073000  1.0
  H  H52  1  0.63686000  0.12036000  0.64398000  1.0
  H  H53  1  0.86314000  0.37964000  0.14398000  1.0
  H  H54  1  0.36314000  0.87964000  0.35602000  1.0
  H  H55  1  0.13686000  0.62036000  0.85602000  1.0
  H  H56  1  0.34103000  0.94510000  0.56705000  1.0
  H  H57  1  0.15897000  0.55490000  0.06706000  1.0
  H  H58  1  0.65897000  0.05490000  0.43295000  1.0
  H  H59  1  0.84103000  0.44510000  0.93295000  1.0
  H  H60  1  0.33595000  0.06886000  0.48513000  1.0
  H  H61  1  0.16405000  0.43114000  0.98513000  1.0
  H  H62  1  0.66405000  0.93114000  0.51487000  1.0
  H  H63  1  0.83595000  0.56886000  0.01487000  1.0
  H  H64  1  0.36566000  0.51988000  0.67116000  1.0
  H  H65  1  0.13434000  0.98012000  0.17116000  1.0
  H  H66  1  0.63434000  0.48012000  0.32884000  1.0
  H  H67  1  0.86566000  0.01988000  0.82884000  1.0
  H  H68  1  0.67992000  0.62591000  0.66423000  1.0
  H  H69  1  0.82008000  0.87409000  0.16423000  1.0
  H  H70  1  0.32008000  0.37409000  0.33576000  1.0
  H  H71  1  0.17992000  0.12591000  0.83577000  1.0
  H  H72  1  0.34322000  0.87247000  0.69460000  1.0
  H  H73  1  0.15678000  0.62753000  0.19460000  1.0
  H  H74  1  0.65678000  0.12752000  0.30540000  1.0
  H  H75  1  0.84322000  0.37247000  0.80540000  1.0
  H  H76  1  0.65462000  0.98540000  0.65740000  1.0
  H  H77  1  0.84539000  0.51460000  0.15739000  1.0
  H  H78  1  0.34538000  0.01460000  0.34261000  1.0
  H  H79  1  0.15461000  0.48540000  0.84261000  1.0
  H  H80  1  0.04746000  0.60641000  0.70318000  1.0
  H  H81  1  0.45254000  0.89359000  0.20318000  1.0
  H  H82  1  0.95254000  0.39359000  0.29682000  1.0
  H  H83  1  0.54746000  0.10641000  0.79682000  1.0
  H  H84  1  0.09220000  0.55141000  0.63201000  1.0
  H  H85  1  0.40780000  0.94859000  0.13201000  1.0
  H  H86  1  0.90780000  0.44859000  0.36799000  1.0
  H  H87  1  0.59220000  0.05141000  0.86799000  1.0
  H  H88  1  0.04097000  0.66739000  0.57064000  1.0
  H  H89  1  0.45902000  0.83261000  0.07064000  1.0
  H  H90  1  0.95903000  0.33261000  0.42936000  1.0
  H  H91  1  0.54097000  0.16739000  0.92936000  1.0
  H  H92  1  0.12161000  0.75284000  0.63274000  1.0
  H  H93  1  0.37839000  0.74716000  0.13274000  1.0
  H  H94  1  0.87839000  0.24716000  0.36726000  1.0
  H  H95  1  0.62161000  0.25284000  0.86726000  1.0
  H  H96  1  0.19282000  0.64539000  0.51559000  1.0
  H  H97  1  0.30718000  0.85461000  0.01559000  1.0
  H  H98  1  0.80718000  0.35461000  0.48441000  1.0
  H  H99  1  0.69282000  0.14539000  0.98441000  1.0
  H  H100  1  0.26827000  0.73904000  0.57421000  1.0
  H  H101  1  0.23173000  0.76096000  0.07421000  1.0
  H  H102  1  0.73173000  0.26096000  0.42579000  1.0
  H  H103  1  0.76827000  0.23904000  0.92579000  1.0
  H  H104  1  0.95033000  0.95463000  0.60802000  1.0
  H  H105  1  0.54968000  0.54537000  0.10802000  1.0
  H  H106  1  0.04968000  0.04537000  0.39198000  1.0
  H  H107  1  0.45033000  0.45463000  0.89198000  1.0
  H  H108  1  0.97343000  0.86140000  0.64845000  1.0
  H  H109  1  0.52657000  0.63860000  0.14845000  1.0
  H  H110  1  0.02657000  0.13860000  0.35155000  1.0
  H  H111  1  0.47343000  0.36140000  0.85155000  1.0
  H  H112  1  0.81897000  0.84899000  0.52204000  1.0
  H  H113  1  0.68103000  0.65101000  0.02204000  1.0
  H  H114  1  0.18103000  0.15101000  0.47796000  1.0
  H  H115  1  0.31897000  0.34899000  0.97796000  1.0
  H  H116  1  0.83166000  0.75455000  0.56639000  1.0
  H  H117  1  0.66835000  0.74545000  0.06639000  1.0
  H  H118  1  0.16835000  0.24545000  0.43361000  1.0
  H  H119  1  0.33165000  0.25455000  0.93361000  1.0
  H  H120  1  0.00830000  0.80834000  0.51450000  1.0
  H  H121  1  0.49170000  0.69166000  0.01450000  1.0
  H  H122  1  0.99170000  0.19166000  0.48550000  1.0
  H  H123  1  0.50830000  0.30834000  0.98550000  1.0
  H  H124  1  0.99329000  0.90057000  0.46993000  1.0
  H  H125  1  0.50671000  0.59943000  0.96993000  1.0
  H  H126  1  0.00671000  0.09943000  0.53007000  1.0
  H  H127  1  0.49329000  0.40057000  0.03007000  1.0
  C  C128  1  0.48335000  0.23874000  0.46152000  1.0
  C  C129  1  0.01664000  0.26125000  0.96152000  1.0
  C  C130  1  0.51665000  0.76125000  0.53848000  1.0
  C  C131  1  0.98335000  0.73875000  0.03848000  1.0
  C  C132  1  0.49453000  0.32185000  0.50882000  1.0
  C  C133  1  0.00547000  0.17815000  0.00882000  1.0
  C  C134  1  0.50547000  0.67814000  0.49119000  1.0
  C  C135  1  0.99453000  0.82186000  0.99118000  1.0
  C  C136  1  0.58340000  0.39880000  0.51051000  1.0
  C  C137  1  0.91659000  0.10120000  0.01052000  1.0
  C  C138  1  0.41660000  0.60120000  0.48949000  1.0
  C  C139  1  0.08341000  0.89880000  0.98948000  1.0
  C  C140  1  0.59355000  0.47346000  0.55721000  1.0
  C  C141  1  0.90645000  0.02654000  0.05721000  1.0
  C  C142  1  0.40646000  0.52654000  0.44279000  1.0
  C  C143  1  0.09354000  0.97346000  0.94279000  1.0
  C  C144  1  0.51410000  0.47020000  0.60397000  1.0
  C  C145  1  0.98590000  0.02980000  0.10397000  1.0
  C  C146  1  0.48590000  0.52980000  0.39603000  1.0
  C  C147  1  0.01410000  0.97020000  0.89603000  1.0
  C  C148  1  0.42513000  0.39379000  0.60329000  1.0
  C  C149  1  0.07487000  0.10621000  0.10329000  1.0
  C  C150  1  0.57487000  0.60620000  0.39671000  1.0
  C  C151  1  0.92513000  0.89380000  0.89671000  1.0
  C  C152  1  0.41549000  0.32073000  0.55557000  1.0
  C  C153  1  0.08450000  0.17927000  0.05556000  1.0
  C  C154  1  0.58451000  0.67926000  0.44444000  1.0
  C  C155  1  0.91549000  0.82073000  0.94443000  1.0
  C  C156  1  0.48410000  0.16288000  0.51406000  1.0
  C  C157  1  0.01589000  0.33712000  0.01406000  1.0
  C  C158  1  0.51590000  0.83712000  0.48594000  1.0
  C  C159  1  0.98410000  0.66288000  0.98594000  1.0
  C  C160  1  0.56766000  0.17588000  0.56008000  1.0
  C  C161  1  0.93234000  0.32412000  0.06008000  1.0
  C  C162  1  0.43234000  0.82411000  0.43992000  1.0
  C  C163  1  0.06766000  0.67588000  0.93992000  1.0
  C  C164  1  0.57095000  0.10772000  0.60869000  1.0
  C  C165  1  0.92905000  0.39228000  0.10869000  1.0
  C  C166  1  0.42905000  0.89228000  0.39131000  1.0
  C  C167  1  0.07095000  0.60772000  0.89131000  1.0
  C  C168  1  0.48952000  0.02472000  0.61143000  1.0
  C  C169  1  0.01048000  0.47527000  0.11143000  1.0
  C  C170  1  0.51048000  0.97527000  0.38857000  1.0
  C  C171  1  0.98952000  0.52473000  0.88857000  1.0
  C  C172  1  0.40457000  0.01008000  0.56727000  1.0
  C  C173  1  0.09543000  0.48992000  0.06727000  1.0
  C  C174  1  0.59543000  0.98991000  0.43273000  1.0
  C  C175  1  0.90457000  0.51008000  0.93273000  1.0
  C  C176  1  0.40252000  0.08002000  0.51942000  1.0
  C  C177  1  0.09748000  0.41998000  0.01943000  1.0
  C  C178  1  0.59748000  0.91997000  0.48058000  1.0
  C  C179  1  0.90252000  0.58002000  0.98058000  1.0
  C  C180  1  0.44273000  0.56267000  0.68125000  1.0
  C  C181  1  0.05727000  0.93733000  0.18126000  1.0
  C  C182  1  0.55727000  0.43733000  0.31874000  1.0
  C  C183  1  0.94273000  0.06267000  0.81874000  1.0
  C  C184  1  0.60398000  0.61712000  0.67608000  1.0
  C  C185  1  0.89602000  0.88288000  0.17608000  1.0
  C  C186  1  0.39602000  0.38288000  0.32392000  1.0
  C  C187  1  0.10398000  0.11712000  0.82392000  1.0
  C  C188  1  0.42146000  0.88473000  0.69634000  1.0
  C  C189  1  0.07854000  0.61527000  0.19634000  1.0
  C  C190  1  0.57854000  0.11527000  0.30366000  1.0
  C  C191  1  0.92145000  0.38473000  0.80365000  1.0
  C  C192  1  0.58124000  0.94212000  0.67732000  1.0
  C  C193  1  0.91876000  0.55788000  0.17732000  1.0
  C  C194  1  0.41876000  0.05788000  0.32268000  1.0
  C  C195  1  0.08124000  0.44212000  0.82268000  1.0
  C  C196  1  0.20296000  0.64254000  0.70884000  1.0
  C  C197  1  0.29704000  0.85746000  0.20884000  1.0
  C  C198  1  0.79704000  0.35746000  0.29116000  1.0
  C  C199  1  0.70296000  0.14254000  0.79116000  1.0
  C  C200  1  0.10811000  0.61680000  0.66123000  1.0
  C  C201  1  0.39190000  0.88320000  0.16123000  1.0
  C  C202  1  0.89189000  0.38320000  0.33877000  1.0
  C  C203  1  0.60811000  0.11680000  0.83877000  1.0
  C  C204  1  0.11218000  0.68972000  0.60203000  1.0
  C  C205  1  0.38782000  0.81028000  0.10203000  1.0
  C  C206  1  0.88782000  0.31028000  0.39797000  1.0
  C  C207  1  0.61218000  0.18972000  0.89796000  1.0
  C  C208  1  0.19691000  0.70879000  0.54320000  1.0
  C  C209  1  0.30309000  0.79121000  0.04320000  1.0
  C  C210  1  0.80309000  0.29121000  0.45680000  1.0
  C  C211  1  0.69691000  0.20879000  0.95680000  1.0
  C  C212  1  0.19322000  0.77431000  0.47971000  1.0
  C  C213  1  0.30678000  0.72569000  0.97970000  1.0
  C  C214  1  0.80678000  0.22569000  0.52029000  1.0
  C  C215  1  0.69322000  0.27431000  0.02029000  1.0
  C  C216  1  0.83365000  0.86437000  0.68075000  1.0
  C  C217  1  0.66636000  0.63564000  0.18075000  1.0
  C  C218  1  0.16636000  0.13563000  0.31925000  1.0
  C  C219  1  0.33364000  0.36437000  0.81925000  1.0
  C  C220  1  0.91669000  0.88206000  0.62267000  1.0
  C  C221  1  0.58331000  0.61794000  0.12267000  1.0
  C  C222  1  0.08331000  0.11794000  0.37733000  1.0
  C  C223  1  0.41669000  0.38206000  0.87733000  1.0
  C  C224  1  0.87305000  0.82574000  0.54910000  1.0
  C  C225  1  0.62695000  0.67426000  0.04910000  1.0
  C  C226  1  0.12695000  0.17426000  0.45090000  1.0
  C  C227  1  0.37305000  0.32574000  0.95090000  1.0
  C  C228  1  0.95211000  0.83023000  0.48955000  1.0
  C  C229  1  0.54789000  0.66977000  0.98955000  1.0
  C  C230  1  0.04789000  0.16977000  0.51045000  1.0
  C  C231  1  0.45211000  0.33023000  0.01044000  1.0
  C  C232  1  0.90896000  0.77522000  0.41692000  1.0
  C  C233  1  0.59104000  0.72478000  0.91692000  1.0
  C  C234  1  0.09104000  0.22478000  0.58308000  1.0
  C  C235  1  0.40896000  0.27522000  0.08308000  1.0
  N  N236  1  0.47575000  0.63919000  0.72102000  1.0
  N  N237  1  0.02425000  0.86082000  0.22102000  1.0
  N  N238  1  0.52425000  0.36081000  0.27898000  1.0
  N  N239  1  0.97575000  0.13919000  0.77898000  1.0
  N  N240  1  0.57752000  0.67350000  0.71755000  1.0
  N  N241  1  0.92248000  0.82651000  0.21755000  1.0
  N  N242  1  0.42248000  0.32650000  0.28245000  1.0
  N  N243  1  0.07752000  0.17350000  0.78245000  1.0
  N  N244  1  0.52100000  0.54569000  0.65180000  1.0
  N  N245  1  0.97900000  0.95432000  0.15180000  1.0
  N  N246  1  0.47900000  0.45431000  0.34820000  1.0
  N  N247  1  0.02100000  0.04569000  0.84820000  1.0
  N  N248  1  0.45965000  0.83432000  0.73474000  1.0
  N  N249  1  0.04036000  0.66568000  0.23474000  1.0
  N  N250  1  0.54036000  0.16568000  0.26526000  1.0
  N  N251  1  0.95964000  0.33432000  0.76526000  1.0
  N  N252  1  0.56018000  0.87046000  0.72251000  1.0
  N  N253  1  0.93982000  0.62954000  0.22251000  1.0
  N  N254  1  0.43982000  0.12954000  0.27749000  1.0
  N  N255  1  0.06018000  0.37046000  0.77749000  1.0
  N  N256  1  0.49599000  0.95402000  0.65940000  1.0
  N  N257  1  0.00401000  0.54598000  0.15940000  1.0
  N  N258  1  0.50401000  0.04598000  0.34061000  1.0
  N  N259  1  0.99599000  0.45402000  0.84061000  1.0
  O  O260  1  0.24032000  0.58270000  0.71976000  1.0
  O  O261  1  0.25967000  0.91730000  0.21976000  1.0
  O  O262  1  0.75968000  0.41730000  0.28024000  1.0
  O  O263  1  0.74033000  0.08270000  0.78024000  1.0
  O  O264  1  0.24133000  0.72100000  0.73829000  1.0
  O  O265  1  0.25867000  0.77900000  0.23829000  1.0
  O  O266  1  0.75867000  0.27900000  0.26171000  1.0
  O  O267  1  0.74133000  0.22100000  0.76171000  1.0
  O  O268  1  0.20655000  0.85456000  0.50049000  1.0
  O  O269  1  0.29345000  0.64544000  0.00049000  1.0
  O  O270  1  0.79345000  0.14544000  0.49951000  1.0
  O  O271  1  0.70655000  0.35456000  0.99951000  1.0
  O  O272  1  0.17526000  0.74199000  0.41062000  1.0
  O  O273  1  0.32474000  0.75801000  0.91062000  1.0
  O  O274  1  0.82474000  0.25801000  0.58938000  1.0
  O  O275  1  0.67526000  0.24199000  0.08938000  1.0
  O  O276  1  0.81253000  0.79743000  0.72724000  1.0
  O  O277  1  0.68747000  0.70257000  0.22724000  1.0
  O  O278  1  0.18748000  0.20257000  0.27276000  1.0
  O  O279  1  0.31253000  0.29743000  0.77276000  1.0
  O  O280  1  0.78186000  0.91348000  0.67947000  1.0
  O  O281  1  0.71815000  0.58652000  0.17947000  1.0
  O  O282  1  0.21815000  0.08652000  0.32053000  1.0
  O  O283  1  0.28185000  0.41348000  0.82053000  1.0
  O  O284  1  0.82282000  0.76627000  0.39449000  1.0
  O  O285  1  0.67718000  0.73373000  0.89449000  1.0
  O  O286  1  0.17719000  0.23373000  0.60552000  1.0
  O  O287  1  0.32282000  0.26627000  0.10551000  1.0
  O  O288  1  0.95979000  0.73835000  0.37920000  1.0
  O  O289  1  0.54021000  0.76166000  0.87920000  1.0
  O  O290  1  0.04021000  0.26166000  0.62080000  1.0
  O  O291  1  0.45979000  0.23834000  0.12080000  1.0
  O  O292  1  0.35597000  0.57641000  0.88500000  1.0
  O  O293  1  0.14402000  0.92359000  0.38500000  1.0
  O  O294  1  0.64402000  0.42359000  0.11500000  1.0
  O  O295  1  0.85598000  0.07641000  0.61500000  1.0
  O  O296  1  0.71415000  0.94350000  0.86613000  1.0
  O  O297  1  0.78585000  0.55650000  0.36613000  1.0
  O  O298  1  0.28585000  0.05650000  0.13387000  1.0
  O  O299  1  0.21415000  0.44350000  0.63388000  1.0
