# generated using pymatgen
data_Zn2H13C22N2ClO13
_symmetry_space_group_name_H-M   'P 1'
_cell_length_a   9.90582000
_cell_length_b   11.15370000
_cell_length_c   16.01690000
_cell_angle_alpha   89.24820000
_cell_angle_beta   86.43950000
_cell_angle_gamma   89.50530000
_symmetry_Int_Tables_number   1
_chemical_formula_structural   Zn2H13C22N2ClO13
_chemical_formula_sum   'Zn2 H13 C22 N2 Cl1 O13'
_cell_volume   1766.02986339
_cell_formula_units_Z   1
loop_
 _symmetry_equiv_pos_site_id
 _symmetry_equiv_pos_as_xyz
  1  'x, y, z'
loop_
 _atom_site_type_symbol
 _atom_site_label
 _atom_site_symmetry_multiplicity
 _atom_site_fract_x
 _atom_site_fract_y
 _atom_site_fract_z
 _atom_site_occupancy
  Zn  Zn0  1  0.36703000  0.51534000  0.52034000  1.0
  Zn  Zn1  1  0.65143000  0.52023000  0.48646000  1.0
  H  H2  1  0.58076000  0.30952000  0.07083000  1.0
  H  H3  1  0.85107000  0.50962000  0.60890000  1.0
  H  H4  1  0.92242000  0.52334000  0.42968000  1.0
  H  H5  1  0.37467000  0.31251000  0.95572000  1.0
  H  H6  1  0.73626000  0.46750000  0.96401000  1.0
  H  H7  1  0.61171000  0.66571000  0.04925000  1.0
  H  H8  1  0.40642000  0.66868000  0.93336000  1.0
  H  H9  1  0.25055000  0.51110000  0.04052000  1.0
  H  H10  1  0.32347000  0.18129000  0.46007000  1.0
  H  H11  1  0.02624000  0.49961000  0.68086000  1.0
  H  H12  1  0.21689000  0.54011000  0.39143000  1.0
  H  H13  1  0.79269000  0.97481000  0.48126000  1.0
  H  H14  1  0.71693000  0.21813000  0.51562000  1.0
  C  C15  1  0.50907000  0.28384000  0.48862000  1.0
  C  C16  1  0.47338000  0.49924000  0.08762000  1.0
  C  C17  1  0.44446000  0.58917000  0.96519000  1.0
  C  C18  1  0.51355000  0.47898000  0.91690000  1.0
  C  C19  1  0.55997000  0.58714000  0.02716000  1.0
  C  C20  1  0.62831000  0.47735000  0.98148000  1.0
  C  C21  1  0.46264000  0.51069000  0.17560000  1.0
  C  C22  1  0.52884000  0.47351000  0.82865000  1.0
  C  C23  1  0.60987000  0.94899000  0.51450000  1.0
  C  C24  1  0.50571000  0.87344000  0.54000000  1.0
  C  C25  1  0.60448000  0.08028000  0.51313000  1.0
  C  C26  1  0.47950000  0.52871000  0.33983000  1.0
  C  C27  1  0.49933000  0.15226000  0.49027000  1.0
  C  C28  1  0.06282000  0.51215000  0.56187000  1.0
  C  C29  1  0.91727000  0.51357000  0.55113000  1.0
  C  C30  1  0.50581000  0.74283000  0.52527000  1.0
  C  C31  1  0.53020000  0.48088000  0.66263000  1.0
  C  C32  1  0.42686000  0.39127000  0.97719000  1.0
  C  C33  1  0.54238000  0.38920000  0.03934000  1.0
  C  C34  1  0.46488000  0.52055000  0.25128000  1.0
  C  C35  1  0.53555000  0.47295000  0.75236000  1.0
  C  C36  1  0.35849000  0.50109000  0.02307000  1.0
  N  N37  1  0.16062000  0.51822000  0.50412000  1.0
  N  N38  1  0.85780000  0.51846000  0.48218000  1.0
  Cl  Cl39  1  0.36599000  0.92930000  0.59657000  1.0
  O  O40  1  0.39974000  0.34089000  0.47588000  1.0
  O  O41  1  0.62396000  0.33319000  0.49937000  1.0
  O  O42  1  0.37538000  0.55798000  0.38740000  1.0
  O  O43  1  0.59615000  0.50607000  0.36492000  1.0
  O  O44  1  0.39847000  0.68559000  0.54913000  1.0
  O  O45  1  0.61140000  0.69616000  0.48868000  1.0
  O  O46  1  0.41698000  0.45441000  0.63402000  1.0
  O  O47  1  0.63620000  0.51484000  0.61984000  1.0
  O  O48  1  0.37967000  0.10885000  0.46677000  1.0
  O  O49  1  0.10417000  0.50247000  0.64074000  1.0
  O  O50  1  0.12469000  0.52781000  0.42296000  1.0
  O  O51  1  0.73370000  0.90456000  0.48856000  1.0
  O  O52  1  0.72850000  0.12894000  0.52532000  1.0
