# generated using pymatgen
data_ZnH12C16(NO2)2
_symmetry_space_group_name_H-M   'P 1'
_cell_length_a   7.77385000
_cell_length_b   9.53678000
_cell_length_c   12.85810802
_cell_angle_alpha   111.42928385
_cell_angle_beta   107.20241806
_cell_angle_gamma   90.99850000
_symmetry_Int_Tables_number   1
_chemical_formula_structural   ZnH12C16(NO2)2
_chemical_formula_sum   'Zn2 H24 C32 N4 O8'
_cell_volume   839.19032182
_cell_formula_units_Z   2
loop_
 _symmetry_equiv_pos_site_id
 _symmetry_equiv_pos_as_xyz
  1  'x, y, z'
loop_
 _atom_site_type_symbol
 _atom_site_label
 _atom_site_symmetry_multiplicity
 _atom_site_fract_x
 _atom_site_fract_y
 _atom_site_fract_z
 _atom_site_occupancy
  Zn  Zn0  1  0.70986000  0.91064000  0.80201000  1.0
  Zn  Zn1  1  0.40802000  0.10855000  0.19787000  1.0
  H  H2  1  0.34017000  0.43271000  0.27442000  1.0
  H  H3  1  0.56580000  0.15849000  0.72578000  1.0
  H  H4  1  0.19138000  0.60787000  0.18176000  1.0
  H  H5  1  0.50975000  0.42619000  0.81858000  1.0
  H  H6  1  0.01898000  0.21995000  0.84713000  1.0
  H  H7  1  0.67217000  0.37250000  0.15315000  1.0
  H  H8  1  0.17088000  0.06239000  0.95404000  1.0
  H  H9  1  0.71683000  0.10803000  0.04602000  1.0
  H  H10  1  0.94841000  0.46085000  0.84413000  1.0
  H  H11  1  0.60486000  0.61671000  0.15618000  1.0
  H  H12  1  0.00444000  0.73069000  0.07965000  1.0
  H  H13  1  0.42456000  0.65062000  0.92053000  1.0
  H  H14  1  0.36906000  0.88530000  0.84935000  1.0
  H  H15  1  0.02015000  0.03624000  0.15058000  1.0
  H  H16  1  0.06124000  0.73073000  0.74694000  1.0
  H  H17  1  0.81453000  0.98402000  0.25285000  1.0
  H  H18  1  0.25080000  0.48369000  0.45504000  1.0
  H  H19  1  0.29574000  0.02797000  0.54469000  1.0
  H  H20  1  0.54548000  0.64746000  0.56585000  1.0
  H  H21  1  0.47978000  0.08094000  0.43398000  1.0
  H  H22  1  0.84686000  0.54714000  0.58068000  1.0
  H  H23  1  0.76621000  0.96651000  0.41919000  1.0
  H  H24  1  0.96688000  0.36758000  0.36639000  1.0
  H  H25  1  0.10066000  0.99977000  0.63302000  1.0
  C  C26  1  0.26336000  0.39158000  0.18025000  1.0
  C  C27  1  0.58315000  0.21138000  0.81996000  1.0
  C  C28  1  0.18032000  0.48743000  0.12777000  1.0
  C  C29  1  0.55264000  0.35964000  0.87252000  1.0
  C  C30  1  0.08883000  0.42849000  0.00510000  1.0
  C  C31  1  0.58411000  0.42330000  0.99523000  1.0
  C  C32  1  0.08729000  0.27292000  0.94210000  1.0
  C  C33  1  0.64548000  0.33065000  0.05820000  1.0
  C  C34  1  0.17171000  0.18358000  0.00083000  1.0
  C  C35  1  0.67094000  0.18258000  0.99934000  1.0
  C  C36  1  0.99858000  0.51832000  0.94043000  1.0
  C  C37  1  0.55855000  0.57781000  0.05987000  1.0
  C  C38  1  0.96564000  0.66262000  0.98514000  1.0
  C  C39  1  0.48049000  0.67721000  0.01506000  1.0
  C  C40  1  0.86939000  0.73438000  0.90330000  1.0
  C  C41  1  0.46615000  0.83085000  0.09678000  1.0
  C  C42  1  0.33542000  0.79754000  0.76058000  1.0
  C  C43  1  0.07515000  0.03698000  0.23928000  1.0
  C  C44  1  0.16545000  0.71022000  0.70441000  1.0
  C  C45  1  0.96124000  0.00587000  0.29542000  1.0
  C  C46  1  0.12605000  0.59698000  0.59045000  1.0
  C  C47  1  0.03568000  0.00621000  0.40931000  1.0
  C  C48  1  0.26750000  0.57316000  0.54087000  1.0
  C  C49  1  0.22671000  0.03172000  0.45887000  1.0
  C  C50  1  0.43438000  0.66469000  0.60260000  1.0
  C  C51  1  0.33196000  0.06154000  0.39719000  1.0
  C  C52  1  0.94166000  0.51522000  0.53064000  1.0
  C  C53  1  0.91105000  0.98418000  0.46912000  1.0
  C  C54  1  0.87899000  0.40778000  0.42047000  1.0
  C  C55  1  0.95865000  0.98641000  0.57919000  1.0
  C  C56  1  0.68617000  0.33387000  0.36581000  1.0
  C  C57  1  0.82060000  0.96751000  0.63407000  1.0
  N  N58  1  0.25928000  0.24169000  0.11808000  1.0
  N  N59  1  0.64127000  0.12357000  0.88208000  1.0
  N  N60  1  0.46736000  0.77713000  0.71021000  1.0
  N  N61  1  0.25743000  0.06661000  0.28964000  1.0
  O  O62  1  0.83833000  0.87317000  0.95096000  1.0
  O  O63  1  0.38729000  0.92191000  0.04905000  1.0
  O  O64  1  0.82233000  0.66226000  0.79317000  1.0
  O  O65  1  0.52947000  0.86900000  0.20692000  1.0
  O  O66  1  0.56620000  0.38230000  0.41128000  1.0
  O  O67  1  0.65520000  0.97073000  0.58865000  1.0
  O  O68  1  0.65729000  0.21646000  0.26661000  1.0
  O  O69  1  0.89082000  0.94948000  0.73336000  1.0
