# generated using pymatgen
data_AlH13C19(NO5)2
_symmetry_space_group_name_H-M   'P 1'
_cell_length_a   6.65303000
_cell_length_b   23.26890000
_cell_length_c   26.38640000
_cell_angle_alpha   101.24030000
_cell_angle_beta   89.87790000
_cell_angle_gamma   89.76370000
_symmetry_Int_Tables_number   1
_chemical_formula_structural   AlH13C19(NO5)2
_chemical_formula_sum   'Al4 H52 C76 N8 O40'
_cell_volume   4006.43772601
_cell_formula_units_Z   4
loop_
 _symmetry_equiv_pos_site_id
 _symmetry_equiv_pos_as_xyz
  1  'x, y, z'
loop_
 _atom_site_type_symbol
 _atom_site_label
 _atom_site_symmetry_multiplicity
 _atom_site_fract_x
 _atom_site_fract_y
 _atom_site_fract_z
 _atom_site_occupancy
  Al  Al0  1  0.22292000  0.74988000  0.74868000  1.0
  Al  Al1  1  0.78375000  0.25092000  0.24930000  1.0
  Al  Al2  1  0.72303000  0.75157000  0.75024000  1.0
  Al  Al3  1  0.28400000  0.25098000  0.24959000  1.0
  H  H4  1  0.74979000  0.32009000  0.11484000  1.0
  H  H5  1  0.26840000  0.61307000  0.83069000  1.0
  H  H6  1  0.23791000  0.11747000  0.33195000  1.0
  H  H7  1  0.77543000  0.88568000  0.66746000  1.0
  H  H8  1  0.75784000  0.38219000  0.04754000  1.0
  H  H9  1  0.26207000  0.54834000  0.89611000  1.0
  H  H10  1  0.23766000  0.05456000  0.39880000  1.0
  H  H11  1  0.77463000  0.95002000  0.60175000  1.0
  H  H12  1  0.31494000  0.39305000  0.17417000  1.0
  H  H13  1  0.67652000  0.67621000  0.87931000  1.0
  H  H14  1  0.83854000  0.17313000  0.37666000  1.0
  H  H15  1  0.17639000  0.82948000  0.62171000  1.0
  H  H16  1  0.97079000  0.54012000  0.09231000  1.0
  H  H17  1  0.02802000  0.45766000  0.90467000  1.0
  H  H18  1  0.42758000  0.96369000  0.40821000  1.0
  H  H19  1  0.58350000  0.03999000  0.59261000  1.0
  H  H20  1  0.72885000  0.42743000  0.47372000  1.0
  H  H21  1  0.26871000  0.57387000  0.52469000  1.0
  H  H22  1  0.22862000  0.07382000  0.02577000  1.0
  H  H23  1  0.76660000  0.92479000  0.97583000  1.0
  H  H24  1  0.19590000  0.64308000  0.01021000  1.0
  H  H25  1  0.16734000  0.64478000  0.07764000  1.0
  H  H26  1  0.94246000  0.72377000  0.01572000  1.0
  H  H27  1  0.91355000  0.72620000  0.08267000  1.0
  H  H28  1  0.28038000  0.75404000  0.09686000  1.0
  H  H29  1  0.15200000  0.80491000  0.06624000  1.0
  H  H30  1  0.31102000  0.75049000  0.02955000  1.0
  H  H31  1  0.26012000  0.31161000  0.95807000  1.0
  H  H32  1  0.33267000  0.37530000  0.00383000  1.0
  H  H33  1  0.34957000  0.36036000  0.88571000  1.0
  H  H34  1  0.39976000  0.42689000  0.92944000  1.0
  H  H35  1  0.68291000  0.38226000  0.96828000  1.0
  H  H36  1  0.72266000  0.37154000  0.90113000  1.0
  H  H37  1  0.63736000  0.31255000  0.92905000  1.0
  H  H38  1  0.67742000  0.85985000  0.48859000  1.0
  H  H39  1  0.64041000  0.85527000  0.42109000  1.0
  H  H40  1  0.42740000  0.77999000  0.48835000  1.0
  H  H41  1  0.38902000  0.77457000  0.42135000  1.0
  H  H42  1  0.75514000  0.74659000  0.40419000  1.0
  H  H43  1  0.63628000  0.69748000  0.43836000  1.0
  H  H44  1  0.79623000  0.75350000  0.47149000  1.0
  H  H45  1  0.87861000  0.16269000  0.56130000  1.0
  H  H46  1  0.85064000  0.09334000  0.57923000  1.0
  H  H47  1  0.57712000  0.20105000  0.61331000  1.0
  H  H48  1  0.54287000  0.13323000  0.63243000  1.0
  H  H49  1  0.88321000  0.14297000  0.67610000  1.0
  H  H50  1  0.72740000  0.20398000  0.70131000  1.0
  H  H51  1  0.92045000  0.21078000  0.65634000  1.0
  H  H52  1  0.47826000  0.67676000  0.72154000  1.0
  H  H53  1  0.53408000  0.32707000  0.27350000  1.0
  H  H54  1  0.97593000  0.82498000  0.77707000  1.0
  H  H55  1  0.03438000  0.17514000  0.22445000  1.0
  C  C56  1  0.46882000  0.82455000  0.82816000  1.0
  C  C57  1  0.52763000  0.17650000  0.17180000  1.0
  C  C58  1  0.97294000  0.67633000  0.67123000  1.0
  C  C59  1  0.03908000  0.32495000  0.32707000  1.0
  C  C60  1  0.47358000  0.81675000  0.68906000  1.0
  C  C61  1  0.54203000  0.18604000  0.30987000  1.0
  C  C62  1  0.97174000  0.68513000  0.81024000  1.0
  C  C63  1  0.02629000  0.31565000  0.18876000  1.0
  C  C64  1  0.87503000  0.34955000  0.11263000  1.0
  C  C65  1  0.13750000  0.61209000  0.85539000  1.0
  C  C66  1  0.36936000  0.11523000  0.35608000  1.0
  C  C67  1  0.64402000  0.88820000  0.64339000  1.0
  C  C68  1  0.88029000  0.38393000  0.07511000  1.0
  C  C69  1  0.13284000  0.57579000  0.89146000  1.0
  C  C70  1  0.37018000  0.07986000  0.39291000  1.0
  C  C71  1  0.64248000  0.92436000  0.60723000  1.0
  C  C72  1  0.03875000  0.42294000  0.07247000  1.0
  C  C73  1  0.96659000  0.57466000  0.92426000  1.0
  C  C74  1  0.53699000  0.07691000  0.42495000  1.0
  C  C75  1  0.47619000  0.92733000  0.57500000  1.0
  C  C76  1  0.19317000  0.42497000  0.10907000  1.0
  C  C77  1  0.80544000  0.61248000  0.91910000  1.0
  C  C78  1  0.70369000  0.11166000  0.41774000  1.0
  C  C79  1  0.31078000  0.89161000  0.58121000  1.0
  C  C80  1  0.19201000  0.39049000  0.14667000  1.0
  C  C81  1  0.80581000  0.64842000  0.88270000  1.0
  C  C82  1  0.70615000  0.14724000  0.38120000  1.0
  C  C83  1  0.30832000  0.85576000  0.61766000  1.0
  C  C84  1  0.03171000  0.35247000  0.14850000  1.0
  C  C85  1  0.97236000  0.64806000  0.85032000  1.0
  C  C86  1  0.53815000  0.14897000  0.34977000  1.0
  C  C87  1  0.47555000  0.85413000  0.64927000  1.0
  C  C88  1  0.98703000  0.52180000  0.05118000  1.0
  C  C89  1  0.01682000  0.47632000  0.94582000  1.0
  C  C90  1  0.46056000  0.98123000  0.44871000  1.0
  C  C91  1  0.55350000  0.02336000  0.55184000  1.0
  C  C92  1  0.96020000  0.55853000  0.01587000  1.0
  C  C93  1  0.03948000  0.43923000  0.98101000  1.0
  C  C94  1  0.44597000  0.94415000  0.48398000  1.0
  C  C95  1  0.57432000  0.06003000  0.51616000  1.0
  C  C96  1  0.97656000  0.53606000  0.96250000  1.0
  C  C97  1  0.02670000  0.46199000  0.03438000  1.0
  C  C98  1  0.48857000  0.96539000  0.53644000  1.0
  C  C99  1  0.52508000  0.03921000  0.46380000  1.0
  C  C100  1  0.82280000  0.50385000  0.52736000  1.0
  C  C101  1  0.17487000  0.49746000  0.47104000  1.0
  C  C102  1  0.32228000  0.99657000  0.97265000  1.0
  C  C103  1  0.67291000  0.00206000  0.02893000  1.0
  C  C104  1  0.97185000  0.54671000  0.54342000  1.0
  C  C105  1  0.02599000  0.45450000  0.45502000  1.0
  C  C106  1  0.47075000  0.95299000  0.95688000  1.0
  C  C107  1  0.52468000  0.04575000  0.04465000  1.0
  C  C108  1  0.14911000  0.54221000  0.51365000  1.0
  C  C109  1  0.84849000  0.45907000  0.48476000  1.0
  C  C110  1  0.64738000  0.95700000  0.98666000  1.0
  C  C111  1  0.34788000  0.04163000  0.01493000  1.0
  C  C112  1  0.95886000  0.59186000  0.58756000  1.0
  C  C113  1  0.04062000  0.40916000  0.41108000  1.0
  C  C114  1  0.45717000  0.90785000  0.91281000  1.0
  C  C115  1  0.53858000  0.09127000  0.08846000  1.0
  C  C116  1  0.03486000  0.36974000  0.37331000  1.0
  C  C117  1  0.96903000  0.63123000  0.62528000  1.0
  C  C118  1  0.53093000  0.13098000  0.12601000  1.0
  C  C119  1  0.46482000  0.86885000  0.87474000  1.0
  C  C120  1  0.09044000  0.65401000  0.04300000  1.0
  C  C121  1  0.02280000  0.71737000  0.05066000  1.0
  C  C122  1  0.20140000  0.75907000  0.06139000  1.0
  C  C123  1  0.27188000  0.35962000  0.96474000  1.0
  C  C124  1  0.40687000  0.37883000  0.92459000  1.0
  C  C125  1  0.62357000  0.36005000  0.93086000  1.0
  C  C126  1  0.56779000  0.84796000  0.45701000  1.0
  C  C127  1  0.50207000  0.78488000  0.45216000  1.0
  C  C128  1  0.68229000  0.74324000  0.44096000  1.0
  C  C129  1  0.76837000  0.13263000  0.57310000  1.0
  C  C130  1  0.65791000  0.16265000  0.62176000  1.0
  C  C131  1  0.80506000  0.18112000  0.66635000  1.0
  N  N132  1  0.36986000  0.46302000  0.10822000  1.0
  N  N133  1  0.62040000  0.61324000  0.95010000  1.0
  N  N134  1  0.89098000  0.10923000  0.44693000  1.0
  N  N135  1  0.12363000  0.89319000  0.55158000  1.0
  N  N136  1  0.62945000  0.50583000  0.55529000  1.0
  N  N137  1  0.36863000  0.49564000  0.44327000  1.0
  N  N138  1  0.12984000  0.99521000  0.94465000  1.0
  N  N139  1  0.86568000  0.00345000  0.05681000  1.0
  O  O140  1  0.64382000  0.80398000  0.70610000  1.0
  O  O141  1  0.37687000  0.19333000  0.28734000  1.0
  O  O142  1  0.14151000  0.69637000  0.79201000  1.0
  O  O143  1  0.85627000  0.29448000  0.19743000  1.0
  O  O144  1  0.29961000  0.80646000  0.80933000  1.0
  O  O145  1  0.69469000  0.18830000  0.19474000  1.0
  O  O146  1  0.80340000  0.69376000  0.69090000  1.0
  O  O147  1  0.20942000  0.30188000  0.31369000  1.0
  O  O148  1  0.30242000  0.80136000  0.70343000  1.0
  O  O149  1  0.71175000  0.20709000  0.30056000  1.0
  O  O150  1  0.80063000  0.70170000  0.79679000  1.0
  O  O151  1  0.19058000  0.30881000  0.21173000  1.0
  O  O152  1  0.14528000  0.69392000  0.68818000  1.0
  O  O153  1  0.87282000  0.31345000  0.30362000  1.0
  O  O154  1  0.64163000  0.80845000  0.81004000  1.0
  O  O155  1  0.35761000  0.19985000  0.18517000  1.0
  O  O156  1  0.47434000  0.71505000  0.74407000  1.0
  O  O157  1  0.53308000  0.28715000  0.25405000  1.0
  O  O158  1  0.97377000  0.78648000  0.75491000  1.0
  O  O159  1  0.03475000  0.21484000  0.24433000  1.0
  O  O160  1  0.43927000  0.48744000  0.15049000  1.0
  O  O161  1  0.44037000  0.46693000  0.06546000  1.0
  O  O162  1  0.53196000  0.66093000  0.96299000  1.0
  O  O163  1  0.56034000  0.56603000  0.95949000  1.0
  O  O164  1  0.94883000  0.06036000  0.45334000  1.0
  O  O165  1  0.98299000  0.15573000  0.46157000  1.0
  O  O166  1  0.03152000  0.84645000  0.53829000  1.0
  O  O167  1  0.06524000  0.94148000  0.54400000  1.0
  O  O168  1  0.91414000  0.61690000  0.03289000  1.0
  O  O169  1  0.06676000  0.37996000  0.96258000  1.0
  O  O170  1  0.39293000  0.88620000  0.46746000  1.0
  O  O171  1  0.63711000  0.11687000  0.52914000  1.0
  O  O172  1  0.53068000  0.45986000  0.54932000  1.0
  O  O173  1  0.57634000  0.55325000  0.58199000  1.0
  O  O174  1  0.46764000  0.54160000  0.44968000  1.0
  O  O175  1  0.42188000  0.44834000  0.41640000  1.0
  O  O176  1  0.03538000  0.04205000  0.94896000  1.0
  O  O177  1  0.07328000  0.94746000  0.91958000  1.0
  O  O178  1  0.95923000  0.95652000  0.05284000  1.0
  O  O179  1  0.92329000  0.05136000  0.08134000  1.0
