# generated using pymatgen
data_NiH20C16(N2O3)2
_symmetry_space_group_name_H-M   'P 1'
_cell_length_a   7.90711000
_cell_length_b   10.69270000
_cell_length_c   11.33140000
_cell_angle_alpha   103.69700000
_cell_angle_beta   102.32600000
_cell_angle_gamma   103.96200000
_symmetry_Int_Tables_number   1
_chemical_formula_structural   NiH20C16(N2O3)2
_chemical_formula_sum   'Ni2 H40 C32 N8 O12'
_cell_volume   865.30289660
_cell_formula_units_Z   2
loop_
 _symmetry_equiv_pos_site_id
 _symmetry_equiv_pos_as_xyz
  1  'x, y, z'
loop_
 _atom_site_type_symbol
 _atom_site_label
 _atom_site_symmetry_multiplicity
 _atom_site_fract_x
 _atom_site_fract_y
 _atom_site_fract_z
 _atom_site_occupancy
  Ni  Ni0  1  0.50000000  0.50000000  0.00000000  1.0
  Ni  Ni1  1  0.50000000  0.00000000  0.00000000  1.0
  H  H2  1  0.41851000  0.71954000  0.68811000  1.0
  H  H3  1  0.58149000  0.28046000  0.31189000  1.0
  H  H4  1  0.46784000  0.60352000  0.56928000  1.0
  H  H5  1  0.53216000  0.39648000  0.43072000  1.0
  H  H6  1  0.23265000  0.52253000  0.38319000  1.0
  H  H7  1  0.76735000  0.47747000  0.61681000  1.0
  H  H8  1  0.09547000  0.56795000  0.73491000  1.0
  H  H9  1  0.90453000  0.43205000  0.26509000  1.0
  H  H10  1  0.47629000  0.64072000  0.19908000  1.0
  H  H11  1  0.52371000  0.35928000  0.80091000  1.0
  H  H12  1  0.52662000  0.76021000  0.13322000  1.0
  H  H13  1  0.47338000  0.23979000  0.86678000  1.0
  H  H14  1  0.15931000  0.33464000  0.74743000  1.0
  H  H15  1  0.84069000  0.66536000  0.25256000  1.0
  H  H16  1  0.17461000  0.43465000  0.13293000  1.0
  H  H17  1  0.82539000  0.56535000  0.86707000  1.0
  H  H18  1  0.84545000  0.28956000  0.00307000  1.0
  H  H19  1  0.15456000  0.71044000  0.99693000  1.0
  H  H20  1  0.81152000  0.22947000  0.76589000  1.0
  H  H21  1  0.18848000  0.77053000  0.23411000  1.0
  H  H22  1  0.08921000  0.98883000  0.57047000  1.0
  H  H23  1  0.91079000  0.01117000  0.42953000  1.0
  H  H24  1  0.24238000  0.15249000  0.66399000  1.0
  H  H25  1  0.75761000  0.84752000  0.33601000  1.0
  H  H26  1  0.25357000  0.80408000  0.49833000  1.0
  H  H27  1  0.74643000  0.19592000  0.50167000  1.0
  H  H28  1  0.50922000  0.23480000  0.60425000  1.0
  H  H29  1  0.49078000  0.76520000  0.39575000  1.0
  H  H30  1  0.25501000  0.81262000  0.83822000  1.0
  H  H31  1  0.74499000  0.18739000  0.16178000  1.0
  H  H32  1  0.37531000  0.72490000  0.89340000  1.0
  H  H33  1  0.62469000  0.27510000  0.10660000  1.0
  H  H34  1  0.20244000  0.15562000  0.97987000  1.0
  H  H35  1  0.79755000  0.84438000  0.02013000  1.0
  H  H36  1  0.03514000  0.20929000  0.17234000  1.0
  H  H37  1  0.96486000  0.79071000  0.82766000  1.0
  H  H38  1  0.16457000  0.10183000  0.33044000  1.0
  H  H39  1  0.83544000  0.89817000  0.66957000  1.0
  H  H40  1  0.38770000  0.98307000  0.26049000  1.0
  H  H41  1  0.61231000  0.01693000  0.73951000  1.0
  C  C42  1  0.44757000  0.53952000  0.73277000  1.0
  C  C43  1  0.55243000  0.46048000  0.26723000  1.0
  C  C44  1  0.38852000  0.61175000  0.63781000  1.0
  C  C45  1  0.61148000  0.38825000  0.36219000  1.0
  C  C46  1  0.18766000  0.55197000  0.56737000  1.0
  C  C47  1  0.81233000  0.44803000  0.43263000  1.0
  C  C48  1  0.13023000  0.51241000  0.43453000  1.0
  C  C49  1  0.86977000  0.48758000  0.56546000  1.0
  C  C50  1  0.05443000  0.53841000  0.63161000  1.0
  C  C51  1  0.94557000  0.46158000  0.36839000  1.0
  C  C52  1  0.11188000  0.33756000  0.83062000  1.0
  C  C53  1  0.88812000  0.66244000  0.16937000  1.0
  C  C54  1  0.12555000  0.39238000  0.03067000  1.0
  C  C55  1  0.87445000  0.60762000  0.96933000  1.0
  C  C56  1  0.93918000  0.28468000  0.83814000  1.0
  C  C57  1  0.06082000  0.71532000  0.16186000  1.0
  C  C58  1  0.26139000  0.98768000  0.74288000  1.0
  C  C59  1  0.73861000  0.01232000  0.25712000  1.0
  C  C60  1  0.22855000  0.04458000  0.63084000  1.0
  C  C61  1  0.77145000  0.95543000  0.36916000  1.0
  C  C62  1  0.36443000  0.02217000  0.55867000  1.0
  C  C63  1  0.63557000  0.97784000  0.44134000  1.0
  C  C64  1  0.36044000  0.89040000  0.49804000  1.0
  C  C65  1  0.63955000  0.10960000  0.50196000  1.0
  C  C66  1  0.50533000  0.13154000  0.55943000  1.0
  C  C67  1  0.49467000  0.86846000  0.44057000  1.0
  C  C68  1  0.21555000  0.12805000  0.06640000  1.0
  C  C69  1  0.78444000  0.87194000  0.93360000  1.0
  C  C70  1  0.13366000  0.15675000  0.16025000  1.0
  C  C71  1  0.86634000  0.84325000  0.83976000  1.0
  C  C72  1  0.31564000  0.03618000  0.20827000  1.0
  C  C73  1  0.68437000  0.96382000  0.79173000  1.0
  N  N74  1  0.22727000  0.40427000  0.95158000  1.0
  N  N75  1  0.77273000  0.59573000  0.04842000  1.0
  N  N76  1  0.95089000  0.31992000  0.96523000  1.0
  N  N77  1  0.04912000  0.68008000  0.03477000  1.0
  N  N78  1  0.32885000  0.05329000  0.09744000  1.0
  N  N79  1  0.67115000  0.94671000  0.90256000  1.0
  N  N80  1  0.19811000  0.09762000  0.24844000  1.0
  N  N81  1  0.80190000  0.90238000  0.75157000  1.0
  O  O82  1  0.49081000  0.43389000  0.69316000  1.0
  O  O83  1  0.50919000  0.56610000  0.30683000  1.0
  O  O84  1  0.44621000  0.58865000  0.84754000  1.0
  O  O85  1  0.55379000  0.41135000  0.15246000  1.0
  O  O86  1  0.45042000  0.66606000  0.11816000  1.0
  O  O87  1  0.54958000  0.33394000  0.88184000  1.0
  O  O88  1  0.37801000  0.06742000  0.84703000  1.0
  O  O89  1  0.62199000  0.93258000  0.15297000  1.0
  O  O90  1  0.17882000  0.86470000  0.72302000  1.0
  O  O91  1  0.82118000  0.13531000  0.27698000  1.0
  O  O92  1  0.31490000  0.79551000  0.91924000  1.0
  O  O93  1  0.68510000  0.20449000  0.08076000  1.0
