# generated using pymatgen
data_ZnH34C32I2N3O8
_symmetry_space_group_name_H-M   'P 1'
_cell_length_a   14.33490000
_cell_length_b   15.11750000
_cell_length_c   19.13080000
_cell_angle_alpha   88.56630000
_cell_angle_beta   88.67780000
_cell_angle_gamma   89.24030000
_symmetry_Int_Tables_number   1
_chemical_formula_structural   ZnH34C32I2N3O8
_chemical_formula_sum   'Zn2 H68 C64 I4 N6 O16'
_cell_volume   4143.05962408
_cell_formula_units_Z   2
loop_
 _symmetry_equiv_pos_site_id
 _symmetry_equiv_pos_as_xyz
  1  'x, y, z'
loop_
 _atom_site_type_symbol
 _atom_site_label
 _atom_site_symmetry_multiplicity
 _atom_site_fract_x
 _atom_site_fract_y
 _atom_site_fract_z
 _atom_site_occupancy
  Zn  Zn0  1  0.60468000  0.49696000  0.49686000  1.0
  Zn  Zn1  1  0.39151000  0.50276000  0.50126000  1.0
  H  H2  1  0.67651000  0.52766000  0.83495000  1.0
  H  H3  1  0.93329000  0.61177000  0.43776000  1.0
  H  H4  1  0.06493000  0.61624000  0.44237000  1.0
  H  H5  1  0.92854000  0.37578000  0.57045000  1.0
  H  H6  1  0.56461000  0.99739000  0.64190000  1.0
  H  H7  1  0.63419000  0.09128000  0.65833000  1.0
  H  H8  1  0.70777000  0.90587000  0.62197000  1.0
  H  H9  1  0.77871000  0.99879000  0.63421000  1.0
  H  H10  1  0.71673000  0.00901000  0.75941000  1.0
  H  H11  1  0.76984000  0.90428000  0.74447000  1.0
  H  H12  1  0.64659000  0.91498000  0.74693000  1.0
  H  H13  1  0.45390000  0.35761000  0.15804000  1.0
  H  H14  1  0.36876000  0.96318000  0.71888000  1.0
  H  H15  1  0.42431000  0.86165000  0.69528000  1.0
  H  H16  1  0.27156000  0.81461000  0.64290000  1.0
  H  H17  1  0.26608000  0.82950000  0.73390000  1.0
  H  H18  1  0.18872000  0.97766000  0.71710000  1.0
  H  H19  1  0.12519000  0.89698000  0.67278000  1.0
  H  H20  1  0.20084000  0.96954000  0.62483000  1.0
  H  H21  1  0.46446000  0.99478000  0.37048000  1.0
  H  H22  1  0.53653000  0.93108000  0.31313000  1.0
  H  H23  1  0.57601000  0.11833000  0.36320000  1.0
  H  H24  1  0.60896000  0.59919000  0.13854000  1.0
  H  H25  1  0.65510000  0.05468000  0.31234000  1.0
  H  H26  1  0.53742000  0.04980000  0.21553000  1.0
  H  H27  1  0.56390000  0.16076000  0.23552000  1.0
  H  H28  1  0.45785000  0.11409000  0.26635000  1.0
  H  H29  1  0.26621000  0.02858000  0.36896000  1.0
  H  H30  1  0.33939000  0.12306000  0.36128000  1.0
  H  H31  1  0.22622000  0.20830000  0.43561000  1.0
  H  H32  1  0.17572000  0.16756000  0.36022000  1.0
  H  H33  1  0.09965000  0.04540000  0.42991000  1.0
  H  H34  1  0.07003000  0.14826000  0.46749000  1.0
  H  H35  1  0.39867000  0.42993000  0.86939000  1.0
  H  H36  1  0.15600000  0.07805000  0.50657000  1.0
  H  H37  1  0.27655000  0.23214000  0.56809000  1.0
  H  H38  1  0.16365000  0.26120000  0.53746000  1.0
  H  H39  1  0.23370000  0.28264000  0.68658000  1.0
  H  H40  1  0.12167000  0.31613000  0.65976000  1.0
  H  H41  1  0.19941000  0.12462000  0.65685000  1.0
  H  H42  1  0.11704000  0.16544000  0.71909000  1.0
  H  H43  1  0.08597000  0.15674000  0.63020000  1.0
  H  H44  1  0.73181000  0.73974000  0.38941000  1.0
  H  H45  1  0.84977000  0.70419000  0.39067000  1.0
  H  H46  1  0.63695000  0.22007000  0.53297000  1.0
  H  H47  1  0.72888000  0.75277000  0.51938000  1.0
  H  H48  1  0.84802000  0.72098000  0.52234000  1.0
  H  H49  1  0.89032000  0.85578000  0.44556000  1.0
  H  H50  1  0.83412000  0.88577000  0.52523000  1.0
  H  H51  1  0.77050000  0.88900000  0.44711000  1.0
  H  H52  1  0.30706000  0.74566000  0.44511000  1.0
  H  H53  1  0.25883000  0.70677000  0.52573000  1.0
  H  H54  1  0.14490000  0.77303000  0.39966000  1.0
  H  H55  1  0.09693000  0.73920000  0.48228000  1.0
  H  H56  1  0.22954000  0.89688000  0.45934000  1.0
  H  H57  1  0.40651000  0.77132000  0.60754000  1.0
  H  H58  1  0.10722000  0.90316000  0.47697000  1.0
  H  H59  1  0.18328000  0.85912000  0.54093000  1.0
  H  H60  1  0.70902000  0.32759000  0.66827000  1.0
  H  H61  1  0.82253000  0.37314000  0.66025000  1.0
  H  H62  1  0.76219000  0.19729000  0.59771000  1.0
  H  H63  1  0.87619000  0.23934000  0.59205000  1.0
  H  H64  1  0.88593000  0.23081000  0.72466000  1.0
  H  H65  1  0.86195000  0.12587000  0.69013000  1.0
  H  H66  1  0.77093000  0.18880000  0.72989000  1.0
  H  H67  1  0.59089000  0.77838000  0.42741000  1.0
  H  H68  1  0.36185000  0.23189000  0.45056000  1.0
  H  H69  1  0.06653000  0.36710000  0.55844000  1.0
  C  C70  1  0.50512000  0.33318000  0.48580000  1.0
  C  C71  1  0.89480000  0.42842000  0.54038000  1.0
  C  C72  1  0.19855000  0.42675000  0.53199000  1.0
  C  C73  1  0.80021000  0.55774000  0.46670000  1.0
  C  C74  1  0.19623000  0.56234000  0.47231000  1.0
  C  C75  1  0.79738000  0.43086000  0.53735000  1.0
  C  C76  1  0.04970000  0.49260000  0.50245000  1.0
  C  C77  1  0.94622000  0.49310000  0.50339000  1.0
  C  C78  1  0.49385000  0.48878000  0.63599000  1.0
  C  C79  1  0.49341000  0.51749000  0.36312000  1.0
  C  C80  1  0.59209000  0.51900000  0.74310000  1.0
  C  C81  1  0.50106000  0.66703000  0.51673000  1.0
  C  C82  1  0.46361000  0.43290000  0.25223000  1.0
  C  C83  1  0.54948000  0.56792000  0.24104000  1.0
  C  C84  1  0.43529000  0.46880000  0.76298000  1.0
  C  C85  1  0.60985000  0.50875000  0.81409000  1.0
  C  C86  1  0.48114000  0.41625000  0.18189000  1.0
  C  C87  1  0.56887000  0.55237000  0.17083000  1.0
  C  C88  1  0.45328000  0.45403000  0.83360000  1.0
  C  C89  1  0.54146000  0.47198000  0.85915000  1.0
  C  C90  1  0.53595000  0.47502000  0.14129000  1.0
  C  C91  1  0.50604000  0.49475000  0.71437000  1.0
  C  C92  1  0.49941000  0.23438000  0.49101000  1.0
  C  C93  1  0.50000000  0.50735000  0.28450000  1.0
  C  C94  1  0.55523000  0.45772000  0.06754000  1.0
  C  C95  1  0.55821000  0.45627000  0.93355000  1.0
  C  C96  1  0.56588000  0.09491000  0.52881000  1.0
  C  C97  1  0.43951000  0.90284000  0.56580000  1.0
  C  C98  1  0.54075000  0.90501000  0.46279000  1.0
  C  C99  1  0.41228000  0.09973000  0.47881000  1.0
  C  C100  1  0.57380000  0.18609000  0.51899000  1.0
  C  C101  1  0.44472000  0.81025000  0.56811000  1.0
  C  C102  1  0.54900000  0.81311000  0.46644000  1.0
  C  C103  1  0.49982000  0.76609000  0.51851000  1.0
  C  C104  1  0.41855000  0.19165000  0.47152000  1.0
  C  C105  1  0.63247000  0.02850000  0.62979000  1.0
  C  C106  1  0.71252000  0.96763000  0.65089000  1.0
  C  C107  1  0.71136000  0.94798000  0.72967000  1.0
  C  C108  1  0.36850000  0.90924000  0.68126000  1.0
  C  C109  1  0.27327000  0.86524000  0.68316000  1.0
  C  C110  1  0.19242000  0.93094000  0.67394000  1.0
  C  C111  1  0.53717000  0.98302000  0.35288000  1.0
  C  C112  1  0.58038000  0.06736000  0.32313000  1.0
  C  C113  1  0.53235000  0.09957000  0.25650000  1.0
  C  C114  1  0.48590000  0.04972000  0.50861000  1.0
  C  C115  1  0.28878000  0.08798000  0.39583000  1.0
  C  C116  1  0.20408000  0.14711000  0.41134000  1.0
  C  C117  1  0.12830000  0.10232000  0.45646000  1.0
  C  C118  1  0.21652000  0.27704000  0.57601000  1.0
  C  C119  1  0.17801000  0.26725000  0.65048000  1.0
  C  C120  1  0.14299000  0.17346000  0.66489000  1.0
  C  C121  1  0.78438000  0.70694000  0.42212000  1.0
  C  C122  1  0.79571000  0.75568000  0.49004000  1.0
  C  C123  1  0.82427000  0.85173000  0.47596000  1.0
  C  C124  1  0.24550000  0.71429000  0.46948000  1.0
  C  C125  1  0.48615000  0.95162000  0.51201000  1.0
  C  C126  1  0.15813000  0.76973000  0.45617000  1.0
  C  C127  1  0.17023000  0.86238000  0.48457000  1.0
  C  C128  1  0.77268000  0.32984000  0.63512000  1.0
  C  C129  1  0.81261000  0.23701000  0.62546000  1.0
  C  C130  1  0.83416000  0.19329000  0.69636000  1.0
  C  C131  1  0.10095000  0.42326000  0.53323000  1.0
  C  C132  1  0.89751000  0.55947000  0.46691000  1.0
  C  C133  1  0.09919000  0.56227000  0.47032000  1.0
  I  I134  1  0.70012000  0.58226000  0.68409000  1.0
  I  I135  1  0.38132000  0.33835000  0.30752000  1.0
  I  I136  1  0.59183000  0.69091000  0.27877000  1.0
  I  I137  1  0.29350000  0.45389000  0.73831000  1.0
  N  N138  1  0.50867000  0.39223000  0.96801000  1.0
  N  N139  1  0.62617000  0.50040000  0.03348000  1.0
  N  N140  1  0.50697000  0.39361000  0.03674000  1.0
  N  N141  1  0.62692000  0.50000000  0.96455000  1.0
  N  N142  1  0.24563000  0.49617000  0.50315000  1.0
  N  N143  1  0.75066000  0.49357000  0.50008000  1.0
  O  O144  1  0.58564000  0.36630000  0.47860000  1.0
  O  O145  1  0.39213000  0.95180000  0.61500000  1.0
  O  O146  1  0.59109000  0.95047000  0.41140000  1.0
  O  O147  1  0.33663000  0.05349000  0.45665000  1.0
  O  O148  1  0.25393000  0.36357000  0.55932000  1.0
  O  O149  1  0.74762000  0.61878000  0.43360000  1.0
  O  O150  1  0.24674000  0.62649000  0.43969000  1.0
  O  O151  1  0.74187000  0.37226000  0.57090000  1.0
  O  O152  1  0.42143000  0.63163000  0.51422000  1.0
  O  O153  1  0.58010000  0.62821000  0.51595000  1.0
  O  O154  1  0.42765000  0.37504000  0.49083000  1.0
  O  O155  1  0.56760000  0.46854000  0.60176000  1.0
  O  O156  1  0.41318000  0.52073000  0.39158000  1.0
  O  O157  1  0.57209000  0.51891000  0.39194000  1.0
  O  O158  1  0.41312000  0.50038000  0.61194000  1.0
  O  O159  1  0.64092000  0.04773000  0.55574000  1.0
