# generated using pymatgen
data_Dy2Cu3H38C42(N3O17)2
_symmetry_space_group_name_H-M   'P 1'
_cell_length_a   11.39070000
_cell_length_b   13.11960000
_cell_length_c   19.01340000
_cell_angle_alpha   89.99990000
_cell_angle_beta   92.97760000
_cell_angle_gamma   89.99990000
_symmetry_Int_Tables_number   1
_chemical_formula_structural   Dy2Cu3H38C42(N3O17)2
_chemical_formula_sum   'Dy4 Cu6 H76 C84 N12 O68'
_cell_volume   2837.55353670
_cell_formula_units_Z   2
loop_
 _symmetry_equiv_pos_site_id
 _symmetry_equiv_pos_as_xyz
  1  'x, y, z'
loop_
 _atom_site_type_symbol
 _atom_site_label
 _atom_site_symmetry_multiplicity
 _atom_site_fract_x
 _atom_site_fract_y
 _atom_site_fract_z
 _atom_site_occupancy
  Dy  Dy0  1  0.36468000  0.06690000  0.14377000  1.0
  Dy  Dy1  1  0.13532000  0.56689000  0.35623000  1.0
  Dy  Dy2  1  0.63532000  0.93311000  0.85623000  1.0
  Dy  Dy3  1  0.86468000  0.43311000  0.64377000  1.0
  Cu  Cu4  1  0.84467000  0.90683000  0.17368000  1.0
  Cu  Cu5  1  0.65533000  0.40683000  0.32632000  1.0
  Cu  Cu6  1  0.15533000  0.09317000  0.82632000  1.0
  Cu  Cu7  1  0.34467000  0.59317000  0.67368000  1.0
  Cu  Cu8  1  0.00000000  0.50000000  0.00000000  1.0
  Cu  Cu9  1  0.50000000  0.00000000  0.50000000  1.0
  H  H10  1  0.41828000  0.85059000  0.17550000  1.0
  H  H11  1  0.08172000  0.35059000  0.32450000  1.0
  H  H12  1  0.58172000  0.14941000  0.82449000  1.0
  H  H13  1  0.91828000  0.64942000  0.67550000  1.0
  H  H14  1  0.53755000  0.90462000  0.15553000  1.0
  H  H15  1  0.96245000  0.40462000  0.34446000  1.0
  H  H16  1  0.46245000  0.09538000  0.84446000  1.0
  H  H17  1  0.03755000  0.59538000  0.65554000  1.0
  H  H18  1  0.31421000  0.03168000  0.99414000  1.0
  H  H19  1  0.18580000  0.53168000  0.50586000  1.0
  H  H20  1  0.68580000  0.96833000  0.00586000  1.0
  H  H21  1  0.81421000  0.46832000  0.49414000  1.0
  H  H22  1  0.42544000  0.95402000  0.01100000  1.0
  H  H23  1  0.07454000  0.45403000  0.48901000  1.0
  H  H24  1  0.57453000  0.04597000  0.98901000  1.0
  H  H25  1  0.92545000  0.54598000  0.51100000  1.0
  H  H26  1  0.48817000  0.25653000  0.09553000  1.0
  H  H27  1  0.01184000  0.75653000  0.40447000  1.0
  H  H28  1  0.51184000  0.74347000  0.90446000  1.0
  H  H29  1  0.98816000  0.24347000  0.59554000  1.0
  H  H30  1  0.35368000  0.26205000  0.06209000  1.0
  H  H31  1  0.14633000  0.76205000  0.43791000  1.0
  H  H32  1  0.64632000  0.73795000  0.93791000  1.0
  H  H33  1  0.85367000  0.23795000  0.56209000  1.0
  H  H34  1  0.30818000  0.25398000  0.18230000  1.0
  H  H35  1  0.19182000  0.75398000  0.31770000  1.0
  H  H36  1  0.69182000  0.74602000  0.81771000  1.0
  H  H37  1  0.80817000  0.24602000  0.68229000  1.0
  H  H38  1  0.30449000  0.20802000  0.25962000  1.0
  H  H39  1  0.19551000  0.70801000  0.24038000  1.0
  H  H40  1  0.69551000  0.79199000  0.74038000  1.0
  H  H41  1  0.80449000  0.29199000  0.75962000  1.0
  H  H42  1  0.25068000  0.94561000  0.24263000  1.0
  H  H43  1  0.24932000  0.44562000  0.25737000  1.0
  H  H44  1  0.74932000  0.05439000  0.75737000  1.0
  H  H45  1  0.75068000  0.55439000  0.74263000  1.0
  H  H46  1  0.15028000  0.91662000  0.18274000  1.0
  H  H47  1  0.34972000  0.41662000  0.31726000  1.0
  H  H48  1  0.84972000  0.08338000  0.81726000  1.0
  H  H49  1  0.65028000  0.58338000  0.68274000  1.0
  H  H50  1  0.92110000  0.06405000  0.00832000  1.0
  H  H51  1  0.57890000  0.56405000  0.49168000  1.0
  H  H52  1  0.07890000  0.93595000  0.99168000  1.0
  H  H53  1  0.42110000  0.43595000  0.50832000  1.0
  H  H54  1  0.05375000  0.05035000  0.19644000  1.0
  H  H55  1  0.44625000  0.55036000  0.30356000  1.0
  H  H56  1  0.94625000  0.94964000  0.80357000  1.0
  H  H57  1  0.55375000  0.44965000  0.69644000  1.0
  H  H58  1  0.89866000  0.34764000  0.17457000  1.0
  H  H59  1  0.60134000  0.84764000  0.32543000  1.0
  H  H60  1  0.10134000  0.65236000  0.82543000  1.0
  H  H61  1  0.39866000  0.15236000  0.67457000  1.0
  H  H62  1  0.74605000  0.17916000  0.99703000  1.0
  H  H63  1  0.75395000  0.67916000  0.50297000  1.0
  H  H64  1  0.25395000  0.82084000  0.00296000  1.0
  H  H65  1  0.24605000  0.32084000  0.49704000  1.0
  H  H66  1  0.63559000  0.76431000  0.14166000  1.0
  H  H67  1  0.86441000  0.26431000  0.35834000  1.0
  H  H68  1  0.36441000  0.23569000  0.85834000  1.0
  H  H69  1  0.13559000  0.73569000  0.64166000  1.0
  H  H70  1  0.07718000  0.23841000  0.19325000  1.0
  H  H71  1  0.42283000  0.73841000  0.30675000  1.0
  H  H72  1  0.92282000  0.76159000  0.80675000  1.0
  H  H73  1  0.57717000  0.26159000  0.69325000  1.0
  H  H74  1  0.77761000  0.36826000  0.99278000  1.0
  H  H75  1  0.72239000  0.86826000  0.50722000  1.0
  H  H76  1  0.22239000  0.63174000  0.00722000  1.0
  H  H77  1  0.27761000  0.13174000  0.49278000  1.0
  H  H78  1  0.61608000  0.57217000  0.14368000  1.0
  H  H79  1  0.88392000  0.07218000  0.35632000  1.0
  H  H80  1  0.38391000  0.42782000  0.85632000  1.0
  H  H81  1  0.11609000  0.92783000  0.64368000  1.0
  H  H82  1  0.79376000  0.46829000  0.16583000  1.0
  H  H83  1  0.70624000  0.96829000  0.33417000  1.0
  H  H84  1  0.20624000  0.53171000  0.83417000  1.0
  H  H85  1  0.29376000  0.03171000  0.66583000  1.0
  C  C86  1  0.66432000  0.05034000  0.16123000  1.0
  C  C87  1  0.83569000  0.55034000  0.33878000  1.0
  C  C88  1  0.33569000  0.94966000  0.83877000  1.0
  C  C89  1  0.16431000  0.44966000  0.66122000  1.0
  C  C90  1  0.15231000  0.12075000  0.01769000  1.0
  C  C91  1  0.34769000  0.62075000  0.48231000  1.0
  C  C92  1  0.84770000  0.87926000  0.98231000  1.0
  C  C93  1  0.65231000  0.37925000  0.51769000  1.0
  C  C94  1  0.77399000  0.11274000  0.16891000  1.0
  C  C95  1  0.72601000  0.61275000  0.33109000  1.0
  C  C96  1  0.22601000  0.88725000  0.83109000  1.0
  C  C97  1  0.27399000  0.38726000  0.66891000  1.0
  C  C98  1  0.04594000  0.18884000  0.00750000  1.0
  C  C99  1  0.45406000  0.68884000  0.49250000  1.0
  C  C100  1  0.95406000  0.81117000  0.99250000  1.0
  C  C101  1  0.54594000  0.31117000  0.50750000  1.0
  C  C102  1  0.77825000  0.21955000  0.16640000  1.0
  C  C103  1  0.72175000  0.71956000  0.33360000  1.0
  C  C104  1  0.22175000  0.78044000  0.83359000  1.0
  C  C105  1  0.27825000  0.28045000  0.66641000  1.0
  C  C106  1  0.05507000  0.29472000  0.00331000  1.0
  C  C107  1  0.44493000  0.79473000  0.49669000  1.0
  C  C108  1  0.94494000  0.70528000  0.99669000  1.0
  C  C109  1  0.55506000  0.20528000  0.50331000  1.0
  C  C110  1  0.93291000  0.14616000  0.00434000  1.0
  C  C111  1  0.56708000  0.64617000  0.49566000  1.0
  C  C112  1  0.06709000  0.85384000  0.99566000  1.0
  C  C113  1  0.43291000  0.35384000  0.50434000  1.0
  C  C114  1  0.97760000  0.09977000  0.18916000  1.0
  C  C115  1  0.52240000  0.59977000  0.31084000  1.0
  C  C116  1  0.02240000  0.90023000  0.81084000  1.0
  C  C117  1  0.47760000  0.40023000  0.68916000  1.0
  C  C118  1  0.88945000  0.26517000  0.17697000  1.0
  C  C119  1  0.61055000  0.76517000  0.32303000  1.0
  C  C120  1  0.11055000  0.73483000  0.82304000  1.0
  C  C121  1  0.38944000  0.23483000  0.67697000  1.0
  C  C122  1  0.67251000  0.28885000  0.15069000  1.0
  C  C123  1  0.82750000  0.78885000  0.34931000  1.0
  C  C124  1  0.32750000  0.71114000  0.84931000  1.0
  C  C125  1  0.17251000  0.21114000  0.65070000  1.0
  C  C126  1  0.17011000  0.35142000  0.00242000  1.0
  C  C127  1  0.32989000  0.85142000  0.49758000  1.0
  C  C128  1  0.82989000  0.64859000  0.99758000  1.0
  C  C129  1  0.67011000  0.14859000  0.50242000  1.0
  C  C130  1  0.83499000  0.20938000  0.99823000  1.0
  C  C131  1  0.66501000  0.70938000  0.50177000  1.0
  C  C132  1  0.16501000  0.79062000  0.00177000  1.0
  C  C133  1  0.33499000  0.29062000  0.49823000  1.0
  C  C134  1  0.91549000  0.70418000  0.16836000  1.0
  C  C135  1  0.58451000  0.20418000  0.33164000  1.0
  C  C136  1  0.08451000  0.29582000  0.83164000  1.0
  C  C137  1  0.41549000  0.79582000  0.66836000  1.0
  C  C138  1  0.71130000  0.71479000  0.15104000  1.0
  C  C139  1  0.78870000  0.21479000  0.34896000  1.0
  C  C140  1  0.28870000  0.28520000  0.84896000  1.0
  C  C141  1  0.21130000  0.78521000  0.65104000  1.0
  C  C142  1  0.02619000  0.76598000  0.16924000  1.0
  C  C143  1  0.47381000  0.26599000  0.33076000  1.0
  C  C144  1  0.97381000  0.23401000  0.83076000  1.0
  C  C145  1  0.52619000  0.73401000  0.66924000  1.0
  C  C146  1  0.98931000  0.20567000  0.18760000  1.0
  C  C147  1  0.51069000  0.70567000  0.31241000  1.0
  C  C148  1  0.01069000  0.79433000  0.81241000  1.0
  C  C149  1  0.48931000  0.29433000  0.68759000  1.0
  C  C150  1  0.85078000  0.31475000  0.99576000  1.0
  C  C151  1  0.64922000  0.81475000  0.50424000  1.0
  C  C152  1  0.14923000  0.68525000  0.00423000  1.0
  C  C153  1  0.35077000  0.18525000  0.49577000  1.0
  C  C154  1  0.91277000  0.59774000  0.17232000  1.0
  C  C155  1  0.58723000  0.09775000  0.32767000  1.0
  C  C156  1  0.08723000  0.40225000  0.82768000  1.0
  C  C157  1  0.41277000  0.90226000  0.67232000  1.0
  C  C158  1  0.70129000  0.60894000  0.15230000  1.0
  C  C159  1  0.79870000  0.10894000  0.34769000  1.0
  C  C160  1  0.29870000  0.39105000  0.84769000  1.0
  C  C161  1  0.20130000  0.89106000  0.65230000  1.0
  C  C162  1  0.80219000  0.55074000  0.16377000  1.0
  C  C163  1  0.69780000  0.05074000  0.33623000  1.0
  C  C164  1  0.19780000  0.44925000  0.83623000  1.0
  C  C165  1  0.30220000  0.94926000  0.66377000  1.0
  C  C166  1  0.02060000  0.53010000  0.18281000  1.0
  C  C167  1  0.47940000  0.03011000  0.31719000  1.0
  C  C168  1  0.97940000  0.46989000  0.81720000  1.0
  C  C169  1  0.52061000  0.96989000  0.68281000  1.0
  N  N170  1  0.87240000  0.05522000  0.18024000  1.0
  N  N171  1  0.62760000  0.55522000  0.31976000  1.0
  N  N172  1  0.12760000  0.94478000  0.81976000  1.0
  N  N173  1  0.37240000  0.44478000  0.68024000  1.0
  N  N174  1  0.81599000  0.76014000  0.16000000  1.0
  N  N175  1  0.68401000  0.26014000  0.34000000  1.0
  N  N176  1  0.18401000  0.23986000  0.84000000  1.0
  N  N177  1  0.31599000  0.73987000  0.66000000  1.0
  N  N178  1  0.95877000  0.35483000  0.99805000  1.0
  N  N179  1  0.54123000  0.85483000  0.50195000  1.0
  N  N180  1  0.04123000  0.64518000  0.00195000  1.0
  N  N181  1  0.45876000  0.14518000  0.49805000  1.0
  O  O182  1  0.45292000  0.89391000  0.14060000  1.0
  O  O183  1  0.04708000  0.39390000  0.35939000  1.0
  O  O184  1  0.54708000  0.10610000  0.85939000  1.0
  O  O185  1  0.95292000  0.60610000  0.64061000  1.0
  O  O186  1  0.38764000  0.01665000  0.02546000  1.0
  O  O187  1  0.11236000  0.51665000  0.47454000  1.0
  O  O188  1  0.61236000  0.98335000  0.97454000  1.0
  O  O189  1  0.88764000  0.48335000  0.52546000  1.0
  O  O190  1  0.40460000  0.23155000  0.10128000  1.0
  O  O191  1  0.09541000  0.73155000  0.39872000  1.0
  O  O192  1  0.59541000  0.76845000  0.89872000  1.0
  O  O193  1  0.90459000  0.26845000  0.60128000  1.0
  O  O194  1  0.27120000  0.20073000  0.21011000  1.0
  O  O195  1  0.22880000  0.70073000  0.28990000  1.0
  O  O196  1  0.72880000  0.79927000  0.78990000  1.0
  O  O197  1  0.77119000  0.29927000  0.71010000  1.0
  O  O198  1  0.22687000  0.95261000  0.19285000  1.0
  O  O199  1  0.27313000  0.45261000  0.30715000  1.0
  O  O200  1  0.77313000  0.04739000  0.80715000  1.0
  O  O201  1  0.72687000  0.54739000  0.69285000  1.0
  O  O202  1  0.56666000  0.09248000  0.14881000  1.0
  O  O203  1  0.93334000  0.59247000  0.35119000  1.0
  O  O204  1  0.43334000  0.90753000  0.85119000  1.0
  O  O205  1  0.06666000  0.40753000  0.64881000  1.0
  O  O206  1  0.19108000  0.10814000  0.08117000  1.0
  O  O207  1  0.30892000  0.60814000  0.41883000  1.0
  O  O208  1  0.80892000  0.89187000  0.91883000  1.0
  O  O209  1  0.69108000  0.39186000  0.58117000  1.0
  O  O210  1  0.42015000  0.03577000  0.25799000  1.0
  O  O211  1  0.07985000  0.53577000  0.24201000  1.0
  O  O212  1  0.57985000  0.96423000  0.74202000  1.0
  O  O213  1  0.92015000  0.46423000  0.75799000  1.0
  O  O214  1  0.67635000  0.95269000  0.16840000  1.0
  O  O215  1  0.82365000  0.45269000  0.33160000  1.0
  O  O216  1  0.32365000  0.04731000  0.83160000  1.0
  O  O217  1  0.17635000  0.54731000  0.66840000  1.0
  O  O218  1  0.19028000  0.07492000  0.96471000  1.0
  O  O219  1  0.30972000  0.57492000  0.53529000  1.0
  O  O220  1  0.80972000  0.92508000  0.03529000  1.0
  O  O221  1  0.69028000  0.42508000  0.46471000  1.0
  O  O222  1  0.01308000  0.86434000  0.17282000  1.0
  O  O223  1  0.48692000  0.36434000  0.32718000  1.0
  O  O224  1  0.98692000  0.13566000  0.82719000  1.0
  O  O225  1  0.51308000  0.63566000  0.67281000  1.0
  O  O226  1  0.64729000  0.35030000  0.19862000  1.0
  O  O227  1  0.85271000  0.85030000  0.30138000  1.0
  O  O228  1  0.35272000  0.64969000  0.80138000  1.0
  O  O229  1  0.14728000  0.14970000  0.69863000  1.0
  O  O230  1  0.62389000  0.28110000  0.08941000  1.0
  O  O231  1  0.87612000  0.78111000  0.41059000  1.0
  O  O232  1  0.37612000  0.71889000  0.91059000  1.0
  O  O233  1  0.12388000  0.21889000  0.58942000  1.0
  O  O234  1  0.16309000  0.44891000  0.99882000  1.0
  O  O235  1  0.33691000  0.94891000  0.50117000  1.0
  O  O236  1  0.83691000  0.55109000  0.00117000  1.0
  O  O237  1  0.66308000  0.05110000  0.49883000  1.0
  O  O238  1  0.26376000  0.30126000  0.00215000  1.0
  O  O239  1  0.23623000  0.80127000  0.49785000  1.0
  O  O240  1  0.73624000  0.69874000  0.99785000  1.0
  O  O241  1  0.76377000  0.19874000  0.50215000  1.0
  O  O242  1  0.12391000  0.72398000  0.16518000  1.0
  O  O243  1  0.37609000  0.22398000  0.33482000  1.0
  O  O244  1  0.87609000  0.27602000  0.83482000  1.0
  O  O245  1  0.62391000  0.77602000  0.66518000  1.0
  O  O246  1  0.96050000  0.53176000  0.86512000  1.0
  O  O247  1  0.53950000  0.03176000  0.63488000  1.0
  O  O248  1  0.03950000  0.46824000  0.13488000  1.0
  O  O249  1  0.46050000  0.96824000  0.36512000  1.0
