# generated using pymatgen
data_YP2H7(CO4)2
_symmetry_space_group_name_H-M   'P 1'
_cell_length_a   8.06616000
_cell_length_b   9.71023000
_cell_length_c   10.81070000
_cell_angle_alpha   89.99920000
_cell_angle_beta   78.96800000
_cell_angle_gamma   89.99800000
_symmetry_Int_Tables_number   1
_chemical_formula_structural   YP2H7(CO4)2
_chemical_formula_sum   'Y4 P8 H28 C8 O32'
_cell_volume   831.09280560
_cell_formula_units_Z   4
loop_
 _symmetry_equiv_pos_site_id
 _symmetry_equiv_pos_as_xyz
  1  'x, y, z'
loop_
 _atom_site_type_symbol
 _atom_site_label
 _atom_site_symmetry_multiplicity
 _atom_site_fract_x
 _atom_site_fract_y
 _atom_site_fract_z
 _atom_site_occupancy
  Y  Y0  1  0.43886000  0.81679000  0.07143000  1.0
  Y  Y1  1  0.56112000  0.31678000  0.42859000  1.0
  Y  Y2  1  0.56113000  0.18321000  0.92859000  1.0
  Y  Y3  1  0.43888000  0.68321000  0.57142000  1.0
  P  P4  1  0.19023000  0.70972000  0.86941000  1.0
  P  P5  1  0.80977000  0.20972000  0.63059000  1.0
  P  P6  1  0.80977000  0.29028000  0.13059000  1.0
  P  P7  1  0.19023000  0.79028000  0.36941000  1.0
  P  P8  1  0.41126000  0.96148000  0.78692000  1.0
  P  P9  1  0.58873000  0.46148000  0.71307000  1.0
  P  P10  1  0.58873000  0.03852000  0.21306000  1.0
  P  P11  1  0.41128000  0.53853000  0.28692000  1.0
  H  H12  1  0.94149000  0.91901000  0.82670000  1.0
  H  H13  1  0.05851000  0.41901000  0.67331000  1.0
  H  H14  1  0.05851000  0.08097000  0.17331000  1.0
  H  H15  1  0.94149000  0.58098000  0.32671000  1.0
  H  H16  1  0.10083000  0.92687000  0.68915000  1.0
  H  H17  1  0.89915000  0.42687000  0.81085000  1.0
  H  H18  1  0.89916000  0.07313000  0.31085000  1.0
  H  H19  1  0.10085000  0.57311000  0.18915000  1.0
  H  H20  1  0.07017000  0.06916000  0.79341000  1.0
  H  H21  1  0.92980000  0.56916000  0.70660000  1.0
  H  H22  1  0.92980000  0.93083000  0.20658000  1.0
  H  H23  1  0.07020000  0.43083000  0.29341000  1.0
  H  H24  1  0.65794000  0.59164000  0.98684000  1.0
  H  H25  1  0.34205000  0.09163000  0.51316000  1.0
  H  H26  1  0.34206000  0.40837000  0.01316000  1.0
  H  H27  1  0.65794000  0.90838000  0.48684000  1.0
  H  H28  1  0.89688000  0.68526000  0.92646000  1.0
  H  H29  1  0.10312000  0.18525000  0.57356000  1.0
  H  H30  1  0.10312000  0.31473000  0.07354000  1.0
  H  H31  1  0.89689000  0.81474000  0.42645000  1.0
  H  H32  1  0.65097000  0.66596000  0.85740000  1.0
  H  H33  1  0.34903000  0.16596000  0.64260000  1.0
  H  H34  1  0.34904000  0.33404000  0.14260000  1.0
  H  H35  1  0.65096000  0.83404000  0.35740000  1.0
  H  H36  1  0.07804000  0.90791000  0.03867000  1.0
  H  H37  1  0.92194000  0.40794000  0.46134000  1.0
  H  H38  1  0.92196000  0.09207000  0.96132000  1.0
  H  H39  1  0.07806000  0.59208000  0.53868000  1.0
  C  C40  1  0.19976000  0.89750000  0.85933000  1.0
  C  C41  1  0.80023000  0.39749000  0.64066000  1.0
  C  C42  1  0.80023000  0.10250000  0.14065000  1.0
  C  C43  1  0.19977000  0.60250000  0.35934000  1.0
  C  C44  1  0.06953000  0.95624000  0.78905000  1.0
  C  C45  1  0.93047000  0.45625000  0.71096000  1.0
  C  C46  1  0.93046000  0.04375000  0.21095000  1.0
  C  C47  1  0.06954000  0.54375000  0.28905000  1.0
  O  O48  1  0.18322000  0.94497000  0.98947000  1.0
  O  O49  1  0.81674000  0.44496000  0.51053000  1.0
  O  O50  1  0.81678000  0.05502000  0.01052000  1.0
  O  O51  1  0.18324000  0.55504000  0.48948000  1.0
  O  O52  1  0.01015000  0.67617000  0.95151000  1.0
  O  O53  1  0.98987000  0.17620000  0.54848000  1.0
  O  O54  1  0.98985000  0.32379000  0.04848000  1.0
  O  O55  1  0.01015000  0.82381000  0.45152000  1.0
  O  O56  1  0.39496000  0.11979000  0.77960000  1.0
  O  O57  1  0.60505000  0.61979000  0.72039000  1.0
  O  O58  1  0.60501000  0.88020000  0.22041000  1.0
  O  O59  1  0.39496000  0.38022000  0.27963000  1.0
  O  O60  1  0.68320000  0.68002000  0.94270000  1.0
  O  O61  1  0.31682000  0.18003000  0.55729000  1.0
  O  O62  1  0.31679000  0.31998000  0.05730000  1.0
  O  O63  1  0.68323000  0.82000000  0.44270000  1.0
  O  O64  1  0.52499000  0.93591000  0.88546000  1.0
  O  O65  1  0.47500000  0.43589000  0.61453000  1.0
  O  O66  1  0.47499000  0.06409000  0.11454000  1.0
  O  O67  1  0.52499000  0.56411000  0.38546000  1.0
  O  O68  1  0.21855000  0.65378000  0.73579000  1.0
  O  O69  1  0.78149000  0.15378000  0.76422000  1.0
  O  O70  1  0.78145000  0.34624000  0.26420000  1.0
  O  O71  1  0.21853000  0.84623000  0.23580000  1.0
  O  O72  1  0.46600000  0.88998000  0.66146000  1.0
  O  O73  1  0.53401000  0.39002000  0.83851000  1.0
  O  O74  1  0.53399000  0.11001000  0.33853000  1.0
  O  O75  1  0.46601000  0.61000000  0.16147000  1.0
  O  O76  1  0.31320000  0.66797000  0.95322000  1.0
  O  O77  1  0.68681000  0.16799000  0.54680000  1.0
  O  O78  1  0.68679000  0.33204000  0.04677000  1.0
  O  O79  1  0.31321000  0.83204000  0.45321000  1.0
