# generated using pymatgen
data_Zn2H6C14SO7F
_symmetry_space_group_name_H-M   'P 1'
_cell_length_a   18.54480000
_cell_length_b   19.72130000
_cell_length_c   32.80200000
_cell_angle_alpha   85.99730000
_cell_angle_beta   73.58870000
_cell_angle_gamma   61.96880000
_symmetry_Int_Tables_number   1
_chemical_formula_structural   Zn2H6C14SO7F
_chemical_formula_sum   'Zn16 H48 C112 S8 O56 F8'
_cell_volume   10129.73938853
_cell_formula_units_Z   8
loop_
 _symmetry_equiv_pos_site_id
 _symmetry_equiv_pos_as_xyz
  1  'x, y, z'
loop_
 _atom_site_type_symbol
 _atom_site_label
 _atom_site_symmetry_multiplicity
 _atom_site_fract_x
 _atom_site_fract_y
 _atom_site_fract_z
 _atom_site_occupancy
  Zn  Zn0  1  0.87371000  0.55618000  0.51868000  1.0
  Zn  Zn1  1  0.03844000  0.48487000  0.43798000  1.0
  Zn  Zn2  1  0.04193000  0.39819000  0.52322000  1.0
  Zn  Zn3  1  0.04593000  0.56047000  0.51843000  1.0
  Zn  Zn4  1  0.62544000  0.19176000  0.73171000  1.0
  Zn  Zn5  1  0.46313000  0.35068000  0.72544000  1.0
  Zn  Zn6  1  0.45797000  0.26619000  0.81258000  1.0
  Zn  Zn7  1  0.45259000  0.19329000  0.72978000  1.0
  Zn  Zn8  1  0.46207000  0.76369000  0.31237000  1.0
  Zn  Zn9  1  0.45266000  0.69160000  0.23109000  1.0
  Zn  Zn10  1  0.62579000  0.69197000  0.22943000  1.0
  Zn  Zn11  1  0.45900000  0.85070000  0.22582000  1.0
  Zn  Zn12  1  0.03726000  0.89907000  0.02409000  1.0
  Zn  Zn13  1  0.04878000  0.05728000  0.01899000  1.0
  Zn  Zn14  1  0.87520000  0.05796000  0.01938000  1.0
  Zn  Zn15  1  0.03728000  0.98578000  0.93745000  1.0
  H  H16  1  0.80324000  0.96577000  0.65527000  1.0
  H  H17  1  0.31124000  0.97614000  0.40153000  1.0
  H  H18  1  0.81393000  0.24306000  0.65217000  1.0
  H  H19  1  0.54242000  0.48453000  0.62096000  1.0
  H  H20  1  0.54759000  0.52474000  0.66638000  1.0
  H  H21  1  0.64586000  0.57104000  0.61816000  1.0
  H  H22  1  0.64043000  0.53089000  0.57285000  1.0
  H  H23  1  0.29144000  0.60080000  0.29612000  1.0
  H  H24  1  0.35223000  0.67432000  0.43278000  1.0
  H  H25  1  0.26146000  0.76261000  0.43015000  1.0
  H  H26  1  0.16492000  0.71370000  0.47724000  1.0
  H  H27  1  0.25549000  0.62542000  0.47984000  1.0
  H  H28  1  0.81251000  0.60052000  0.29559000  1.0
  H  H29  1  0.54623000  0.76268000  0.42950000  1.0
  H  H30  1  0.54094000  0.67449000  0.43204000  1.0
  H  H31  1  0.63922000  0.62528000  0.47916000  1.0
  H  H32  1  0.64463000  0.71334000  0.47663000  1.0
  H  H33  1  0.30474000  0.45875000  0.64532000  1.0
  H  H34  1  0.33248000  0.17795000  0.63048000  1.0
  H  H35  1  0.24184000  0.21809000  0.67593000  1.0
  H  H36  1  0.14555000  0.26822000  0.62771000  1.0
  H  H37  1  0.23624000  0.22811000  0.58234000  1.0
  H  H38  1  0.18884000  0.65952000  0.96237000  1.0
  H  H39  1  0.68675000  0.14987000  0.95442000  1.0
  H  H40  1  0.95771000  0.07635000  0.81786000  1.0
  H  H41  1  0.95277000  0.98801000  0.82042000  1.0
  H  H42  1  0.85458000  0.03687000  0.77330000  1.0
  H  H43  1  0.85949000  0.12520000  0.77077000  1.0
  H  H44  1  0.19528000  0.05240000  0.84358000  1.0
  H  H45  1  0.16737000  0.21524000  0.97659000  1.0
  H  H46  1  0.25822000  0.12702000  0.97918000  1.0
  H  H47  1  0.35420000  0.17439000  0.92996000  1.0
  H  H48  1  0.26342000  0.26252000  0.92746000  1.0
  H  H49  1  0.92567000  0.28356000  0.09444000  1.0
  H  H50  1  0.19504000  0.79189000  0.10421000  1.0
  H  H51  1  0.25805000  0.03265000  0.07372000  1.0
  H  H52  1  0.16712000  0.07282000  0.11911000  1.0
  H  H53  1  0.26302000  0.02275000  0.16738000  1.0
  H  H54  1  0.35390000  0.98253000  0.12209000  1.0
  H  H55  1  0.68692000  0.00632000  0.09774000  1.0
  H  H56  1  0.95299000  0.72441000  0.08369000  1.0
  H  H57  1  0.95806000  0.76472000  0.12912000  1.0
  H  H58  1  0.85983000  0.71863000  0.17715000  1.0
  H  H59  1  0.85485000  0.67815000  0.13180000  1.0
  H  H60  1  0.62187000  0.82143000  0.60706000  1.0
  H  H61  1  0.21376000  0.26113000  0.31178000  1.0
  H  H62  1  0.28585000  0.65227000  0.77523000  1.0
  H  H63  1  0.55100000  0.42963000  0.14324000  1.0
  C  C64  1  0.86215000  0.56820000  0.43064000  1.0
  C  C65  1  0.12375000  0.31594000  0.43785000  1.0
  C  C66  1  0.86392000  0.42940000  0.56846000  1.0
  C  C67  1  0.13809000  0.43255000  0.56845000  1.0
  C  C68  1  0.87407000  0.68424000  0.56095000  1.0
  C  C69  1  0.13733000  0.56954000  0.43092000  1.0
  C  C70  1  0.63993000  0.31724000  0.68096000  1.0
  C  C71  1  0.37691000  0.43529000  0.81037000  1.0
  C  C72  1  0.63606000  0.18160000  0.81959000  1.0
  C  C73  1  0.36142000  0.18122000  0.81825000  1.0
  C  C74  1  0.62349000  0.06596000  0.68863000  1.0
  C  C75  1  0.36292000  0.31984000  0.68039000  1.0
  C  C76  1  0.36225000  0.68093000  0.31910000  1.0
  C  C77  1  0.62208000  0.56555000  0.18833000  1.0
  C  C78  1  0.63851000  0.68085000  0.31821000  1.0
  C  C79  1  0.63644000  0.81958000  0.18070000  1.0
  C  C80  1  0.37683000  0.93318000  0.31165000  1.0
  C  C81  1  0.36116000  0.81846000  0.18112000  1.0
  C  C82  1  0.13769000  0.93042000  0.06874000  1.0
  C  C83  1  0.87877000  0.18392000  0.06125000  1.0
  C  C84  1  0.86092000  0.93183000  0.06898000  1.0
  C  C85  1  0.86083000  0.06968000  0.93147000  1.0
  C  C86  1  0.12184000  0.81581000  0.93889000  1.0
  C  C87  1  0.13771000  0.06855000  0.93061000  1.0
  C  C88  1  0.73544000  0.80279000  0.60092000  1.0
  C  C89  1  0.76021000  0.94735000  0.64916000  1.0
  C  C90  1  0.82381000  0.75851000  0.58603000  1.0
  C  C91  1  0.67260000  0.99110000  0.66372000  1.0
  C  C92  1  0.78348000  0.87873000  0.62621000  1.0
  C  C93  1  0.71265000  0.87165000  0.62386000  1.0
  C  C94  1  0.20196000  0.22768000  0.36837000  1.0
  C  C95  1  0.29880000  0.02235000  0.38012000  1.0
  C  C96  1  0.17295000  0.24196000  0.41267000  1.0
  C  C97  1  0.32745000  0.00827000  0.33627000  1.0
  C  C98  1  0.25309000  0.10214000  0.39197000  1.0
  C  C99  1  0.24787000  0.14737000  0.35671000  1.0
  C  C100  1  0.69641000  0.34585000  0.65254000  1.0
  C  C101  1  0.80840000  0.39987000  0.59713000  1.0
  C  C102  1  0.66524000  0.41820000  0.63635000  1.0
  C  C103  1  0.83853000  0.32673000  0.61407000  1.0
  C  C104  1  0.71959000  0.44367000  0.60971000  1.0
  C  C105  1  0.78549000  0.30018000  0.64062000  1.0
  C  C106  1  0.58534000  0.49160000  0.63546000  1.0
  C  C107  1  0.64677000  0.52061000  0.60530000  1.0
  C  C108  1  0.30556000  0.65265000  0.34753000  1.0
  C  C109  1  0.19445000  0.59702000  0.40200000  1.0
  C  C110  1  0.28045000  0.66448000  0.39178000  1.0
  C  C111  1  0.22097000  0.58551000  0.35692000  1.0
  C  C112  1  0.22695000  0.63755000  0.41773000  1.0
  C  C113  1  0.27421000  0.61194000  0.33048000  1.0
  C  C114  1  0.28777000  0.69969000  0.42901000  1.0
  C  C115  1  0.22723000  0.66909000  0.45849000  1.0
  C  C116  1  0.69493000  0.65259000  0.34678000  1.0
  C  C117  1  0.80677000  0.59639000  0.40155000  1.0
  C  C118  1  0.66371000  0.66446000  0.39107000  1.0
  C  C119  1  0.83707000  0.58513000  0.35648000  1.0
  C  C120  1  0.71803000  0.63718000  0.41711000  1.0
  C  C121  1  0.78401000  0.61178000  0.32993000  1.0
  C  C122  1  0.58390000  0.69974000  0.42829000  1.0
  C  C123  1  0.64542000  0.66891000  0.45783000  1.0
  C  C124  1  0.30546000  0.34835000  0.65237000  1.0
  C  C125  1  0.19455000  0.40542000  0.59709000  1.0
  C  C126  1  0.27271000  0.30496000  0.63997000  1.0
  C  C127  1  0.22834000  0.44854000  0.61029000  1.0
  C  C128  1  0.21945000  0.33284000  0.61336000  1.0
  C  C129  1  0.28152000  0.42185000  0.63675000  1.0
  C  C130  1  0.27073000  0.22885000  0.64368000  1.0
  C  C131  1  0.21046000  0.26024000  0.61353000  1.0
  C  C132  1  0.29839000  0.58367000  0.81995000  1.0
  C  C133  1  0.20121000  0.66852000  0.92855000  1.0
  C  C134  1  0.32762000  0.51004000  0.83483000  1.0
  C  C135  1  0.17208000  0.74133000  0.91367000  1.0
  C  C136  1  0.24717000  0.61086000  0.89455000  1.0
  C  C137  1  0.25222000  0.64121000  0.85431000  1.0
  C  C138  1  0.80416000  0.09793000  0.90305000  1.0
  C  C139  1  0.69179000  0.15374000  0.84856000  1.0
  C  C140  1  0.83509000  0.08606000  0.85879000  1.0
  C  C141  1  0.66187000  0.16502000  0.89361000  1.0
  C  C142  1  0.78060000  0.11314000  0.83281000  1.0
  C  C143  1  0.71507000  0.13862000  0.92007000  1.0
  C  C144  1  0.91491000  0.05093000  0.82161000  1.0
  C  C145  1  0.85337000  0.08154000  0.79209000  1.0
  C  C146  1  0.19463000  0.09691000  0.90233000  1.0
  C  C147  1  0.30499000  0.15185000  0.84614000  1.0
  C  C148  1  0.22713000  0.13746000  0.91782000  1.0
  C  C149  1  0.27134000  0.11037000  0.83116000  1.0
  C  C150  1  0.28013000  0.16368000  0.89057000  1.0
  C  C151  1  0.21840000  0.08378000  0.85776000  1.0
  C  C152  1  0.22912000  0.17001000  0.95772000  1.0
  C  C153  1  0.28924000  0.19968000  0.92691000  1.0
  C  C154  1  0.64096000  0.44702000  0.14910000  1.0
  C  C155  1  0.85808000  0.30208000  0.10064000  1.0
  C  C156  1  0.67090000  0.49110000  0.16364000  1.0
  C  C157  1  0.82836000  0.25861000  0.08616000  1.0
  C  C158  1  0.79011000  0.37075000  0.12355000  1.0
  C  C159  1  0.70966000  0.37807000  0.12609000  1.0
  C  C160  1  0.19452000  0.90222000  0.09705000  1.0
  C  C161  1  0.30469000  0.84556000  0.15259000  1.0
  C  C162  1  0.22695000  0.94579000  0.10957000  1.0
  C  C163  1  0.27111000  0.80225000  0.13937000  1.0
  C  C164  1  0.27989000  0.91806000  0.13630000  1.0
  C  C165  1  0.21820000  0.82883000  0.11278000  1.0
  C  C166  1  0.22890000  0.02193000  0.10594000  1.0
  C  C167  1  0.28895000  0.99058000  0.13620000  1.0
  C  C168  1  0.80438000  0.90331000  0.09736000  1.0
  C  C169  1  0.69215000  0.84934000  0.15251000  1.0
  C  C170  1  0.83541000  0.83100000  0.11356000  1.0
  C  C171  1  0.66215000  0.92263000  0.13570000  1.0
  C  C172  1  0.78095000  0.80553000  0.14009000  1.0
  C  C173  1  0.71529000  0.94917000  0.10926000  1.0
  C  C174  1  0.91521000  0.75765000  0.11458000  1.0
  C  C175  1  0.85369000  0.72869000  0.14467000  1.0
  S  S176  1  0.87819000  0.80107000  0.60017000  1.0
  S  S177  1  0.61761000  0.94932000  0.64971000  1.0
  S  S178  1  0.20177000  0.15779000  0.43954000  1.0
  S  S179  1  0.29915000  0.09181000  0.30902000  1.0
  S  S180  1  0.29881000  0.51167000  0.89038000  1.0
  S  S181  1  0.20040000  0.74049000  0.85826000  1.0
  S  S182  1  0.78191000  0.44828000  0.14928000  1.0
  S  S183  1  0.71763000  0.30062000  0.10027000  1.0
  O  O184  1  0.99893000  0.50039000  0.50050000  1.0
  O  O185  1  0.82333000  0.58286000  0.47055000  1.0
  O  O186  1  0.10273000  0.37648000  0.41740000  1.0
  O  O187  1  0.94409000  0.38655000  0.55893000  1.0
  O  O188  1  0.94220000  0.53239000  0.41381000  1.0
  O  O189  1  0.82459000  0.49650000  0.55592000  1.0
  O  O190  1  0.10620000  0.31299000  0.47855000  1.0
  O  O191  1  0.11583000  0.38443000  0.55931000  1.0
  O  O192  1  0.95528000  0.65712000  0.55103000  1.0
  O  O193  1  0.11699000  0.49978000  0.55556000  1.0
  O  O194  1  0.83353000  0.65342000  0.55125000  1.0
  O  O195  1  0.11218000  0.53160000  0.41406000  1.0
  O  O196  1  0.11854000  0.58687000  0.47077000  1.0
  O  O197  1  0.50054000  0.25003000  0.74999000  1.0
  O  O198  1  0.67555000  0.25021000  0.69411000  1.0
  O  O199  1  0.39864000  0.43550000  0.76984000  1.0
  O  O200  1  0.55593000  0.21859000  0.83618000  1.0
  O  O201  1  0.56006000  0.36302000  0.68966000  1.0
  O  O202  1  0.67519000  0.16517000  0.77976000  1.0
  O  O203  1  0.39377000  0.37591000  0.83228000  1.0
  O  O204  1  0.38393000  0.21897000  0.83758000  1.0
  O  O205  1  0.54235000  0.09580000  0.69754000  1.0
  O  O206  1  0.38244000  0.16679000  0.77819000  1.0
  O  O207  1  0.66590000  0.09410000  0.69903000  1.0
  O  O208  1  0.38908000  0.36464000  0.68954000  1.0
  O  O209  1  0.38114000  0.25231000  0.69282000  1.0
  O  O210  1  0.50070000  0.74987000  0.24989000  1.0
  O  O211  1  0.38746000  0.71745000  0.33743000  1.0
  O  O212  1  0.54112000  0.59507000  0.19884000  1.0
  O  O213  1  0.67418000  0.66666667  0.27816000  1.0
  O  O214  1  0.38074000  0.66648000  0.27911000  1.0
  O  O215  1  0.55860000  0.71714000  0.33675000  1.0
  O  O216  1  0.66572000  0.59445000  0.19718000  1.0
  O  O217  1  0.67525000  0.75162000  0.19236000  1.0
  O  O218  1  0.39490000  0.93502000  0.27106000  1.0
  O  O219  1  0.55631000  0.86313000  0.19071000  1.0
  O  O220  1  0.39693000  0.87347000  0.33289000  1.0
  O  O221  1  0.38176000  0.75144000  0.19414000  1.0
  O  O222  1  0.38422000  0.86615000  0.19005000  1.0
  O  O223  1  0.00005000  0.99994000  0.99994000  1.0
  O  O224  1  0.11173000  0.88546000  0.05957000  1.0
  O  O225  1  0.95974000  0.15495000  0.05150000  1.0
  O  O226  1  0.82527000  0.99946000  0.05656000  1.0
  O  O227  1  0.11985000  0.99777000  0.05609000  1.0
  O  O228  1  0.94082000  0.88558000  0.05948000  1.0
  O  O229  1  0.83621000  0.15490000  0.05164000  1.0
  O  O230  1  0.82526000  0.08495000  0.97148000  1.0
  O  O231  1  0.10222000  0.87586000  0.91771000  1.0
  O  O232  1  0.94072000  0.03231000  0.91304000  1.0
  O  O233  1  0.10243000  0.81379000  0.97936000  1.0
  O  O234  1  0.11986000  0.08324000  0.97060000  1.0
  O  O235  1  0.11170000  0.03233000  0.91271000  1.0
  O  O236  1  0.67980000  0.78161000  0.59391000  1.0
  O  O237  1  0.18730000  0.28418000  0.34097000  1.0
  O  O238  1  0.31298000  0.59690000  0.77800000  1.0
  O  O239  1  0.55711000  0.46871000  0.15641000  1.0
  F  F240  1  0.92346000  0.27790000  0.60473000  1.0
  F  F241  1  0.19443000  0.54704000  0.33712000  1.0
  F  F242  1  0.92189000  0.54649000  0.33677000  1.0
  F  F243  1  0.20961000  0.52020000  0.59699000  1.0
  F  F244  1  0.57696000  0.20338000  0.91340000  1.0
  F  F245  1  0.29003000  0.09450000  0.78869000  1.0
  F  F246  1  0.28978000  0.73072000  0.15270000  1.0
  F  F247  1  0.57724000  0.97159000  0.14505000  1.0
