# generated using pymatgen
data_AlH3C24(Cl2O)6
_symmetry_space_group_name_H-M   'P 1'
_cell_length_a   4.05334000
_cell_length_b   28.80562918
_cell_length_c   28.80620000
_cell_angle_alpha   60.00203355
_cell_angle_beta   89.99680000
_cell_angle_gamma   89.99910003
_symmetry_Int_Tables_number   1
_chemical_formula_structural   AlH3C24(Cl2O)6
_chemical_formula_sum   'Al2 H6 C48 Cl24 O12'
_cell_volume   2912.83511650
_cell_formula_units_Z   2
loop_
 _symmetry_equiv_pos_site_id
 _symmetry_equiv_pos_as_xyz
  1  'x, y, z'
loop_
 _atom_site_type_symbol
 _atom_site_label
 _atom_site_symmetry_multiplicity
 _atom_site_fract_x
 _atom_site_fract_y
 _atom_site_fract_z
 _atom_site_occupancy
  Al  Al0  1  0.02120000  0.50000000  0.00001000  1.0
  Al  Al1  1  0.02120000  0.16667000  0.66666000  1.0
  H  H2  1  0.49215000  0.27737000  0.33958000  1.0
  H  H3  1  0.49220000  0.38929000  0.32709000  1.0
  H  H4  1  0.49216000  0.38304000  0.77738000  1.0
  H  H5  1  0.49206000  0.28362000  0.88930000  1.0
  H  H6  1  0.49218000  0.83958000  0.88304000  1.0
  H  H7  1  0.49209000  0.82708000  0.78362000  1.0
  C  C8  1  0.51965000  0.58172000  0.95391000  1.0
  C  C9  1  0.51958000  0.46439000  0.08171000  1.0
  C  C10  1  0.51959000  0.45391000  0.96438000  1.0
  C  C11  1  0.51961000  0.20228000  0.58495000  1.0
  C  C12  1  0.51959000  0.21277000  0.70227000  1.0
  C  C13  1  0.51964000  0.08495000  0.71276000  1.0
  C  C14  1  0.50938000  0.23021000  0.52459000  1.0
  C  C15  1  0.38407000  0.28230000  0.49521000  1.0
  C  C16  1  0.36370000  0.30822000  0.43903000  1.0
  C  C17  1  0.48547000  0.28363000  0.41037000  1.0
  C  C18  1  0.61593000  0.23094000  0.44136000  1.0
  C  C19  1  0.62185000  0.20427000  0.49754000  1.0
  C  C20  1  0.47892000  0.30705000  0.35223000  1.0
  C  C21  1  0.47894000  0.35961000  0.31443000  1.0
  C  C22  1  0.61592000  0.43573000  0.22529000  1.0
  C  C23  1  0.48547000  0.38303000  0.25630000  1.0
  C  C24  1  0.36370000  0.35845000  0.22763000  1.0
  C  C25  1  0.38402000  0.38437000  0.17145000  1.0
  C  C26  1  0.50932000  0.43645000  0.14208000  1.0
  C  C27  1  0.62182000  0.46240000  0.16912000  1.0
  C  C28  1  0.50930000  0.24520000  0.73021000  1.0
  C  C29  1  0.38397000  0.22249000  0.78229000  1.0
  C  C30  1  0.36363000  0.25275000  0.80821000  1.0
  C  C31  1  0.48539000  0.30600000  0.78363000  1.0
  C  C32  1  0.61587000  0.32769000  0.73094000  1.0
  C  C33  1  0.62178000  0.29819000  0.70426000  1.0
  C  C34  1  0.47887000  0.34071000  0.80706000  1.0
  C  C35  1  0.47885000  0.32596000  0.85961000  1.0
  C  C36  1  0.61588000  0.33898000  0.93573000  1.0
  C  C37  1  0.48541000  0.36067000  0.88303000  1.0
  C  C38  1  0.36367000  0.41392000  0.85845000  1.0
  C  C39  1  0.38404000  0.44419000  0.88436000  1.0
  C  C40  1  0.50935000  0.42148000  0.93645000  1.0
  C  C41  1  0.62182000  0.36849000  0.96239000  1.0
  C  C42  1  0.50934000  0.02459000  0.74519000  1.0
  C  C43  1  0.38406000  0.99522000  0.72248000  1.0
  C  C44  1  0.36371000  0.93903000  0.75275000  1.0
  C  C45  1  0.48544000  0.91037000  0.80599000  1.0
  C  C46  1  0.61590000  0.94137000  0.82769000  1.0
  C  C47  1  0.62183000  0.99755000  0.79817000  1.0
  C  C48  1  0.47890000  0.85223000  0.84071000  1.0
  C  C49  1  0.47888000  0.81443000  0.82595000  1.0
  C  C50  1  0.61595000  0.72529000  0.83898000  1.0
  C  C51  1  0.48547000  0.75630000  0.86067000  1.0
  C  C52  1  0.36373000  0.72764000  0.91391000  1.0
  C  C53  1  0.38411000  0.67146000  0.94418000  1.0
  C  C54  1  0.50941000  0.64208000  0.92147000  1.0
  C  C55  1  0.62190000  0.66912000  0.86848000  1.0
  Cl  Cl56  1  0.76921000  0.13992000  0.53428000  1.0
  Cl  Cl57  1  0.77850000  0.19841000  0.41007000  1.0
  Cl  Cl58  1  0.25400000  0.31381000  0.52919000  1.0
  Cl  Cl59  1  0.17459000  0.36999000  0.40699000  1.0
  Cl  Cl60  1  0.17461000  0.29667000  0.25968000  1.0
  Cl  Cl61  1  0.25393000  0.35286000  0.13748000  1.0
  Cl  Cl62  1  0.77852000  0.46825000  0.25659000  1.0
  Cl  Cl63  1  0.76914000  0.52675000  0.13238000  1.0
  Cl  Cl64  1  0.76912000  0.32580000  0.63991000  1.0
  Cl  Cl65  1  0.77845000  0.39151000  0.69842000  1.0
  Cl  Cl66  1  0.25388000  0.15701000  0.81379000  1.0
  Cl  Cl67  1  0.17454000  0.22301000  0.87000000  1.0
  Cl  Cl68  1  0.17454000  0.44365000  0.79667000  1.0
  Cl  Cl69  1  0.25398000  0.50967000  0.85286000  1.0
  Cl  Cl70  1  0.77846000  0.27517000  0.96824000  1.0
  Cl  Cl71  1  0.76918000  0.34088000  0.02674000  1.0
  Cl  Cl72  1  0.76920000  0.03429000  0.82578000  1.0
  Cl  Cl73  1  0.77848000  0.91008000  0.89150000  1.0
  Cl  Cl74  1  0.25400000  0.02918000  0.65700000  1.0
  Cl  Cl75  1  0.17459000  0.90698000  0.72302000  1.0
  Cl  Cl76  1  0.17462000  0.75969000  0.94365000  1.0
  Cl  Cl77  1  0.25406000  0.63749000  0.00967000  1.0
  Cl  Cl78  1  0.77851000  0.75658000  0.77516000  1.0
  Cl  Cl79  1  0.76925000  0.63237000  0.84088000  1.0
  O  O80  1  0.28590000  0.44675000  0.99657000  1.0
  O  O81  1  0.28589000  0.55668000  0.94675000  1.0
  O  O82  1  0.28585000  0.49658000  0.05668000  1.0
  O  O83  1  0.75988000  0.48593000  0.95323000  1.0
  O  O84  1  0.75983000  0.45324000  0.06085000  1.0
  O  O85  1  0.75986000  0.56085000  0.98593000  1.0
  O  O86  1  0.28583000  0.10998000  0.71993000  1.0
  O  O87  1  0.28589000  0.17009000  0.60998000  1.0
  O  O88  1  0.28585000  0.21993000  0.67008000  1.0
  O  O89  1  0.75984000  0.10582000  0.68075000  1.0
  O  O90  1  0.75982000  0.18076000  0.71342000  1.0
  O  O91  1  0.75989000  0.21343000  0.60582000  1.0
