# generated using pymatgen
data_Zr6H19C52O32F11
_symmetry_space_group_name_H-M   'P 1'
_cell_length_a   14.75735420
_cell_length_b   14.76480000
_cell_length_c   14.76770000
_cell_angle_alpha   119.68660000
_cell_angle_beta   90.22824082
_cell_angle_gamma   119.97883703
_symmetry_Int_Tables_number   1
_chemical_formula_structural   Zr6H19C52O32F11
_chemical_formula_sum   'Zr6 H19 C52 O32 F11'
_cell_volume   2282.21403082
_cell_formula_units_Z   1
loop_
 _symmetry_equiv_pos_site_id
 _symmetry_equiv_pos_as_xyz
  1  'x, y, z'
loop_
 _atom_site_type_symbol
 _atom_site_label
 _atom_site_symmetry_multiplicity
 _atom_site_fract_x
 _atom_site_fract_y
 _atom_site_fract_z
 _atom_site_occupancy
  Zr  Zr0  1  0.86633000  0.48911000  0.11298000  1.0
  Zr  Zr1  1  0.10798000  0.49426000  0.87663000  1.0
  Zr  Zr2  1  0.10604000  0.73038000  0.11542000  1.0
  Zr  Zr3  1  0.86800000  0.25295000  0.87539000  1.0
  Zr  Zr4  1  0.10736000  0.49114000  0.11414000  1.0
  Zr  Zr5  1  0.86732000  0.49181000  0.87462000  1.0
  H  H6  1  0.08139000  0.67666000  0.27654000  1.0
  H  H7  1  0.08395000  0.30657000  0.90351000  1.0
  H  H8  1  0.08042000  0.68191000  0.90244000  1.0
  H  H9  1  0.70340000  0.30253000  0.89862000  1.0
  H  H10  1  0.81487000  0.42922000  0.38067000  1.0
  H  H11  1  0.15008000  0.53512000  0.42895000  1.0
  H  H12  1  0.82113000  0.43358000  0.55308000  1.0
  H  H13  1  0.58149000  0.51435000  0.15147000  1.0
  H  H14  1  0.59737000  0.53685000  0.87140000  1.0
  H  H15  1  0.41166000  0.51533000  0.14705000  1.0
  H  H16  1  0.14816000  0.21462000  0.11639000  1.0
  H  H17  1  0.80997000  0.94099000  0.89487000  1.0
  H  H18  1  0.14223000  0.04094000  0.11521000  1.0
  H  H19  1  0.58548000  0.21828000  0.55943000  1.0
  H  H20  1  0.58914000  0.93352000  0.56960000  1.0
  H  H21  1  0.41456000  0.04351000  0.39037000  1.0
  H  H22  1  0.57177000  0.92630000  0.85346000  1.0
  H  H23  1  0.58799000  0.22470000  0.15140000  1.0
  H  H24  1  0.40241000  0.76281000  0.86082000  1.0
  C  C25  1  0.98082000  0.47996000  0.29250000  1.0
  C  C26  1  0.29977000  0.50900000  0.00080000  1.0
  C  C27  1  0.98663000  0.48749000  0.68889000  1.0
  C  C28  1  0.69077000  0.50635000  0.00263000  1.0
  C  C29  1  0.98787000  0.79240000  0.30046000  1.0
  C  C30  1  0.68654000  0.18507000  0.99629000  1.0
  C  C31  1  0.98977000  0.18967000  0.69476000  1.0
  C  C32  1  0.29523000  0.79929000  0.00409000  1.0
  C  C33  1  0.29741000  0.79244000  0.29206000  1.0
  C  C34  1  0.97818000  0.79398000  0.00174000  1.0
  C  C35  1  0.69199000  0.18883000  0.68255000  1.0
  C  C36  1  0.98368000  0.18911000  0.00119000  1.0
  C  C37  1  0.98754000  0.48655000  0.58746000  1.0
  C  C38  1  0.98145000  0.48044000  0.39387000  1.0
  C  C39  1  0.07964000  0.51570000  0.55082000  1.0
  C  C40  1  0.88866000  0.45279000  0.42901000  1.0
  C  C41  1  0.07735000  0.51197000  0.45509000  1.0
  C  C42  1  0.89226000  0.45552000  0.52433000  1.0
  C  C43  1  0.40740000  0.52289000  0.00632000  1.0
  C  C44  1  0.59731000  0.52094000  0.00942000  1.0
  C  C45  1  0.46386000  0.53322000  0.93159000  1.0
  C  C46  1  0.54727000  0.51893000  0.08963000  1.0
  C  C47  1  0.55700000  0.53147000  0.93184000  1.0
  C  C48  1  0.45359000  0.51959000  0.08725000  1.0
  C  C49  1  0.97451000  0.89476000  0.00506000  1.0
  C  C50  1  0.98022000  0.08816000  0.00482000  1.0
  C  C51  1  0.88129000  0.86976000  0.94489000  1.0
  C  C52  1  0.07359000  0.11713000  0.06838000  1.0
  C  C53  1  0.88327000  0.96384000  0.94326000  1.0
  C  C54  1  0.07018000  0.02115000  0.06777000  1.0
  C  C55  1  0.40447000  0.89182000  0.38649000  1.0
  C  C56  1  0.59636000  0.08688000  0.57631000  1.0
  C  C57  1  0.45762000  0.86375000  0.43737000  1.0
  C  C58  1  0.54862000  0.11816000  0.52442000  1.0
  C  C59  1  0.55171000  0.95883000  0.53100000  1.0
  C  C60  1  0.45412000  0.02152000  0.43108000  1.0
  C  C61  1  0.99473000  0.89495000  0.40760000  1.0
  C  C62  1  0.03368000  0.92347000  0.51300000  1.0
  C  C63  1  0.96117000  0.96410000  0.40153000  1.0
  C  C64  1  0.07416000  0.86073000  0.52750000  1.0
  C  C65  1  0.11027000  0.88710000  0.62927000  1.0
  C  C66  1  0.99664000  0.08905000  0.59942000  1.0
  C  C67  1  0.96192000  0.05984000  0.49627000  1.0
  C  C68  1  0.03482000  0.02214000  0.61041000  1.0
  C  C69  1  0.07658000  0.04974000  0.71397000  1.0
  C  C70  1  0.11157000  0.98339000  0.72420000  1.0
  C  C71  1  0.39977000  0.90071000  0.00832000  1.0
  C  C72  1  0.58930000  0.08522000  0.00118000  1.0
  C  C73  1  0.45507000  0.03201000  0.09056000  1.0
  C  C74  1  0.53820000  0.95495000  0.91974000  1.0
  C  C75  1  0.54810000  0.12371000  0.08759000  1.0
  C  C76  1  0.44466000  0.86464000  0.92380000  1.0
  O  O77  1  0.90289000  0.47856000  0.25246000  1.0
  O  O78  1  0.25504000  0.50172000  0.92119000  1.0
  O  O79  1  0.06250000  0.48709000  0.73004000  1.0
  O  O80  1  0.72670000  0.49963000  0.07644000  1.0
  O  O81  1  0.06351000  0.83245000  0.26140000  1.0
  O  O82  1  0.72341000  0.14732000  0.91735000  1.0
  O  O83  1  0.90958000  0.14877000  0.72898000  1.0
  O  O84  1  0.25183000  0.83423000  0.07733000  1.0
  O  O85  1  0.25342000  0.67589000  0.25477000  1.0
  O  O86  1  0.90580000  0.67819000  0.92144000  1.0
  O  O87  1  0.72698000  0.30433000  0.72425000  1.0
  O  O88  1  0.06435000  0.30489000  0.07427000  1.0
  O  O89  1  0.05652000  0.83192000  0.07790000  1.0
  O  O90  1  0.72938000  0.15192000  0.72505000  1.0
  O  O91  1  0.90657000  0.15188000  0.92444000  1.0
  O  O92  1  0.25598000  0.83179000  0.25696000  1.0
  O  O93  1  0.90732000  0.67815000  0.25984000  1.0
  O  O94  1  0.25531000  0.68408000  0.92513000  1.0
  O  O95  1  0.06375000  0.30413000  0.72950000  1.0
  O  O96  1  0.72406000  0.30106000  0.07093000  1.0
  O  O97  1  0.72560000  0.49800000  0.92171000  1.0
  O  O98  1  0.05935000  0.48333000  0.25486000  1.0
  O  O99  1  0.25818000  0.50151000  0.07456000  1.0
  O  O100  1  0.90954000  0.48872000  0.72745000  1.0
  O  O101  1  0.78389000  0.35572000  0.92560000  1.0
  O  O102  1  0.05384000  0.62750000  0.92852000  1.0
  O  O103  1  0.05528000  0.35822000  0.92829000  1.0
  O  O104  1  0.05329000  0.62392000  0.19631000  1.0
  O  O105  1  0.13635000  0.59188000  0.04525000  1.0
  O  O106  1  0.93673000  0.39095000  0.04371000  1.0
  O  O107  1  0.93788000  0.39315000  0.84629000  1.0
  O  O108  1  0.93638000  0.58986000  0.04440000  1.0
  F  F109  1  0.17614000  0.55193000  0.60965000  1.0
  F  F110  1  0.42856000  0.54373000  0.85466000  1.0
  F  F111  1  0.78421000  0.75154000  0.88672000  1.0
  F  F112  1  0.41797000  0.74148000  0.39783000  1.0
  F  F113  1  0.41917000  0.07507000  0.17664000  1.0
  F  F114  1  0.92466000  0.12094000  0.48300000  1.0
  F  F115  1  0.92390000  0.93931000  0.30284000  1.0
  F  F116  1  0.08620000  0.14672000  0.80926000  1.0
  F  F117  1  0.14984000  0.01146000  0.82388000  1.0
  F  F118  1  0.14717000  0.82475000  0.63995000  1.0
  F  F119  1  0.08103000  0.77223000  0.43992000  1.0
