# generated using pymatgen
data_CdH16C16N2(ClO2)2
_symmetry_space_group_name_H-M   'P 1'
_cell_length_a   7.02577000
_cell_length_b   10.23893062
_cell_length_c   13.99640000
_cell_angle_alpha   74.41876020
_cell_angle_beta   75.46600000
_cell_angle_gamma   69.96568484
_symmetry_Int_Tables_number   1
_chemical_formula_structural   CdH16C16N2(ClO2)2
_chemical_formula_sum   'Cd2 H32 C32 N4 Cl4 O8'
_cell_volume   896.99889953
_cell_formula_units_Z   2
loop_
 _symmetry_equiv_pos_site_id
 _symmetry_equiv_pos_as_xyz
  1  'x, y, z'
loop_
 _atom_site_type_symbol
 _atom_site_label
 _atom_site_symmetry_multiplicity
 _atom_site_fract_x
 _atom_site_fract_y
 _atom_site_fract_z
 _atom_site_occupancy
  Cd  Cd0  1  0.17654000  0.24996000  0.74993000  1.0
  Cd  Cd1  1  0.82346000  0.75004000  0.25007000  1.0
  H  H2  1  0.62171000  0.29898000  0.62123000  1.0
  H  H3  1  0.54251000  0.20084000  0.87872000  1.0
  H  H4  1  0.37829000  0.70102000  0.37877000  1.0
  H  H5  1  0.45750000  0.79916000  0.12128000  1.0
  H  H6  1  0.69116000  0.55311000  0.45636000  1.0
  H  H7  1  0.70043000  0.94686000  0.04375000  1.0
  H  H8  1  0.30883000  0.44689000  0.54364000  1.0
  H  H9  1  0.29958000  0.05314000  0.95625000  1.0
  H  H10  1  0.54734000  0.55784000  0.57981000  1.0
  H  H11  1  0.68504000  0.94205000  0.92028000  1.0
  H  H12  1  0.45267000  0.44215000  0.42020000  1.0
  H  H13  1  0.31495000  0.05796000  0.07972000  1.0
  H  H14  1  0.60291000  0.14175000  0.55504000  1.0
  H  H15  1  0.30049000  0.35823000  0.94461000  1.0
  H  H16  1  0.39708000  0.85825000  0.44496000  1.0
  H  H17  1  0.69951000  0.64177000  0.05539000  1.0
  H  H18  1  0.72886000  0.98895000  0.42321000  1.0
  H  H19  1  0.14129000  0.51098000  0.07643000  1.0
  H  H20  1  0.27113000  0.01105000  0.57679000  1.0
  H  H21  1  0.85871000  0.48902000  0.92357000  1.0
  H  H22  1  0.01913000  0.02730000  0.28433000  1.0
  H  H23  1  0.33016000  0.47280000  0.21557000  1.0
  H  H24  1  0.98087000  0.97270000  0.71567000  1.0
  H  H25  1  0.66983000  0.52721000  0.78443000  1.0
  H  H26  1  0.16641000  0.22249000  0.27723000  1.0
  H  H27  1  0.66547000  0.27782000  0.22290000  1.0
  H  H28  1  0.83360000  0.77750000  0.72277000  1.0
  H  H29  1  0.33452000  0.72219000  0.77709000  1.0
  H  H30  1  0.01591000  0.37371000  0.40705000  1.0
  H  H31  1  0.79648000  0.12648000  0.09311000  1.0
  H  H32  1  0.98410000  0.62628000  0.59295000  1.0
  H  H33  1  0.20352000  0.87352000  0.90689000  1.0
  C  C34  1  0.89185000  0.35109000  0.61249000  1.0
  C  C35  1  0.85569000  0.14899000  0.88751000  1.0
  C  C36  1  0.10816000  0.64890000  0.38751000  1.0
  C  C37  1  0.14430000  0.85102000  0.11249000  1.0
  C  C38  1  0.72165000  0.35164000  0.56071000  1.0
  C  C39  1  0.63436000  0.14830000  0.93932000  1.0
  C  C40  1  0.27836000  0.64835000  0.43929000  1.0
  C  C41  1  0.36564000  0.85170000  0.06068000  1.0
  C  C42  1  0.59356000  0.50027000  0.51796000  1.0
  C  C43  1  0.61180000  0.99969000  0.98210000  1.0
  C  C44  1  0.40644000  0.49973000  0.48205000  1.0
  C  C45  1  0.38819000  0.00032000  0.01790000  1.0
  C  C46  1  0.72233000  0.15691000  0.48968000  1.0
  C  C47  1  0.36933000  0.34308000  0.01009000  1.0
  C  C48  1  0.27768000  0.84308000  0.51032000  1.0
  C  C49  1  0.63067000  0.65692000  0.98991000  1.0
  C  C50  1  0.79531000  0.07277000  0.41800000  1.0
  C  C51  1  0.28626000  0.42721000  0.08176000  1.0
  C  C52  1  0.20469000  0.92723000  0.58200000  1.0
  C  C53  1  0.71374000  0.57279000  0.91824000  1.0
  C  C54  1  0.95818000  0.09401000  0.34064000  1.0
  C  C55  1  0.39260000  0.40609000  0.15926000  1.0
  C  C56  1  0.04182000  0.90599000  0.65936000  1.0
  C  C57  1  0.60739000  0.59391000  0.84074000  1.0
  C  C58  1  0.03997000  0.20231000  0.33636000  1.0
  C  C59  1  0.57835000  0.29791000  0.16365000  1.0
  C  C60  1  0.96003000  0.79769000  0.66364000  1.0
  C  C61  1  0.42165000  0.70209000  0.83635000  1.0
  C  C62  1  0.96013000  0.28593000  0.40846000  1.0
  C  C63  1  0.65443000  0.21424000  0.09161000  1.0
  C  C64  1  0.03987000  0.71407000  0.59155000  1.0
  C  C65  1  0.34555000  0.78577000  0.90839000  1.0
  N  N66  1  0.80553000  0.26089000  0.48408000  1.0
  N  N67  1  0.55076000  0.23913000  0.01588000  1.0
  N  N68  1  0.19448000  0.73910000  0.51592000  1.0
  N  N69  1  0.44924000  0.76087000  0.98412000  1.0
  Cl  Cl70  1  0.50220000  0.05285000  0.73545000  1.0
  Cl  Cl71  1  0.29034000  0.44729000  0.76443000  1.0
  Cl  Cl72  1  0.49780000  0.94715000  0.26455000  1.0
  Cl  Cl73  1  0.70966000  0.55271000  0.23557000  1.0
  O  O74  1  0.04354000  0.23757000  0.62054000  1.0
  O  O75  1  0.90214000  0.26244000  0.87960000  1.0
  O  O76  1  0.95647000  0.76243000  0.37946000  1.0
  O  O77  1  0.09786000  0.73756000  0.12040000  1.0
  O  O78  1  0.86421000  0.45660000  0.64914000  1.0
  O  O79  1  0.97002000  0.04360000  0.85070000  1.0
  O  O80  1  0.13578000  0.54340000  0.35086000  1.0
  O  O81  1  0.02998000  0.95641000  0.14929000  1.0
