# generated using pymatgen
data_CdH12(C9N5)2
_symmetry_space_group_name_H-M   'P 1'
_cell_length_a   7.79913000
_cell_length_b   8.67964000
_cell_length_c   13.63920000
_cell_angle_alpha   89.99990000
_cell_angle_beta   90.75010000
_cell_angle_gamma   89.99990000
_symmetry_Int_Tables_number   1
_chemical_formula_structural   CdH12(C9N5)2
_chemical_formula_sum   'Cd2 H24 C36 N20'
_cell_volume   923.20798307
_cell_formula_units_Z   2
loop_
 _symmetry_equiv_pos_site_id
 _symmetry_equiv_pos_as_xyz
  1  'x, y, z'
loop_
 _atom_site_type_symbol
 _atom_site_label
 _atom_site_symmetry_multiplicity
 _atom_site_fract_x
 _atom_site_fract_y
 _atom_site_fract_z
 _atom_site_occupancy
  Cd  Cd0  1  0.50000000  0.50000000  0.00000000  1.0
  Cd  Cd1  1  0.00000000  0.00000000  0.50000000  1.0
  H  H2  1  0.52466000  0.64953000  0.18221000  1.0
  H  H3  1  0.97534000  0.14953000  0.31779000  1.0
  H  H4  1  0.47534000  0.35047000  0.81779000  1.0
  H  H5  1  0.02466000  0.85046000  0.68221000  1.0
  H  H6  1  0.52491000  0.79016000  0.09899000  1.0
  H  H7  1  0.97508000  0.29016000  0.40101000  1.0
  H  H8  1  0.47509000  0.20984000  0.90101000  1.0
  H  H9  1  0.02491000  0.70984000  0.59899000  1.0
  H  H10  1  0.26217000  0.90985000  0.03815000  1.0
  H  H11  1  0.23782000  0.40985000  0.46185000  1.0
  H  H12  1  0.73782000  0.09015000  0.96185000  1.0
  H  H13  1  0.76218000  0.59015000  0.53815000  1.0
  H  H14  1  0.95404000  0.96042000  0.07603000  1.0
  H  H15  1  0.54595000  0.46043000  0.42397000  1.0
  H  H16  1  0.04596000  0.03957000  0.92397000  1.0
  H  H17  1  0.45404000  0.53957000  0.57603000  1.0
  H  H18  1  0.80750000  0.81037000  0.20316000  1.0
  H  H19  1  0.69250000  0.31037000  0.29684000  1.0
  H  H20  1  0.19250000  0.18962000  0.79684000  1.0
  H  H21  1  0.30750000  0.68963000  0.70316000  1.0
  H  H22  1  0.27343000  0.55285000  0.25799000  1.0
  H  H23  1  0.22657000  0.05285000  0.24201000  1.0
  H  H24  1  0.72657000  0.44715000  0.74201000  1.0
  H  H25  1  0.77343000  0.94715000  0.75799000  1.0
  C  C26  1  0.28731000  0.72855000  0.14605000  1.0
  C  C27  1  0.21268000  0.22855000  0.35394000  1.0
  C  C28  1  0.71268000  0.27145000  0.85394000  1.0
  C  C29  1  0.78731000  0.77145000  0.64606000  1.0
  C  C30  1  0.19694000  0.84328000  0.09441000  1.0
  C  C31  1  0.30306000  0.34328000  0.40558000  1.0
  C  C32  1  0.80306000  0.15672000  0.90559000  1.0
  C  C33  1  0.69693000  0.65672000  0.59441000  1.0
  C  C34  1  0.02473000  0.87074000  0.11500000  1.0
  C  C35  1  0.47527000  0.37075000  0.38500000  1.0
  C  C36  1  0.97527000  0.12925000  0.88500000  1.0
  C  C37  1  0.52473000  0.62926000  0.61500000  1.0
  C  C38  1  0.94059000  0.78628000  0.18655000  1.0
  C  C39  1  0.55941000  0.28628000  0.31345000  1.0
  C  C40  1  0.05941000  0.21372000  0.81345000  1.0
  C  C41  1  0.44059000  0.71372000  0.68655000  1.0
  C  C42  1  0.03177000  0.67185000  0.23800000  1.0
  C  C43  1  0.46823000  0.17185000  0.26200000  1.0
  C  C44  1  0.96823000  0.32814000  0.76200000  1.0
  C  C45  1  0.53177000  0.82815000  0.73800000  1.0
  C  C46  1  0.95108000  0.58630000  0.31353000  1.0
  C  C47  1  0.54892000  0.08631000  0.18647000  1.0
  C  C48  1  0.04892000  0.41369000  0.68648000  1.0
  C  C49  1  0.45108000  0.91369000  0.81352000  1.0
  C  C50  1  0.20433000  0.64197000  0.21751000  1.0
  C  C51  1  0.29567000  0.14198000  0.28248000  1.0
  C  C52  1  0.79567000  0.35802000  0.78249000  1.0
  C  C53  1  0.70433000  0.85802000  0.71751000  1.0
  C  C54  1  0.85939000  0.35501000  0.10998000  1.0
  C  C55  1  0.64062000  0.85502000  0.39002000  1.0
  C  C56  1  0.14061000  0.64499000  0.89002000  1.0
  C  C57  1  0.35939000  0.14499000  0.60999000  1.0
  C  C58  1  0.15067000  0.32169000  0.09439000  1.0
  C  C59  1  0.34935000  0.82169000  0.40561000  1.0
  C  C60  1  0.84934000  0.67831000  0.90561000  1.0
  C  C61  1  0.65066000  0.17832000  0.59439000  1.0
  N  N62  1  0.45966000  0.69512000  0.12350000  1.0
  N  N63  1  0.04034000  0.19513000  0.37650000  1.0
  N  N64  1  0.54034000  0.30487000  0.87650000  1.0
  N  N65  1  0.95966000  0.80487000  0.62350000  1.0
  N  N66  1  0.88646000  0.51441000  0.37537000  1.0
  N  N67  1  0.61354000  0.01441000  0.12463000  1.0
  N  N68  1  0.11353000  0.48559000  0.62463000  1.0
  N  N69  1  0.38646000  0.98559000  0.87537000  1.0
  N  N70  1  0.72122000  0.40868000  0.10032000  1.0
  N  N71  1  0.77880000  0.90869000  0.39968000  1.0
  N  N72  1  0.27879000  0.59132000  0.89969000  1.0
  N  N73  1  0.22121000  0.09133000  0.60032000  1.0
  N  N74  1  0.00277000  0.28663000  0.13010000  1.0
  N  N75  1  0.49725000  0.78664000  0.36990000  1.0
  N  N76  1  0.99724000  0.71337000  0.86989000  1.0
  N  N77  1  0.50276000  0.21338000  0.63010000  1.0
  N  N78  1  0.29235000  0.34066000  0.06776000  1.0
  N  N79  1  0.20766000  0.84066000  0.43224000  1.0
  N  N80  1  0.70765000  0.65934000  0.93224000  1.0
  N  N81  1  0.79234000  0.15934000  0.56776000  1.0
