# generated using pymatgen
data_CuH5C8N7O2
_symmetry_space_group_name_H-M   'P 1'
_cell_length_a   6.78217000
_cell_length_b   7.95284000
_cell_length_c   11.16390000
_cell_angle_alpha   97.21540000
_cell_angle_beta   105.69600000
_cell_angle_gamma   112.26200000
_symmetry_Int_Tables_number   1
_chemical_formula_structural   CuH5C8N7O2
_chemical_formula_sum   'Cu2 H10 C16 N14 O4'
_cell_volume   518.61054059
_cell_formula_units_Z   2
loop_
 _symmetry_equiv_pos_site_id
 _symmetry_equiv_pos_as_xyz
  1  'x, y, z'
loop_
 _atom_site_type_symbol
 _atom_site_label
 _atom_site_symmetry_multiplicity
 _atom_site_fract_x
 _atom_site_fract_y
 _atom_site_fract_z
 _atom_site_occupancy
  Cu  Cu0  1  0.49999000  0.50000000  0.00000000  1.0
  Cu  Cu1  1  0.00000000  0.50000000  0.00000000  1.0
  H  H2  1  0.78732000  0.60277000  0.37780000  1.0
  H  H3  1  0.21268000  0.39723000  0.62219000  1.0
  H  H4  1  0.00991000  0.79044000  0.60767000  1.0
  H  H5  1  0.99009000  0.20954000  0.39232000  1.0
  H  H6  1  0.44130000  0.90118000  0.62379000  1.0
  H  H7  1  0.55871000  0.09882000  0.37621000  1.0
  H  H8  1  0.22092000  0.70935000  0.39733000  1.0
  H  H9  1  0.77908000  0.29065000  0.60267000  1.0
  H  H10  1  0.63044000  0.99050000  0.84204000  1.0
  H  H11  1  0.36956000  0.00950000  0.15796000  1.0
  C  C12  1  0.49341000  0.64923000  0.37333000  1.0
  C  C13  1  0.50659000  0.35077000  0.62668000  1.0
  C  C14  1  0.71435000  0.66938000  0.43291000  1.0
  C  C15  1  0.28565000  0.33061000  0.56709000  1.0
  C  C16  1  0.83882000  0.77441000  0.55966000  1.0
  C  C17  1  0.16117000  0.22558000  0.44033000  1.0
  C  C18  1  0.74022000  0.86050000  0.62626000  1.0
  C  C19  1  0.25978000  0.13950000  0.37373000  1.0
  C  C20  1  0.51617000  0.83425000  0.57062000  1.0
  C  C21  1  0.48384000  0.16576000  0.42938000  1.0
  C  C22  1  0.39349000  0.72759000  0.44430000  1.0
  C  C23  1  0.60652000  0.27241000  0.55570000  1.0
  C  C24  1  0.37161000  0.55774000  0.23222000  1.0
  C  C25  1  0.62838000  0.44226000  0.76778000  1.0
  C  C26  1  0.80528000  0.04277000  0.84557000  1.0
  C  C27  1  0.19472000  0.95723000  0.15443000  1.0
  N  N28  1  0.87219000  0.98354000  0.75117000  1.0
  N  N29  1  0.12781000  0.01646000  0.24883000  1.0
  N  N30  1  0.10264000  0.07841000  0.78912000  1.0
  N  N31  1  0.89736000  0.92159000  0.21088000  1.0
  N  N32  1  0.16716000  0.18814000  0.90220000  1.0
  N  N33  1  0.83284000  0.81188000  0.09780000  1.0
  N  N34  1  0.98715000  0.17060000  0.94050000  1.0
  N  N35  1  0.01286000  0.82942000  0.05949000  1.0
  N  N36  1  0.28491000  0.61833000  0.96104000  1.0
  N  N37  1  0.71509000  0.38167000  0.03896000  1.0
  N  N38  1  0.27776000  0.69140000  0.87193000  1.0
  N  N39  1  0.72224000  0.30859000  0.12808000  1.0
  N  N40  1  0.27490000  0.76406000  0.78818000  1.0
  N  N41  1  0.72509000  0.23594000  0.21182000  1.0
  O  O42  1  0.47089000  0.48951000  0.17281000  1.0
  O  O43  1  0.52911000  0.51049000  0.82719000  1.0
  O  O44  1  0.17974000  0.56090000  0.18367000  1.0
  O  O45  1  0.82025000  0.43910000  0.81634000  1.0
