# generated using pymatgen
data_ZnH10C10(NO3)2
_symmetry_space_group_name_H-M   'P 1'
_cell_length_a   7.92588000
_cell_length_b   10.34130000
_cell_length_c   15.16630000
_cell_angle_alpha   89.99980000
_cell_angle_beta   90.00000000
_cell_angle_gamma   91.64830000
_symmetry_Int_Tables_number   1
_chemical_formula_structural   ZnH10C10(NO3)2
_chemical_formula_sum   'Zn4 H40 C40 N8 O24'
_cell_volume   1242.57477687
_cell_formula_units_Z   4
loop_
 _symmetry_equiv_pos_site_id
 _symmetry_equiv_pos_as_xyz
  1  'x, y, z'
loop_
 _atom_site_type_symbol
 _atom_site_label
 _atom_site_symmetry_multiplicity
 _atom_site_fract_x
 _atom_site_fract_y
 _atom_site_fract_z
 _atom_site_occupancy
  Zn  Zn0  1  0.10309000  0.40897000  0.42249000  1.0
  Zn  Zn1  1  0.89691000  0.09103000  0.92249000  1.0
  Zn  Zn2  1  0.89691000  0.59104000  0.57751000  1.0
  Zn  Zn3  1  0.10309000  0.90897000  0.07751000  1.0
  H  H4  1  0.62933000  0.51001000  0.44914000  1.0
  H  H5  1  0.37067000  0.98999000  0.94914000  1.0
  H  H6  1  0.37067000  0.48999000  0.55087000  1.0
  H  H7  1  0.62933000  0.01001000  0.05086000  1.0
  H  H8  1  0.01796000  0.69303000  0.30990000  1.0
  H  H9  1  0.98204000  0.80696000  0.80990000  1.0
  H  H10  1  0.98204000  0.30696000  0.69010000  1.0
  H  H11  1  0.01796000  0.19303000  0.19010000  1.0
  H  H12  1  0.15604000  0.12031000  0.35092000  1.0
  H  H13  1  0.84396000  0.37969000  0.85092000  1.0
  H  H14  1  0.84396000  0.87969000  0.64908000  1.0
  H  H15  1  0.15604000  0.62031000  0.14908000  1.0
  H  H16  1  0.34767000  0.09983000  0.56736000  1.0
  H  H17  1  0.65233000  0.40017000  0.06736000  1.0
  H  H18  1  0.65233000  0.90017000  0.43264000  1.0
  H  H19  1  0.34767000  0.59983000  0.93264000  1.0
  H  H20  1  0.35786000  0.92533000  0.56152000  1.0
  H  H21  1  0.64213000  0.57467000  0.06152000  1.0
  H  H22  1  0.64214000  0.07467000  0.43848000  1.0
  H  H23  1  0.35787000  0.42533000  0.93848000  1.0
  H  H24  1  0.16859000  0.99962000  0.59401000  1.0
  H  H25  1  0.83140000  0.50038000  0.09401000  1.0
  H  H26  1  0.83141000  0.00038000  0.40599000  1.0
  H  H27  1  0.16860000  0.49962000  0.90599000  1.0
  H  H28  1  0.18078000  0.91087000  0.34077000  1.0
  H  H29  1  0.81922000  0.58913000  0.84077000  1.0
  H  H30  1  0.81922000  0.08913000  0.65923000  1.0
  H  H31  1  0.18078000  0.41087000  0.15923000  1.0
  H  H32  1  0.13728000  0.82118000  0.44029000  1.0
  H  H33  1  0.86272000  0.67882000  0.94029000  1.0
  H  H34  1  0.86272000  0.17882000  0.55971000  1.0
  H  H35  1  0.13728000  0.32118000  0.05971000  1.0
  H  H36  1  0.34914000  0.85044000  0.40603000  1.0
  H  H37  1  0.65086000  0.64956000  0.90603000  1.0
  H  H38  1  0.65086000  0.14956000  0.59397000  1.0
  H  H39  1  0.34914000  0.35044000  0.09397000  1.0
  H  H40  1  0.50840000  0.70985000  0.20667000  1.0
  H  H41  1  0.49160000  0.79015000  0.70667000  1.0
  H  H42  1  0.49160000  0.29015000  0.79333000  1.0
  H  H43  1  0.50840000  0.20985000  0.29333000  1.0
  C  C44  1  0.36033000  0.56619000  0.33917000  1.0
  C  C45  1  0.63967000  0.93381000  0.83918000  1.0
  C  C46  1  0.63967000  0.43381000  0.66083000  1.0
  C  C47  1  0.36033000  0.06619000  0.16082000  1.0
  C  C48  1  0.54419000  0.60682000  0.32900000  1.0
  C  C49  1  0.45581000  0.89319000  0.82900000  1.0
  C  C50  1  0.45581000  0.39319000  0.67100000  1.0
  C  C51  1  0.54419000  0.10681000  0.17100000  1.0
  C  C52  1  0.76982000  0.71381000  0.24819000  1.0
  C  C53  1  0.23018000  0.78619000  0.74819000  1.0
  C  C54  1  0.23017000  0.28619000  0.75181000  1.0
  C  C55  1  0.76983000  0.21381000  0.25181000  1.0
  C  C56  1  0.66106000  0.56795000  0.39143000  1.0
  C  C57  1  0.33894000  0.93205000  0.89143000  1.0
  C  C58  1  0.33894000  0.43205000  0.60857000  1.0
  C  C59  1  0.66106000  0.06795000  0.10857000  1.0
  C  C60  1  0.88222000  0.67462000  0.31240000  1.0
  C  C61  1  0.11778000  0.82538000  0.81240000  1.0
  C  C62  1  0.11778000  0.32538000  0.68760000  1.0
  C  C63  1  0.88222000  0.17461000  0.18760000  1.0
  C  C64  1  0.18673000  0.12453000  0.42173000  1.0
  C  C65  1  0.81326000  0.37547000  0.92173000  1.0
  C  C66  1  0.81327000  0.87547000  0.57827000  1.0
  C  C67  1  0.18673000  0.62453000  0.07827000  1.0
  C  C68  1  0.83864000  0.78871000  0.17014000  1.0
  C  C69  1  0.16136000  0.71129000  0.67015000  1.0
  C  C70  1  0.16135000  0.21129000  0.82985000  1.0
  C  C71  1  0.83864000  0.28871000  0.32985000  1.0
  C  C72  1  0.27959000  0.00935000  0.55067000  1.0
  C  C73  1  0.72041000  0.49065000  0.05067000  1.0
  C  C74  1  0.72042000  0.99066000  0.44933000  1.0
  C  C75  1  0.27959000  0.50935000  0.94933000  1.0
  C  C76  1  0.22319000  0.89199000  0.40826000  1.0
  C  C77  1  0.77681000  0.60801000  0.90826000  1.0
  C  C78  1  0.77681000  0.10801000  0.59174000  1.0
  C  C79  1  0.22319000  0.39199000  0.09174000  1.0
  C  C80  1  0.59863000  0.68002000  0.25640000  1.0
  C  C81  1  0.40137000  0.81998000  0.75640000  1.0
  C  C82  1  0.40137000  0.31998000  0.74360000  1.0
  C  C83  1  0.59863000  0.18002000  0.24360000  1.0
  N  N84  1  0.22943000  0.01265000  0.45815000  1.0
  N  N85  1  0.77057000  0.48735000  0.95815000  1.0
  N  N86  1  0.77057000  0.98735000  0.54185000  1.0
  N  N87  1  0.22943000  0.51265000  0.04185000  1.0
  N  N88  1  0.82582000  0.60346000  0.38176000  1.0
  N  N89  1  0.17418000  0.89655000  0.88176000  1.0
  N  N90  1  0.17417000  0.39654000  0.61824000  1.0
  N  N91  1  0.82583000  0.10345000  0.11824000  1.0
  O  O92  1  0.93960000  0.56841000  0.44180000  1.0
  O  O93  1  0.06040000  0.93158000  0.94180000  1.0
  O  O94  1  0.06040000  0.43158000  0.55820000  1.0
  O  O95  1  0.93960000  0.06842000  0.05820000  1.0
  O  O96  1  0.33058000  0.48660000  0.40327000  1.0
  O  O97  1  0.66942000  0.01340000  0.90327000  1.0
  O  O98  1  0.66942000  0.51340000  0.59673000  1.0
  O  O99  1  0.33058000  0.98660000  0.09673000  1.0
  O  O100  1  0.25562000  0.60976000  0.28631000  1.0
  O  O101  1  0.74438000  0.89024000  0.78631000  1.0
  O  O102  1  0.74438000  0.39024000  0.71369000  1.0
  O  O103  1  0.25562000  0.10976000  0.21369000  1.0
  O  O104  1  0.98572000  0.84318000  0.18409000  1.0
  O  O105  1  0.01428000  0.65682000  0.68409000  1.0
  O  O106  1  0.01427000  0.15682000  0.81591000  1.0
  O  O107  1  0.98573000  0.34318000  0.31591000  1.0
  O  O108  1  0.18519000  0.22822000  0.46531000  1.0
  O  O109  1  0.81481000  0.27178000  0.96531000  1.0
  O  O110  1  0.81481000  0.77179000  0.53469000  1.0
  O  O111  1  0.18519000  0.72822000  0.03469000  1.0
  O  O112  1  0.75560000  0.79150000  0.10049000  1.0
  O  O113  1  0.24440000  0.70850000  0.60049000  1.0
  O  O114  1  0.24440000  0.20850000  0.89951000  1.0
  O  O115  1  0.75560000  0.29150000  0.39951000  1.0
