# generated using pymatgen
data_LiH4C3SO5
_symmetry_space_group_name_H-M   'P 1'
_cell_length_a   4.72902000
_cell_length_b   7.03491000
_cell_length_c   8.44256000
_cell_angle_alpha   91.69080000
_cell_angle_beta   94.32200000
_cell_angle_gamma   101.00100000
_symmetry_Int_Tables_number   1
_chemical_formula_structural   LiH4C3SO5
_chemical_formula_sum   'Li2 H8 C6 S2 O10'
_cell_volume   274.64722852
_cell_formula_units_Z   2
loop_
 _symmetry_equiv_pos_site_id
 _symmetry_equiv_pos_as_xyz
  1  'x, y, z'
loop_
 _atom_site_type_symbol
 _atom_site_label
 _atom_site_symmetry_multiplicity
 _atom_site_fract_x
 _atom_site_fract_y
 _atom_site_fract_z
 _atom_site_occupancy
  Li  Li0  1  0.18150000  0.34958000  0.97356000  1.0
  Li  Li1  1  0.81850000  0.65041000  0.02644000  1.0
  H  H2  1  0.77284000  0.02081000  0.88408000  1.0
  H  H3  1  0.22715000  0.97919000  0.11592000  1.0
  H  H4  1  0.02077000  0.08029000  0.77811000  1.0
  H  H5  1  0.97923000  0.91971000  0.22189000  1.0
  H  H6  1  0.65164000  0.26959000  0.81388000  1.0
  H  H7  1  0.34836000  0.73041000  0.18612000  1.0
  H  H8  1  0.32989000  0.80861000  0.45399000  1.0
  H  H9  1  0.67011000  0.19140000  0.54601000  1.0
  C  C10  1  0.50779000  0.42709000  0.65388000  1.0
  C  C11  1  0.49222000  0.57291000  0.34612000  1.0
  C  C12  1  0.41137000  0.60051000  0.62446000  1.0
  C  C13  1  0.58863000  0.39949000  0.37554000  1.0
  C  C14  1  0.40338000  0.67292000  0.47267000  1.0
  C  C15  1  0.59663000  0.32708000  0.52733000  1.0
  S  S16  1  0.30913000  0.73454000  0.78397000  1.0
  S  S17  1  0.69087000  0.26546000  0.21603000  1.0
  O  O18  1  0.09206000  0.59711000  0.86200000  1.0
  O  O19  1  0.90794000  0.40289000  0.13800000  1.0
  O  O20  1  0.90091000  0.13923000  0.84924000  1.0
  O  O21  1  0.09909000  0.86077000  0.15076000  1.0
  O  O22  1  0.57145000  0.79781000  0.89498000  1.0
  O  O23  1  0.42855000  0.20219000  0.10502000  1.0
  O  O24  1  0.20310000  0.89674000  0.71330000  1.0
  O  O25  1  0.79690000  0.10327000  0.28670000  1.0
  O  O26  1  0.51061000  0.36062000  0.80406000  1.0
  O  O27  1  0.48939000  0.63938000  0.19594000  1.0
