# generated using pymatgen
data_CaH2(C3O2)2
_symmetry_space_group_name_H-M   'P 1'
_cell_length_a   8.26654000
_cell_length_b   8.26654000
_cell_length_c   8.26653000
_cell_angle_alpha   66.28690000
_cell_angle_beta   66.28680000
_cell_angle_gamma   66.28670000
_symmetry_Int_Tables_number   1
_chemical_formula_structural   CaH2(C3O2)2
_chemical_formula_sum   'Ca3 H6 C18 O12'
_cell_volume   453.64190136
_cell_formula_units_Z   3
loop_
 _symmetry_equiv_pos_site_id
 _symmetry_equiv_pos_as_xyz
  1  'x, y, z'
loop_
 _atom_site_type_symbol
 _atom_site_label
 _atom_site_symmetry_multiplicity
 _atom_site_fract_x
 _atom_site_fract_y
 _atom_site_fract_z
 _atom_site_occupancy
  Ca  Ca0  1  0.67397000  0.67397000  0.67396000  1.0
  Ca  Ca1  1  0.32603000  0.32604000  0.32603000  1.0
  Ca  Ca2  1  0.50000000  0.50000000  0.50000000  1.0
  H  H3  1  0.07414000  0.36877000  0.81949000  1.0
  H  H4  1  0.36877000  0.81949000  0.07414000  1.0
  H  H5  1  0.81949000  0.07413000  0.36877000  1.0
  H  H6  1  0.92586000  0.63122000  0.18051000  1.0
  H  H7  1  0.63123000  0.18051000  0.92586000  1.0
  H  H8  1  0.18051000  0.92586000  0.63123000  1.0
  C  C9  1  0.08262000  0.24808000  0.93944000  1.0
  C  C10  1  0.24808000  0.93944000  0.08262000  1.0
  C  C11  1  0.93944000  0.08262000  0.24808000  1.0
  C  C12  1  0.91738000  0.75192000  0.06056000  1.0
  C  C13  1  0.75193000  0.06056000  0.91738000  1.0
  C  C14  1  0.06057000  0.91738000  0.75192000  1.0
  C  C15  1  0.24092000  0.09729000  0.93090000  1.0
  C  C16  1  0.09729000  0.93090000  0.24092000  1.0
  C  C17  1  0.93090000  0.24092000  0.09728000  1.0
  C  C18  1  0.75908000  0.90271000  0.06910000  1.0
  C  C19  1  0.90272000  0.06910000  0.75908000  1.0
  C  C20  1  0.06910000  0.75908000  0.90271000  1.0
  C  C21  1  0.39197000  0.09588000  0.75257000  1.0
  C  C22  1  0.09588000  0.75257000  0.39197000  1.0
  C  C23  1  0.75257000  0.39197000  0.09588000  1.0
  C  C24  1  0.60803000  0.90412000  0.24743000  1.0
  C  C25  1  0.90412000  0.24743000  0.60804000  1.0
  C  C26  1  0.24743000  0.60804000  0.90412000  1.0
  O  O27  1  0.51389000  0.94623000  0.73645000  1.0
  O  O28  1  0.94623000  0.73645000  0.51389000  1.0
  O  O29  1  0.73645000  0.51389000  0.94623000  1.0
  O  O30  1  0.48611000  0.05378000  0.26355000  1.0
  O  O31  1  0.05377000  0.26354000  0.48612000  1.0
  O  O32  1  0.26355000  0.48612000  0.05377000  1.0
  O  O33  1  0.38550000  0.24808000  0.62133000  1.0
  O  O34  1  0.24808000  0.62133000  0.38550000  1.0
  O  O35  1  0.62133000  0.38549000  0.24808000  1.0
  O  O36  1  0.61450000  0.75193000  0.37868000  1.0
  O  O37  1  0.75193000  0.37868000  0.61450000  1.0
  O  O38  1  0.37868000  0.61450000  0.75193000  1.0
