# generated using pymatgen
data_CaH28C26(NO3)4
_symmetry_space_group_name_H-M   'P 1'
_cell_length_a   9.53281000
_cell_length_b   9.65198000
_cell_length_c   9.98090216
_cell_angle_alpha   77.35220055
_cell_angle_beta   67.29763476
_cell_angle_gamma   77.04600000
_symmetry_Int_Tables_number   1
_chemical_formula_structural   CaH28C26(NO3)4
_chemical_formula_sum   'Ca1 H28 C26 N4 O12'
_cell_volume   816.62755357
_cell_formula_units_Z   1
loop_
 _symmetry_equiv_pos_site_id
 _symmetry_equiv_pos_as_xyz
  1  'x, y, z'
loop_
 _atom_site_type_symbol
 _atom_site_label
 _atom_site_symmetry_multiplicity
 _atom_site_fract_x
 _atom_site_fract_y
 _atom_site_fract_z
 _atom_site_occupancy
  Ca  Ca0  1  0.49999000  0.50001000  0.50001000  1.0
  H  H1  1  0.11832000  0.12258000  0.18869000  1.0
  H  H2  1  0.88166000  0.87742000  0.81132000  1.0
  H  H3  1  0.95153000  0.49855000  0.40396000  1.0
  H  H4  1  0.04847000  0.50146000  0.59603000  1.0
  H  H5  1  0.22336000  0.52050000  0.36066000  1.0
  H  H6  1  0.77663000  0.47950000  0.63934000  1.0
  H  H7  1  0.37842000  0.10442000  0.48794000  1.0
  H  H8  1  0.62158000  0.89558000  0.51205000  1.0
  H  H9  1  0.32584000  0.99474000  0.66283000  1.0
  H  H10  1  0.67417000  0.00525000  0.33715000  1.0
  H  H11  1  0.18112000  0.08559000  0.59067000  1.0
  H  H12  1  0.81888000  0.91441000  0.40932000  1.0
  H  H13  1  0.98764000  0.16352000  0.97889000  1.0
  H  H14  1  0.01238000  0.83646000  0.02112000  1.0
  H  H15  1  0.95449000  0.17717000  0.81267000  1.0
  H  H16  1  0.04551000  0.82280000  0.18735000  1.0
  H  H17  1  0.09538000  0.03707000  0.85681000  1.0
  H  H18  1  0.90464000  0.96291000  0.14319000  1.0
  H  H19  1  0.14619000  0.31749000  0.98168000  1.0
  H  H20  1  0.85382000  0.68251000  0.01830000  1.0
  H  H21  1  0.24133000  0.42145000  0.81149000  1.0
  H  H22  1  0.75867000  0.57855000  0.18850000  1.0
  H  H23  1  0.03557000  0.43265000  0.88069000  1.0
  H  H24  1  0.96443000  0.56734000  0.11930000  1.0
  H  H25  1  0.52221000  0.13604000  0.12661000  1.0
  H  H26  1  0.47777000  0.86397000  0.87341000  1.0
  H  H27  1  0.72494000  0.24809000  0.22872000  1.0
  H  H28  1  0.27504000  0.75191000  0.77129000  1.0
  C  C29  1  0.47938000  0.34957000  0.24643000  1.0
  C  C30  1  0.52062000  0.65044000  0.75357000  1.0
  C  C31  1  0.32237000  0.33314000  0.25578000  1.0
  C  C32  1  0.67763000  0.66687000  0.74421000  1.0
  C  C33  1  0.29274000  0.22054000  0.20411000  1.0
  C  C34  1  0.70725000  0.77946000  0.79589000  1.0
  C  C35  1  0.14016000  0.20845000  0.22896000  1.0
  C  C36  1  0.85983000  0.79155000  0.77104000  1.0
  C  C37  1  0.01842000  0.30718000  0.30276000  1.0
  C  C38  1  0.98158000  0.69281000  0.69725000  1.0
  C  C39  1  0.04737000  0.42028000  0.35046000  1.0
  C  C40  1  0.95262000  0.57972000  0.64955000  1.0
  C  C41  1  0.19792000  0.43267000  0.32567000  1.0
  C  C42  1  0.80208000  0.56734000  0.67433000  1.0
  C  C43  1  0.85595000  0.30089000  0.32409000  1.0
  C  C44  1  0.14405000  0.69911000  0.67592000  1.0
  C  C45  1  0.41732000  0.03647000  0.03871000  1.0
  C  C46  1  0.58267000  0.96352000  0.96131000  1.0
  C  C47  1  0.27883000  0.22205000  0.66785000  1.0
  C  C48  1  0.72118000  0.77795000  0.33214000  1.0
  C  C49  1  0.29071000  0.09447000  0.59787000  1.0
  C  C50  1  0.70929000  0.90553000  0.40212000  1.0
  C  C51  1  0.04339000  0.14976000  0.86309000  1.0
  C  C52  1  0.95663000  0.85022000  0.13691000  1.0
  C  C53  1  0.14542000  0.36126000  0.87081000  1.0
  C  C54  1  0.85458000  0.63874000  0.12918000  1.0
  N  N55  1  0.41643000  0.12638000  0.12624000  1.0
  N  N56  1  0.58356000  0.87362000  0.87377000  1.0
  N  N57  1  0.16065000  0.24372000  0.79384000  1.0
  N  N58  1  0.83936000  0.75626000  0.20615000  1.0
  O  O59  1  0.49483000  0.46275000  0.27931000  1.0
  O  O60  1  0.50517000  0.53727000  0.72068000  1.0
  O  O61  1  0.58915000  0.24351000  0.21004000  1.0
  O  O62  1  0.41086000  0.75650000  0.78995000  1.0
  O  O63  1  0.30578000  0.01206000  0.01783000  1.0
  O  O64  1  0.69424000  0.98795000  0.98216000  1.0
  O  O65  1  0.74669000  0.35716000  0.42383000  1.0
  O  O66  1  0.25329000  0.64285000  0.57618000  1.0
  O  O67  1  0.84194000  0.23719000  0.22759000  1.0
  O  O68  1  0.15804000  0.76282000  0.77244000  1.0
  O  O69  1  0.37944000  0.30372000  0.60924000  1.0
  O  O70  1  0.62056000  0.69628000  0.39074000  1.0
