# generated using pymatgen
data_CdH8C8Br2(N2O)2
_symmetry_space_group_name_H-M   'P 1'
_cell_length_a   3.94313000
_cell_length_b   7.60459000
_cell_length_c   20.39900000
_cell_angle_alpha   89.99920000
_cell_angle_beta   88.95810000
_cell_angle_gamma   89.99990000
_symmetry_Int_Tables_number   1
_chemical_formula_structural   CdH8C8Br2(N2O)2
_chemical_formula_sum   'Cd2 H16 C16 Br4 N8 O4'
_cell_volume   611.58097570
_cell_formula_units_Z   2
loop_
 _symmetry_equiv_pos_site_id
 _symmetry_equiv_pos_as_xyz
  1  'x, y, z'
loop_
 _atom_site_type_symbol
 _atom_site_label
 _atom_site_symmetry_multiplicity
 _atom_site_fract_x
 _atom_site_fract_y
 _atom_site_fract_z
 _atom_site_occupancy
  Cd  Cd0  1  0.49999000  0.50000000  0.50000000  1.0
  Cd  Cd1  1  0.50000000  0.00000000  0.00000000  1.0
  H  H2  1  0.19838000  0.49577000  0.65452000  1.0
  H  H3  1  0.80165000  0.99577000  0.84547000  1.0
  H  H4  1  0.80160000  0.50423000  0.34548000  1.0
  H  H5  1  0.19837000  0.00423000  0.15453000  1.0
  H  H6  1  0.68932000  0.89262000  0.54810000  1.0
  H  H7  1  0.31071000  0.39262000  0.95189000  1.0
  H  H8  1  0.31067000  0.10737000  0.45190000  1.0
  H  H9  1  0.68930000  0.60737000  0.04811000  1.0
  H  H10  1  0.51656000  0.11550000  0.63509000  1.0
  H  H11  1  0.48348000  0.61550000  0.86490000  1.0
  H  H12  1  0.48344000  0.88449000  0.36491000  1.0
  H  H13  1  0.51652000  0.38450000  0.13509000  1.0
  H  H14  1  0.16790000  0.02468000  0.72329000  1.0
  H  H15  1  0.83214000  0.52468000  0.77670000  1.0
  H  H16  1  0.83210000  0.97532000  0.27671000  1.0
  H  H17  1  0.16787000  0.47533000  0.22330000  1.0
  C  C18  1  0.27300000  0.63369000  0.65063000  1.0
  C  C19  1  0.72703000  0.13369000  0.84936000  1.0
  C  C20  1  0.72699000  0.36631000  0.34937000  1.0
  C  C21  1  0.27297000  0.86631000  0.15064000  1.0
  C  C22  1  0.54251000  0.85599000  0.59166000  1.0
  C  C23  1  0.45751000  0.35598000  0.90833000  1.0
  C  C24  1  0.45748000  0.14401000  0.40834000  1.0
  C  C25  1  0.54250000  0.64402000  0.09167000  1.0
  C  C26  1  0.15820000  0.75478000  0.70101000  1.0
  C  C27  1  0.84183000  0.25478000  0.79898000  1.0
  C  C28  1  0.84180000  0.24523000  0.29899000  1.0
  C  C29  1  0.15819000  0.74522000  0.20102000  1.0
  C  C30  1  0.44887000  0.97710000  0.63850000  1.0
  C  C31  1  0.55117000  0.47710000  0.86149000  1.0
  C  C32  1  0.55113000  0.02289000  0.36150000  1.0
  C  C33  1  0.44884000  0.52290000  0.13851000  1.0
  Br  Br34  1  0.98677000  0.28300000  0.55115000  1.0
  Br  Br35  1  0.01323000  0.78300000  0.94886000  1.0
  Br  Br36  1  0.01322000  0.71700000  0.44886000  1.0
  Br  Br37  1  0.98678000  0.21700000  0.05114000  1.0
  N  N38  1  0.44853000  0.68449000  0.59830000  1.0
  N  N39  1  0.55151000  0.18448000  0.90169000  1.0
  N  N40  1  0.55147000  0.31552000  0.40170000  1.0
  N  N41  1  0.44850000  0.81552000  0.09831000  1.0
  N  N42  1  0.26190000  0.92621000  0.69125000  1.0
  N  N43  1  0.73814000  0.42620000  0.80874000  1.0
  N  N44  1  0.73810000  0.07380000  0.30875000  1.0
  N  N45  1  0.26186000  0.57380000  0.19126000  1.0
  O  O46  1  0.97169000  0.71609000  0.74964000  1.0
  O  O47  1  0.02833000  0.21608000  0.75035000  1.0
  O  O48  1  0.02828000  0.28392000  0.25037000  1.0
  O  O49  1  0.97169000  0.78392000  0.24965000  1.0
