# generated using pymatgen
data_NiH18C20(NO)6
_symmetry_space_group_name_H-M   'P 1'
_cell_length_a   9.35310000
_cell_length_b   16.20870000
_cell_length_c   18.72250000
_cell_angle_alpha   103.50200000
_cell_angle_beta   89.99890000
_cell_angle_gamma   89.99810000
_symmetry_Int_Tables_number   1
_chemical_formula_structural   NiH18C20(NO)6
_chemical_formula_sum   'Ni4 H72 C80 N24 O24'
_cell_volume   2759.91353722
_cell_formula_units_Z   4
loop_
 _symmetry_equiv_pos_site_id
 _symmetry_equiv_pos_as_xyz
  1  'x, y, z'
loop_
 _atom_site_type_symbol
 _atom_site_label
 _atom_site_symmetry_multiplicity
 _atom_site_fract_x
 _atom_site_fract_y
 _atom_site_fract_z
 _atom_site_occupancy
  Ni  Ni0  1  0.42268000  0.26356000  0.59039000  1.0
  Ni  Ni1  1  0.92500000  0.73678000  0.90988000  1.0
  Ni  Ni2  1  0.57502000  0.73678000  0.40988000  1.0
  Ni  Ni3  1  0.07731000  0.26356000  0.09038000  1.0
  H  H4  1  0.50002000  0.09302000  0.50169000  1.0
  H  H5  1  0.99921000  0.90991000  0.99773000  1.0
  H  H6  1  0.50078000  0.90990000  0.49772000  1.0
  H  H7  1  0.99997000  0.09302000  0.00169000  1.0
  H  H8  1  0.56621000  0.42456000  0.66387000  1.0
  H  H9  1  0.06543000  0.57282000  0.83733000  1.0
  H  H10  1  0.43460000  0.57281000  0.33734000  1.0
  H  H11  1  0.93378000  0.42455000  0.16387000  1.0
  H  H12  1  0.19655000  0.13810000  0.50313000  1.0
  H  H13  1  0.69704000  0.86127000  0.99627000  1.0
  H  H14  1  0.80294000  0.86126000  0.49627000  1.0
  H  H15  1  0.30347000  0.13809000  0.00313000  1.0
  H  H16  1  0.99274000  0.15123000  0.41836000  1.0
  H  H17  1  0.49368000  0.84846000  0.08140000  1.0
  H  H18  1  0.00631000  0.84846000  0.58140000  1.0
  H  H19  1  0.50728000  0.15122000  0.91836000  1.0
  H  H20  1  0.94585000  0.29344000  0.39125000  1.0
  H  H21  1  0.44661000  0.70635000  0.10861000  1.0
  H  H22  1  0.05337000  0.70635000  0.60861000  1.0
  H  H23  1  0.55417000  0.29344000  0.89125000  1.0
  H  H24  1  0.09976000  0.41621000  0.44955000  1.0
  H  H25  1  0.60044000  0.58357000  0.05049000  1.0
  H  H26  1  0.89953000  0.58358000  0.55051000  1.0
  H  H27  1  0.40024000  0.41620000  0.94955000  1.0
  H  H28  1  0.26799000  0.40462000  0.70947000  1.0
  H  H29  1  0.76895000  0.59605000  0.79129000  1.0
  H  H30  1  0.73110000  0.59604000  0.29132000  1.0
  H  H31  1  0.23198000  0.40462000  0.20947000  1.0
  H  H32  1  0.13259000  0.40665000  0.82550000  1.0
  H  H33  1  0.63354000  0.59359000  0.67527000  1.0
  H  H34  1  0.86647000  0.59354000  0.17528000  1.0
  H  H35  1  0.36741000  0.40664000  0.32549000  1.0
  H  H36  1  0.10075000  0.26870000  0.86390000  1.0
  H  H37  1  0.60139000  0.73143000  0.63659000  1.0
  H  H38  1  0.89858000  0.73136000  0.13656000  1.0
  H  H39  1  0.39927000  0.26868000  0.36388000  1.0
  H  H40  1  0.19145000  0.13568000  0.78343000  1.0
  H  H41  1  0.69193000  0.86457000  0.71694000  1.0
  H  H42  1  0.80805000  0.86452000  0.21690000  1.0
  H  H43  1  0.30856000  0.13567000  0.28341000  1.0
  H  H44  1  0.62315000  0.35173000  0.43735000  1.0
  H  H45  1  0.12328000  0.64796000  0.06239000  1.0
  H  H46  1  0.37672000  0.64797000  0.56238000  1.0
  H  H47  1  0.87687000  0.35173000  0.93733000  1.0
  H  H48  1  0.72941000  0.41075000  0.33504000  1.0
  H  H49  1  0.22914000  0.58925000  0.16490000  1.0
  H  H50  1  0.27088000  0.58926000  0.66490000  1.0
  H  H51  1  0.77059000  0.41075000  0.83502000  1.0
  H  H52  1  0.84200000  0.15776000  0.22069000  1.0
  H  H53  1  0.34130000  0.84231000  0.27907000  1.0
  H  H54  1  0.15870000  0.84232000  0.77907000  1.0
  H  H55  1  0.65799000  0.15776000  0.72070000  1.0
  H  H56  1  0.73426000  0.10052000  0.32249000  1.0
  H  H57  1  0.23398000  0.89934000  0.17708000  1.0
  H  H58  1  0.26600000  0.89936000  0.67708000  1.0
  H  H59  1  0.76573000  0.10053000  0.82251000  1.0
  H  H60  1  0.30742000  0.48987000  0.47227000  1.0
  H  H61  1  0.80699000  0.50955000  0.02834000  1.0
  H  H62  1  0.69299000  0.50955000  0.52835000  1.0
  H  H63  1  0.19255000  0.48986000  0.97227000  1.0
  H  H64  1  0.41636000  0.52185000  0.54663000  1.0
  H  H65  1  0.91530000  0.47680000  0.95393000  1.0
  H  H66  1  0.58471000  0.47680000  0.45394000  1.0
  H  H67  1  0.08361000  0.52185000  0.04663000  1.0
  H  H68  1  0.31601000  0.04002000  0.71508000  1.0
  H  H69  1  0.81610000  0.96054000  0.78428000  1.0
  H  H70  1  0.68393000  0.96052000  0.28426000  1.0
  H  H71  1  0.18401000  0.04002000  0.21507000  1.0
  H  H72  1  0.37867000  0.99667000  0.62688000  1.0
  H  H73  1  0.87789000  0.00444000  0.87249000  1.0
  H  H74  1  0.62211000  0.00444000  0.37247000  1.0
  H  H75  1  0.12134000  0.99667000  0.12688000  1.0
  C  C76  1  0.17138000  0.19812000  0.48912000  1.0
  C  C77  1  0.67189000  0.80123000  0.01028000  1.0
  C  C78  1  0.82810000  0.80122000  0.51028000  1.0
  C  C79  1  0.32863000  0.19812000  0.98912000  1.0
  C  C80  1  0.05897000  0.20595000  0.44226000  1.0
  C  C81  1  0.55969000  0.79364000  0.05740000  1.0
  C  C82  1  0.94030000  0.79364000  0.55740000  1.0
  C  C83  1  0.44105000  0.20595000  0.94225000  1.0
  C  C84  1  0.03288000  0.28499000  0.42737000  1.0
  C  C85  1  0.53357000  0.71469000  0.07238000  1.0
  C  C86  1  0.96641000  0.71469000  0.57239000  1.0
  C  C87  1  0.46713000  0.28499000  0.92737000  1.0
  C  C88  1  0.11963000  0.35352000  0.45940000  1.0
  C  C89  1  0.62025000  0.64612000  0.04038000  1.0
  C  C90  1  0.87973000  0.64612000  0.54040000  1.0
  C  C91  1  0.38038000  0.35351000  0.95940000  1.0
  C  C92  1  0.23209000  0.34054000  0.50476000  1.0
  C  C93  1  0.73243000  0.65879000  0.99475000  1.0
  C  C94  1  0.76755000  0.65879000  0.49476000  1.0
  C  C95  1  0.26791000  0.34055000  0.00477000  1.0
  C  C96  1  0.33307000  0.40659000  0.53950000  1.0
  C  C97  1  0.83313000  0.59207000  0.96023000  1.0
  C  C98  1  0.66686000  0.59208000  0.46026000  1.0
  C  C99  1  0.16692000  0.40659000  0.03950000  1.0
  C  C100  1  0.24941000  0.34655000  0.72801000  1.0
  C  C101  1  0.75012000  0.65413000  0.77280000  1.0
  C  C102  1  0.74993000  0.65411000  0.27281000  1.0
  C  C103  1  0.25058000  0.34654000  0.22801000  1.0
  C  C104  1  0.17560000  0.34727000  0.79288000  1.0
  C  C105  1  0.67630000  0.65310000  0.70785000  1.0
  C  C106  1  0.82371000  0.65306000  0.20785000  1.0
  C  C107  1  0.32440000  0.34726000  0.29287000  1.0
  C  C108  1  0.15695000  0.27072000  0.81350000  1.0
  C  C109  1  0.65751000  0.72954000  0.68707000  1.0
  C  C110  1  0.84248000  0.72949000  0.18705000  1.0
  C  C111  1  0.34305000  0.27071000  0.31349000  1.0
  C  C112  1  0.20927000  0.19600000  0.76851000  1.0
  C  C113  1  0.70965000  0.80435000  0.73199000  1.0
  C  C114  1  0.79035000  0.80431000  0.23197000  1.0
  C  C115  1  0.29074000  0.19599000  0.26850000  1.0
  C  C116  1  0.28214000  0.20004000  0.70411000  1.0
  C  C117  1  0.78235000  0.80066000  0.79655000  1.0
  C  C118  1  0.71768000  0.80064000  0.29654000  1.0
  C  C119  1  0.21786000  0.20004000  0.20410000  1.0
  C  C120  1  0.34170000  0.12608000  0.65206000  1.0
  C  C121  1  0.84131000  0.87528000  0.84823000  1.0
  C  C122  1  0.65872000  0.87527000  0.34822000  1.0
  C  C123  1  0.15830000  0.12607000  0.15206000  1.0
  C  C124  1  0.59581000  0.19323000  0.44573000  1.0
  C  C125  1  0.09477000  0.80689000  0.05408000  1.0
  C  C126  1  0.40521000  0.80690000  0.55407000  1.0
  C  C127  1  0.90419000  0.19324000  0.94574000  1.0
  C  C128  1  0.66880000  0.22355000  0.38489000  1.0
  C  C129  1  0.16864000  0.77630000  0.11468000  1.0
  C  C130  1  0.33134000  0.77631000  0.61467000  1.0
  C  C131  1  0.83120000  0.22356000  0.88489000  1.0
  C  C132  1  0.66969000  0.31087000  0.38846000  1.0
  C  C133  1  0.16969000  0.68898000  0.11123000  1.0
  C  C134  1  0.33031000  0.68899000  0.61123000  1.0
  C  C135  1  0.83031000  0.31088000  0.88845000  1.0
  C  C136  1  0.72851000  0.34289000  0.33234000  1.0
  C  C137  1  0.22829000  0.65711000  0.16754000  1.0
  C  C138  1  0.27172000  0.65712000  0.66753000  1.0
  C  C139  1  0.77148000  0.34289000  0.83233000  1.0
  C  C140  1  0.78995000  0.28718000  0.27147000  1.0
  C  C141  1  0.28948000  0.71282000  0.22847000  1.0
  C  C142  1  0.21053000  0.71283000  0.72847000  1.0
  C  C143  1  0.71004000  0.28718000  0.77147000  1.0
  C  C144  1  0.79213000  0.19973000  0.26819000  1.0
  C  C145  1  0.29158000  0.80023000  0.23158000  1.0
  C  C146  1  0.20841000  0.80024000  0.73159000  1.0
  C  C147  1  0.70786000  0.19973000  0.76819000  1.0
  C  C148  1  0.73170000  0.16814000  0.32437000  1.0
  C  C149  1  0.23141000  0.83174000  0.17524000  1.0
  C  C150  1  0.26858000  0.83175000  0.67524000  1.0
  C  C151  1  0.76830000  0.16814000  0.82438000  1.0
  C  C152  1  0.85806000  0.31982000  0.21096000  1.0
  C  C153  1  0.35854000  0.68007000  0.28892000  1.0
  C  C154  1  0.14148000  0.68008000  0.78892000  1.0
  C  C155  1  0.64192000  0.31982000  0.71096000  1.0
  N  N156  1  0.30186000  0.27512000  0.68516000  1.0
  N  N157  1  0.80227000  0.72568000  0.81571000  1.0
  N  N158  1  0.69777000  0.72566000  0.31572000  1.0
  N  N159  1  0.19812000  0.27512000  0.18516000  1.0
  N  N160  1  0.40041000  0.14268000  0.59337000  1.0
  N  N161  1  0.90012000  0.85968000  0.90717000  1.0
  N  N162  1  0.59990000  0.85967000  0.40716000  1.0
  N  N163  1  0.09958000  0.14268000  0.09336000  1.0
  N  N164  1  0.25618000  0.26352000  0.51921000  1.0
  N  N165  1  0.75628000  0.73565000  0.97997000  1.0
  N  N166  1  0.74371000  0.73565000  0.47998000  1.0
  N  N167  1  0.24383000  0.26352000  0.01921000  1.0
  N  N168  1  0.41851000  0.38665000  0.58837000  1.0
  N  N169  1  0.91848000  0.61107000  0.91108000  1.0
  N  N170  1  0.58152000  0.61107000  0.41110000  1.0
  N  N171  1  0.08149000  0.38665000  0.08838000  1.0
  N  N172  1  0.32967000  0.04615000  0.66299000  1.0
  N  N173  1  0.82841000  0.95492000  0.83660000  1.0
  N  N174  1  0.67160000  0.95491000  0.33659000  1.0
  N  N175  1  0.17034000  0.04615000  0.16298000  1.0
  N  N176  1  0.33297000  0.48490000  0.52378000  1.0
  N  N177  1  0.83225000  0.51414000  0.97670000  1.0
  N  N178  1  0.66775000  0.51414000  0.47671000  1.0
  N  N179  1  0.16701000  0.48490000  0.02378000  1.0
  O  O180  1  0.89553000  0.26454000  0.15446000  1.0
  O  O181  1  0.39811000  0.73597000  0.34476000  1.0
  O  O182  1  0.10194000  0.73598000  0.84478000  1.0
  O  O183  1  0.60443000  0.26453000  0.65447000  1.0
  O  O184  1  0.45268000  0.07259000  0.54533000  1.0
  O  O185  1  0.95211000  0.93051000  0.95464000  1.0
  O  O186  1  0.54786000  0.93050000  0.45463000  1.0
  O  O187  1  0.04733000  0.07259000  0.04533000  1.0
  O  O188  1  0.56527000  0.25082000  0.50207000  1.0
  O  O189  1  0.06180000  0.74891000  0.99824000  1.0
  O  O190  1  0.43817000  0.74893000  0.49823000  1.0
  O  O191  1  0.93474000  0.25084000  0.00207000  1.0
  O  O192  1  0.87537000  0.40039000  0.22154000  1.0
  O  O193  1  0.37453000  0.59976000  0.27887000  1.0
  O  O194  1  0.12550000  0.59976000  0.77887000  1.0
  O  O195  1  0.62463000  0.40038000  0.72153000  1.0
  O  O196  1  0.56681000  0.11432000  0.43591000  1.0
  O  O197  1  0.06744000  0.88582000  0.06368000  1.0
  O  O198  1  0.43257000  0.88582000  0.56369000  1.0
  O  O199  1  0.93318000  0.11433000  0.93592000  1.0
  O  O200  1  0.51555000  0.44821000  0.61863000  1.0
  O  O201  1  0.01498000  0.54875000  0.88100000  1.0
  O  O202  1  0.48505000  0.54875000  0.38101000  1.0
  O  O203  1  0.98444000  0.44821000  0.11863000  1.0
