# generated using pymatgen
data_Cu2H6C7(IN)2
_symmetry_space_group_name_H-M   'P 1'
_cell_length_a   4.05159000
_cell_length_b   15.69140000
_cell_length_c   16.67620000
_cell_angle_alpha   69.67400000
_cell_angle_beta   89.99870000
_cell_angle_gamma   89.99790000
_symmetry_Int_Tables_number   1
_chemical_formula_structural   Cu2H6C7(IN)2
_chemical_formula_sum   'Cu8 H24 C28 I8 N8'
_cell_volume   994.17477353
_cell_formula_units_Z   4
loop_
 _symmetry_equiv_pos_site_id
 _symmetry_equiv_pos_as_xyz
  1  'x, y, z'
loop_
 _atom_site_type_symbol
 _atom_site_label
 _atom_site_symmetry_multiplicity
 _atom_site_fract_x
 _atom_site_fract_y
 _atom_site_fract_z
 _atom_site_occupancy
  Cu  Cu0  1  0.57294000  0.67323000  0.29069000  1.0
  Cu  Cu1  1  0.07295000  0.32678000  0.20931000  1.0
  Cu  Cu2  1  0.42707000  0.32677000  0.70931000  1.0
  Cu  Cu3  1  0.92703000  0.67321000  0.79068000  1.0
  Cu  Cu4  1  0.07618000  0.57624000  0.26440000  1.0
  Cu  Cu5  1  0.57616000  0.42377000  0.23560000  1.0
  Cu  Cu6  1  0.92382000  0.42376000  0.73559000  1.0
  Cu  Cu7  1  0.42382000  0.57623000  0.76439000  1.0
  H  H8  1  0.07696000  0.71049000  0.55509000  1.0
  H  H9  1  0.57699000  0.28951000  0.94491000  1.0
  H  H10  1  0.92302000  0.28952000  0.44491000  1.0
  H  H11  1  0.42304000  0.71048000  0.05508000  1.0
  H  H12  1  0.36015000  0.87717000  0.27170000  1.0
  H  H13  1  0.86018000  0.12285000  0.22831000  1.0
  H  H14  1  0.63985000  0.12284000  0.72830000  1.0
  H  H15  1  0.13981000  0.87714000  0.77169000  1.0
  H  H16  1  0.36871000  0.02264000  0.30121000  1.0
  H  H17  1  0.86870000  0.97738000  0.19879000  1.0
  H  H18  1  0.63134000  0.97738000  0.69878000  1.0
  H  H19  1  0.13133000  0.02260000  0.80121000  1.0
  H  H20  1  0.64708000  0.03312000  0.42882000  1.0
  H  H21  1  0.14705000  0.96689000  0.07118000  1.0
  H  H22  1  0.35298000  0.96689000  0.57118000  1.0
  H  H23  1  0.85299000  0.03310000  0.92883000  1.0
  H  H24  1  0.93176000  0.89868000  0.53310000  1.0
  H  H25  1  0.43177000  0.10133000  0.96691000  1.0
  H  H26  1  0.06826000  0.10133000  0.46690000  1.0
  H  H27  1  0.56826000  0.89866000  0.03310000  1.0
  H  H28  1  0.94932000  0.60517000  0.47138000  1.0
  H  H29  1  0.44937000  0.39484000  0.02862000  1.0
  H  H30  1  0.05064000  0.39484000  0.52863000  1.0
  H  H31  1  0.55064000  0.60516000  0.97138000  1.0
  C  C32  1  0.64784000  0.80718000  0.38521000  1.0
  C  C33  1  0.14789000  0.19284000  0.11480000  1.0
  C  C34  1  0.35212000  0.19282000  0.61479000  1.0
  C  C35  1  0.85210000  0.80717000  0.88520000  1.0
  C  C36  1  0.48615000  0.88231000  0.32754000  1.0
  C  C37  1  0.98617000  0.11771000  0.17247000  1.0
  C  C38  1  0.51383000  0.11770000  0.67245000  1.0
  C  C39  1  0.01381000  0.88228000  0.82754000  1.0
  C  C40  1  0.49218000  0.96288000  0.34486000  1.0
  C  C41  1  0.99218000  0.03714000  0.15515000  1.0
  C  C42  1  0.50785000  0.03714000  0.65514000  1.0
  C  C43  1  0.00784000  0.96284000  0.84486000  1.0
  C  C44  1  0.65144000  0.96870000  0.41777000  1.0
  C  C45  1  0.15143000  0.03131000  0.08223000  1.0
  C  C46  1  0.34860000  0.03131000  0.58223000  1.0
  C  C47  1  0.84860000  0.96868000  0.91777000  1.0
  C  C48  1  0.80974000  0.89432000  0.47649000  1.0
  C  C49  1  0.30974000  0.10568000  0.02351000  1.0
  C  C50  1  0.19026000  0.10569000  0.52351000  1.0
  C  C51  1  0.69025000  0.89430000  0.97649000  1.0
  C  C52  1  0.80704000  0.81389000  0.45846000  1.0
  C  C53  1  0.30708000  0.18611000  0.04154000  1.0
  C  C54  1  0.19293000  0.18611000  0.54154000  1.0
  C  C55  1  0.69294000  0.81388000  0.95846000  1.0
  C  C56  1  0.86759000  0.67514000  0.45362000  1.0
  C  C57  1  0.36765000  0.32486000  0.04639000  1.0
  C  C58  1  0.13236000  0.32486000  0.54639000  1.0
  C  C59  1  0.63235000  0.67513000  0.95361000  1.0
  I  I60  1  0.10138000  0.74883000  0.18339000  1.0
  I  I61  1  0.60137000  0.25118000  0.31661000  1.0
  I  I62  1  0.89864000  0.25117000  0.81661000  1.0
  I  I63  1  0.39867000  0.74882000  0.68339000  1.0
  I  I64  1  0.58296000  0.49303000  0.36473000  1.0
  I  I65  1  0.08293000  0.50698000  0.13528000  1.0
  I  I66  1  0.41705000  0.50696000  0.63526000  1.0
  I  I67  1  0.91706000  0.49302000  0.86472000  1.0
  N  N68  1  0.68989000  0.71905000  0.38453000  1.0
  N  N69  1  0.18992000  0.28096000  0.11548000  1.0
  N  N70  1  0.31008000  0.28096000  0.61547000  1.0
  N  N71  1  0.81006000  0.71904000  0.88453000  1.0
  N  N72  1  0.94150000  0.72875000  0.49998000  1.0
  N  N73  1  0.44154000  0.27126000  0.00003000  1.0
  N  N74  1  0.05847000  0.27126000  0.50003000  1.0
  N  N75  1  0.55846000  0.72874000  0.99998000  1.0
