# generated using pymatgen
data_CdH6C7(SN2)2
_symmetry_space_group_name_H-M   'P 1'
_cell_length_a   5.85332000
_cell_length_b   13.57010000
_cell_length_c   14.15005464
_cell_angle_alpha   87.45190512
_cell_angle_beta   78.05178423
_cell_angle_gamma   77.61590000
_symmetry_Int_Tables_number   1
_chemical_formula_structural   CdH6C7(SN2)2
_chemical_formula_sum   'Cd4 H24 C28 S8 N16'
_cell_volume   1074.00527389
_cell_formula_units_Z   4
loop_
 _symmetry_equiv_pos_site_id
 _symmetry_equiv_pos_as_xyz
  1  'x, y, z'
loop_
 _atom_site_type_symbol
 _atom_site_label
 _atom_site_symmetry_multiplicity
 _atom_site_fract_x
 _atom_site_fract_y
 _atom_site_fract_z
 _atom_site_occupancy
  Cd  Cd0  1  0.29736000  0.02852000  0.73902000  1.0
  Cd  Cd1  1  0.06391000  0.97157000  0.26128000  1.0
  Cd  Cd2  1  0.07612000  0.47150000  0.23872000  1.0
  Cd  Cd3  1  0.78500000  0.52862000  0.76105000  1.0
  H  H4  1  0.76149000  0.62583000  0.94172000  1.0
  H  H5  1  0.32921000  0.37416000  0.05808000  1.0
  H  H6  1  0.13817000  0.87420000  0.44179000  1.0
  H  H7  1  0.45226000  0.12591000  0.55830000  1.0
  H  H8  1  0.87317000  0.69570000  0.85071000  1.0
  H  H9  1  0.41962000  0.30436000  0.14908000  1.0
  H  H10  1  0.31953000  0.80453000  0.35071000  1.0
  H  H11  1  0.47311000  0.19587000  0.64920000  1.0
  H  H12  1  0.64280000  0.83244000  0.77743000  1.0
  H  H13  1  0.25186000  0.16768000  0.22261000  1.0
  H  H14  1  0.22589000  0.66760000  0.27745000  1.0
  H  H15  1  0.16925000  0.33253000  0.72261000  1.0
  H  H16  1  0.31746000  0.65237000  0.00429000  1.0
  H  H17  1  0.97400000  0.34756000  0.99577000  1.0
  H  H18  1  0.72067000  0.84741000  0.50422000  1.0
  H  H19  1  0.07078000  0.15234000  0.49589000  1.0
  H  H20  1  0.93439000  0.77955000  0.01235000  1.0
  H  H21  1  0.72606000  0.22014000  0.98772000  1.0
  H  H22  1  0.46464000  0.72000000  0.51218000  1.0
  H  H23  1  0.69614000  0.27971000  0.48763000  1.0
  H  H24  1  0.92648000  0.93004000  0.90157000  1.0
  H  H25  1  0.75735000  0.06969000  0.09849000  1.0
  H  H26  1  0.60707000  0.56956000  0.40135000  1.0
  H  H27  1  0.57757000  0.43025000  0.59828000  1.0
  C  C28  1  0.70574000  0.12122000  0.82350000  1.0
  C  C29  1  0.64932000  0.87897000  0.17674000  1.0
  C  C30  1  0.57704000  0.37867000  0.32314000  1.0
  C  C31  1  0.27768000  0.62138000  0.67677000  1.0
  C  C32  1  0.89214000  0.94922000  0.63332000  1.0
  C  C33  1  0.47416000  0.05069000  0.36698000  1.0
  C  C34  1  0.59186000  0.55086000  0.13305000  1.0
  C  C35  1  0.27406000  0.44941000  0.86677000  1.0
  C  C36  1  0.49015000  0.81828000  0.83122000  1.0
  C  C37  1  0.13901000  0.18175000  0.16883000  1.0
  C  C38  1  0.05911000  0.68166000  0.33118000  1.0
  C  C39  1  0.07045000  0.31836000  0.66882000  1.0
  C  C40  1  0.51143000  0.73292000  0.89052000  1.0
  C  C41  1  0.13463000  0.26708000  0.10947000  1.0
  C  C42  1  0.99511000  0.76703000  0.39051000  1.0
  C  C43  1  0.15105000  0.23297000  0.60956000  1.0
  C  C44  1  0.30791000  0.71776000  0.95654000  1.0
  C  C45  1  0.98199000  0.28213000  0.04348000  1.0
  C  C46  1  0.77651000  0.78202000  0.45646000  1.0
  C  C47  1  0.01352000  0.21781000  0.54355000  1.0
  C  C48  1  0.09489000  0.78856000  0.96079000  1.0
  C  C49  1  0.84386000  0.21124000  0.03926000  1.0
  C  C50  1  0.63414000  0.71111000  0.46065000  1.0
  C  C51  1  0.80497000  0.28868000  0.53921000  1.0
  C  C52  1  0.08872000  0.87232000  0.89990000  1.0
  C  C53  1  0.86031000  0.12750000  0.10016000  1.0
  C  C54  1  0.71160000  0.62740000  0.39976000  1.0
  C  C55  1  0.73798000  0.37248000  0.60003000  1.0
  S  S56  1  0.41988000  0.14222000  0.86858000  1.0
  S  S57  1  0.42958000  0.85871000  0.13111000  1.0
  S  S58  1  0.31197000  0.35793000  0.36846000  1.0
  S  S59  1  0.03747000  0.64210000  0.63135000  1.0
  S  S60  1  0.17737000  0.93511000  0.58926000  1.0
  S  S61  1  0.70133000  0.06418000  0.41133000  1.0
  S  S62  1  0.86327000  0.56457000  0.08881000  1.0
  S  S63  1  0.51504000  0.43560000  0.91088000  1.0
  N  N64  1  0.91341000  0.10822000  0.79191000  1.0
  N  N65  1  0.81229000  0.89143000  0.20877000  1.0
  N  N66  1  0.77188000  0.39149000  0.29135000  1.0
  N  N67  1  0.45338000  0.60855000  0.70863000  1.0
  N  N68  1  0.68506000  0.95802000  0.66438000  1.0
  N  N69  1  0.30685000  0.04243000  0.33569000  1.0
  N  N70  1  0.39335000  0.54235000  0.16428000  1.0
  N  N71  1  0.09821000  0.45791000  0.83564000  1.0
  N  N72  1  0.28489000  0.88613000  0.83638000  1.0
  N  N73  1  0.00659000  0.11380000  0.16371000  1.0
  N  N74  1  0.92168000  0.61370000  0.33627000  1.0
  N  N75  1  0.87042000  0.38626000  0.66359000  1.0
  N  N76  1  0.73111000  0.66380000  0.87939000  1.0
  N  N77  1  0.27445000  0.33625000  0.12047000  1.0
  N  N78  1  0.14569000  0.83628000  0.37943000  1.0
  N  N79  1  0.35971000  0.16387000  0.62065000  1.0
