# generated using pymatgen
data_Zn4H28C44N4O13
_symmetry_space_group_name_H-M   'P 1'
_cell_length_a   21.51120000
_cell_length_b   21.51120000
_cell_length_c   21.55142306
_cell_angle_alpha   110.84910732
_cell_angle_beta   110.84970732
_cell_angle_gamma   106.66800000
_symmetry_Int_Tables_number   1
_chemical_formula_structural   Zn4H28C44N4O13
_chemical_formula_sum   'Zn8 H56 C88 N8 O26'
_cell_volume   7671.17732428
_cell_formula_units_Z   2
loop_
 _symmetry_equiv_pos_site_id
 _symmetry_equiv_pos_as_xyz
  1  'x, y, z'
loop_
 _atom_site_type_symbol
 _atom_site_label
 _atom_site_symmetry_multiplicity
 _atom_site_fract_x
 _atom_site_fract_y
 _atom_site_fract_z
 _atom_site_occupancy
  Zn  Zn0  1  0.23309000  0.79016000  0.43023000  1.0
  Zn  Zn1  1  0.77081000  0.20070000  0.55976000  1.0
  Zn  Zn2  1  0.79930000  0.22918000  0.44024000  1.0
  Zn  Zn3  1  0.20985000  0.76692000  0.56977000  1.0
  Zn  Zn4  1  0.35993000  0.80285000  0.56977000  1.0
  Zn  Zn5  1  0.64095000  0.21105000  0.44024000  1.0
  Zn  Zn6  1  0.78894000  0.35905000  0.55976000  1.0
  Zn  Zn7  1  0.19715000  0.64008000  0.43023000  1.0
  H  H8  1  0.97812000  0.42069000  0.04803000  1.0
  H  H9  1  0.98775000  0.92717000  0.56120000  1.0
  H  H10  1  0.75211000  0.16609000  0.69359000  1.0
  H  H11  1  0.82380000  0.31768000  0.36196000  1.0
  H  H12  1  0.83395000  0.24787000  0.30638000  1.0
  H  H13  1  0.02486000  0.67447000  0.48470000  1.0
  H  H14  1  0.05048000  0.74954000  0.56705000  1.0
  H  H15  1  0.45988000  0.81026000  0.48475000  1.0
  H  H16  1  0.51664000  0.81755000  0.56708000  1.0
  H  H17  1  0.53817000  0.04422000  0.36195000  1.0
  H  H18  1  0.47249000  0.05852000  0.30639000  1.0
  H  H19  1  0.95571000  0.46185000  0.63804000  1.0
  H  H20  1  0.06990000  0.62734000  0.04802000  1.0
  H  H21  1  0.94149000  0.52759000  0.69363000  1.0
  H  H22  1  0.18977000  0.54015000  0.51532000  1.0
  H  H23  1  0.18250000  0.48341000  0.43298000  1.0
  H  H24  1  0.97860000  0.37273000  0.94070000  1.0
  H  H25  1  0.61842000  0.57160000  0.60930000  1.0
  H  H26  1  0.36595000  0.42653000  0.43860000  1.0
  H  H27  1  0.57931000  0.02189000  0.95198000  1.0
  H  H28  1  0.43204000  0.03791000  0.05931000  1.0
  H  H29  1  0.96208000  0.56796000  0.94069000  1.0
  H  H30  1  0.99066000  0.03747000  0.60917000  1.0
  H  H31  1  0.07283000  0.01224000  0.43880000  1.0
  H  H32  1  0.37267000  0.93010000  0.95199000  1.0
  H  H33  1  0.62726000  0.02139000  0.05930000  1.0
  H  H34  1  0.42839000  0.38158000  0.39070000  1.0
  H  H35  1  0.57348000  0.63405000  0.56141000  1.0
  H  H36  1  0.96253000  0.00933000  0.39082000  1.0
  H  H37  1  0.05264000  0.49245000  0.19141000  1.0
  H  H38  1  0.89303000  0.49680000  0.79750000  1.0
  H  H39  1  0.91665000  0.10729000  0.60749000  1.0
  H  H40  1  0.14170000  0.93760000  0.43617000  1.0
  H  H41  1  0.30104000  0.86123000  0.80860000  1.0
  H  H42  1  0.69931000  0.09554000  0.20250000  1.0
  H  H43  1  0.49988000  0.30923000  0.39238000  1.0
  H  H44  1  0.50145000  0.70554000  0.56405000  1.0
  H  H45  1  0.89272000  0.08335000  0.39251000  1.0
  H  H46  1  0.06241000  0.85831000  0.56384000  1.0
  H  H47  1  0.13876000  0.69896000  0.19140000  1.0
  H  H48  1  0.90446000  0.30069000  0.79751000  1.0
  H  H49  1  0.69076000  0.50010000  0.60761000  1.0
  H  H50  1  0.29446000  0.49855000  0.43596000  1.0
  H  H51  1  0.50756000  0.94737000  0.80860000  1.0
  H  H52  1  0.50319000  0.10696000  0.20250000  1.0
  H  H53  1  0.64152000  0.91936000  0.64928000  1.0
  H  H54  1  0.34786000  0.01808000  0.29217000  1.0
  H  H55  1  0.98189000  0.65216000  0.70778000  1.0
  H  H56  1  0.08070000  0.35851000  0.35078000  1.0
  H  H57  1  0.27006000  0.99222000  0.35070000  1.0
  H  H58  1  0.72590000  0.05569000  0.70782000  1.0
  H  H59  1  0.94437000  0.27410000  0.29222000  1.0
  H  H60  1  0.00775000  0.72994000  0.64923000  1.0
  H  H61  1  0.32549000  0.97510000  0.51522000  1.0
  H  H62  1  0.25044000  0.94949000  0.43287000  1.0
  H  H63  1  0.68225000  0.17621000  0.63803000  1.0
  C  C64  1  0.01854000  0.51854000  0.03709000  1.0
  C  C65  1  0.02479000  0.97521000  0.50000000  1.0
  C  C66  1  0.35687000  0.85688000  0.71375000  1.0
  C  C67  1  0.34995000  0.65004000  0.49999000  1.0
  C  C68  1  0.64291000  0.35706000  0.49999000  1.0
  C  C69  1  0.85126000  0.35126000  0.70253000  1.0
  C  C70  1  0.14313000  0.64314000  0.28626000  1.0
  C  C71  1  0.64873000  0.14873000  0.29747000  1.0
  C  C72  1  0.15005000  0.84996000  0.50001000  1.0
  C  C73  1  0.85708000  0.14292000  0.50000000  1.0
  C  C74  1  0.01465000  0.48145000  0.07890000  1.0
  C  C75  1  0.95125000  0.50988000  0.90981000  1.0
  C  C76  1  0.96807000  0.04596000  0.56063000  1.0
  C  C77  1  0.06875000  0.97720000  0.46481000  1.0
  C  C78  1  0.40255000  0.93576000  0.92111000  1.0
  C  C79  1  0.60008000  0.04145000  0.09019000  1.0
  C  C80  1  0.48538000  0.40747000  0.43930000  1.0
  C  C81  1  0.97587000  0.47587000  0.95175000  1.0
  C  C82  1  0.51239000  0.60393000  0.53531000  1.0
  C  C83  1  0.95406000  0.03195000  0.43938000  1.0
  C  C84  1  0.02282000  0.93127000  0.53520000  1.0
  C  C85  1  0.06423000  0.59745000  0.07890000  1.0
  C  C86  1  0.95856000  0.39993000  0.90982000  1.0
  C  C87  1  0.59252000  0.51462000  0.56070000  1.0
  C  C88  1  0.39606000  0.48760000  0.46469000  1.0
  C  C89  1  0.51855000  0.98534000  0.92110000  1.0
  C  C90  1  0.49011000  0.04875000  0.09019000  1.0
  C  C91  1  0.51799000  0.48201000  0.50000000  1.0
  C  C92  1  0.47521000  0.52478000  0.50000000  1.0
  C  C93  1  0.05551000  0.52138000  0.15923000  1.0
  C  C94  1  0.91189000  0.47009000  0.82953000  1.0
  C  C95  1  0.92739000  0.08582000  0.56049000  1.0
  C  C96  1  0.10840000  0.93635000  0.46417000  1.0
  C  C97  1  0.36216000  0.89629000  0.84079000  1.0
  C  C98  1  0.48145000  0.98145000  0.96291000  1.0
  C  C99  1  0.64056000  0.08236000  0.17047000  1.0
  C  C100  1  0.52538000  0.36693000  0.43944000  1.0
  C  C101  1  0.47219000  0.64423000  0.53594000  1.0
  C  C102  1  0.91418000  0.07261000  0.43951000  1.0
  C  C103  1  0.06366000  0.89161000  0.53583000  1.0
  C  C104  1  0.10371000  0.63785000  0.15922000  1.0
  C  C105  1  0.91764000  0.35944000  0.82954000  1.0
  C  C106  1  0.63306000  0.47461000  0.56055000  1.0
  C  C107  1  0.35577000  0.52781000  0.46406000  1.0
  C  C108  1  0.47862000  0.94449000  0.84078000  1.0
  C  C109  1  0.52413000  0.02414000  0.04826000  1.0
  C  C110  1  0.52992000  0.08812000  0.17048000  1.0
  C  C111  1  0.10003000  0.60004000  0.20007000  1.0
  C  C112  1  0.89426000  0.39425000  0.78852000  1.0
  C  C113  1  0.90024000  0.09976000  0.50000000  1.0
  C  C114  1  0.10669000  0.89332000  0.50001000  1.0
  C  C115  1  0.39996000  0.89997000  0.79993000  1.0
  C  C116  1  0.60575000  0.10575000  0.21149000  1.0
  C  C117  1  0.59977000  0.40023000  0.50000000  1.0
  C  C118  1  0.39331000  0.60669000  0.50000000  1.0
  C  C119  1  0.98203000  0.01799000  0.50000000  1.0
  C  C120  1  0.34875000  0.97704000  0.43100000  1.0
  C  C121  1  0.64908000  0.06960000  0.62470000  1.0
  C  C122  1  0.93042000  0.35092000  0.37532000  1.0
  C  C123  1  0.02293000  0.65123000  0.56894000  1.0
  C  C124  1  0.54603000  0.91774000  0.56897000  1.0
  C  C125  1  0.44490000  0.02438000  0.37529000  1.0
  C  C126  1  0.97559000  0.55511000  0.62468000  1.0
  C  C127  1  0.08229000  0.45398000  0.43107000  1.0
  C  C128  1  0.32564000  0.99509000  0.37405000  1.0
  C  C129  1  0.66986000  0.02791000  0.65691000  1.0
  C  C130  1  0.97214000  0.33015000  0.34312000  1.0
  C  C131  1  0.00489000  0.67437000  0.62590000  1.0
  C  C132  1  0.62103000  0.95158000  0.62593000  1.0
  C  C133  1  0.37098000  0.01294000  0.34307000  1.0
  C  C134  1  0.98703000  0.62903000  0.65688000  1.0
  C  C135  1  0.04847000  0.37899000  0.37411000  1.0
  C  C136  1  0.47588000  0.02171000  0.44510000  1.0
  C  C137  1  0.52086000  0.96169000  0.53959000  1.0
  C  C138  1  0.03833000  0.47914000  0.46043000  1.0
  C  C139  1  0.97827000  0.52412000  0.55488000  1.0
  C  C140  1  0.57660000  0.03077000  0.55488000  1.0
  C  C141  1  0.42209000  0.98126000  0.46039000  1.0
  C  C142  1  0.01872000  0.57791000  0.53958000  1.0
  C  C143  1  0.96924000  0.42340000  0.44513000  1.0
  C  C144  1  0.11414000  0.61413000  0.50000000  1.0
  C  C145  1  0.88822000  0.38822000  0.50000000  1.0
  C  C146  1  0.61177000  0.11178000  0.49999000  1.0
  C  C147  1  0.38586000  0.88584000  0.49999000  1.0
  C  C148  1  0.55394000  0.05394000  0.49999000  1.0
  C  C149  1  0.44444000  0.94443000  0.49999000  1.0
  C  C150  1  0.05557000  0.55557000  0.50001000  1.0
  C  C151  1  0.94605000  0.44605000  0.50000000  1.0
  N  N152  1  0.30150000  0.95155000  0.45700000  1.0
  N  N153  1  0.69564000  0.14685000  0.66344000  1.0
  N  N154  1  0.85318000  0.30434000  0.33655000  1.0
  N  N155  1  0.04840000  0.69846000  0.54291000  1.0
  N  N156  1  0.49456000  0.84449000  0.54296000  1.0
  N  N157  1  0.48340000  0.03219000  0.33654000  1.0
  N  N158  1  0.96778000  0.51663000  0.66345000  1.0
  N  N159  1  0.15555000  0.50547000  0.45710000  1.0
  O  O160  1  0.25000000  0.75000000  0.50000000  1.0
  O  O161  1  0.88877000  0.32489000  0.48427000  1.0
  O  O162  1  0.59548000  0.15938000  0.48427000  1.0
  O  O163  1  0.39224000  0.89818000  0.56508000  1.0
  O  O164  1  0.10182000  0.60774000  0.43491000  1.0
  O  O165  1  0.84061000  0.40451000  0.51574000  1.0
  O  O166  1  0.67509000  0.11121000  0.51570000  1.0
  O  O167  1  0.33310000  0.82713000  0.43491000  1.0
  O  O168  1  0.17285000  0.66690000  0.56508000  1.0
  O  O169  1  0.75000000  0.24999000  0.50000000  1.0
  O  O170  1  0.15038000  0.81739000  0.53935000  1.0
  O  O171  1  0.83769000  0.15743000  0.44554000  1.0
  O  O172  1  0.60989000  0.14972000  0.33076000  1.0
  O  O173  1  0.39435000  0.84471000  0.68045000  1.0
  O  O174  1  0.27805000  0.61104000  0.46064000  1.0
  O  O175  1  0.71188000  0.39213000  0.55447000  1.0
  O  O176  1  0.81897000  0.27912000  0.66924000  1.0
  O  O177  1  0.16427000  0.71391000  0.31956000  1.0
  O  O178  1  0.85027000  0.39010000  0.66924000  1.0
  O  O179  1  0.15530000  0.60566000  0.31956000  1.0
  O  O180  1  0.38896000  0.72194000  0.53935000  1.0
  O  O181  1  0.60785000  0.28810000  0.44552000  1.0
  O  O182  1  0.72087000  0.18103000  0.33076000  1.0
  O  O183  1  0.28610000  0.83574000  0.68045000  1.0
  O  O184  1  0.18262000  0.84963000  0.46067000  1.0
  O  O185  1  0.84256000  0.16229000  0.55445000  1.0
