# generated using pymatgen
data_CdH42C34S2(N4O3)2
_symmetry_space_group_name_H-M   'P 1'
_cell_length_a   8.32598000
_cell_length_b   9.55581000
_cell_length_c   11.70560000
_cell_angle_alpha   98.07310000
_cell_angle_beta   98.11860000
_cell_angle_gamma   104.94900000
_symmetry_Int_Tables_number   1
_chemical_formula_structural   CdH42C34S2(N4O3)2
_chemical_formula_sum   'Cd1 H42 C34 S2 N8 O6'
_cell_volume   875.41557109
_cell_formula_units_Z   1
loop_
 _symmetry_equiv_pos_site_id
 _symmetry_equiv_pos_as_xyz
  1  'x, y, z'
loop_
 _atom_site_type_symbol
 _atom_site_label
 _atom_site_symmetry_multiplicity
 _atom_site_fract_x
 _atom_site_fract_y
 _atom_site_fract_z
 _atom_site_occupancy
  Cd  Cd0  1  0.50000000  0.50000000  0.50000000  1.0
  H  H1  1  0.46373000  0.55180000  0.80696000  1.0
  H  H2  1  0.53627000  0.44820000  0.19305000  1.0
  H  H3  1  0.93050000  0.43593000  0.69779000  1.0
  H  H4  1  0.06950000  0.56407000  0.30221000  1.0
  H  H5  1  0.08504000  0.41006000  0.50270000  1.0
  H  H6  1  0.91497000  0.58993000  0.49730000  1.0
  H  H7  1  0.33465000  0.77498000  0.60030000  1.0
  H  H8  1  0.66535000  0.22502000  0.39970000  1.0
  H  H9  1  0.32316000  0.92885000  0.27893000  1.0
  H  H10  1  0.67683000  0.07114000  0.72107000  1.0
  H  H11  1  0.43104000  0.67247000  0.25952000  1.0
  H  H12  1  0.56895000  0.32754000  0.74048000  1.0
  H  H13  1  0.21251000  0.66166000  0.93369000  1.0
  H  H14  1  0.78748000  0.33834000  0.06631000  1.0
  H  H15  1  0.27054000  0.50288000  0.96562000  1.0
  H  H16  1  0.72946000  0.49713000  0.03439000  1.0
  H  H17  1  0.96440000  0.35566000  0.91100000  1.0
  H  H18  1  0.03561000  0.64434000  0.08900000  1.0
  H  H19  1  0.90888000  0.51638000  0.88158000  1.0
  H  H20  1  0.09112000  0.48361000  0.11842000  1.0
  H  H21  1  0.99101000  0.90572000  0.37999000  1.0
  H  H22  1  0.00899000  0.09428000  0.62002000  1.0
  H  H23  1  0.99918000  0.84319000  0.51529000  1.0
  H  H24  1  0.00081000  0.15681000  0.48472000  1.0
  H  H25  1  0.27443000  0.09275000  0.45709000  1.0
  H  H26  1  0.72556000  0.90724000  0.54290000  1.0
  H  H27  1  0.28196000  0.02977000  0.59275000  1.0
  H  H28  1  0.71804000  0.97024000  0.40724000  1.0
  H  H29  1  0.92945000  0.27242000  0.27977000  1.0
  H  H30  1  0.07055000  0.72758000  0.72023000  1.0
  H  H31  1  0.63653000  0.10744000  0.20292000  1.0
  H  H32  1  0.36347000  0.89255000  0.79708000  1.0
  H  H33  1  0.84132000  0.77699000  0.04082000  1.0
  H  H34  1  0.15868000  0.22301000  0.95918000  1.0
  H  H35  1  0.13328000  0.94254000  0.11582000  1.0
  H  H36  1  0.86673000  0.05746000  0.88418000  1.0
  H  H37  1  0.44657000  0.88261000  0.08956000  1.0
  H  H38  1  0.55343000  0.11739000  0.91044000  1.0
  H  H39  1  0.52321000  0.72484000  0.09248000  1.0
  H  H40  1  0.47678000  0.27516000  0.90751000  1.0
  H  H41  1  0.52863000  0.81118000  0.96845000  1.0
  H  H42  1  0.47137000  0.18882000  0.03154000  1.0
  C  C43  1  0.34018000  0.51331000  0.74975000  1.0
  C  C44  1  0.65983000  0.48670000  0.25026000  1.0
  C  C45  1  0.06249000  0.45537000  0.69083000  1.0
  C  C46  1  0.93751000  0.54463000  0.30918000  1.0
  C  C47  1  0.14025000  0.44324000  0.59523000  1.0
  C  C48  1  0.85976000  0.55676000  0.40477000  1.0
  C  C49  1  0.34257000  0.77746000  0.50901000  1.0
  C  C50  1  0.65742000  0.22254000  0.49099000  1.0
  C  C51  1  0.33727000  0.85466000  0.33933000  1.0
  C  C52  1  0.66271000  0.14535000  0.66066000  1.0
  C  C53  1  0.39290000  0.73052000  0.33245000  1.0
  C  C54  1  0.60710000  0.26947000  0.66755000  1.0
  C  C55  1  0.17728000  0.54054000  0.91104000  1.0
  C  C56  1  0.82272000  0.45946000  0.08896000  1.0
  C  C57  1  0.00133000  0.47675000  0.93511000  1.0
  C  C58  1  0.99866000  0.52325000  0.06489000  1.0
  C  C59  1  0.03851000  0.94090000  0.47522000  1.0
  C  C60  1  0.96148000  0.05911000  0.52479000  1.0
  C  C61  1  0.23137000  0.99662000  0.49807000  1.0
  C  C62  1  0.76863000  0.00338000  0.50193000  1.0
  C  C63  1  0.04855000  0.11709000  0.20163000  1.0
  C  C64  1  0.95145000  0.88291000  0.79837000  1.0
  C  C65  1  0.90939000  0.16347000  0.22741000  1.0
  C  C66  1  0.09061000  0.83653000  0.77258000  1.0
  C  C67  1  0.74586000  0.07059000  0.18507000  1.0
  C  C68  1  0.25414000  0.92940000  0.81493000  1.0
  C  C69  1  0.71925000  0.93030000  0.11742000  1.0
  C  C70  1  0.28075000  0.06970000  0.88257000  1.0
  C  C71  1  0.86067000  0.88413000  0.09579000  1.0
  C  C72  1  0.13934000  0.11586000  0.90421000  1.0
  C  C73  1  0.02414000  0.97662000  0.13675000  1.0
  C  C74  1  0.97586000  0.02337000  0.86325000  1.0
  C  C75  1  0.54423000  0.83244000  0.06479000  1.0
  C  C76  1  0.45577000  0.16756000  0.93520000  1.0
  S  S77  1  0.25650000  0.24109000  0.24422000  1.0
  S  S78  1  0.74350000  0.75891000  0.75578000  1.0
  N  N79  1  0.31293000  0.47963000  0.63293000  1.0
  N  N80  1  0.68707000  0.52037000  0.36707000  1.0
  N  N81  1  0.19142000  0.49956000  0.78828000  1.0
  N  N82  1  0.80858000  0.50044000  0.21172000  1.0
  N  N83  1  0.39555000  0.68360000  0.43883000  1.0
  N  N84  1  0.60444000  0.31640000  0.56117000  1.0
  N  N85  1  0.30619000  0.88277000  0.45199000  1.0
  N  N86  1  0.69380000  0.11722000  0.54801000  1.0
  O  O87  1  0.26463000  0.31008000  0.36738000  1.0
  O  O88  1  0.73536000  0.68992000  0.63262000  1.0
  O  O89  1  0.26866000  0.34860000  0.16486000  1.0
  O  O90  1  0.73134000  0.65140000  0.83514000  1.0
  O  O91  1  0.37449000  0.15145000  0.23259000  1.0
  O  O92  1  0.62551000  0.84855000  0.76741000  1.0
