# generated using pymatgen
data_AgH7C9IN
_symmetry_space_group_name_H-M   'P 1'
_cell_length_a   4.38241000
_cell_length_b   12.60580000
_cell_length_c   16.47900000
_cell_angle_alpha   90.00020000
_cell_angle_beta   90.00020000
_cell_angle_gamma   84.32760000
_symmetry_Int_Tables_number   1
_chemical_formula_structural   AgH7C9IN
_chemical_formula_sum   'Ag4 H28 C36 I4 N4'
_cell_volume   905.90454311
_cell_formula_units_Z   4
loop_
 _symmetry_equiv_pos_site_id
 _symmetry_equiv_pos_as_xyz
  1  'x, y, z'
loop_
 _atom_site_type_symbol
 _atom_site_label
 _atom_site_symmetry_multiplicity
 _atom_site_fract_x
 _atom_site_fract_y
 _atom_site_fract_z
 _atom_site_occupancy
  Ag  Ag0  1  0.75643000  0.53076000  0.56033000  1.0
  Ag  Ag1  1  0.74357000  0.96924000  0.06034000  1.0
  Ag  Ag2  1  0.24356000  0.46924000  0.43966000  1.0
  Ag  Ag3  1  0.25643000  0.03076000  0.93967000  1.0
  H  H4  1  0.24755000  0.35337000  0.61752000  1.0
  H  H5  1  0.25245000  0.14663000  0.11752000  1.0
  H  H6  1  0.75245000  0.64663000  0.38248000  1.0
  H  H7  1  0.74754000  0.85337000  0.88248000  1.0
  H  H8  1  0.47597000  0.25920000  0.74015000  1.0
  H  H9  1  0.02403000  0.24080000  0.24015000  1.0
  H  H10  1  0.52403000  0.74080000  0.25985000  1.0
  H  H11  1  0.97596000  0.75920000  0.75985000  1.0
  H  H12  1  0.27238000  0.31230000  0.87740000  1.0
  H  H13  1  0.22762000  0.18770000  0.37740000  1.0
  H  H14  1  0.72762000  0.68770000  0.12260000  1.0
  H  H15  1  0.77238000  0.81230000  0.62260000  1.0
  H  H16  1  0.91723000  0.43521000  0.96006000  1.0
  H  H17  1  0.58277000  0.06479000  0.46006000  1.0
  H  H18  1  0.08277000  0.56479000  0.03994000  1.0
  H  H19  1  0.41723000  0.93521000  0.53994000  1.0
  H  H20  1  0.52392000  0.59264000  0.96723000  1.0
  H  H21  1  0.97609000  0.90736000  0.46723000  1.0
  H  H22  1  0.47608000  0.40736000  0.03277000  1.0
  H  H23  1  0.02392000  0.09264000  0.53277000  1.0
  H  H24  1  0.32048000  0.67925000  0.84150000  1.0
  H  H25  1  0.17952000  0.82075000  0.34150000  1.0
  H  H26  1  0.67952000  0.32075000  0.15850000  1.0
  H  H27  1  0.82048000  0.17925000  0.65850000  1.0
  H  H28  1  0.51256000  0.61326000  0.70574000  1.0
  H  H29  1  0.98744000  0.88674000  0.20574000  1.0
  H  H30  1  0.48744000  0.38674000  0.29426000  1.0
  H  H31  1  0.01256000  0.11326000  0.79426000  1.0
  C  C32  1  0.16506000  0.37678000  0.67814000  1.0
  C  C33  1  0.33496000  0.12322000  0.17814000  1.0
  C  C34  1  0.83495000  0.62322000  0.32185000  1.0
  C  C35  1  0.66504000  0.87678000  0.82186000  1.0
  C  C36  1  0.29303000  0.32343000  0.74728000  1.0
  C  C37  1  0.20697000  0.17657000  0.24728000  1.0
  C  C38  1  0.70697000  0.67657000  0.25272000  1.0
  C  C39  1  0.79302000  0.82343000  0.75272000  1.0
  C  C40  1  0.18095000  0.35286000  0.82279000  1.0
  C  C41  1  0.31905000  0.14714000  0.32279000  1.0
  C  C42  1  0.81905000  0.64714000  0.17721000  1.0
  C  C43  1  0.68095000  0.85286000  0.67721000  1.0
  C  C44  1  0.82874000  0.47559000  0.90516000  1.0
  C  C45  1  0.67126000  0.02441000  0.40516000  1.0
  C  C46  1  0.17126000  0.52441000  0.09484000  1.0
  C  C47  1  0.32874000  0.97559000  0.59484000  1.0
  C  C48  1  0.60996000  0.56187000  0.90894000  1.0
  C  C49  1  0.89004000  0.93813000  0.40894000  1.0
  C  C50  1  0.39004000  0.43813000  0.09106000  1.0
  C  C51  1  0.10996000  0.06187000  0.59106000  1.0
  C  C52  1  0.49463000  0.61155000  0.83682000  1.0
  C  C53  1  0.00537000  0.88845000  0.33682000  1.0
  C  C54  1  0.50537000  0.38845000  0.16318000  1.0
  C  C55  1  0.99463000  0.11155000  0.66318000  1.0
  C  C56  1  0.60086000  0.57579000  0.76191000  1.0
  C  C57  1  0.89914000  0.92421000  0.26192000  1.0
  C  C58  1  0.39913000  0.42421000  0.23809000  1.0
  C  C59  1  0.10086000  0.07579000  0.73808000  1.0
  C  C60  1  0.94707000  0.43805000  0.82937000  1.0
  C  C61  1  0.55293000  0.06195000  0.32938000  1.0
  C  C62  1  0.05293000  0.56195000  0.17062000  1.0
  C  C63  1  0.44707000  0.93806000  0.67062000  1.0
  C  C64  1  0.83204000  0.48928000  0.75642000  1.0
  C  C65  1  0.66796000  0.01071000  0.25642000  1.0
  C  C66  1  0.16796000  0.51071000  0.24358000  1.0
  C  C67  1  0.33204000  0.98929000  0.74358000  1.0
  I  I68  1  0.23665000  0.67218000  0.52854000  1.0
  I  I69  1  0.26335000  0.82782000  0.02854000  1.0
  I  I70  1  0.76334000  0.32782000  0.47146000  1.0
  I  I71  1  0.73666000  0.17218000  0.97146000  1.0
  N  N72  1  0.94172000  0.45594000  0.68179000  1.0
  N  N73  1  0.55828000  0.04406000  0.18179000  1.0
  N  N74  1  0.05828000  0.54406000  0.31821000  1.0
  N  N75  1  0.44171000  0.95594000  0.81821000  1.0
