# generated using pymatgen
data_H15Pb2C20NO9
_symmetry_space_group_name_H-M   'P 1'
_cell_length_a   10.43330000
_cell_length_b   11.11400000
_cell_length_c   12.59870000
_cell_angle_alpha   112.37800000
_cell_angle_beta   102.08100000
_cell_angle_gamma   106.11700000
_symmetry_Int_Tables_number   1
_chemical_formula_structural   H15Pb2C20NO9
_chemical_formula_sum   'H30 Pb4 C40 N2 O18'
_cell_volume   1213.46410921
_cell_formula_units_Z   2
loop_
 _symmetry_equiv_pos_site_id
 _symmetry_equiv_pos_as_xyz
  1  'x, y, z'
loop_
 _atom_site_type_symbol
 _atom_site_label
 _atom_site_symmetry_multiplicity
 _atom_site_fract_x
 _atom_site_fract_y
 _atom_site_fract_z
 _atom_site_occupancy
  H  H0  1  0.53032000  0.98050000  0.86751000  1.0
  H  H1  1  0.46969000  0.01951000  0.13250000  1.0
  H  H2  1  0.03463000  0.71907000  0.16679000  1.0
  H  H3  1  0.96538000  0.28092000  0.83320000  1.0
  H  H4  1  0.96299000  0.27455000  0.98504000  1.0
  H  H5  1  0.03703000  0.72545000  0.01496000  1.0
  H  H6  1  0.72082000  0.00282000  0.60162000  1.0
  H  H7  1  0.27918000  0.99717000  0.39838000  1.0
  H  H8  1  0.02241000  0.48186000  0.36645000  1.0
  H  H9  1  0.97758000  0.51814000  0.63354000  1.0
  H  H10  1  0.30318000  0.01605000  0.56318000  1.0
  H  H11  1  0.69683000  0.98396000  0.43683000  1.0
  H  H12  1  0.64178000  0.67712000  0.67113000  1.0
  H  H13  1  0.35822000  0.32289000  0.32888000  1.0
  H  H14  1  0.71935000  0.60937000  0.76353000  1.0
  H  H15  1  0.28065000  0.39064000  0.23647000  1.0
  H  H16  1  0.53251000  0.52641000  0.67884000  1.0
  H  H17  1  0.46749000  0.47361000  0.32117000  1.0
  H  H18  1  0.76743000  0.48363000  0.34068000  1.0
  H  H19  1  0.23258000  0.51638000  0.65933000  1.0
  H  H20  1  0.63220000  0.33439000  0.32858000  1.0
  H  H21  1  0.36780000  0.66561000  0.67142000  1.0
  H  H22  1  0.81060000  0.39250000  0.42392000  1.0
  H  H23  1  0.18940000  0.60750000  0.57608000  1.0
  H  H24  1  0.66266000  0.28310000  0.48816000  1.0
  H  H25  1  0.33732000  0.71690000  0.51184000  1.0
  H  H26  1  0.51119000  0.28973000  0.53146000  1.0
  H  H27  1  0.48880000  0.71028000  0.46855000  1.0
  H  H28  1  0.68051000  0.34797000  0.64505000  1.0
  H  H29  1  0.31948000  0.65203000  0.35495000  1.0
  Pb  Pb30  1  0.95028000  0.88110000  0.59221000  1.0
  Pb  Pb31  1  0.04970000  0.11888000  0.40777000  1.0
  Pb  Pb32  1  0.14474000  0.10823000  0.95468000  1.0
  Pb  Pb33  1  0.85526000  0.89177000  0.04532000  1.0
  C  C34  1  0.50698000  0.00175000  0.56070000  1.0
  C  C35  1  0.49302000  0.99825000  0.43930000  1.0
  C  C36  1  0.29700000  0.02152000  0.77700000  1.0
  C  C37  1  0.70300000  0.97848000  0.22300000  1.0
  C  C38  1  0.52495000  0.98866000  0.78339000  1.0
  C  C39  1  0.47506000  0.01134000  0.21661000  1.0
  C  C40  1  0.02340000  0.61793000  0.16547000  1.0
  C  C41  1  0.97662000  0.38207000  0.83453000  1.0
  C  C42  1  0.00340000  0.49813000  0.05884000  1.0
  C  C43  1  0.99662000  0.50187000  0.94116000  1.0
  C  C44  1  0.98705000  0.37216000  0.06635000  1.0
  C  C45  1  0.01295000  0.62784000  0.93365000  1.0
  C  C46  1  0.40838000  0.00477000  0.72125000  1.0
  C  C47  1  0.59162000  0.99523000  0.27875000  1.0
  C  C48  1  0.62909000  0.99811000  0.63068000  1.0
  C  C49  1  0.37091000  0.00189000  0.36932000  1.0
  C  C50  1  0.98260000  0.23263000  0.18406000  1.0
  C  C51  1  0.01740000  0.76737000  0.81594000  1.0
  C  C52  1  0.01758000  0.48683000  0.28132000  1.0
  C  C53  1  0.98243000  0.51317000  0.71867000  1.0
  C  C54  1  0.99662000  0.36664000  0.17663000  1.0
  C  C55  1  0.00339000  0.63336000  0.82337000  1.0
  C  C56  1  0.03734000  0.73589000  0.38608000  1.0
  C  C57  1  0.96265000  0.26410000  0.61391000  1.0
  C  C58  1  0.63642000  0.98700000  0.73853000  1.0
  C  C59  1  0.36358000  0.01301000  0.26147000  1.0
  C  C60  1  0.39853000  0.00843000  0.61006000  1.0
  C  C61  1  0.60147000  0.99158000  0.38995000  1.0
  C  C62  1  0.02836000  0.61193000  0.27517000  1.0
  C  C63  1  0.97164000  0.38806000  0.72482000  1.0
  C  C64  1  0.76146000  0.97073000  0.80789000  1.0
  C  C65  1  0.23854000  0.02927000  0.19211000  1.0
  C  C66  1  0.63697000  0.58096000  0.67746000  1.0
  C  C67  1  0.36303000  0.41905000  0.32254000  1.0
  C  C68  1  0.70435000  0.53083000  0.49610000  1.0
  C  C69  1  0.29565000  0.46917000  0.50391000  1.0
  C  C70  1  0.73021000  0.42907000  0.39134000  1.0
  C  C71  1  0.26978000  0.57094000  0.60867000  1.0
  C  C72  1  0.62701000  0.34374000  0.55793000  1.0
  C  C73  1  0.37298000  0.65626000  0.44207000  1.0
  N  N74  1  0.66071000  0.48680000  0.57347000  1.0
  N  N75  1  0.33929000  0.51320000  0.42654000  1.0
  O  O76  1  0.19442000  0.04542000  0.72422000  1.0
  O  O77  1  0.80558000  0.95456000  0.27578000  1.0
  O  O78  1  0.96676000  0.12564000  0.08509000  1.0
  O  O79  1  0.03324000  0.87436000  0.91491000  1.0
  O  O80  1  0.98684000  0.23241000  0.28445000  1.0
  O  O81  1  0.01317000  0.76759000  0.71555000  1.0
  O  O82  1  0.05083000  0.72276000  0.48448000  1.0
  O  O83  1  0.94916000  0.27723000  0.51551000  1.0
  O  O84  1  0.02473000  0.84264000  0.37803000  1.0
  O  O85  1  0.97526000  0.15734000  0.62196000  1.0
  O  O86  1  0.31228000  0.01792000  0.87858000  1.0
  O  O87  1  0.68772000  0.98208000  0.12142000  1.0
  O  O88  1  0.73319000  0.90439000  0.86867000  1.0
  O  O89  1  0.26681000  0.09561000  0.13133000  1.0
  O  O90  1  0.88260000  0.02185000  0.79974000  1.0
  O  O91  1  0.11740000  0.97814000  0.20026000  1.0
  O  O92  1  0.72101000  0.65355000  0.50955000  1.0
  O  O93  1  0.27899000  0.34645000  0.49046000  1.0
