# generated using pymatgen
data_FeH8(C6N5)2
_symmetry_space_group_name_H-M   'P 1'
_cell_length_a   6.20426000
_cell_length_b   7.15136000
_cell_length_c   9.31750089
_cell_angle_alpha   67.54988147
_cell_angle_beta   72.61185270
_cell_angle_gamma   89.99090000
_symmetry_Int_Tables_number   1
_chemical_formula_structural   FeH8(C6N5)2
_chemical_formula_sum   'Fe1 H8 C12 N10'
_cell_volume   361.55938733
_cell_formula_units_Z   1
loop_
 _symmetry_equiv_pos_site_id
 _symmetry_equiv_pos_as_xyz
  1  'x, y, z'
loop_
 _atom_site_type_symbol
 _atom_site_label
 _atom_site_symmetry_multiplicity
 _atom_site_fract_x
 _atom_site_fract_y
 _atom_site_fract_z
 _atom_site_occupancy
  Fe  Fe0  1  0.49308000  0.01199000  0.97657000  1.0
  H  H1  1  0.26584000  0.67992000  0.63927000  1.0
  H  H2  1  0.74256000  0.31143000  0.37682000  1.0
  H  H3  1  0.66260000  0.66885000  0.66074000  1.0
  H  H4  1  0.34978000  0.32713000  0.34534000  1.0
  H  H5  1  0.99755000  0.80305000  0.39317000  1.0
  H  H6  1  0.00812000  0.19454000  0.61063000  1.0
  H  H7  1  0.89690000  0.93458000  0.13170000  1.0
  H  H8  1  0.09390000  0.06287000  0.87409000  1.0
  C  C9  1  0.41748000  0.73443000  0.53043000  1.0
  C  C10  1  0.58731000  0.25821000  0.48298000  1.0
  C  C11  1  0.63733000  0.72872000  0.54156000  1.0
  C  C12  1  0.37098000  0.26672000  0.46591000  1.0
  C  C13  1  0.81952000  0.80128000  0.39678000  1.0
  C  C14  1  0.18519000  0.19518000  0.60912000  1.0
  C  C15  1  0.76578000  0.87448000  0.25127000  1.0
  C  C16  1  0.22967000  0.12124000  0.75721000  1.0
  C  C17  1  0.19023000  0.29169000  0.10468000  1.0
  C  C18  1  0.80718000  0.40158000  0.88313000  1.0
  C  C19  1  0.80718000  0.71541000  0.88304000  1.0
  C  C20  1  0.19025000  0.60498000  0.10459000  1.0
  N  N21  1  0.55113000  0.87557000  0.24936000  1.0
  N  N22  1  0.44440000  0.11744000  0.76507000  1.0
  N  N23  1  0.37560000  0.80646000  0.38714000  1.0
  N  N24  1  0.62382000  0.18601000  0.62785000  1.0
  N  N25  1  0.27202000  0.16799000  0.05868000  1.0
  N  N26  1  0.71703000  0.23988000  0.91390000  1.0
  N  N27  1  0.71705000  0.84656000  0.91373000  1.0
  N  N28  1  0.27203000  0.77447000  0.05845000  1.0
  N  N29  1  0.09052000  0.41855000  0.16458000  1.0
  N  N30  1  0.91792000  0.57882000  0.84219000  1.0
