# generated using pymatgen
data_ZnH12C32N7O8
_symmetry_space_group_name_H-M   'P 1'
_cell_length_a   18.48240000
_cell_length_b   19.16010000
_cell_length_c   19.65350000
_cell_angle_alpha   88.76760000
_cell_angle_beta   89.99040000
_cell_angle_gamma   89.93500000
_symmetry_Int_Tables_number   1
_chemical_formula_structural   ZnH12C32N7O8
_chemical_formula_sum   'Zn2 H24 C64 N14 O16'
_cell_volume   6958.17397922
_cell_formula_units_Z   2
loop_
 _symmetry_equiv_pos_site_id
 _symmetry_equiv_pos_as_xyz
  1  'x, y, z'
loop_
 _atom_site_type_symbol
 _atom_site_label
 _atom_site_symmetry_multiplicity
 _atom_site_fract_x
 _atom_site_fract_y
 _atom_site_fract_z
 _atom_site_occupancy
  Zn  Zn0  1  0.42287000  0.49976000  0.49863000  1.0
  Zn  Zn1  1  0.57729000  0.49963000  0.49901000  1.0
  H  H2  1  0.38352000  0.28008000  0.51060000  1.0
  H  H3  1  0.61588000  0.71868000  0.50792000  1.0
  H  H4  1  0.38374000  0.71908000  0.50798000  1.0
  H  H5  1  0.61572000  0.28015000  0.50983000  1.0
  H  H6  1  0.38339000  0.14995000  0.52636000  1.0
  H  H7  1  0.61636000  0.84810000  0.52471000  1.0
  H  H8  1  0.38344000  0.84849000  0.52484000  1.0
  H  H9  1  0.61633000  0.15002000  0.52564000  1.0
  H  H10  1  0.45779000  0.39094000  0.05388000  1.0
  H  H11  1  0.54030000  0.61354000  0.94388000  1.0
  H  H12  1  0.45723000  0.40442000  0.92775000  1.0
  H  H13  1  0.54195000  0.59971000  0.07001000  1.0
  H  H14  1  0.16873000  0.58282000  0.42268000  1.0
  H  H15  1  0.83156000  0.41692000  0.57556000  1.0
  H  H16  1  0.16870000  0.41740000  0.57600000  1.0
  H  H17  1  0.83104000  0.58292000  0.42278000  1.0
  H  H18  1  0.06661000  0.48074000  0.60771000  1.0
  H  H19  1  0.93335000  0.51908000  0.39024000  1.0
  H  H20  1  0.06669000  0.51907000  0.39028000  1.0
  H  H21  1  0.93330000  0.48066000  0.60767000  1.0
  H  H22  1  0.69282000  0.43905000  0.08136000  1.0
  H  H23  1  0.27833000  0.46467000  0.87062000  1.0
  H  H24  1  0.71296000  0.57936000  0.87727000  1.0
  H  H25  1  0.30024000  0.53420000  0.09069000  1.0
  C  C26  1  0.50092000  0.50583000  0.63264000  1.0
  C  C27  1  0.50063000  0.49450000  0.36554000  1.0
  C  C28  1  0.50062000  0.48802000  0.14511000  1.0
  C  C29  1  0.49896000  0.51572000  0.85279000  1.0
  C  C30  1  0.50082000  0.48771000  0.28935000  1.0
  C  C31  1  0.50023000  0.51425000  0.70865000  1.0
  C  C32  1  0.47538000  0.43980000  0.02976000  1.0
  C  C33  1  0.52310000  0.56455000  0.96804000  1.0
  C  C34  1  0.47476000  0.44745000  0.95920000  1.0
  C  C35  1  0.52389000  0.55688000  0.03860000  1.0
  C  C36  1  0.49865000  0.50976000  0.92808000  1.0
  C  C37  1  0.50006000  0.49452000  0.06977000  1.0
  C  C38  1  0.27109000  0.54441000  0.45865000  1.0
  C  C39  1  0.72911000  0.45555000  0.54013000  1.0
  C  C40  1  0.27106000  0.45607000  0.54053000  1.0
  C  C41  1  0.72880000  0.54434000  0.45868000  1.0
  C  C42  1  0.19548000  0.54535000  0.45667000  1.0
  C  C43  1  0.80472000  0.45445000  0.54170000  1.0
  C  C44  1  0.19544000  0.45484000  0.54204000  1.0
  C  C45  1  0.80441000  0.54532000  0.45667000  1.0
  C  C46  1  0.15590000  0.49999000  0.49918000  1.0
  C  C47  1  0.84411000  0.49982000  0.49903000  1.0
  C  C48  1  0.03758000  0.48799000  0.55975000  1.0
  C  C49  1  0.96240000  0.51179000  0.43819000  1.0
  C  C50  1  0.03763000  0.51179000  0.43821000  1.0
  C  C51  1  0.96239000  0.48794000  0.55974000  1.0
  C  C52  1  0.92381000  0.49983000  0.49895000  1.0
  C  C53  1  0.07620000  0.49989000  0.49899000  1.0
  C  C54  1  0.49942000  0.36529000  0.50254000  1.0
  C  C55  1  0.49978000  0.63398000  0.50155000  1.0
  C  C56  1  0.43402000  0.25090000  0.51330000  1.0
  C  C57  1  0.56549000  0.74776000  0.51194000  1.0
  C  C58  1  0.43418000  0.74799000  0.51192000  1.0
  C  C59  1  0.56531000  0.25094000  0.51284000  1.0
  C  C60  1  0.43398000  0.17879000  0.52211000  1.0
  C  C61  1  0.56571000  0.81945000  0.52098000  1.0
  C  C62  1  0.43405000  0.81968000  0.52103000  1.0
  C  C63  1  0.56562000  0.17882000  0.52168000  1.0
  C  C64  1  0.49987000  0.14216000  0.52698000  1.0
  C  C65  1  0.49991000  0.85593000  0.52636000  1.0
  C  C66  1  0.49960000  0.28749000  0.50904000  1.0
  C  C67  1  0.49981000  0.71149000  0.50804000  1.0
  C  C68  1  0.49997000  0.93135000  0.53759000  1.0
  C  C69  1  0.49997000  0.06621000  0.53792000  1.0
  C  C70  1  0.56661000  0.48733000  0.25290000  1.0
  C  C71  1  0.43411000  0.51545000  0.74444000  1.0
  C  C72  1  0.56556000  0.51888000  0.74531000  1.0
  C  C73  1  0.43512000  0.48366000  0.25316000  1.0
  C  C74  1  0.56615000  0.48824000  0.18114000  1.0
  C  C75  1  0.43379000  0.51491000  0.81624000  1.0
  C  C76  1  0.56452000  0.52005000  0.81707000  1.0
  C  C77  1  0.43545000  0.48366000  0.18145000  1.0
  C  C78  1  0.63582000  0.48280000  0.28567000  1.0
  C  C79  1  0.36540000  0.52070000  0.71079000  1.0
  C  C80  1  0.63505000  0.52183000  0.71291000  1.0
  C  C81  1  0.36574000  0.48033000  0.28571000  1.0
  C  C82  1  0.63607000  0.49203000  0.14185000  1.0
  C  C83  1  0.36353000  0.51725000  0.85487000  1.0
  C  C84  1  0.63441000  0.52019000  0.85646000  1.0
  C  C85  1  0.36550000  0.47843000  0.14262000  1.0
  C  C86  1  0.30773000  0.59424000  0.41537000  1.0
  C  C87  1  0.69268000  0.40591000  0.58377000  1.0
  C  C88  1  0.30753000  0.40679000  0.58463000  1.0
  C  C89  1  0.69194000  0.59460000  0.41599000  1.0
  N  N90  1  0.56419000  0.03284000  0.54590000  1.0
  N  N91  1  0.43582000  0.96432000  0.54621000  1.0
  N  N92  1  0.56419000  0.96419000  0.54575000  1.0
  N  N93  1  0.43581000  0.03296000  0.54639000  1.0
  N  N94  1  0.30926000  0.50022000  0.49962000  1.0
  N  N95  1  0.69079000  0.49988000  0.49943000  1.0
  N  N96  1  0.69573000  0.47570000  0.30353000  1.0
  N  N97  1  0.30560000  0.52873000  0.69292000  1.0
  N  N98  1  0.69560000  0.52600000  0.69618000  1.0
  N  N99  1  0.30523000  0.47623000  0.30260000  1.0
  N  N100  1  0.32969000  0.63801000  0.37876000  1.0
  N  N101  1  0.67100000  0.36246000  0.62089000  1.0
  N  N102  1  0.32896000  0.36374000  0.62236000  1.0
  N  N103  1  0.66961000  0.63891000  0.38016000  1.0
  O  O104  1  0.43968000  0.50246000  0.60405000  1.0
  O  O105  1  0.56190000  0.49820000  0.39397000  1.0
  O  O106  1  0.43907000  0.49692000  0.39372000  1.0
  O  O107  1  0.56252000  0.50176000  0.60490000  1.0
  O  O108  1  0.43804000  0.39573000  0.50049000  1.0
  O  O109  1  0.56107000  0.60346000  0.50044000  1.0
  O  O110  1  0.43846000  0.60374000  0.49896000  1.0
  O  O111  1  0.56064000  0.39586000  0.49993000  1.0
  O  O112  1  0.67535000  0.54294000  0.13977000  1.0
  O  O113  1  0.64850000  0.43218000  0.10822000  1.0
  O  O114  1  0.34455000  0.56620000  0.88913000  1.0
  O  O115  1  0.32447000  0.45821000  0.84687000  1.0
  O  O116  1  0.65844000  0.46961000  0.88741000  1.0
  O  O117  1  0.66666667  0.58366000  0.85316000  1.0
  O  O118  1  0.33309000  0.42398000  0.13452000  1.0
  O  O119  1  0.34457000  0.54143000  0.11712000  1.0
