# generated using pymatgen
data_Zn3H20C36(NO4)4
_symmetry_space_group_name_H-M   'P 1'
_cell_length_a   21.80110000
_cell_length_b   21.80110000
_cell_length_c   23.65567610
_cell_angle_alpha   62.57550373
_cell_angle_beta   62.55897791
_cell_angle_gamma   90.01160000
_symmetry_Int_Tables_number   1
_chemical_formula_structural   Zn3H20C36(NO4)4
_chemical_formula_sum   'Zn6 H40 C72 N8 O32'
_cell_volume   8528.67281509
_cell_formula_units_Z   2
loop_
 _symmetry_equiv_pos_site_id
 _symmetry_equiv_pos_as_xyz
  1  'x, y, z'
loop_
 _atom_site_type_symbol
 _atom_site_label
 _atom_site_symmetry_multiplicity
 _atom_site_fract_x
 _atom_site_fract_y
 _atom_site_fract_z
 _atom_site_occupancy
  Zn  Zn0  1  0.55898000  0.00002000  1.00000000  1.0
  Zn  Zn1  1  0.53535000  0.53532000  0.92934000  1.0
  Zn  Zn2  1  0.46466000  0.46469000  0.07066000  1.0
  Zn  Zn3  1  0.00002000  0.55897000  0.00001000  1.0
  Zn  Zn4  1  0.44099000  0.00001000  1.00000000  1.0
  Zn  Zn5  1  0.00001000  0.44099000  0.00000000  1.0
  H  H6  1  0.48541000  0.25283000  0.10946000  1.0
  H  H7  1  0.63775000  0.48539000  0.10945000  1.0
  H  H8  1  0.40518000  0.63775000  0.10935000  1.0
  H  H9  1  0.25292000  0.40519000  0.10932000  1.0
  H  H10  1  0.59484000  0.74720000  0.89055000  1.0
  H  H11  1  0.74710000  0.51454000  0.89064000  1.0
  H  H12  1  0.51451000  0.36224000  0.89068000  1.0
  H  H13  1  0.36229000  0.59486000  0.89055000  1.0
  H  H14  1  0.86482000  0.47786000  0.23850000  1.0
  H  H15  1  0.28367000  0.86488000  0.23848000  1.0
  H  H16  1  0.89670000  0.28369000  0.23843000  1.0
  H  H17  1  0.47791000  0.89668000  0.23844000  1.0
  H  H18  1  0.10336000  0.52215000  0.76152000  1.0
  H  H19  1  0.52212000  0.13513000  0.76157000  1.0
  H  H20  1  0.13513000  0.71635000  0.76156000  1.0
  H  H21  1  0.71636000  0.10332000  0.76150000  1.0
  H  H22  1  0.80140000  0.48195000  0.34345000  1.0
  H  H23  1  0.17464000  0.80143000  0.34340000  1.0
  H  H24  1  0.85518000  0.17465000  0.34337000  1.0
  H  H25  1  0.48201000  0.85515000  0.34342000  1.0
  H  H26  1  0.14482000  0.51804000  0.65660000  1.0
  H  H27  1  0.51802000  0.19856000  0.65663000  1.0
  H  H28  1  0.19858000  0.82542000  0.65658000  1.0
  H  H29  1  0.82540000  0.14486000  0.65654000  1.0
  H  H30  1  0.46687000  0.12341000  0.17056000  1.0
  H  H31  1  0.47993000  0.07716000  0.12619000  1.0
  H  H32  1  0.70603000  0.46685000  0.17057000  1.0
  H  H33  1  0.79665000  0.47991000  0.12623000  1.0
  H  H34  1  0.36256000  0.70600000  0.17056000  1.0
  H  H35  1  0.39385000  0.79661000  0.12623000  1.0
  H  H36  1  0.12345000  0.36256000  0.17053000  1.0
  H  H37  1  0.07717000  0.39384000  0.12621000  1.0
  H  H38  1  0.63742000  0.87660000  0.82943000  1.0
  H  H39  1  0.60614000  0.92288000  0.87377000  1.0
  H  H40  1  0.87656000  0.53312000  0.82944000  1.0
  H  H41  1  0.92284000  0.52008000  0.87377000  1.0
  H  H42  1  0.53309000  0.29398000  0.82947000  1.0
  H  H43  1  0.52005000  0.20338000  0.87379000  1.0
  H  H44  1  0.29397000  0.63743000  0.82944000  1.0
  H  H45  1  0.20335000  0.60612000  0.87381000  1.0
  C  C46  1  0.49991000  0.11743000  0.00003000  1.0
  C  C47  1  0.26712000  0.76707000  0.46583000  1.0
  C  C48  1  0.41989000  0.87440000  0.26905000  1.0
  C  C49  1  0.12566000  0.58016000  0.73092000  1.0
  C  C50  1  0.58014000  0.14344000  0.73095000  1.0
  C  C51  1  0.14345000  0.68893000  0.73095000  1.0
  C  C52  1  0.68894000  0.12562000  0.73090000  1.0
  C  C53  1  0.85652000  0.41985000  0.26910000  1.0
  C  C54  1  0.31108000  0.85658000  0.26908000  1.0
  C  C55  1  0.87439000  0.31109000  0.26905000  1.0
  C  C56  1  0.23291000  0.73294000  0.53417000  1.0
  C  C57  1  0.88539000  0.38542000  0.22919000  1.0
  C  C58  1  0.38543000  0.88543000  0.22919000  1.0
  C  C59  1  0.11462000  0.61461000  0.77081000  1.0
  C  C60  1  0.61460000  0.11458000  0.77081000  1.0
  C  C61  1  0.73290000  0.23295000  0.53417000  1.0
  C  C62  1  0.80600000  0.30600000  0.38801000  1.0
  C  C63  1  0.30602000  0.80600000  0.38801000  1.0
  C  C64  1  0.19402000  0.69402000  0.61199000  1.0
  C  C65  1  0.69401000  0.19402000  0.61199000  1.0
  C  C66  1  0.79127000  0.42382000  0.38348000  1.0
  C  C67  1  0.76711000  0.26707000  0.46583000  1.0
  C  C68  1  0.19273000  0.79130000  0.38344000  1.0
  C  C69  1  0.82528000  0.19277000  0.38340000  1.0
  C  C70  1  0.42386000  0.82525000  0.38343000  1.0
  C  C71  1  0.17474000  0.57617000  0.61656000  1.0
  C  C72  1  0.57616000  0.20869000  0.61660000  1.0
  C  C73  1  0.20869000  0.80729000  0.61657000  1.0
  C  C74  1  0.80729000  0.17476000  0.61652000  1.0
  C  C75  1  0.49164000  0.25058000  0.06210000  1.0
  C  C76  1  0.68736000  0.49164000  0.06208000  1.0
  C  C77  1  0.44626000  0.68738000  0.06199000  1.0
  C  C78  1  0.88258000  0.49995000  0.00002000  1.0
  C  C79  1  0.25065000  0.44627000  0.06197000  1.0
  C  C80  1  0.55372000  0.74944000  0.93792000  1.0
  C  C81  1  0.74937000  0.50826000  0.93801000  1.0
  C  C82  1  0.50824000  0.31262000  0.93803000  1.0
  C  C83  1  0.31268000  0.55373000  0.93791000  1.0
  C  C84  1  0.49997000  0.88260000  0.99998000  1.0
  C  C85  1  0.61854000  0.49997000  0.00008000  1.0
  C  C86  1  0.50005000  0.61861000  0.99993000  1.0
  C  C87  1  0.38147000  0.50003000  0.99992000  1.0
  C  C88  1  0.49995000  0.38139000  0.00008000  1.0
  C  C89  1  0.11746000  0.49994000  0.99997000  1.0
  C  C90  1  0.49304000  0.18629000  0.06209000  1.0
  C  C91  1  0.75166000  0.49303000  0.06208000  1.0
  C  C92  1  0.44482000  0.75165000  0.06204000  1.0
  C  C93  1  0.18633000  0.44483000  0.06203000  1.0
  C  C94  1  0.55512000  0.81374000  0.93792000  1.0
  C  C95  1  0.81369000  0.50686000  0.93796000  1.0
  C  C96  1  0.50686000  0.24836000  0.93797000  1.0
  C  C97  1  0.24838000  0.55513000  0.93791000  1.0
  C  C98  1  0.57308000  0.07307000  0.85386000  1.0
  C  C99  1  0.07308000  0.57310000  0.85386000  1.0
  C  C100  1  0.42696000  0.92694000  0.14614000  1.0
  C  C101  1  0.92694000  0.42694000  0.14614000  1.0
  C  C102  1  0.49991000  0.31289000  0.00009000  1.0
  C  C103  1  0.68705000  0.49995000  0.00006000  1.0
  C  C104  1  0.50002000  0.68710000  0.99994000  1.0
  C  C105  1  0.31298000  0.50000000  0.99991000  1.0
  C  C106  1  0.49993000  0.18561000  0.00003000  1.0
  C  C107  1  0.81439000  0.49993000  0.00002000  1.0
  C  C108  1  0.49995000  0.81441000  0.99998000  1.0
  C  C109  1  0.18564000  0.49996000  0.99997000  1.0
  C  C110  1  0.81802000  0.38199000  0.34688000  1.0
  C  C111  1  0.27116000  0.81807000  0.34685000  1.0
  C  C112  1  0.83512000  0.27118000  0.34681000  1.0
  C  C113  1  0.38204000  0.83513000  0.34682000  1.0
  C  C114  1  0.16492000  0.61801000  0.65315000  1.0
  C  C115  1  0.61799000  0.18194000  0.65319000  1.0
  C  C116  1  0.18196000  0.72886000  0.65318000  1.0
  C  C117  1  0.72887000  0.16489000  0.65313000  1.0
  N  N118  1  0.48940000  0.12530000  0.12141000  1.0
  N  N119  1  0.75329000  0.48937000  0.12143000  1.0
  N  N120  1  0.38915000  0.75326000  0.12143000  1.0
  N  N121  1  0.12533000  0.38916000  0.12140000  1.0
  N  N122  1  0.61081000  0.87472000  0.87857000  1.0
  N  N123  1  0.87469000  0.51058000  0.87857000  1.0
  N  N124  1  0.51056000  0.24673000  0.87860000  1.0
  N  N125  1  0.24671000  0.61081000  0.87859000  1.0
  O  O126  1  0.55691000  0.09604000  0.98877000  1.0
  O  O127  1  0.91525000  0.55696000  0.98874000  1.0
  O  O128  1  0.45427000  0.91528000  0.98868000  1.0
  O  O129  1  0.09605000  0.45420000  0.98872000  1.0
  O  O130  1  0.54570000  0.90399000  0.01126000  1.0
  O  O131  1  0.90396000  0.44294000  0.01132000  1.0
  O  O132  1  0.44292000  0.08477000  0.01128000  1.0
  O  O133  1  0.08481000  0.54568000  0.01123000  1.0
  O  O134  1  0.60755000  0.04458000  0.88643000  1.0
  O  O135  1  0.06898000  0.60759000  0.88643000  1.0
  O  O136  1  0.50603000  0.06903000  0.88642000  1.0
  O  O137  1  0.04458000  0.50605000  0.88643000  1.0
  O  O138  1  0.49402000  0.95541000  0.11357000  1.0
  O  O139  1  0.95546000  0.39246000  0.11358000  1.0
  O  O140  1  0.39248000  0.93102000  0.11357000  1.0
  O  O141  1  0.93102000  0.49398000  0.11357000  1.0
  O  O142  1  0.56077000  0.48187000  0.06155000  1.0
  O  O143  1  0.45669000  0.56084000  0.06141000  1.0
  O  O144  1  0.37775000  0.45671000  0.06141000  1.0
  O  O145  1  0.48181000  0.37770000  0.06156000  1.0
  O  O146  1  0.62225000  0.51810000  0.93858000  1.0
  O  O147  1  0.51812000  0.43916000  0.93859000  1.0
  O  O148  1  0.43926000  0.54338000  0.93843000  1.0
  O  O149  1  0.54343000  0.62232000  0.93844000  1.0
  O  O150  1  0.76099000  0.40003000  0.45047000  1.0
  O  O151  1  0.14956000  0.76102000  0.45042000  1.0
  O  O152  1  0.78859000  0.14959000  0.45039000  1.0
  O  O153  1  0.40005000  0.78851000  0.45040000  1.0
  O  O154  1  0.21144000  0.59997000  0.54958000  1.0
  O  O155  1  0.59998000  0.23898000  0.54961000  1.0
  O  O156  1  0.23892000  0.85044000  0.54960000  1.0
  O  O157  1  0.85050000  0.21147000  0.54953000  1.0
