# generated using pymatgen
data_HgH24C30(N4Cl)2
_symmetry_space_group_name_H-M   'P 1'
_cell_length_a   10.58450000
_cell_length_b   16.08270000
_cell_length_c   20.15203780
_cell_angle_alpha   66.72036064
_cell_angle_beta   89.99992019
_cell_angle_gamma   89.99990000
_symmetry_Int_Tables_number   1
_chemical_formula_structural   HgH24C30(N4Cl)2
_chemical_formula_sum   'Hg4 H96 C120 N32 Cl8'
_cell_volume   3151.14594270
_cell_formula_units_Z   4
loop_
 _symmetry_equiv_pos_site_id
 _symmetry_equiv_pos_as_xyz
  1  'x, y, z'
loop_
 _atom_site_type_symbol
 _atom_site_label
 _atom_site_symmetry_multiplicity
 _atom_site_fract_x
 _atom_site_fract_y
 _atom_site_fract_z
 _atom_site_occupancy
  Hg  Hg0  1  0.76620000  0.09791000  0.52967000  1.0
  Hg  Hg1  1  0.26620000  0.40209000  0.97033000  1.0
  Hg  Hg2  1  0.23380000  0.90209000  0.47033000  1.0
  Hg  Hg3  1  0.73380000  0.59791000  0.02967000  1.0
  H  H4  1  0.88480000  0.54465000  0.19114000  1.0
  H  H5  1  0.38481000  0.95534000  0.30887000  1.0
  H  H6  1  0.11519000  0.45534000  0.80886000  1.0
  H  H7  1  0.61519000  0.04467000  0.69113000  1.0
  H  H8  1  0.66505000  0.25919000  0.35711000  1.0
  H  H9  1  0.16506000  0.24081000  0.14289000  1.0
  H  H10  1  0.33494000  0.74081000  0.64289000  1.0
  H  H11  1  0.83493000  0.75920000  0.85710000  1.0
  H  H12  1  0.84504000  0.32329000  0.40063000  1.0
  H  H13  1  0.34504000  0.17671000  0.09937000  1.0
  H  H14  1  0.15495000  0.67671000  0.59937000  1.0
  H  H15  1  0.65495000  0.82329000  0.90063000  1.0
  H  H16  1  0.95216000  0.46366000  0.32011000  1.0
  H  H17  1  0.45216000  0.03633000  0.17990000  1.0
  H  H18  1  0.04783000  0.53634000  0.67989000  1.0
  H  H19  1  0.54783000  0.96367000  0.82010000  1.0
  H  H20  1  0.52036000  0.42066000  0.09859000  1.0
  H  H21  1  0.02036000  0.07934000  0.40141000  1.0
  H  H22  1  0.47964000  0.57934000  0.90141000  1.0
  H  H23  1  0.97964000  0.92066000  0.59859000  1.0
  H  H24  1  0.56172000  0.21191000  0.24225000  1.0
  H  H25  1  0.06172000  0.28809000  0.25775000  1.0
  H  H26  1  0.43828000  0.78808000  0.75775000  1.0
  H  H27  1  0.93828000  0.71192000  0.74225000  1.0
  H  H28  1  0.44386000  0.27724000  0.18208000  1.0
  H  H29  1  0.94387000  0.22275000  0.31793000  1.0
  H  H30  1  0.55613000  0.72275000  0.81793000  1.0
  H  H31  1  0.05613000  0.77725000  0.68207000  1.0
  H  H32  1  0.30014000  0.37373000  0.23670000  1.0
  H  H33  1  0.80014000  0.12627000  0.26330000  1.0
  H  H34  1  0.69987000  0.62627000  0.76330000  1.0
  H  H35  1  0.19987000  0.87374000  0.73670000  1.0
  H  H36  1  0.15329000  0.34446000  0.34069000  1.0
  H  H37  1  0.65328000  0.15554000  0.15931000  1.0
  H  H38  1  0.84672000  0.65555000  0.65931000  1.0
  H  H39  1  0.34672000  0.84446000  0.84069000  1.0
  H  H40  1  0.36426000  0.10406000  0.46579000  1.0
  H  H41  1  0.86425000  0.39594000  0.03421000  1.0
  H  H42  1  0.63574000  0.89595000  0.53421000  1.0
  H  H43  1  0.13574000  0.60405000  0.96579000  1.0
  H  H44  1  0.51278000  0.13565000  0.36413000  1.0
  H  H45  1  0.01278000  0.36434000  0.13588000  1.0
  H  H46  1  0.48722000  0.86434000  0.63588000  1.0
  H  H47  1  0.98722000  0.63567000  0.86412000  1.0
  H  H48  1  0.86010000  0.20172000  0.63291000  1.0
  H  H49  1  0.36010000  0.29828000  0.86709000  1.0
  H  H50  1  0.13990000  0.79828000  0.36709000  1.0
  H  H51  1  0.63990000  0.70172000  0.13291000  1.0
  H  H52  1  0.81141000  0.14619000  0.76334000  1.0
  H  H53  1  0.31141000  0.35381000  0.73666000  1.0
  H  H54  1  0.18858000  0.85381000  0.23666000  1.0
  H  H55  1  0.68859000  0.64620000  0.26334000  1.0
  H  H56  1  0.14509000  0.97934000  0.81163000  1.0
  H  H57  1  0.64509000  0.52066000  0.68837000  1.0
  H  H58  1  0.85491000  0.02066000  0.18837000  1.0
  H  H59  1  0.35491000  0.47933000  0.31163000  1.0
  H  H60  1  0.19445000  0.03512000  0.68119000  1.0
  H  H61  1  0.69445000  0.46488000  0.81881000  1.0
  H  H62  1  0.80555000  0.96488000  0.31881000  1.0
  H  H63  1  0.30555000  0.53512000  0.18119000  1.0
  H  H64  1  0.91243000  0.07890000  0.89074000  1.0
  H  H65  1  0.41243000  0.42109000  0.60927000  1.0
  H  H66  1  0.08757000  0.92110000  0.10926000  1.0
  H  H67  1  0.58757000  0.57890000  0.39074000  1.0
  H  H68  1  0.85788000  0.97839000  0.88552000  1.0
  H  H69  1  0.35788000  0.52162000  0.61448000  1.0
  H  H70  1  0.14211000  0.02161000  0.11448000  1.0
  H  H71  1  0.64212000  0.47839000  0.38552000  1.0
  H  H72  1  0.98402000  0.83606000  0.94319000  1.0
  H  H73  1  0.48402000  0.66395000  0.55681000  1.0
  H  H74  1  0.01598000  0.16394000  0.05681000  1.0
  H  H75  1  0.51598000  0.33606000  0.44319000  1.0
  H  H76  1  0.12020000  0.15426000  0.90484000  1.0
  H  H77  1  0.62019000  0.34574000  0.59516000  1.0
  H  H78  1  0.87981000  0.84574000  0.09516000  1.0
  H  H79  1  0.37981000  0.65426000  0.40484000  1.0
  H  H80  1  0.30961000  0.17187000  0.97043000  1.0
  H  H81  1  0.80961000  0.32813000  0.52957000  1.0
  H  H82  1  0.69040000  0.82812000  0.02957000  1.0
  H  H83  1  0.19039000  0.67187000  0.47043000  1.0
  H  H84  1  0.43719000  0.03946000  0.04663000  1.0
  H  H85  1  0.93720000  0.46053000  0.45338000  1.0
  H  H86  1  0.56281000  0.96053000  0.95338000  1.0
  H  H87  1  0.06281000  0.53946000  0.54663000  1.0
  H  H88  1  0.37586000  0.88268000  0.06307000  1.0
  H  H89  1  0.87587000  0.61731000  0.43693000  1.0
  H  H90  1  0.62413000  0.11731000  0.93693000  1.0
  H  H91  1  0.12414000  0.38269000  0.56307000  1.0
  H  H92  1  0.32695000  0.22870000  0.55141000  1.0
  H  H93  1  0.82695000  0.27130000  0.94859000  1.0
  H  H94  1  0.67306000  0.77130000  0.44859000  1.0
  H  H95  1  0.17306000  0.72870000  0.05141000  1.0
  H  H96  1  0.34278000  0.11653000  0.57135000  1.0
  H  H97  1  0.84278000  0.38347000  0.92865000  1.0
  H  H98  1  0.65722000  0.88347000  0.42865000  1.0
  H  H99  1  0.15722000  0.61653000  0.07135000  1.0
  C  C100  1  0.83711000  0.48330000  0.22723000  1.0
  C  C101  1  0.33712000  0.01669000  0.27277000  1.0
  C  C102  1  0.16288000  0.51669000  0.77277000  1.0
  C  C103  1  0.66289000  0.98331000  0.72723000  1.0
  C  C104  1  0.73505000  0.44780000  0.20284000  1.0
  C  C105  1  0.23505000  0.05220000  0.29716000  1.0
  C  C106  1  0.26495000  0.55220000  0.79716000  1.0
  C  C107  1  0.76495000  0.94780000  0.70284000  1.0
  C  C108  1  0.67332000  0.36800000  0.24973000  1.0
  C  C109  1  0.17332000  0.13200000  0.25027000  1.0
  C  C110  1  0.32668000  0.63199000  0.75027000  1.0
  C  C111  1  0.82667000  0.86801000  0.74973000  1.0
  C  C112  1  0.71067000  0.32152000  0.32151000  1.0
  C  C113  1  0.21067000  0.17847000  0.17850000  1.0
  C  C114  1  0.28932000  0.67848000  0.67849000  1.0
  C  C115  1  0.78931000  0.82153000  0.82150000  1.0
  C  C116  1  0.81169000  0.35806000  0.34535000  1.0
  C  C117  1  0.31169000  0.14194000  0.15465000  1.0
  C  C118  1  0.18830000  0.64194000  0.65465000  1.0
  C  C119  1  0.68830000  0.85806000  0.84535000  1.0
  C  C120  1  0.87362000  0.43743000  0.29905000  1.0
  C  C121  1  0.37363000  0.06256000  0.20096000  1.0
  C  C122  1  0.12637000  0.56256000  0.70096000  1.0
  C  C123  1  0.62636000  0.93744000  0.79904000  1.0
  C  C124  1  0.58521000  0.41818000  0.14108000  1.0
  C  C125  1  0.08521000  0.08182000  0.35892000  1.0
  C  C126  1  0.41479000  0.58181000  0.85892000  1.0
  C  C127  1  0.91479000  0.91819000  0.64108000  1.0
  C  C128  1  0.49959000  0.27080000  0.22980000  1.0
  C  C129  1  0.99959000  0.22920000  0.27020000  1.0
  C  C130  1  0.50041000  0.72920000  0.77020000  1.0
  C  C131  1  0.00041000  0.77081000  0.72980000  1.0
  C  C132  1  0.41567000  0.25682000  0.29368000  1.0
  C  C133  1  0.91568000  0.24318000  0.20632000  1.0
  C  C134  1  0.58433000  0.74318000  0.70632000  1.0
  C  C135  1  0.08433000  0.75683000  0.79368000  1.0
  C  C136  1  0.31503000  0.31583000  0.28770000  1.0
  C  C137  1  0.81503000  0.18416000  0.21231000  1.0
  C  C138  1  0.68498000  0.68416000  0.71231000  1.0
  C  C139  1  0.18498000  0.81585000  0.78769000  1.0
  C  C140  1  0.23285000  0.29940000  0.34541000  1.0
  C  C141  1  0.73285000  0.20060000  0.15459000  1.0
  C  C142  1  0.76716000  0.70060000  0.65459000  1.0
  C  C143  1  0.26716000  0.79940000  0.84541000  1.0
  C  C144  1  0.24922000  0.22270000  0.40991000  1.0
  C  C145  1  0.74922000  0.27730000  0.09009000  1.0
  C  C146  1  0.75078000  0.77730000  0.59009000  1.0
  C  C147  1  0.25079000  0.72270000  0.90991000  1.0
  C  C148  1  0.35197000  0.16483000  0.41665000  1.0
  C  C149  1  0.85197000  0.33517000  0.08335000  1.0
  C  C150  1  0.64803000  0.83517000  0.58335000  1.0
  C  C151  1  0.14803000  0.66484000  0.91664000  1.0
  C  C152  1  0.43436000  0.18209000  0.35878000  1.0
  C  C153  1  0.93436000  0.31791000  0.14122000  1.0
  C  C154  1  0.56564000  0.81791000  0.64122000  1.0
  C  C155  1  0.06564000  0.68210000  0.85878000  1.0
  C  C156  1  0.15240000  0.19994000  0.46604000  1.0
  C  C157  1  0.65240000  0.30006000  0.03396000  1.0
  C  C158  1  0.84760000  0.80006000  0.53396000  1.0
  C  C159  1  0.34760000  0.69994000  0.96604000  1.0
  C  C160  1  0.05592000  0.15273000  0.57135000  1.0
  C  C161  1  0.55593000  0.34727000  0.92865000  1.0
  C  C162  1  0.94408000  0.84727000  0.42865000  1.0
  C  C163  1  0.44408000  0.65272000  0.07135000  1.0
  C  C164  1  0.03081000  0.12195000  0.64832000  1.0
  C  C165  1  0.53082000  0.37804000  0.85169000  1.0
  C  C166  1  0.96919000  0.87806000  0.35168000  1.0
  C  C167  1  0.46919000  0.62195000  0.14831000  1.0
  C  C168  1  0.92292000  0.15321000  0.67211000  1.0
  C  C169  1  0.42292000  0.34679000  0.82789000  1.0
  C  C170  1  0.07709000  0.84680000  0.32789000  1.0
  C  C171  1  0.57708000  0.65321000  0.17211000  1.0
  C  C172  1  0.89599000  0.12208000  0.74547000  1.0
  C  C173  1  0.39599000  0.37792000  0.75453000  1.0
  C  C174  1  0.10401000  0.87792000  0.25453000  1.0
  C  C175  1  0.60401000  0.62208000  0.24547000  1.0
  C  C176  1  0.97545000  0.05909000  0.79632000  1.0
  C  C177  1  0.47545000  0.44090000  0.70369000  1.0
  C  C178  1  0.02455000  0.94091000  0.20369000  1.0
  C  C179  1  0.52455000  0.55909000  0.29632000  1.0
  C  C180  1  0.08306000  0.02867000  0.77254000  1.0
  C  C181  1  0.58306000  0.47134000  0.72746000  1.0
  C  C182  1  0.91694000  0.97134000  0.22746000  1.0
  C  C183  1  0.41695000  0.52866000  0.27254000  1.0
  C  C184  1  0.11103000  0.05963000  0.69929000  1.0
  C  C185  1  0.61103000  0.44037000  0.80071000  1.0
  C  C186  1  0.88898000  0.94037000  0.30071000  1.0
  C  C187  1  0.38897000  0.55963000  0.19929000  1.0
  C  C188  1  0.94052000  0.02321000  0.87534000  1.0
  C  C189  1  0.44052000  0.47679000  0.62466000  1.0
  C  C190  1  0.05948000  0.97679000  0.12466000  1.0
  C  C191  1  0.55948000  0.52321000  0.37534000  1.0
  C  C192  1  0.05307000  0.88011000  0.95276000  1.0
  C  C193  1  0.55307000  0.61988000  0.54725000  1.0
  C  C194  1  0.94693000  0.11988000  0.04725000  1.0
  C  C195  1  0.44693000  0.38012000  0.45275000  1.0
  C  C196  1  0.21266000  0.93017000  0.99262000  1.0
  C  C197  1  0.71266000  0.56982000  0.50738000  1.0
  C  C198  1  0.78734000  0.06982000  0.00739000  1.0
  C  C199  1  0.28734000  0.43017000  0.49262000  1.0
  C  C200  1  0.14213000  0.00717000  0.94777000  1.0
  C  C201  1  0.64213000  0.49283000  0.55223000  1.0
  C  C202  1  0.85787000  0.99283000  0.05223000  1.0
  C  C203  1  0.35786000  0.50717000  0.44777000  1.0
  C  C204  1  0.17546000  0.09523000  0.93797000  1.0
  C  C205  1  0.67546000  0.40477000  0.56203000  1.0
  C  C206  1  0.82454000  0.90476000  0.06203000  1.0
  C  C207  1  0.32454000  0.59523000  0.43797000  1.0
  C  C208  1  0.28227000  0.10444000  0.97507000  1.0
  C  C209  1  0.78227000  0.39556000  0.52493000  1.0
  C  C210  1  0.71773000  0.89556000  0.02493000  1.0
  C  C211  1  0.21773000  0.60444000  0.47507000  1.0
  C  C212  1  0.35381000  0.02884000  0.01926000  1.0
  C  C213  1  0.85381000  0.47114000  0.48075000  1.0
  C  C214  1  0.64620000  0.97115000  0.98074000  1.0
  C  C215  1  0.14619000  0.52885000  0.51926000  1.0
  C  C216  1  0.32071000  0.94108000  0.02852000  1.0
  C  C217  1  0.82072000  0.55891000  0.47148000  1.0
  C  C218  1  0.67928000  0.05892000  0.97148000  1.0
  C  C219  1  0.17928000  0.44109000  0.52852000  1.0
  N  N220  1  0.02923000  0.20154000  0.45333000  1.0
  N  N221  1  0.52923000  0.29847000  0.04667000  1.0
  N  N222  1  0.97077000  0.79847000  0.54667000  1.0
  N  N223  1  0.47077000  0.70153000  0.95333000  1.0
  N  N224  1  0.96934000  0.17187000  0.51918000  1.0
  N  N225  1  0.46934000  0.32814000  0.98082000  1.0
  N  N226  1  0.03067000  0.82814000  0.48082000  1.0
  N  N227  1  0.53067000  0.67186000  0.01918000  1.0
  N  N228  1  0.17283000  0.16866000  0.53957000  1.0
  N  N229  1  0.67283000  0.33135000  0.96043000  1.0
  N  N230  1  0.82717000  0.83135000  0.46043000  1.0
  N  N231  1  0.32717000  0.66865000  0.03957000  1.0
  N  N232  1  0.28577000  0.16499000  0.57647000  1.0
  N  N233  1  0.78577000  0.33500000  0.92354000  1.0
  N  N234  1  0.71423000  0.83500000  0.42354000  1.0
  N  N235  1  0.21423000  0.66499000  0.07647000  1.0
  N  N236  1  0.57921000  0.35135000  0.20845000  1.0
  N  N237  1  0.07921000  0.14865000  0.29155000  1.0
  N  N238  1  0.42079000  0.64866000  0.79154000  1.0
  N  N239  1  0.92079000  0.85135000  0.70845000  1.0
  N  N240  1  0.67683000  0.47697000  0.13545000  1.0
  N  N241  1  0.17683000  0.02303000  0.36455000  1.0
  N  N242  1  0.32318000  0.52303000  0.86455000  1.0
  N  N243  1  0.82318000  0.97698000  0.63545000  1.0
  N  N244  1  0.04062000  0.97237000  0.92331000  1.0
  N  N245  1  0.54063000  0.52762000  0.57669000  1.0
  N  N246  1  0.95937000  0.02763000  0.07669000  1.0
  N  N247  1  0.45937000  0.47238000  0.42331000  1.0
  N  N248  1  0.15379000  0.85201000  0.99446000  1.0
  N  N249  1  0.65379000  0.64799000  0.50554000  1.0
  N  N250  1  0.84621000  0.14798000  0.00555000  1.0
  N  N251  1  0.34621000  0.35201000  0.49446000  1.0
  Cl  Cl252  1  0.76116000  0.05524000  0.42453000  1.0
  Cl  Cl253  1  0.26116000  0.44476000  0.07547000  1.0
  Cl  Cl254  1  0.23884000  0.94476000  0.57547000  1.0
  Cl  Cl255  1  0.73884000  0.55524000  0.92453000  1.0
  Cl  Cl256  1  0.60134000  0.18503000  0.55805000  1.0
  Cl  Cl257  1  0.10134000  0.31497000  0.94195000  1.0
  Cl  Cl258  1  0.39866000  0.81497000  0.44195000  1.0
  Cl  Cl259  1  0.89866000  0.68502000  0.05806000  1.0
