# generated using pymatgen
data_NaH8C10N2ClO4
_symmetry_space_group_name_H-M   'P 1'
_cell_length_a   5.10172000
_cell_length_b   12.49900000
_cell_length_c   18.18770000
_cell_angle_alpha   89.99890000
_cell_angle_beta   90.00040000
_cell_angle_gamma   89.99960000
_symmetry_Int_Tables_number   1
_chemical_formula_structural   NaH8C10N2ClO4
_chemical_formula_sum   'Na4 H32 C40 N8 Cl4 O16'
_cell_volume   1159.76412173
_cell_formula_units_Z   4
loop_
 _symmetry_equiv_pos_site_id
 _symmetry_equiv_pos_as_xyz
  1  'x, y, z'
loop_
 _atom_site_type_symbol
 _atom_site_label
 _atom_site_symmetry_multiplicity
 _atom_site_fract_x
 _atom_site_fract_y
 _atom_site_fract_z
 _atom_site_occupancy
  Na  Na0  1  0.53420000  0.87216000  0.46599000  1.0
  Na  Na1  1  0.03418000  0.12786000  0.53403000  1.0
  Na  Na2  1  0.03420000  0.62784000  0.96597000  1.0
  Na  Na3  1  0.53420000  0.37216000  0.03403000  1.0
  H  H4  1  0.09293000  0.65264000  0.24031000  1.0
  H  H5  1  0.59288000  0.34738000  0.75969000  1.0
  H  H6  1  0.59287000  0.84736000  0.74030000  1.0
  H  H7  1  0.09286000  0.15261000  0.25969000  1.0
  H  H8  1  0.78942000  0.79228000  0.19731000  1.0
  H  H9  1  0.28940000  0.20772000  0.80270000  1.0
  H  H10  1  0.28936000  0.70771000  0.69729000  1.0
  H  H11  1  0.78939000  0.29226000  0.30269000  1.0
  H  H12  1  0.77247000  0.96962000  0.26518000  1.0
  H  H13  1  0.27245000  0.03039000  0.73484000  1.0
  H  H14  1  0.27244000  0.53038000  0.76517000  1.0
  H  H15  1  0.77246000  0.46961000  0.23483000  1.0
  H  H16  1  0.08040000  0.99687000  0.36993000  1.0
  H  H17  1  0.58037000  0.00315000  0.63008000  1.0
  H  H18  1  0.58040000  0.50313000  0.86991000  1.0
  H  H19  1  0.08042000  0.49686000  0.13009000  1.0
  H  H20  1  0.21774000  0.53075000  0.30966000  1.0
  H  H21  1  0.71767000  0.46928000  0.69034000  1.0
  H  H22  1  0.71758000  0.96925000  0.80966000  1.0
  H  H23  1  0.21767000  0.03072000  0.19034000  1.0
  H  H24  1  0.50465000  0.39460000  0.36842000  1.0
  H  H25  1  0.00459000  0.60542000  0.63157000  1.0
  H  H26  1  0.00448000  0.10540000  0.86842000  1.0
  H  H27  1  0.50458000  0.89459000  0.13157000  1.0
  H  H28  1  0.86707000  0.45566000  0.45200000  1.0
  H  H29  1  0.36702000  0.54433000  0.54801000  1.0
  H  H30  1  0.36694000  0.04432000  0.95197000  1.0
  H  H31  1  0.86699000  0.95568000  0.04801000  1.0
  H  H32  1  0.91159000  0.65236000  0.47689000  1.0
  H  H33  1  0.41153000  0.34763000  0.52312000  1.0
  H  H34  1  0.41152000  0.84764000  0.97687000  1.0
  H  H35  1  0.91155000  0.15237000  0.02312000  1.0
  C  C36  1  0.23899000  0.74828000  0.33145000  1.0
  C  C37  1  0.73892000  0.25174000  0.66856000  1.0
  C  C38  1  0.73892000  0.75172000  0.83144000  1.0
  C  C39  1  0.23893000  0.24826000  0.16855000  1.0
  C  C40  1  0.08245000  0.72846000  0.26956000  1.0
  C  C41  1  0.58237000  0.27155000  0.73045000  1.0
  C  C42  1  0.58236000  0.77154000  0.76954000  1.0
  C  C43  1  0.08237000  0.22844000  0.23045000  1.0
  C  C44  1  0.91324000  0.80799000  0.24470000  1.0
  C  C45  1  0.41318000  0.19202000  0.75532000  1.0
  C  C46  1  0.41314000  0.69201000  0.74468000  1.0
  C  C47  1  0.91317000  0.30798000  0.25531000  1.0
  C  C48  1  0.90572000  0.90580000  0.28133000  1.0
  C  C49  1  0.40568000  0.09422000  0.71868000  1.0
  C  C50  1  0.40566000  0.59421000  0.78132000  1.0
  C  C51  1  0.90568000  0.40578000  0.21867000  1.0
  C  C52  1  0.07470000  0.92059000  0.34078000  1.0
  C  C53  1  0.57464000  0.07943000  0.65922000  1.0
  C  C54  1  0.57463000  0.57941000  0.84078000  1.0
  C  C55  1  0.07467000  0.42058000  0.15923000  1.0
  C  C56  1  0.41208000  0.66427000  0.36320000  1.0
  C  C57  1  0.91199000  0.33575000  0.63680000  1.0
  C  C58  1  0.91196000  0.83573000  0.86319000  1.0
  C  C59  1  0.41199000  0.16426000  0.13681000  1.0
  C  C60  1  0.37455000  0.55573000  0.34641000  1.0
  C  C61  1  0.87448000  0.44429000  0.65359000  1.0
  C  C62  1  0.87442000  0.94428000  0.84640000  1.0
  C  C63  1  0.37446000  0.05572000  0.15358000  1.0
  C  C64  1  0.53577000  0.47941000  0.37888000  1.0
  C  C65  1  0.03570000  0.52060000  0.62111000  1.0
  C  C66  1  0.03563000  0.02059000  0.87888000  1.0
  C  C67  1  0.53569000  0.97941000  0.12111000  1.0
  C  C68  1  0.73519000  0.51283000  0.42602000  1.0
  C  C69  1  0.23514000  0.48716000  0.57399000  1.0
  C  C70  1  0.23508000  0.98716000  0.92600000  1.0
  C  C71  1  0.73512000  0.01284000  0.07398000  1.0
  C  C72  1  0.75948000  0.62222000  0.43996000  1.0
  C  C73  1  0.25943000  0.37778000  0.56005000  1.0
  C  C74  1  0.25939000  0.87778000  0.93994000  1.0
  C  C75  1  0.75941000  0.12222000  0.06005000  1.0
  N  N76  1  0.23658000  0.84429000  0.36570000  1.0
  N  N77  1  0.73650000  0.15573000  0.63430000  1.0
  N  N78  1  0.73650000  0.65571000  0.86570000  1.0
  N  N79  1  0.23653000  0.34428000  0.13431000  1.0
  N  N80  1  0.60111000  0.69635000  0.41039000  1.0
  N  N81  1  0.10104000  0.30366000  0.58963000  1.0
  N  N82  1  0.10101000  0.80364000  0.91036000  1.0
  N  N83  1  0.60105000  0.19635000  0.08963000  1.0
  Cl  Cl84  1  0.06842000  0.85732000  0.58581000  1.0
  Cl  Cl85  1  0.56840000  0.14270000  0.41419000  1.0
  Cl  Cl86  1  0.56843000  0.64270000  0.08580000  1.0
  Cl  Cl87  1  0.06840000  0.35730000  0.91420000  1.0
  O  O88  1  0.17418000  0.94690000  0.54167000  1.0
  O  O89  1  0.67420000  0.05311000  0.45833000  1.0
  O  O90  1  0.67422000  0.55311000  0.04167000  1.0
  O  O91  1  0.17420000  0.44689000  0.95833000  1.0
  O  O92  1  0.20802000  0.76037000  0.56442000  1.0
  O  O93  1  0.70803000  0.23964000  0.43558000  1.0
  O  O94  1  0.70805000  0.73964000  0.06441000  1.0
  O  O95  1  0.20804000  0.26036000  0.93558000  1.0
  O  O96  1  0.78895000  0.84525000  0.57015000  1.0
  O  O97  1  0.28894000  0.15477000  0.42987000  1.0
  O  O98  1  0.28897000  0.65477000  0.07012000  1.0
  O  O99  1  0.78895000  0.34523000  0.92988000  1.0
  O  O100  1  0.10347000  0.87957000  0.66336000  1.0
  O  O101  1  0.60341000  0.12045000  0.33664000  1.0
  O  O102  1  0.60342000  0.62045000  0.16336000  1.0
  O  O103  1  0.10339000  0.37955000  0.83664000  1.0
