# generated using pymatgen
data_Mn3H38C52(NO7)2
_symmetry_space_group_name_H-M   'P 1'
_cell_length_a   10.44760000
_cell_length_b   10.62930000
_cell_length_c   11.93450000
_cell_angle_alpha   109.30100000
_cell_angle_beta   114.95600000
_cell_angle_gamma   93.48460000
_symmetry_Int_Tables_number   1
_chemical_formula_structural   Mn3H38C52(NO7)2
_chemical_formula_sum   'Mn3 H38 C52 N2 O14'
_cell_volume   1102.56675854
_cell_formula_units_Z   1
loop_
 _symmetry_equiv_pos_site_id
 _symmetry_equiv_pos_as_xyz
  1  'x, y, z'
loop_
 _atom_site_type_symbol
 _atom_site_label
 _atom_site_symmetry_multiplicity
 _atom_site_fract_x
 _atom_site_fract_y
 _atom_site_fract_z
 _atom_site_occupancy
  Mn  Mn0  1  0.49999000  0.50000000  0.50000000  1.0
  Mn  Mn1  1  0.22602000  0.64346000  0.54934000  1.0
  Mn  Mn2  1  0.77399000  0.35654000  0.45066000  1.0
  H  H3  1  0.03360000  0.62448000  0.64314000  1.0
  H  H4  1  0.96640000  0.37552000  0.35686000  1.0
  H  H5  1  0.88127000  0.36964000  0.09128000  1.0
  H  H6  1  0.11873000  0.63038000  0.90873000  1.0
  H  H7  1  0.80522000  0.25591000  0.84696000  1.0
  H  H8  1  0.19478000  0.74410000  0.15304000  1.0
  H  H9  1  0.99088000  0.24280000  0.76755000  1.0
  H  H10  1  0.00912000  0.75720000  0.23245000  1.0
  H  H11  1  0.32874000  0.44336000  0.17820000  1.0
  H  H12  1  0.67126000  0.55664000  0.82180000  1.0
  H  H13  1  0.17365000  0.16763000  0.21167000  1.0
  H  H14  1  0.82635000  0.83236000  0.78832000  1.0
  H  H15  1  0.02399000  0.85158000  0.81535000  1.0
  H  H16  1  0.97600000  0.14842000  0.18464000  1.0
  H  H17  1  0.27614000  0.86155000  0.85922000  1.0
  H  H18  1  0.72386000  0.13845000  0.14077000  1.0
  H  H19  1  0.47957000  0.02788000  0.08018000  1.0
  H  H20  1  0.52043000  0.97211000  0.91982000  1.0
  H  H21  1  0.15867000  0.41426000  0.76432000  1.0
  H  H22  1  0.84133000  0.58575000  0.23568000  1.0
  H  H23  1  0.43361000  0.27262000  0.06256000  1.0
  H  H24  1  0.56639000  0.72738000  0.93744000  1.0
  H  H25  1  0.61080000  0.26428000  0.97557000  1.0
  H  H26  1  0.38921000  0.73572000  0.02444000  1.0
  H  H27  1  0.56490000  0.33611000  0.78473000  1.0
  H  H28  1  0.43511000  0.66389000  0.21527000  1.0
  H  H29  1  0.34468000  0.75949000  0.39422000  1.0
  H  H30  1  0.65531000  0.24050000  0.60578000  1.0
  H  H31  1  0.37586000  0.97560000  0.35545000  1.0
  H  H32  1  0.62414000  0.02440000  0.64456000  1.0
  H  H33  1  0.27892000  0.16828000  0.45116000  1.0
  H  H34  1  0.72108000  0.83172000  0.54885000  1.0
  H  H35  1  0.14894000  0.13638000  0.58112000  1.0
  H  H36  1  0.85106000  0.86362000  0.41889000  1.0
  H  H37  1  0.12151000  0.91255000  0.60492000  1.0
  H  H38  1  0.87849000  0.08744000  0.39508000  1.0
  H  H39  1  0.95033000  0.63817000  0.50856000  1.0
  H  H40  1  0.04968000  0.36183000  0.49145000  1.0
  C  C41  1  0.15002000  0.48290000  0.29292000  1.0
  C  C42  1  0.84999000  0.51710000  0.70708000  1.0
  C  C43  1  0.10942000  0.41080000  0.14879000  1.0
  C  C44  1  0.89058000  0.58920000  0.85120000  1.0
  C  C45  1  0.96170000  0.35936000  0.05546000  1.0
  C  C46  1  0.03831000  0.64065000  0.94454000  1.0
  C  C47  1  0.91987000  0.29763000  0.91906000  1.0
  C  C48  1  0.08013000  0.70238000  0.08094000  1.0
  C  C49  1  0.02410000  0.29000000  0.87476000  1.0
  C  C50  1  0.97590000  0.71001000  0.12524000  1.0
  C  C51  1  0.17262000  0.34239000  0.96660000  1.0
  C  C52  1  0.82737000  0.65761000  0.03340000  1.0
  C  C53  1  0.21448000  0.40075000  0.10434000  1.0
  C  C54  1  0.78552000  0.59925000  0.89566000  1.0
  C  C55  1  0.45452000  0.21959000  0.27916000  1.0
  C  C56  1  0.54549000  0.78041000  0.72083000  1.0
  C  C57  1  0.33574000  0.10830000  0.15571000  1.0
  C  C58  1  0.66427000  0.89170000  0.84428000  1.0
  C  C59  1  0.19203000  0.09795000  0.13273000  1.0
  C  C60  1  0.80797000  0.90204000  0.86726000  1.0
  C  C61  1  0.07606000  0.00505000  0.01155000  1.0
  C  C62  1  0.92394000  0.99495000  0.98844000  1.0
  C  C63  1  0.10989000  0.92265000  0.91281000  1.0
  C  C64  1  0.89010000  0.07735000  0.08718000  1.0
  C  C65  1  0.25321000  0.92845000  0.93673000  1.0
  C  C66  1  0.74679000  0.07155000  0.06326000  1.0
  C  C67  1  0.36671000  0.02052000  0.05858000  1.0
  C  C68  1  0.63329000  0.97947000  0.94141000  1.0
  C  C69  1  0.34066000  0.43408000  0.65924000  1.0
  C  C70  1  0.65934000  0.56591000  0.34077000  1.0
  C  C71  1  0.35961000  0.37954000  0.76402000  1.0
  C  C72  1  0.64040000  0.62046000  0.23598000  1.0
  C  C73  1  0.25616000  0.37843000  0.80951000  1.0
  C  C74  1  0.74384000  0.62157000  0.19049000  1.0
  C  C75  1  0.28092000  0.33916000  0.91683000  1.0
  C  C76  1  0.71909000  0.66084000  0.08317000  1.0
  C  C77  1  0.41118000  0.30094000  0.97755000  1.0
  C  C78  1  0.58882000  0.69906000  0.02245000  1.0
  C  C79  1  0.51174000  0.29707000  0.92898000  1.0
  C  C80  1  0.48826000  0.70294000  0.07103000  1.0
  C  C81  1  0.48642000  0.33584000  0.82237000  1.0
  C  C82  1  0.51359000  0.66416000  0.17763000  1.0
  C  C83  1  0.30099000  0.84526000  0.43141000  1.0
  C  C84  1  0.69900000  0.15474000  0.56859000  1.0
  C  C85  1  0.31887000  0.96560000  0.41140000  1.0
  C  C86  1  0.68112000  0.03439000  0.58860000  1.0
  C  C87  1  0.26338000  0.07272000  0.46429000  1.0
  C  C88  1  0.73661000  0.92728000  0.53572000  1.0
  C  C89  1  0.19150000  0.05489000  0.53543000  1.0
  C  C90  1  0.80849000  0.94510000  0.46457000  1.0
  C  C91  1  0.17655000  0.93101000  0.54989000  1.0
  C  C92  1  0.82344000  0.06899000  0.45011000  1.0
  N  N93  1  0.22934000  0.82702000  0.49811000  1.0
  N  N94  1  0.77065000  0.17297000  0.50189000  1.0
  O  O95  1  0.05039000  0.49944000  0.32838000  1.0
  O  O96  1  0.94962000  0.50057000  0.67162000  1.0
  O  O97  1  0.28396000  0.53554000  0.38258000  1.0
  O  O98  1  0.71603000  0.46447000  0.61742000  1.0
  O  O99  1  0.42680000  0.28570000  0.37351000  1.0
  O  O100  1  0.57320000  0.71430000  0.62649000  1.0
  O  O101  1  0.57701000  0.24412000  0.28045000  1.0
  O  O102  1  0.42300000  0.75587000  0.71955000  1.0
  O  O103  1  0.44570000  0.44768000  0.63401000  1.0
  O  O104  1  0.55430000  0.55232000  0.36600000  1.0
  O  O105  1  0.22075000  0.46829000  0.60228000  1.0
  O  O106  1  0.77925000  0.53170000  0.39772000  1.0
  O  O107  1  0.04516000  0.67851000  0.59251000  1.0
  O  O108  1  0.95484000  0.32149000  0.40750000  1.0
