# generated using pymatgen
data_CdH21C22(NO2)3
_symmetry_space_group_name_H-M   'P 1'
_cell_length_a   9.47405000
_cell_length_b   10.45010000
_cell_length_c   11.68010000
_cell_angle_alpha   116.36200000
_cell_angle_beta   97.76350000
_cell_angle_gamma   91.74540000
_symmetry_Int_Tables_number   1
_chemical_formula_structural   CdH21C22(NO2)3
_chemical_formula_sum   'Cd2 H42 C44 N6 O12'
_cell_volume   1021.29088530
_cell_formula_units_Z   2
loop_
 _symmetry_equiv_pos_site_id
 _symmetry_equiv_pos_as_xyz
  1  'x, y, z'
loop_
 _atom_site_type_symbol
 _atom_site_label
 _atom_site_symmetry_multiplicity
 _atom_site_fract_x
 _atom_site_fract_y
 _atom_site_fract_z
 _atom_site_occupancy
  Cd  Cd0  1  0.79984000  0.67486000  0.50361000  1.0
  Cd  Cd1  1  0.20016000  0.32514000  0.49639000  1.0
  H  H2  1  0.49067000  0.72491000  0.05200000  1.0
  H  H3  1  0.50933000  0.27510000  0.94800000  1.0
  H  H4  1  0.43838000  0.80201000  0.87708000  1.0
  H  H5  1  0.56162000  0.19799000  0.12292000  1.0
  H  H6  1  0.25845000  0.97566000  0.89448000  1.0
  H  H7  1  0.74155000  0.02434000  0.10552000  1.0
  H  H8  1  0.13437000  0.07320000  0.08596000  1.0
  H  H9  1  0.86563000  0.92679000  0.91404000  1.0
  H  H10  1  0.18804000  0.99910000  0.25985000  1.0
  H  H11  1  0.81195000  0.00090000  0.74016000  1.0
  H  H12  1  0.28142000  0.71221000  0.42993000  1.0
  H  H13  1  0.71859000  0.28779000  0.57007000  1.0
  H  H14  1  0.35966000  0.85785000  0.66903000  1.0
  H  H15  1  0.64034000  0.14215000  0.33097000  1.0
  H  H16  1  0.41695000  0.00510000  0.64492000  1.0
  H  H17  1  0.58304000  0.99490000  0.35508000  1.0
  H  H18  1  0.16228000  0.01620000  0.55367000  1.0
  H  H19  1  0.83771000  0.98380000  0.44633000  1.0
  H  H20  1  0.19068000  0.05198000  0.71604000  1.0
  H  H21  1  0.80932000  0.94801000  0.28396000  1.0
  H  H22  1  0.60496000  0.62141000  0.67486000  1.0
  H  H23  1  0.39504000  0.37859000  0.32514000  1.0
  H  H24  1  0.60798000  0.60690000  0.88177000  1.0
  H  H25  1  0.39202000  0.39310000  0.11823000  1.0
  H  H26  1  0.07058000  0.66933000  0.94039000  1.0
  H  H27  1  0.92942000  0.33068000  0.05961000  1.0
  H  H28  1  0.04704000  0.68391000  0.73204000  1.0
  H  H29  1  0.95296000  0.31610000  0.26796000  1.0
  H  H30  1  0.04092000  0.75459000  0.35580000  1.0
  H  H31  1  0.95907000  0.24541000  0.64420000  1.0
  H  H32  1  0.04943000  0.76030000  0.14792000  1.0
  H  H33  1  0.95058000  0.23970000  0.85209000  1.0
  H  H34  1  0.64436000  0.49548000  0.99710000  1.0
  H  H35  1  0.35564000  0.50452000  0.00290000  1.0
  H  H36  1  0.64795000  0.51007000  0.21777000  1.0
  H  H37  1  0.35205000  0.48992000  0.78223000  1.0
  H  H38  1  0.34544000  0.98138000  0.42156000  1.0
  H  H39  1  0.65456000  0.01862000  0.57844000  1.0
  H  H40  1  0.78683000  0.36744000  0.41437000  1.0
  H  H41  1  0.21317000  0.63256000  0.58563000  1.0
  H  H42  1  0.63287000  0.41528000  0.44113000  1.0
  H  H43  1  0.36714000  0.58472000  0.55887000  1.0
  C  C44  1  0.41339000  0.80187000  0.05797000  1.0
  C  C45  1  0.58661000  0.19813000  0.94203000  1.0
  C  C46  1  0.38383000  0.84484000  0.96091000  1.0
  C  C47  1  0.61617000  0.15516000  0.03910000  1.0
  C  C48  1  0.28287000  0.94254000  0.97077000  1.0
  C  C49  1  0.71713000  0.05746000  0.02923000  1.0
  C  C50  1  0.21400000  0.99806000  0.07874000  1.0
  C  C51  1  0.78600000  0.00194000  0.92126000  1.0
  C  C52  1  0.24479000  0.95656000  0.17723000  1.0
  C  C53  1  0.75521000  0.04344000  0.82277000  1.0
  C  C54  1  0.34375000  0.85632000  0.16643000  1.0
  C  C55  1  0.65625000  0.14368000  0.83357000  1.0
  C  C56  1  0.36915000  0.79298000  0.25929000  1.0
  C  C57  1  0.63086000  0.20702000  0.74071000  1.0
  C  C58  1  0.36108000  0.80656000  0.47049000  1.0
  C  C59  1  0.63892000  0.19344000  0.52951000  1.0
  C  C60  1  0.50676000  0.74956000  0.48455000  1.0
  C  C61  1  0.49324000  0.25045000  0.51545000  1.0
  C  C62  1  0.33716000  0.91162000  0.60722000  1.0
  C  C63  1  0.66284000  0.08838000  0.39278000  1.0
  C  C64  1  0.18961000  0.96543000  0.61759000  1.0
  C  C65  1  0.81039000  0.03457000  0.38241000  1.0
  C  C66  1  0.06405000  0.85662000  0.59000000  1.0
  C  C67  1  0.93595000  0.14338000  0.41000000  1.0
  C  C68  1  0.70530000  0.63292000  0.73787000  1.0
  C  C69  1  0.29470000  0.36707000  0.26213000  1.0
  C  C70  1  0.70841000  0.62487000  0.85345000  1.0
  C  C71  1  0.29160000  0.37513000  0.14655000  1.0
  C  C72  1  0.83980000  0.63821000  0.93096000  1.0
  C  C73  1  0.16020000  0.36179000  0.06904000  1.0
  C  C74  1  0.96439000  0.65996000  0.88639000  1.0
  C  C75  1  0.03561000  0.34004000  0.11361000  1.0
  C  C76  1  0.95265000  0.66726000  0.76957000  1.0
  C  C77  1  0.04735000  0.33274000  0.23043000  1.0
  C  C78  1  0.95389000  0.69944000  0.27490000  1.0
  C  C79  1  0.04611000  0.30056000  0.72509000  1.0
  C  C80  1  0.95879000  0.70105000  0.15725000  1.0
  C  C81  1  0.04121000  0.29895000  0.84275000  1.0
  C  C82  1  0.84430000  0.63151000  0.05491000  1.0
  C  C83  1  0.15570000  0.36849000  0.94508000  1.0
  C  C84  1  0.73144000  0.55862000  0.07607000  1.0
  C  C85  1  0.26856000  0.44138000  0.92393000  1.0
  C  C86  1  0.73468000  0.56335000  0.19719000  1.0
  C  C87  1  0.26532000  0.43665000  0.80281000  1.0
  N  N88  1  0.34810000  0.87182000  0.38304000  1.0
  N  N89  1  0.65190000  0.12818000  0.61697000  1.0
  N  N90  1  0.82539000  0.65432000  0.69628000  1.0
  N  N91  1  0.17462000  0.34568000  0.30372000  1.0
  N  N92  1  0.84335000  0.63360000  0.29597000  1.0
  N  N93  1  0.15665000  0.36640000  0.70403000  1.0
  O  O94  1  0.62041000  0.81677000  0.48195000  1.0
  O  O95  1  0.37959000  0.18324000  0.51805000  1.0
  O  O96  1  0.50836000  0.64107000  0.50596000  1.0
  O  O97  1  0.49165000  0.35893000  0.49404000  1.0
  O  O98  1  0.40427000  0.66801000  0.22058000  1.0
  O  O99  1  0.59573000  0.33199000  0.77943000  1.0
  O  O100  1  0.94023000  0.90117000  0.59334000  1.0
  O  O101  1  0.05977000  0.09883000  0.40666000  1.0
  O  O102  1  0.08111000  0.72526000  0.56054000  1.0
  O  O103  1  0.91889000  0.27474000  0.43946000  1.0
  O  O104  1  0.71451000  0.42879000  0.40013000  1.0
  O  O105  1  0.28549000  0.57121000  0.59986000  1.0
