# generated using pymatgen
data_Zn2H38C31N2O11
_symmetry_space_group_name_H-M   'P 1'
_cell_length_a   9.65878000
_cell_length_b   11.03080000
_cell_length_c   16.06130000
_cell_angle_alpha   87.89400000
_cell_angle_beta   88.91740000
_cell_angle_gamma   88.69210000
_symmetry_Int_Tables_number   1
_chemical_formula_structural   Zn2H38C31N2O11
_chemical_formula_sum   'Zn2 H38 C31 N2 O11'
_cell_volume   1709.35569930
_cell_formula_units_Z   1
loop_
 _symmetry_equiv_pos_site_id
 _symmetry_equiv_pos_as_xyz
  1  'x, y, z'
loop_
 _atom_site_type_symbol
 _atom_site_label
 _atom_site_symmetry_multiplicity
 _atom_site_fract_x
 _atom_site_fract_y
 _atom_site_fract_z
 _atom_site_occupancy
  Zn  Zn0  1  0.35456000  0.50467000  0.49745000  1.0
  Zn  Zn1  1  0.63590000  0.50675000  0.49371000  1.0
  H  H2  1  0.39009000  0.66257000  0.06546000  1.0
  H  H3  1  0.27904000  0.51032000  0.93331000  1.0
  H  H4  1  0.61960000  0.32853000  0.05947000  1.0
  H  H5  1  0.40266000  0.08669000  0.52402000  1.0
  H  H6  1  0.69453000  0.89125000  0.47338000  1.0
  H  H7  1  0.38029000  0.91768000  0.44899000  1.0
  H  H8  1  0.13304000  0.35662000  0.42338000  1.0
  H  H9  1  0.08831000  0.58864000  0.50377000  1.0
  H  H10  1  0.87415000  0.41552000  0.38393000  1.0
  H  H11  1  0.34637000  0.65807000  0.92491000  1.0
  H  H12  1  0.89476000  0.50806000  0.55182000  1.0
  H  H13  1  0.72266000  0.54401000  0.91888000  1.0
  H  H14  1  0.61770000  0.67668000  0.92918000  1.0
  H  H15  1  0.72428000  0.51655000  0.06390000  1.0
  H  H16  1  0.42385000  0.32966000  0.92046000  1.0
  H  H17  1  0.60634000  0.33577000  0.91451000  1.0
  H  H18  1  0.43994000  0.30782000  0.06543000  1.0
  H  H19  1  0.25926000  0.36284000  0.13285000  1.0
  H  H20  1  0.20403000  0.38256000  0.02734000  1.0
  H  H21  1  0.04185000  0.46776000  0.18111000  1.0
  H  H22  1  0.98496000  0.48233000  0.07744000  1.0
  H  H23  1  0.98559000  0.25254000  0.06895000  1.0
  H  H24  1  0.87670000  0.30238000  0.15174000  1.0
  H  H25  1  0.04317000  0.23839000  0.17319000  1.0
  H  H26  1  0.84359000  0.13025000  0.33407000  1.0
  H  H27  1  0.77191000  0.98629000  0.35927000  1.0
  H  H28  1  0.97534000  0.11926000  0.46724000  1.0
  H  H29  1  0.91007000  0.97424000  0.49149000  1.0
  H  H30  1  0.02721000  0.89360000  0.36068000  1.0
  H  H31  1  0.14830000  0.95604000  0.42770000  1.0
  H  H32  1  0.09415000  0.03968000  0.33716000  1.0
  H  H33  1  0.75413000  0.82427000  0.10394000  1.0
  H  H34  1  0.84367000  0.69918000  0.05953000  1.0
  H  H35  1  0.71762000  0.70303000  0.23682000  1.0
  H  H36  1  0.80461000  0.57725000  0.19479000  1.0
  H  H37  1  0.02505000  0.69802000  0.17713000  1.0
  H  H38  1  0.96539000  0.69371000  0.28228000  1.0
  H  H39  1  0.93689000  0.82612000  0.21841000  1.0
  C  C40  1  0.48571000  0.74139000  0.47087000  1.0
  C  C41  1  0.37286000  0.56934000  0.04722000  1.0
  C  C42  1  0.50373000  0.49520000  0.07737000  1.0
  C  C43  1  0.51956000  0.36791000  0.03928000  1.0
  C  C44  1  0.51356000  0.37722000  0.94328000  1.0
  C  C45  1  0.50695000  0.48468000  0.16733000  1.0
  C  C46  1  0.50066000  0.52023000  0.82333000  1.0
  C  C47  1  0.50062000  0.52376000  0.74759000  1.0
  C  C48  1  0.59803000  0.07381000  0.46506000  1.0
  C  C49  1  0.49004000  0.13790000  0.49921000  1.0
  C  C50  1  0.59647000  0.94132000  0.46515000  1.0
  C  C51  1  0.50234000  0.52385000  0.65754000  1.0
  C  C52  1  0.48188000  0.87533000  0.45946000  1.0
  C  C53  1  0.07581000  0.43456000  0.44856000  1.0
  C  C54  1  0.92368000  0.44443000  0.44064000  1.0
  C  C55  1  0.47849000  0.27019000  0.50443000  1.0
  C  C56  1  0.51784000  0.48263000  0.33232000  1.0
  C  C57  1  0.36579000  0.56611000  0.95131000  1.0
  C  C58  1  0.62659000  0.57985000  0.94738000  1.0
  C  C59  1  0.63100000  0.56838000  0.04380000  1.0
  C  C60  1  0.51233000  0.47732000  0.24283000  1.0
  C  C61  1  0.50165000  0.51226000  0.91373000  1.0
  C  C62  1  0.19638000  0.42121000  0.09001000  1.0
  C  C63  1  0.04630000  0.42380000  0.12064000  1.0
  C  C64  1  0.98468000  0.29748000  0.12902000  1.0
  C  C65  1  0.81507000  0.06745000  0.38623000  1.0
  C  C66  1  0.94093000  0.03570000  0.43913000  1.0
  C  C67  1  0.05888000  0.97814000  0.38833000  1.0
  C  C68  1  0.76223000  0.72448000  0.10550000  1.0
  C  C69  1  0.80070000  0.67717000  0.19269000  1.0
  C  C70  1  0.93953000  0.72625000  0.21883000  1.0
  N  N71  1  0.14495000  0.51463000  0.48415000  1.0
  N  N72  1  0.84557000  0.48681000  0.49821000  1.0
  O  O73  1  0.36868000  0.69080000  0.48013000  1.0
  O  O74  1  0.60407000  0.68740000  0.47169000  1.0
  O  O75  1  0.38528000  0.51688000  0.62267000  1.0
  O  O76  1  0.62044000  0.52994000  0.62117000  1.0
  O  O77  1  0.35587000  0.31740000  0.50617000  1.0
  O  O78  1  0.58986000  0.32979000  0.50779000  1.0
  O  O79  1  0.40165000  0.48702000  0.37117000  1.0
  O  O80  1  0.63746000  0.48496000  0.36434000  1.0
  O  O81  1  0.24428000  0.54275000  0.08870000  1.0
  O  O82  1  0.71070000  0.13241000  0.43328000  1.0
  O  O83  1  0.62971000  0.68501000  0.07944000  1.0
