# generated using pymatgen
data_ZnH3C15N(ClO2)3
_symmetry_space_group_name_H-M   'P 1'
_cell_length_a   12.11820000
_cell_length_b   13.11050000
_cell_length_c   14.34610000
_cell_angle_alpha   89.50320000
_cell_angle_beta   89.62060000
_cell_angle_gamma   83.57230000
_symmetry_Int_Tables_number   1
_chemical_formula_structural   ZnH3C15N(ClO2)3
_chemical_formula_sum   'Zn2 H6 C30 N2 Cl6 O12'
_cell_volume   2264.79681568
_cell_formula_units_Z   2
loop_
 _symmetry_equiv_pos_site_id
 _symmetry_equiv_pos_as_xyz
  1  'x, y, z'
loop_
 _atom_site_type_symbol
 _atom_site_label
 _atom_site_symmetry_multiplicity
 _atom_site_fract_x
 _atom_site_fract_y
 _atom_site_fract_z
 _atom_site_occupancy
  Zn  Zn0  1  0.62113000  0.48627000  0.50570000  1.0
  Zn  Zn1  1  0.37888000  0.51377000  0.49416000  1.0
  H  H2  1  0.45338000  0.00877000  0.69075000  1.0
  H  H3  1  0.54664000  0.99125000  0.30921000  1.0
  H  H4  1  0.74286000  0.63928000  0.42918000  1.0
  H  H5  1  0.25714000  0.36126000  0.57177000  1.0
  H  H6  1  0.54747000  0.31472000  0.22476000  1.0
  H  H7  1  0.45196000  0.68534000  0.77513000  1.0
  C  C8  1  0.48838000  0.69528000  0.52942000  1.0
  C  C9  1  0.87249000  0.43945000  0.53680000  1.0
  C  C10  1  0.01253000  0.54642000  0.47581000  1.0
  C  C11  1  0.98749000  0.45358000  0.52438000  1.0
  C  C12  1  0.51395000  0.52584000  0.32086000  1.0
  C  C13  1  0.48643000  0.47416000  0.67902000  1.0
  C  C14  1  0.51687000  0.52327000  0.22006000  1.0
  C  C15  1  0.48331000  0.47670000  0.77982000  1.0
  C  C16  1  0.51197000  0.51497000  0.13503000  1.0
  C  C17  1  0.48816000  0.48506000  0.86485000  1.0
  C  C18  1  0.50444000  0.50521000  0.04239000  1.0
  C  C19  1  0.51133000  0.30477000  0.47046000  1.0
  C  C20  1  0.49564000  0.49483000  0.95748000  1.0
  C  C21  1  0.51039000  0.18997000  0.46248000  1.0
  C  C22  1  0.48941000  0.81007000  0.53744000  1.0
  C  C23  1  0.46935000  0.96999000  0.62445000  1.0
  C  C24  1  0.53056000  0.03004000  0.37547000  1.0
  C  C25  1  0.46926000  0.86444000  0.62265000  1.0
  C  C26  1  0.53064000  0.13558000  0.37730000  1.0
  C  C27  1  0.50888000  0.86493000  0.45714000  1.0
  C  C28  1  0.49089000  0.13511000  0.54278000  1.0
  C  C29  1  0.55291000  0.18533000  0.28580000  1.0
  C  C30  1  0.51011000  0.97358000  0.45659000  1.0
  C  C31  1  0.44700000  0.81471000  0.71418000  1.0
  C  C32  1  0.48970000  0.02644000  0.54330000  1.0
  C  C33  1  0.07957000  0.38444000  0.55630000  1.0
  C  C34  1  0.92047000  0.61576000  0.44424000  1.0
  C  C35  1  0.18592000  0.41094000  0.54566000  1.0
  C  C36  1  0.81409000  0.58938000  0.45495000  1.0
  C  C37  1  0.12750000  0.56040000  0.46311000  1.0
  N  N38  1  0.79147000  0.50353000  0.50029000  1.0
  N  N39  1  0.20852000  0.49651000  0.49987000  1.0
  Cl  Cl40  1  0.46823000  0.20029000  0.64697000  1.0
  Cl  Cl41  1  0.53147000  0.79973000  0.35296000  1.0
  Cl  Cl42  1  0.82754000  0.34319000  0.60255000  1.0
  Cl  Cl43  1  0.17239000  0.65607000  0.39660000  1.0
  Cl  Cl44  1  0.07257000  0.26545000  0.60531000  1.0
  Cl  Cl45  1  0.92760000  0.73498000  0.39581000  1.0
  O  O46  1  0.58243000  0.64232000  0.52802000  1.0
  O  O47  1  0.52888000  0.28888000  0.28661000  1.0
  O  O48  1  0.41260000  0.86195000  0.78348000  1.0
  O  O49  1  0.47047000  0.71111000  0.71324000  1.0
  O  O50  1  0.41727000  0.35766000  0.47194000  1.0
  O  O51  1  0.39381000  0.66384000  0.52107000  1.0
  O  O52  1  0.60588000  0.33629000  0.47868000  1.0
  O  O53  1  0.60664000  0.51658000  0.36275000  1.0
  O  O54  1  0.39381000  0.48351000  0.63703000  1.0
  O  O55  1  0.41709000  0.53544000  0.35657000  1.0
  O  O56  1  0.58333000  0.46453000  0.64339000  1.0
  O  O57  1  0.58777000  0.13816000  0.21659000  1.0
