# generated using pymatgen
data_CdH7C11(N2O)2
_symmetry_space_group_name_H-M   'P 1'
_cell_length_a   8.47077000
_cell_length_b   10.17990000
_cell_length_c   12.53990000
_cell_angle_alpha   90.00000000
_cell_angle_beta   97.36070000
_cell_angle_gamma   90.00000000
_symmetry_Int_Tables_number   1
_chemical_formula_structural   CdH7C11(N2O)2
_chemical_formula_sum   'Cd4 H28 C44 N16 O8'
_cell_volume   1072.42454236
_cell_formula_units_Z   4
loop_
 _symmetry_equiv_pos_site_id
 _symmetry_equiv_pos_as_xyz
  1  'x, y, z'
loop_
 _atom_site_type_symbol
 _atom_site_label
 _atom_site_symmetry_multiplicity
 _atom_site_fract_x
 _atom_site_fract_y
 _atom_site_fract_z
 _atom_site_occupancy
  Cd  Cd0  1  0.76716000  0.67720000  0.82378000  1.0
  Cd  Cd1  1  0.73284000  0.17720000  0.17622000  1.0
  Cd  Cd2  1  0.23284000  0.32280000  0.17622000  1.0
  Cd  Cd3  1  0.26716000  0.82280000  0.82378000  1.0
  H  H4  1  0.61844000  0.49653000  0.06656000  1.0
  H  H5  1  0.88157000  0.99653000  0.93344000  1.0
  H  H6  1  0.38157000  0.50347000  0.93344000  1.0
  H  H7  1  0.11843000  0.00347000  0.06656000  1.0
  H  H8  1  0.11153000  0.23824000  0.87562000  1.0
  H  H9  1  0.38847000  0.73824000  0.12438000  1.0
  H  H10  1  0.88847000  0.76176000  0.12438000  1.0
  H  H11  1  0.61153000  0.26176000  0.87562000  1.0
  H  H12  1  0.98016000  0.60083000  0.62079000  1.0
  H  H13  1  0.51984000  0.10083000  0.37921000  1.0
  H  H14  1  0.01984000  0.39917000  0.37921000  1.0
  H  H15  1  0.48016000  0.89917000  0.62079000  1.0
  H  H16  1  0.12924000  0.03990000  0.68637000  1.0
  H  H17  1  0.37076000  0.53990000  0.31363000  1.0
  H  H18  1  0.87076000  0.96010000  0.31363000  1.0
  H  H19  1  0.62924000  0.46010000  0.68637000  1.0
  H  H20  1  0.25806000  0.25501000  0.71350000  1.0
  H  H21  1  0.24194000  0.75501000  0.28650000  1.0
  H  H22  1  0.74194000  0.74499000  0.28650000  1.0
  H  H23  1  0.75806000  0.24499000  0.71350000  1.0
  H  H24  1  0.20647000  0.17362000  0.53284000  1.0
  H  H25  1  0.29353000  0.67362000  0.46716000  1.0
  H  H26  1  0.79354000  0.82638000  0.46716000  1.0
  H  H27  1  0.70647000  0.32638000  0.53284000  1.0
  H  H28  1  0.18343000  0.43618000  0.58032000  1.0
  H  H29  1  0.31658000  0.93617000  0.41968000  1.0
  H  H30  1  0.81657000  0.56383000  0.41968000  1.0
  H  H31  1  0.68343000  0.06382000  0.58032000  1.0
  C  C32  1  0.71017000  0.44972000  0.02704000  1.0
  C  C33  1  0.78984000  0.94972000  0.97296000  1.0
  C  C34  1  0.28983000  0.55028000  0.97296000  1.0
  C  C35  1  0.21016000  0.05028000  0.02704000  1.0
  C  C36  1  0.88090000  0.40438000  0.92262000  1.0
  C  C37  1  0.61911000  0.90438000  0.07738000  1.0
  C  C38  1  0.11910000  0.59562000  0.07738000  1.0
  C  C39  1  0.38089000  0.09562000  0.92262000  1.0
  C  C40  1  0.08687000  0.31609000  0.81652000  1.0
  C  C41  1  0.41314000  0.81609000  0.18348000  1.0
  C  C42  1  0.91314000  0.68391000  0.18348000  1.0
  C  C43  1  0.58686000  0.18391000  0.81652000  1.0
  C  C44  1  0.90955000  0.84417000  0.67619000  1.0
  C  C45  1  0.59045000  0.34417000  0.32381000  1.0
  C  C46  1  0.09045000  0.15583000  0.32382000  1.0
  C  C47  1  0.40955000  0.65583000  0.67618000  1.0
  C  C48  1  0.01244000  0.51846000  0.67455000  1.0
  C  C49  1  0.48756000  0.01845000  0.32545000  1.0
  C  C50  1  0.98756000  0.48154000  0.32545000  1.0
  C  C51  1  0.51244000  0.98154000  0.67455000  1.0
  C  C52  1  0.07363000  0.02258000  0.60442000  1.0
  C  C53  1  0.42637000  0.52258000  0.39558000  1.0
  C  C54  1  0.92637000  0.97742000  0.39558000  1.0
  C  C55  1  0.57363000  0.47742000  0.60442000  1.0
  C  C56  1  0.16566000  0.32552000  0.72629000  1.0
  C  C57  1  0.33434000  0.82552000  0.27371000  1.0
  C  C58  1  0.83434000  0.67448000  0.27371000  1.0
  C  C59  1  0.66566000  0.17447000  0.72629000  1.0
  C  C60  1  0.95793000  0.92416000  0.58541000  1.0
  C  C61  1  0.54206000  0.42416000  0.41459000  1.0
  C  C62  1  0.04206000  0.07584000  0.41459000  1.0
  C  C63  1  0.45793000  0.57584000  0.58541000  1.0
  C  C64  1  0.97232000  0.41101000  0.83201000  1.0
  C  C65  1  0.52768000  0.91101000  0.16799000  1.0
  C  C66  1  0.02768000  0.58899000  0.16799000  1.0
  C  C67  1  0.47232000  0.08899000  0.83201000  1.0
  C  C68  1  0.11568000  0.09756000  0.51976000  1.0
  C  C69  1  0.38432000  0.59756000  0.48024000  1.0
  C  C70  1  0.88432000  0.90244000  0.48024000  1.0
  C  C71  1  0.61568000  0.40244000  0.51976000  1.0
  C  C72  1  0.12569000  0.42664000  0.65259000  1.0
  C  C73  1  0.37431000  0.92663000  0.34741000  1.0
  C  C74  1  0.87431000  0.57337000  0.34741000  1.0
  C  C75  1  0.62569000  0.07337000  0.65259000  1.0
  N  N76  1  0.78066000  0.33603000  0.06064000  1.0
  N  N77  1  0.71934000  0.83603000  0.93936000  1.0
  N  N78  1  0.21934000  0.66397000  0.93936000  1.0
  N  N79  1  0.28066000  0.16397000  0.06064000  1.0
  N  N80  1  0.89121000  0.30619000  0.99412000  1.0
  N  N81  1  0.60879000  0.80619000  0.00587000  1.0
  N  N82  1  0.10879000  0.69381000  0.00588000  1.0
  N  N83  1  0.39121000  0.19381000  0.99413000  1.0
  N  N84  1  0.93828000  0.51188000  0.76275000  1.0
  N  N85  1  0.56172000  0.01188000  0.23725000  1.0
  N  N86  1  0.06172000  0.48812000  0.23725000  1.0
  N  N87  1  0.43828000  0.98812000  0.76275000  1.0
  N  N88  1  0.76962000  0.49635000  0.93988000  1.0
  N  N89  1  0.73039000  0.99635000  0.06011000  1.0
  N  N90  1  0.23038000  0.50365000  0.06011000  1.0
  N  N91  1  0.26961000  0.00365000  0.93989000  1.0
  O  O92  1  0.99214000  0.84841000  0.76886000  1.0
  O  O93  1  0.50786000  0.34841000  0.23114000  1.0
  O  O94  1  0.00786000  0.15159000  0.23114000  1.0
  O  O95  1  0.49214000  0.65159000  0.76886000  1.0
  O  O96  1  0.78354000  0.77496000  0.65714000  1.0
  O  O97  1  0.71646000  0.27496000  0.34286000  1.0
  O  O98  1  0.21646000  0.22504000  0.34286000  1.0
  O  O99  1  0.28354000  0.72504000  0.65714000  1.0
