# generated using pymatgen
data_AgH16C15SN2(OF)3
_symmetry_space_group_name_H-M   'P 1'
_cell_length_a   9.17244000
_cell_length_b   9.18479000
_cell_length_c   11.10220000
_cell_angle_alpha   101.49100000
_cell_angle_beta   103.87100000
_cell_angle_gamma   106.16200000
_symmetry_Int_Tables_number   1
_chemical_formula_structural   AgH16C15SN2(OF)3
_chemical_formula_sum   'Ag2 H32 C30 S2 N4 O6 F6'
_cell_volume   835.93860000
_cell_formula_units_Z   2
loop_
 _symmetry_equiv_pos_site_id
 _symmetry_equiv_pos_as_xyz
  1  'x, y, z'
loop_
 _atom_site_type_symbol
 _atom_site_label
 _atom_site_symmetry_multiplicity
 _atom_site_fract_x
 _atom_site_fract_y
 _atom_site_fract_z
 _atom_site_occupancy
  Ag  Ag0  1  0.33845000  0.69469000  0.43369000  1.0
  Ag  Ag1  1  0.66154000  0.30531000  0.56631000  1.0
  H  H2  1  0.17461000  0.99452000  0.76467000  1.0
  H  H3  1  0.82538000  0.00548000  0.23533000  1.0
  H  H4  1  0.32616000  0.16964000  0.77684000  1.0
  H  H5  1  0.67383000  0.83036000  0.22316000  1.0
  H  H6  1  0.18448000  0.73847000  0.73440000  1.0
  H  H7  1  0.81552000  0.26153000  0.26561000  1.0
  H  H8  1  0.09610000  0.77275000  0.85772000  1.0
  H  H9  1  0.90390000  0.22725000  0.14228000  1.0
  H  H10  1  0.19823000  0.63452000  0.85009000  1.0
  H  H11  1  0.80177000  0.36548000  0.14991000  1.0
  H  H12  1  0.56049000  0.27421000  0.82359000  1.0
  H  H13  1  0.43951000  0.72579000  0.17641000  1.0
  H  H14  1  0.59703000  0.38927000  0.98286000  1.0
  H  H15  1  0.40297000  0.61074000  0.01714000  1.0
  H  H16  1  0.74564000  0.32031000  0.94224000  1.0
  H  H17  1  0.25436000  0.67969000  0.05776000  1.0
  H  H18  1  0.39118000  0.25589000  0.14214000  1.0
  H  H19  1  0.60882000  0.74411000  0.85786000  1.0
  H  H20  1  0.30787000  0.32852000  0.01687000  1.0
  H  H21  1  0.69213000  0.67148000  0.98313000  1.0
  H  H22  1  0.12533000  0.28342000  0.83981000  1.0
  H  H23  1  0.87467000  0.71658000  0.16019000  1.0
  H  H24  1  0.04216000  0.36527000  0.95216000  1.0
  H  H25  1  0.95784000  0.63473000  0.04784000  1.0
  H  H26  1  0.91610000  0.23543000  0.79977000  1.0
  H  H27  1  0.08391000  0.76456000  0.20022000  1.0
  H  H28  1  0.31500000  0.17174000  0.29072000  1.0
  H  H29  1  0.68500000  0.82826000  0.70928000  1.0
  H  H30  1  0.19785000  0.99609000  0.30872000  1.0
  H  H31  1  0.80215000  0.00390000  0.69127000  1.0
  H  H32  1  0.33801000  0.99122000  0.22417000  1.0
  H  H33  1  0.66199000  0.00878000  0.77584000  1.0
  C  C34  1  0.40777000  0.02099000  0.89025000  1.0
  C  C35  1  0.59223000  0.97901000  0.10975000  1.0
  C  C36  1  0.35417000  0.87912000  0.92228000  1.0
  C  C37  1  0.64583000  0.12088000  0.07772000  1.0
  C  C38  1  0.55418000  0.14070000  0.96471000  1.0
  C  C39  1  0.44582000  0.85930000  0.03529000  1.0
  C  C40  1  0.30155000  0.04409000  0.77223000  1.0
  C  C41  1  0.69845000  0.95591000  0.22776000  1.0
  C  C42  1  0.32169000  0.96399000  0.65436000  1.0
  C  C43  1  0.67831000  0.03601000  0.34564000  1.0
  C  C44  1  0.20075000  0.75005000  0.83722000  1.0
  C  C45  1  0.79925000  0.24995000  0.16278000  1.0
  C  C46  1  0.61653000  0.28784000  0.92569000  1.0
  C  C47  1  0.38347000  0.71216000  0.07431000  1.0
  C  C48  1  0.13411000  0.13488000  0.04792000  1.0
  C  C49  1  0.86590000  0.86512000  0.95208000  1.0
  C  C50  1  0.01231000  0.12019000  0.93644000  1.0
  C  C51  1  0.98769000  0.87981000  0.06356000  1.0
  C  C52  1  0.12239000  0.01975000  0.11527000  1.0
  C  C53  1  0.87761000  0.98025000  0.88473000  1.0
  C  C54  1  0.28422000  0.28117000  0.09644000  1.0
  C  C55  1  0.71578000  0.71883000  0.90356000  1.0
  C  C56  1  0.26973000  0.40512000  0.19103000  1.0
  C  C57  1  0.73027000  0.59488000  0.80896000  1.0
  C  C58  1  0.02434000  0.25648000  0.87840000  1.0
  C  C59  1  0.97566000  0.74352000  0.12160000  1.0
  C  C60  1  0.24937000  0.04619000  0.24034000  1.0
  C  C61  1  0.75063000  0.95381000  0.75966000  1.0
  C  C62  1  0.89195000  0.68259000  0.44284000  1.0
  C  C63  1  0.10805000  0.31741000  0.55716000  1.0
  S  S64  1  0.67203000  0.59542000  0.35822000  1.0
  S  S65  1  0.32797000  0.40457000  0.64178000  1.0
  N  N66  1  0.34071000  0.89283000  0.56397000  1.0
  N  N67  1  0.65929000  0.10717000  0.43603000  1.0
  N  N68  1  0.25473000  0.50188000  0.26737000  1.0
  N  N69  1  0.74527000  0.49812000  0.73263000  1.0
  O  O70  1  0.61686000  0.71531000  0.42206000  1.0
  O  O71  1  0.38314000  0.28469000  0.57793000  1.0
  O  O72  1  0.62262000  0.44187000  0.38303000  1.0
  O  O73  1  0.37738000  0.55814000  0.61697000  1.0
  O  O74  1  0.65884000  0.58612000  0.22271000  1.0
  O  O75  1  0.34116000  0.41388000  0.77729000  1.0
  F  F76  1  0.96951000  0.58856000  0.39779000  1.0
  F  F77  1  0.03049000  0.41143000  0.60222000  1.0
  F  F78  1  0.95300000  0.82666000  0.42442000  1.0
  F  F79  1  0.04701000  0.17333000  0.57558000  1.0
  F  F80  1  0.92496000  0.70354000  0.57233000  1.0
  F  F81  1  0.07503000  0.29646000  0.42768000  1.0
