# generated using pymatgen
data_CdH12C14(NO2)2
_symmetry_space_group_name_H-M   'P 1'
_cell_length_a   9.78382000
_cell_length_b   9.83736000
_cell_length_c   15.87400000
_cell_angle_alpha   90.00000000
_cell_angle_beta   90.00000000
_cell_angle_gamma   106.20600000
_symmetry_Int_Tables_number   1
_chemical_formula_structural   CdH12C14(NO2)2
_chemical_formula_sum   'Cd4 H48 C56 N8 O16'
_cell_volume   1467.11532125
_cell_formula_units_Z   4
loop_
 _symmetry_equiv_pos_site_id
 _symmetry_equiv_pos_as_xyz
  1  'x, y, z'
loop_
 _atom_site_type_symbol
 _atom_site_label
 _atom_site_symmetry_multiplicity
 _atom_site_fract_x
 _atom_site_fract_y
 _atom_site_fract_z
 _atom_site_occupancy
  Cd  Cd0  1  0.58445000  0.41556000  0.59175000  1.0
  Cd  Cd1  1  0.91556000  0.08444000  0.09175000  1.0
  Cd  Cd2  1  0.08444000  0.91556000  0.90825000  1.0
  Cd  Cd3  1  0.41555000  0.58444000  0.40825000  1.0
  H  H4  1  0.86883000  0.53982000  0.47795000  1.0
  H  H5  1  0.63117000  0.96018000  0.97795000  1.0
  H  H6  1  0.96113000  0.63172000  0.02233000  1.0
  H  H7  1  0.53887000  0.86828000  0.52233000  1.0
  H  H8  1  0.13117000  0.46018000  0.52205000  1.0
  H  H9  1  0.36883000  0.03982000  0.02205000  1.0
  H  H10  1  0.03887000  0.36828000  0.97767000  1.0
  H  H11  1  0.46113000  0.13172000  0.47767000  1.0
  H  H12  1  0.08835000  0.74085000  0.47343000  1.0
  H  H13  1  0.41165000  0.75915000  0.97343000  1.0
  H  H14  1  0.75982000  0.41245000  0.02650000  1.0
  H  H15  1  0.74017000  0.08756000  0.52650000  1.0
  H  H16  1  0.91165000  0.25915000  0.52657000  1.0
  H  H17  1  0.58835000  0.24085000  0.02657000  1.0
  H  H18  1  0.24018000  0.58756000  0.97350000  1.0
  H  H19  1  0.25982000  0.91244000  0.47350000  1.0
  H  H20  1  0.92436000  0.91179000  0.69135000  1.0
  H  H21  1  0.57564000  0.58821000  0.19135000  1.0
  H  H22  1  0.58753000  0.57500000  0.80855000  1.0
  H  H23  1  0.91247000  0.92500000  0.30855000  1.0
  H  H24  1  0.07564000  0.08821000  0.30865000  1.0
  H  H25  1  0.42436000  0.41179000  0.80865000  1.0
  H  H26  1  0.41246000  0.42500000  0.19145000  1.0
  H  H27  1  0.08754000  0.07500000  0.69145000  1.0
  H  H28  1  0.71083000  0.70547000  0.68283000  1.0
  H  H29  1  0.78917000  0.79453000  0.18283000  1.0
  H  H30  1  0.79396000  0.78822000  0.81743000  1.0
  H  H31  1  0.70604000  0.71178000  0.31743000  1.0
  H  H32  1  0.28917000  0.29453000  0.31717000  1.0
  H  H33  1  0.21083000  0.20547000  0.81717000  1.0
  H  H34  1  0.20604000  0.21178000  0.18257000  1.0
  H  H35  1  0.29396000  0.28823000  0.68257000  1.0
  H  H36  1  0.78091000  0.07131000  0.70502000  1.0
  H  H37  1  0.71909000  0.42869000  0.20502000  1.0
  H  H38  1  0.42933000  0.71897000  0.79498000  1.0
  H  H39  1  0.07067000  0.78103000  0.29498000  1.0
  H  H40  1  0.21909000  0.92869000  0.29498000  1.0
  H  H41  1  0.28091000  0.57132000  0.79498000  1.0
  H  H42  1  0.57067000  0.28103000  0.20502000  1.0
  H  H43  1  0.92933000  0.21897000  0.70502000  1.0
  H  H44  1  0.70557000  0.14662000  0.84737000  1.0
  H  H45  1  0.79443000  0.35338000  0.34737000  1.0
  H  H46  1  0.35356000  0.79382000  0.65261000  1.0
  H  H47  1  0.14644000  0.70618000  0.15261000  1.0
  H  H48  1  0.29443000  0.85338000  0.15263000  1.0
  H  H49  1  0.20557000  0.64662000  0.65263000  1.0
  H  H50  1  0.64644000  0.20618000  0.34739000  1.0
  H  H51  1  0.85356000  0.29382000  0.84739000  1.0
  C  C52  1  0.88549000  0.62611000  0.52343000  1.0
  C  C53  1  0.61451000  0.87389000  0.02343000  1.0
  C  C54  1  0.87446000  0.61485000  0.97678000  1.0
  C  C55  1  0.62554000  0.88515000  0.47678000  1.0
  C  C56  1  0.11451000  0.37389000  0.47657000  1.0
  C  C57  1  0.38549000  0.12611000  0.97657000  1.0
  C  C58  1  0.12554000  0.38516000  0.02322000  1.0
  C  C59  1  0.37446000  0.11485000  0.52322000  1.0
  C  C60  1  0.00793000  0.73968000  0.52143000  1.0
  C  C61  1  0.49207000  0.76032000  0.02143000  1.0
  C  C62  1  0.76086000  0.49255000  0.97860000  1.0
  C  C63  1  0.73914000  0.00745000  0.47860000  1.0
  C  C64  1  0.99207000  0.26032000  0.47857000  1.0
  C  C65  1  0.50793000  0.23968000  0.97857000  1.0
  C  C66  1  0.23914000  0.50745000  0.02140000  1.0
  C  C67  1  0.26086000  0.99255000  0.52140000  1.0
  C  C68  1  0.02562000  0.84862000  0.58136000  1.0
  C  C69  1  0.47438000  0.65138000  0.08136000  1.0
  C  C70  1  0.65142000  0.47444000  0.91862000  1.0
  C  C71  1  0.84858000  0.02556000  0.41862000  1.0
  C  C72  1  0.97438000  0.15138000  0.41864000  1.0
  C  C73  1  0.52562000  0.34862000  0.91864000  1.0
  C  C74  1  0.34858000  0.52556000  0.08138000  1.0
  C  C75  1  0.15142000  0.97444000  0.58138000  1.0
  C  C76  1  0.91690000  0.83452000  0.64123000  1.0
  C  C77  1  0.58310000  0.66548000  0.14123000  1.0
  C  C78  1  0.66506000  0.58263000  0.85878000  1.0
  C  C79  1  0.83494000  0.91737000  0.35878000  1.0
  C  C80  1  0.08310000  0.16548000  0.35877000  1.0
  C  C81  1  0.41690000  0.33452000  0.85877000  1.0
  C  C82  1  0.33494000  0.41737000  0.14122000  1.0
  C  C83  1  0.16506000  0.08263000  0.64122000  1.0
  C  C84  1  0.79776000  0.71841000  0.63790000  1.0
  C  C85  1  0.70224000  0.78159000  0.13790000  1.0
  C  C86  1  0.78124000  0.70166000  0.86230000  1.0
  C  C87  1  0.71876000  0.79834000  0.36230000  1.0
  C  C88  1  0.20224000  0.28159000  0.36210000  1.0
  C  C89  1  0.29776000  0.21841000  0.86210000  1.0
  C  C90  1  0.21875000  0.29834000  0.13770000  1.0
  C  C91  1  0.28125000  0.20166000  0.63770000  1.0
  C  C92  1  0.73341000  0.26650000  0.68401000  1.0
  C  C93  1  0.76659000  0.23350000  0.18401000  1.0
  C  C94  1  0.23341000  0.76650000  0.81599000  1.0
  C  C95  1  0.26659000  0.73350000  0.31599000  1.0
  C  C96  1  0.81913000  0.18091000  0.72807000  1.0
  C  C97  1  0.68087000  0.31908000  0.22807000  1.0
  C  C98  1  0.31913000  0.68092000  0.77193000  1.0
  C  C99  1  0.18087000  0.81908000  0.27193000  1.0
  C  C100  1  0.81542000  0.18457000  0.82373000  1.0
  C  C101  1  0.68458000  0.31543000  0.32373000  1.0
  C  C102  1  0.31542000  0.68458000  0.67627000  1.0
  C  C103  1  0.18458000  0.81542000  0.17627000  1.0
  C  C104  1  0.90283000  0.09714000  0.86463000  1.0
  C  C105  1  0.59717000  0.40286000  0.36463000  1.0
  C  C106  1  0.40283000  0.59714000  0.63537000  1.0
  C  C107  1  0.09717000  0.90286000  0.13537000  1.0
  N  N108  1  0.78086000  0.61517000  0.58011000  1.0
  N  N109  1  0.71915000  0.88483000  0.08011000  1.0
  N  N110  1  0.88491000  0.71898000  0.92020000  1.0
  N  N111  1  0.61508000  0.78102000  0.42020000  1.0
  N  N112  1  0.21914000  0.38483000  0.41989000  1.0
  N  N113  1  0.28086000  0.11517000  0.91989000  1.0
  N  N114  1  0.11509000  0.28102000  0.07980000  1.0
  N  N115  1  0.38492000  0.21898000  0.57980000  1.0
  O  O116  1  0.73489000  0.26503000  0.60293000  1.0
  O  O117  1  0.76511000  0.23497000  0.10293000  1.0
  O  O118  1  0.23489000  0.76503000  0.89707000  1.0
  O  O119  1  0.26511000  0.73497000  0.39707000  1.0
  O  O120  1  0.66505000  0.33493000  0.72613000  1.0
  O  O121  1  0.83495000  0.16507000  0.22613000  1.0
  O  O122  1  0.16504000  0.83493000  0.77387000  1.0
  O  O123  1  0.33495000  0.66507000  0.27387000  1.0
  O  O124  1  0.96833000  0.03138000  0.81660000  1.0
  O  O125  1  0.53167000  0.46862000  0.31660000  1.0
  O  O126  1  0.46833000  0.53138000  0.68340000  1.0
  O  O127  1  0.03167000  0.96862000  0.18340000  1.0
  O  O128  1  0.90834000  0.09163000  0.94414000  1.0
  O  O129  1  0.59166000  0.40837000  0.44414000  1.0
  O  O130  1  0.40834000  0.59163000  0.55586000  1.0
  O  O131  1  0.09166000  0.90837000  0.05586000  1.0
