# generated using pymatgen
data_CoH30(C22O9)2
_symmetry_space_group_name_H-M   'P 1'
_cell_length_a   9.17896000
_cell_length_b   10.00650000
_cell_length_c   10.44730000
_cell_angle_alpha   84.09000000
_cell_angle_beta   76.84510000
_cell_angle_gamma   71.02680000
_symmetry_Int_Tables_number   1
_chemical_formula_structural   CoH30(C22O9)2
_chemical_formula_sum   'Co1 H30 C44 O18'
_cell_volume   883.19343994
_cell_formula_units_Z   1
loop_
 _symmetry_equiv_pos_site_id
 _symmetry_equiv_pos_as_xyz
  1  'x, y, z'
loop_
 _atom_site_type_symbol
 _atom_site_label
 _atom_site_symmetry_multiplicity
 _atom_site_fract_x
 _atom_site_fract_y
 _atom_site_fract_z
 _atom_site_occupancy
  Co  Co0  1  0.00000000  0.00000000  0.50000000  1.0
  H  H1  1  0.03836000  0.94828000  0.09158000  1.0
  H  H2  1  0.96164000  0.05172000  0.90842000  1.0
  H  H3  1  0.39120000  0.17669000  0.47999000  1.0
  H  H4  1  0.60881000  0.82331000  0.52002000  1.0
  H  H5  1  0.09416000  0.29384000  0.71785000  1.0
  H  H6  1  0.90585000  0.70616000  0.28215000  1.0
  H  H7  1  0.76102000  0.02329000  0.43692000  1.0
  H  H8  1  0.23898000  0.97670000  0.56308000  1.0
  H  H9  1  0.87035000  0.05540000  0.30248000  1.0
  H  H10  1  0.12965000  0.94460000  0.69752000  1.0
  H  H11  1  0.41990000  0.99028000  0.73103000  1.0
  H  H12  1  0.58010000  0.00972000  0.26897000  1.0
  H  H13  1  0.41584000  0.79021000  0.11608000  1.0
  H  H14  1  0.58415000  0.20979000  0.88392000  1.0
  H  H15  1  0.70584000  0.69610000  0.06323000  1.0
  H  H16  1  0.29415000  0.30390000  0.93677000  1.0
  H  H17  1  0.91129000  0.67464000  0.63382000  1.0
  H  H18  1  0.08871000  0.32536000  0.36618000  1.0
  H  H19  1  0.19339000  0.54936000  0.58406000  1.0
  H  H20  1  0.80661000  0.45064000  0.41594000  1.0
  H  H21  1  0.21944000  0.60172000  0.98219000  1.0
  H  H22  1  0.78056000  0.39828000  0.01781000  1.0
  H  H23  1  0.93842000  0.73267000  0.03060000  1.0
  H  H24  1  0.06158000  0.26733000  0.96940000  1.0
  H  H25  1  0.69202000  0.23538000  0.56221000  1.0
  H  H26  1  0.30799000  0.76461000  0.43779000  1.0
  H  H27  1  0.73291000  0.51760000  0.82583000  1.0
  H  H28  1  0.26709000  0.48240000  0.17417000  1.0
  H  H29  1  0.44513000  0.63098000  0.86862000  1.0
  H  H30  1  0.55487000  0.36902000  0.13138000  1.0
  C  C31  1  0.72899000  0.92939000  0.64786000  1.0
  C  C32  1  0.27100000  0.07061000  0.35214000  1.0
  C  C33  1  0.64789000  0.87738000  0.77470000  1.0
  C  C34  1  0.35211000  0.12262000  0.22530000  1.0
  C  C35  1  0.48314000  0.92418000  0.80300000  1.0
  C  C36  1  0.51685000  0.07582000  0.19700000  1.0
  C  C37  1  0.39829000  0.89182000  0.92492000  1.0
  C  C38  1  0.60171000  0.10818000  0.07508000  1.0
  C  C39  1  0.22428000  0.93846000  0.95322000  1.0
  C  C40  1  0.77572000  0.06154000  0.04677000  1.0
  C  C41  1  0.48073000  0.81353000  0.02014000  1.0
  C  C42  1  0.51926000  0.18647000  0.97985000  1.0
  C  C43  1  0.64397000  0.76185000  0.99029000  1.0
  C  C44  1  0.35603000  0.23815000  0.00971000  1.0
  C  C45  1  0.73131000  0.78881000  0.86677000  1.0
  C  C46  1  0.26869000  0.21119000  0.13323000  1.0
  C  C47  1  0.90252000  0.71563000  0.83564000  1.0
  C  C48  1  0.09748000  0.28437000  0.16437000  1.0
  C  C49  1  0.97795000  0.66011000  0.71087000  1.0
  C  C50  1  0.02205000  0.33989000  0.28913000  1.0
  C  C51  1  0.13763000  0.58681000  0.68308000  1.0
  C  C52  1  0.86237000  0.41319000  0.31692000  1.0
  C  C53  1  0.22880000  0.56419000  0.77918000  1.0
  C  C54  1  0.77120000  0.43581000  0.22082000  1.0
  C  C55  1  0.15308000  0.61852000  0.90452000  1.0
  C  C56  1  0.84692000  0.38148000  0.09548000  1.0
  C  C57  1  0.99307000  0.69217000  0.93245000  1.0
  C  C58  1  0.00693000  0.30783000  0.06755000  1.0
  C  C59  1  0.39999000  0.49155000  0.74940000  1.0
  C  C60  1  0.60001000  0.50845000  0.25060000  1.0
  C  C61  1  0.47312000  0.37728000  0.66290000  1.0
  C  C62  1  0.52688000  0.62273000  0.33710000  1.0
  C  C63  1  0.38419000  0.29496000  0.62005000  1.0
  C  C64  1  0.61581000  0.70504000  0.37995000  1.0
  C  C65  1  0.63706000  0.32053000  0.63134000  1.0
  C  C66  1  0.36294000  0.67947000  0.36867000  1.0
  C  C67  1  0.73132000  0.36730000  0.69254000  1.0
  C  C68  1  0.26868000  0.63270000  0.30746000  1.0
  C  C69  1  0.90362000  0.29731000  0.66507000  1.0
  C  C70  1  0.09638000  0.70269000  0.33494000  1.0
  C  C71  1  0.66006000  0.47842000  0.78013000  1.0
  C  C72  1  0.33994000  0.52158000  0.21987000  1.0
  C  C73  1  0.49793000  0.54074000  0.80513000  1.0
  C  C74  1  0.50207000  0.45926000  0.19487000  1.0
  O  O75  1  0.85025000  0.96471000  0.64956000  1.0
  O  O76  1  0.14975000  0.03529000  0.35045000  1.0
  O  O77  1  0.66862000  0.94078000  0.54649000  1.0
  O  O78  1  0.33138000  0.05922000  0.45351000  1.0
  O  O79  1  0.14492000  0.99770000  0.86808000  1.0
  O  O80  1  0.85508000  0.00230000  0.13191000  1.0
  O  O81  1  0.15946000  0.91210000  0.07525000  1.0
  O  O82  1  0.84054000  0.08790000  0.92475000  1.0
  O  O83  1  0.43603000  0.25432000  0.49738000  1.0
  O  O84  1  0.56397000  0.74568000  0.50262000  1.0
  O  O85  1  0.27927000  0.25921000  0.69976000  1.0
  O  O86  1  0.72074000  0.74079000  0.30024000  1.0
  O  O87  1  0.97507000  0.21227000  0.57646000  1.0
  O  O88  1  0.02493000  0.78774000  0.42355000  1.0
  O  O89  1  0.97606000  0.33659000  0.74464000  1.0
  O  O90  1  0.02394000  0.66341000  0.25537000  1.0
  O  O91  1  0.83724000  0.07767000  0.39608000  1.0
  O  O92  1  0.16276000  0.92233000  0.60393000  1.0
