# generated using pymatgen
data_Zn4H8C25S4O17
_symmetry_space_group_name_H-M   'P 1'
_cell_length_a   19.64380000
_cell_length_b   19.68250000
_cell_length_c   33.27570000
_cell_angle_alpha   79.20730000
_cell_angle_beta   79.32450000
_cell_angle_gamma   64.03330000
_symmetry_Int_Tables_number   1
_chemical_formula_structural   Zn4H8C25S4O17
_chemical_formula_sum   'Zn16 H32 C100 S16 O68'
_cell_volume   11284.34442243
_cell_formula_units_Z   4
loop_
 _symmetry_equiv_pos_site_id
 _symmetry_equiv_pos_as_xyz
  1  'x, y, z'
loop_
 _atom_site_type_symbol
 _atom_site_label
 _atom_site_symmetry_multiplicity
 _atom_site_fract_x
 _atom_site_fract_y
 _atom_site_fract_z
 _atom_site_occupancy
  Zn  Zn0  1  0.05585000  0.40074000  0.47929000  1.0
  Zn  Zn1  1  0.98456000  0.48349000  0.56015000  1.0
  Zn  Zn2  1  0.05702000  0.56420000  0.48192000  1.0
  Zn  Zn3  1  0.89985000  0.55614000  0.47888000  1.0
  Zn  Zn4  1  0.69322000  0.35084000  0.27139000  1.0
  Zn  Zn5  1  0.68653000  0.19355000  0.26676000  1.0
  Zn  Zn6  1  0.76999000  0.26561000  0.18950000  1.0
  Zn  Zn7  1  0.84699000  0.19609000  0.27264000  1.0
  Zn  Zn8  1  0.26748000  0.76723000  0.68932000  1.0
  Zn  Zn9  1  0.34998000  0.69603000  0.77078000  1.0
  Zn  Zn10  1  0.19211000  0.84793000  0.77199000  1.0
  Zn  Zn11  1  0.19278000  0.68676000  0.76666000  1.0
  Zn  Zn12  1  0.56135000  0.05922000  0.98294000  1.0
  Zn  Zn13  1  0.40133000  0.05578000  0.97799000  1.0
  Zn  Zn14  1  0.55467000  0.90116000  0.97789000  1.0
  Zn  Zn15  1  0.48476000  0.98174000  0.06024000  1.0
  H  H16  1  0.95519000  0.25299000  0.34842000  1.0
  H  H17  1  0.74073000  0.44876000  0.35710000  1.0
  H  H18  1  0.00299000  0.30219000  0.39667000  1.0
  H  H19  1  0.09310000  0.60302000  0.69929000  1.0
  H  H20  1  0.21364000  0.69019000  0.59755000  1.0
  H  H21  1  0.04580000  0.55593000  0.64971000  1.0
  H  H22  1  0.46241000  0.24188000  0.34185000  1.0
  H  H23  1  0.48078000  0.69418000  0.59986000  1.0
  H  H24  1  0.20596000  0.98010000  0.60216000  1.0
  H  H25  1  0.94616000  0.96951000  0.34450000  1.0
  H  H26  1  0.55742000  0.04314000  0.15268000  1.0
  H  H27  1  0.64067000  0.16306000  0.04879000  1.0
  H  H28  1  0.60544000  0.09361000  0.20009000  1.0
  H  H29  1  0.54911000  0.76891000  0.14776000  1.0
  H  H30  1  0.16330000  0.14479000  0.04148000  1.0
  H  H31  1  0.49639000  0.79427000  0.90199000  1.0
  H  H32  1  0.30061000  0.00874000  0.89362000  1.0
  H  H33  1  0.44693000  0.74782000  0.85325000  1.0
  H  H34  1  0.30292000  0.28098000  0.90122000  1.0
  H  H35  1  0.78630000  0.00943000  0.90605000  1.0
  H  H36  1  0.79092000  0.57336000  0.36278000  1.0
  H  H37  1  0.10433000  0.74468000  0.53191000  1.0
  H  H38  1  0.78738000  0.14887000  0.07659000  1.0
  H  H39  1  0.17608000  0.96238000  0.88868000  1.0
  H  H40  1  0.32501000  0.54075000  0.40515000  1.0
  H  H41  1  0.75697000  0.54393000  0.68434000  1.0
  H  H42  1  0.04275000  0.25645000  0.68514000  1.0
  H  H43  1  0.73733000  0.81780000  0.39097000  1.0
  H  H44  1  0.70426000  0.48925000  0.06546000  1.0
  H  H45  1  0.15016000  0.07127000  0.22175000  1.0
  H  H46  1  0.50921000  0.43505000  0.86378000  1.0
  H  H47  1  0.92538000  0.70284000  0.85368000  1.0
  C  C48  1  0.06098000  0.31665000  0.56279000  1.0
  C  C49  1  0.07159000  0.56970000  0.56795000  1.0
  C  C50  1  0.18180000  0.44051000  0.43855000  1.0
  C  C51  1  0.93380000  0.68654000  0.43850000  1.0
  C  C52  1  0.93046000  0.43093000  0.43131000  1.0
  C  C53  1  0.81775000  0.56064000  0.56218000  1.0
  C  C54  1  0.56491000  0.31302000  0.31270000  1.0
  C  C55  1  0.67969000  0.18286000  0.18038000  1.0
  C  C56  1  0.68860000  0.43281000  0.18761000  1.0
  C  C57  1  0.93692000  0.18840000  0.19090000  1.0
  C  C58  1  0.81702000  0.32048000  0.32053000  1.0
  C  C59  1  0.80766000  0.06674000  0.30976000  1.0
  C  C60  1  0.43428000  0.68645000  0.68723000  1.0
  C  C61  1  0.31818000  0.82101000  0.81841000  1.0
  C  C62  1  0.19157000  0.93381000  0.68903000  1.0
  C  C63  1  0.06495000  0.80702000  0.81001000  1.0
  C  C64  1  0.18289000  0.67942000  0.68004000  1.0
  C  C65  1  0.31587000  0.56723000  0.81266000  1.0
  C  C66  1  0.43960000  0.18395000  0.93848000  1.0
  C  C67  1  0.42943000  0.93204000  0.92995000  1.0
  C  C68  1  0.68440000  0.93783000  0.93841000  1.0
  C  C69  1  0.56178000  0.81475000  0.06077000  1.0
  C  C70  1  0.56988000  0.06921000  0.06935000  1.0
  C  C71  1  0.31698000  0.06059000  0.06153000  1.0
  C  C72  1  0.89905000  0.40245000  0.40372000  1.0
  C  C73  1  0.84557000  0.34869000  0.34968000  1.0
  C  C74  1  0.82427000  0.44444000  0.39301000  1.0
  C  C75  1  0.91934000  0.30646000  0.36099000  1.0
  C  C76  1  0.79838000  0.41734000  0.36576000  1.0
  C  C77  1  0.94564000  0.33355000  0.38770000  1.0
  C  C78  1  0.10310000  0.59664000  0.59625000  1.0
  C  C79  1  0.15526000  0.65007000  0.65105000  1.0
  C  C80  1  0.15107000  0.63422000  0.58097000  1.0
  C  C81  1  0.10865000  0.61153000  0.66619000  1.0
  C  C82  1  0.17633000  0.66113000  0.60860000  1.0
  C  C83  1  0.08273000  0.58539000  0.63882000  1.0
  C  C84  1  0.30270000  0.45616000  0.40247000  1.0
  C  C85  1  0.44533000  0.29846000  0.35012000  1.0
  C  C86  1  0.25660000  0.41653000  0.41419000  1.0
  C  C87  1  0.49052000  0.33810000  0.33792000  1.0
  C  C88  1  0.37700000  0.34112000  0.37365000  1.0
  C  C89  1  0.37164000  0.41265000  0.37906000  1.0
  C  C90  1  0.72729000  0.57659000  0.62997000  1.0
  C  C91  1  0.52526000  0.66770000  0.62022000  1.0
  C  C92  1  0.74358000  0.58386000  0.58713000  1.0
  C  C93  1  0.50925000  0.66069000  0.66267000  1.0
  C  C94  1  0.60464000  0.63662000  0.60810000  1.0
  C  C95  1  0.64752000  0.60680000  0.64183000  1.0
  C  C96  1  0.07697000  0.22653000  0.63091000  1.0
  C  C97  1  0.17677000  0.02475000  0.62219000  1.0
  C  C98  1  0.08638000  0.24267000  0.58806000  1.0
  C  C99  1  0.16692000  0.00903000  0.66464000  1.0
  C  C100  1  0.14429000  0.10388000  0.60976000  1.0
  C  C101  1  0.11023000  0.14687000  0.64320000  1.0
  C  C102  1  0.83831000  0.80244000  0.39721000  1.0
  C  C103  1  0.90128000  0.94958000  0.34976000  1.0
  C  C104  1  0.90814000  0.76018000  0.41293000  1.0
  C  C105  1  0.83211000  0.99161000  0.33422000  1.0
  C  C106  1  0.90399000  0.88047000  0.37245000  1.0
  C  C107  1  0.83632000  0.87136000  0.37389000  1.0
  C  C108  1  0.64984000  0.15610000  0.15112000  1.0
  C  C109  1  0.59726000  0.09957000  0.09800000  1.0
  C  C110  1  0.65984000  0.17665000  0.10825000  1.0
  C  C111  1  0.58629000  0.08027000  0.14066000  1.0
  C  C112  1  0.63379000  0.14772000  0.08202000  1.0
  C  C113  1  0.61267000  0.10835000  0.16684000  1.0
  C  C114  1  0.67348000  0.52198000  0.11930000  1.0
  C  C115  1  0.57733000  0.72416000  0.12774000  1.0
  C  C116  1  0.66432000  0.50654000  0.16220000  1.0
  C  C117  1  0.58657000  0.73972000  0.08528000  1.0
  C  C118  1  0.60873000  0.64505000  0.14023000  1.0
  C  C119  1  0.64144000  0.60168000  0.10687000  1.0
  C  C120  1  0.08403000  0.12243000  0.17967000  1.0
  C  C121  1  0.17128000  0.12653000  0.07385000  1.0
  C  C122  1  0.01182000  0.16332000  0.16648000  1.0
  C  C123  1  0.24274000  0.08572000  0.08699000  1.0
  C  C124  1  0.11329000  0.14010000  0.10747000  1.0
  C  C125  1  0.14198000  0.10925000  0.14571000  1.0
  C  C126  1  0.34658000  0.85188000  0.84631000  1.0
  C  C127  1  0.40075000  0.90391000  0.90085000  1.0
  C  C128  1  0.30457000  0.92616000  0.85735000  1.0
  C  C129  1  0.44284000  0.83046000  0.88938000  1.0
  C  C130  1  0.33190000  0.95138000  0.88481000  1.0
  C  C131  1  0.41559000  0.80489000  0.86238000  1.0
  C  C132  1  0.40990000  0.45048000  0.85453000  1.0
  C  C133  1  0.34743000  0.30116000  0.89738000  1.0
  C  C134  1  0.34130000  0.49288000  0.83758000  1.0
  C  C135  1  0.41556000  0.25907000  0.91398000  1.0
  C  C136  1  0.34516000  0.37083000  0.87566000  1.0
  C  C137  1  0.41186000  0.38049000  0.87629000  1.0
  C  C138  1  0.94517000  0.79116000  0.84881000  1.0
  C  C139  1  0.80343000  0.95190000  0.89919000  1.0
  C  C140  1  0.99036000  0.83121000  0.83469000  1.0
  C  C141  1  0.75875000  0.91212000  0.91317000  1.0
  C  C142  1  0.87130000  0.90818000  0.87566000  1.0
  C  C143  1  0.87690000  0.83560000  0.87227000  1.0
  C  C144  1  0.76732000  0.51492000  0.41197000  1.0
  C  C145  1  0.18230000  0.64223000  0.53619000  1.0
  C  C146  1  0.69197000  0.23378000  0.08877000  1.0
  C  C147  1  0.23390000  0.98312000  0.83841000  1.0
  S  S148  1  0.29750000  0.32704000  0.39694000  1.0
  S  S149  1  0.45042000  0.42752000  0.35498000  1.0
  S  S150  1  0.66199000  0.62671000  0.56175000  1.0
  S  S151  1  0.59036000  0.61622000  0.68833000  1.0
  S  S152  1  0.13587000  0.16093000  0.56323000  1.0
  S  S153  1  0.11846000  0.09009000  0.68989000  1.0
  S  S154  1  0.97052000  0.80438000  0.39926000  1.0
  S  S155  1  0.76973000  0.94750000  0.34696000  1.0
  S  S156  1  0.61709000  0.58853000  0.18691000  1.0
  S  S157  1  0.63356000  0.65836000  0.06016000  1.0
  S  S158  1  0.01518000  0.18530000  0.11302000  1.0
  S  S159  1  0.24017000  0.06363000  0.14031000  1.0
  S  S160  1  0.28009000  0.44726000  0.84822000  1.0
  S  S161  1  0.47743000  0.30376000  0.90344000  1.0
  S  S162  1  0.94949000  0.92229000  0.84997000  1.0
  S  S163  1  0.79861000  0.82132000  0.89783000  1.0
  O  O164  1  0.99984000  0.50069000  0.49968000  1.0
  O  O165  1  0.07979000  0.31536000  0.52374000  1.0
  O  O166  1  0.04175000  0.52377000  0.58437000  1.0
  O  O167  1  0.15378000  0.50585000  0.45102000  1.0
  O  O168  1  0.02260000  0.37555000  0.58145000  1.0
  O  O169  1  0.15119000  0.39289000  0.44508000  1.0
  O  O170  1  0.07640000  0.59618000  0.53002000  1.0
  O  O171  1  0.00217000  0.65945000  0.44783000  1.0
  O  O172  1  0.89250000  0.50042000  0.43753000  1.0
  O  O173  1  0.88672000  0.65607000  0.44926000  1.0
  O  O174  1  0.99240000  0.38406000  0.44550000  1.0
  O  O175  1  0.87686000  0.53398000  0.58106000  1.0
  O  O176  1  0.81613000  0.56989000  0.52309000  1.0
  O  O177  1  0.74881000  0.25153000  0.25001000  1.0
  O  O178  1  0.59602000  0.35997000  0.30425000  1.0
  O  O179  1  0.65482000  0.17510000  0.21834000  1.0
  O  O180  1  0.72342000  0.37346000  0.16908000  1.0
  O  O181  1  0.59178000  0.24661000  0.30138000  1.0
  O  O182  1  0.67235000  0.43510000  0.22672000  1.0
  O  O183  1  0.72836000  0.20987000  0.16470000  1.0
  O  O184  1  0.87950000  0.22385000  0.17024000  1.0
  O  O185  1  0.86031000  0.25436000  0.31005000  1.0
  O  O186  1  0.93483000  0.17320000  0.23000000  1.0
  O  O187  1  0.75217000  0.36478000  0.30856000  1.0
  O  O188  1  0.74195000  0.09366000  0.29708000  1.0
  O  O189  1  0.85391000  0.09826000  0.30350000  1.0
  O  O190  1  0.25043000  0.74987000  0.74974000  1.0
  O  O191  1  0.37592000  0.72183000  0.66767000  1.0
  O  O192  1  0.36641000  0.76099000  0.80306000  1.0
  O  O193  1  0.17533000  0.93316000  0.72815000  1.0
  O  O194  1  0.43464000  0.67098000  0.72638000  1.0
  O  O195  1  0.22655000  0.87614000  0.66904000  1.0
  O  O196  1  0.24791000  0.85694000  0.81311000  1.0
  O  O197  1  0.09299000  0.85672000  0.80132000  1.0
  O  O198  1  0.16823000  0.66109000  0.71843000  1.0
  O  O199  1  0.09539000  0.73995000  0.79948000  1.0
  O  O200  1  0.21864000  0.72042000  0.66384000  1.0
  O  O201  1  0.35952000  0.60176000  0.80631000  1.0
  O  O202  1  0.25093000  0.59097000  0.79942000  1.0
  O  O203  1  0.50026000  0.99972000  0.99979000  1.0
  O  O204  1  0.50637000  0.15582000  0.94990000  1.0
  O  O205  1  0.38610000  0.99768000  0.94107000  1.0
  O  O206  1  0.65280000  0.89129000  0.94636000  1.0
  O  O207  1  0.39216000  0.15361000  0.94617000  1.0
  O  O208  1  0.65814000  0.00378000  0.95015000  1.0
  O  O209  1  0.49489000  0.88786000  0.94121000  1.0
  O  O210  1  0.57584000  0.81507000  0.02159000  1.0
  O  O211  1  0.53285000  0.02953000  0.08580000  1.0
  O  O212  1  0.52863000  0.87276000  0.08058000  1.0
  O  O213  1  0.58603000  0.08551000  0.03086000  1.0
  O  O214  1  0.31626000  0.07731000  0.02257000  1.0
  O  O215  1  0.37570000  0.02404000  0.08096000  1.0
  O  O216  1  0.75363000  0.58238000  0.38732000  1.0
  O  O217  1  0.73008000  0.51303000  0.44521000  1.0
  O  O218  1  0.14937000  0.71295000  0.51496000  1.0
  O  O219  1  0.23754000  0.59231000  0.52035000  1.0
  O  O220  1  0.76508000  0.20416000  0.06990000  1.0
  O  O221  1  0.65433000  0.30203000  0.08621000  1.0
  O  O222  1  0.16675000  0.99823000  0.86354000  1.0
  O  O223  1  0.23542000  0.01889000  0.80463000  1.0
  O  O224  1  0.28204000  0.52677000  0.41224000  1.0
  O  O225  1  0.78166000  0.54459000  0.65613000  1.0
  O  O226  1  0.04058000  0.28084000  0.65678000  1.0
  O  O227  1  0.78131000  0.77900000  0.40381000  1.0
  O  O228  1  0.70899000  0.46687000  0.09407000  1.0
  O  O229  1  0.09563000  0.09888000  0.21982000  1.0
  O  O230  1  0.46642000  0.47425000  0.85017000  1.0
  O  O231  1  0.96525000  0.71933000  0.84075000  1.0
