# generated using pymatgen
data_CuH16C14(SN3)2
_symmetry_space_group_name_H-M   'P 1'
_cell_length_a   6.47876000
_cell_length_b   11.53230000
_cell_length_c   11.53360000
_cell_angle_alpha   102.97900000
_cell_angle_beta   89.99630000
_cell_angle_gamma   89.99620000
_symmetry_Int_Tables_number   1
_chemical_formula_structural   CuH16C14(SN3)2
_chemical_formula_sum   'Cu2 H32 C28 S4 N12'
_cell_volume   839.71779722
_cell_formula_units_Z   2
loop_
 _symmetry_equiv_pos_site_id
 _symmetry_equiv_pos_as_xyz
  1  'x, y, z'
loop_
 _atom_site_type_symbol
 _atom_site_label
 _atom_site_symmetry_multiplicity
 _atom_site_fract_x
 _atom_site_fract_y
 _atom_site_fract_z
 _atom_site_occupancy
  Cu  Cu0  1  0.66393000  0.63872000  0.63871000  1.0
  Cu  Cu1  1  0.16390000  0.36127000  0.36128000  1.0
  H  H2  1  0.69909000  0.95346000  0.20978000  1.0
  H  H3  1  0.19908000  0.04653000  0.79022000  1.0
  H  H4  1  0.19913000  0.79020000  0.04654000  1.0
  H  H5  1  0.69915000  0.20980000  0.95346000  1.0
  H  H6  1  0.91301000  0.68128000  0.43716000  1.0
  H  H7  1  0.41300000  0.31871000  0.56283000  1.0
  H  H8  1  0.41292000  0.56282000  0.31872000  1.0
  H  H9  1  0.91298000  0.43716000  0.68127000  1.0
  H  H10  1  0.89690000  0.80495000  0.28717000  1.0
  H  H11  1  0.39691000  0.19504000  0.71282000  1.0
  H  H12  1  0.39682000  0.71284000  0.19506000  1.0
  H  H13  1  0.89687000  0.28715000  0.80494000  1.0
  H  H14  1  0.31645000  0.94695000  0.44840000  1.0
  H  H15  1  0.81651000  0.05305000  0.55160000  1.0
  H  H16  1  0.81646000  0.55159000  0.05307000  1.0
  H  H17  1  0.31640000  0.44842000  0.94692000  1.0
  H  H18  1  0.36379000  0.82103000  0.59366000  1.0
  H  H19  1  0.86384000  0.17897000  0.40635000  1.0
  H  H20  1  0.86377000  0.40632000  0.17898000  1.0
  H  H21  1  0.36373000  0.59369000  0.82101000  1.0
  H  H22  1  0.25908000  0.97488000  0.25138000  1.0
  H  H23  1  0.75912000  0.02515000  0.74865000  1.0
  H  H24  1  0.75917000  0.74868000  0.02518000  1.0
  H  H25  1  0.25917000  0.25132000  0.97484000  1.0
  H  H26  1  0.42355000  0.06226000  0.18184000  1.0
  H  H27  1  0.92356000  0.93776000  0.81817000  1.0
  H  H28  1  0.92364000  0.81821000  0.93778000  1.0
  H  H29  1  0.42365000  0.18179000  0.06222000  1.0
  H  H30  1  0.39340000  0.09975000  0.33883000  1.0
  H  H31  1  0.89342000  0.90026000  0.66119000  1.0
  H  H32  1  0.89347000  0.66119000  0.90032000  1.0
  H  H33  1  0.39341000  0.33881000  0.09969000  1.0
  C  C34  1  0.66181000  0.42764000  0.42766000  1.0
  C  C35  1  0.16181000  0.57236000  0.57234000  1.0
  C  C36  1  0.49147000  0.83814000  0.83809000  1.0
  C  C37  1  0.99144000  0.16187000  0.16191000  1.0
  C  C38  1  0.78506000  0.74245000  0.43663000  1.0
  C  C39  1  0.28506000  0.25754000  0.56336000  1.0
  C  C40  1  0.28499000  0.56337000  0.25755000  1.0
  C  C41  1  0.78503000  0.43663000  0.74244000  1.0
  C  C42  1  0.77466000  0.81117000  0.35321000  1.0
  C  C43  1  0.27467000  0.18882000  0.64678000  1.0
  C  C44  1  0.27461000  0.64679000  0.18884000  1.0
  C  C45  1  0.77465000  0.35321000  0.81116000  1.0
  C  C46  1  0.60212000  0.88668000  0.35181000  1.0
  C  C47  1  0.10215000  0.11331000  0.64819000  1.0
  C  C48  1  0.10211000  0.64818000  0.11332000  1.0
  C  C49  1  0.60211000  0.35182000  0.88667000  1.0
  C  C50  1  0.45197000  0.89011000  0.44206000  1.0
  C  C51  1  0.95201000  0.10989000  0.55794000  1.0
  C  C52  1  0.95196000  0.55793000  0.10991000  1.0
  C  C53  1  0.45192000  0.44208000  0.89009000  1.0
  C  C54  1  0.47771000  0.81997000  0.52378000  1.0
  C  C55  1  0.97774000  0.18003000  0.47622000  1.0
  C  C56  1  0.97768000  0.47621000  0.18005000  1.0
  C  C57  1  0.47766000  0.52380000  0.81995000  1.0
  C  C58  1  0.40467000  0.02544000  0.26057000  1.0
  C  C59  1  0.90469000  0.97457000  0.73944000  1.0
  C  C60  1  0.90473000  0.73947000  0.97459000  1.0
  C  C61  1  0.40473000  0.26053000  0.02541000  1.0
  S  S62  1  0.58899000  0.32013000  0.32013000  1.0
  S  S63  1  0.08902000  0.67988000  0.67989000  1.0
  S  S64  1  0.35747000  0.93344000  0.93341000  1.0
  S  S65  1  0.85746000  0.06658000  0.06660000  1.0
  N  N66  1  0.71934000  0.50609000  0.50616000  1.0
  N  N67  1  0.21930000  0.49390000  0.49384000  1.0
  N  N68  1  0.59278000  0.76943000  0.76937000  1.0
  N  N69  1  0.09274000  0.23058000  0.23063000  1.0
  N  N70  1  0.63927000  0.74572000  0.52150000  1.0
  N  N71  1  0.13928000  0.25427000  0.47849000  1.0
  N  N72  1  0.13923000  0.47848000  0.25428000  1.0
  N  N73  1  0.63924000  0.52152000  0.74572000  1.0
  N  N74  1  0.58038000  0.94966000  0.26705000  1.0
  N  N75  1  0.08040000  0.05034000  0.73294000  1.0
  N  N76  1  0.08042000  0.73293000  0.05034000  1.0
  N  N77  1  0.58043000  0.26707000  0.94965000  1.0
