# generated using pymatgen
data_VH4C6NCl4
_symmetry_space_group_name_H-M   'P 1'
_cell_length_a   5.84297000
_cell_length_b   9.66308000
_cell_length_c   10.07340000
_cell_angle_alpha   116.22400000
_cell_angle_beta   94.25160000
_cell_angle_gamma   105.84000000
_symmetry_Int_Tables_number   1
_chemical_formula_structural   VH4C6NCl4
_chemical_formula_sum   'V2 H8 C12 N2 Cl8'
_cell_volume   478.18002997
_cell_formula_units_Z   2
loop_
 _symmetry_equiv_pos_site_id
 _symmetry_equiv_pos_as_xyz
  1  'x, y, z'
loop_
 _atom_site_type_symbol
 _atom_site_label
 _atom_site_symmetry_multiplicity
 _atom_site_fract_x
 _atom_site_fract_y
 _atom_site_fract_z
 _atom_site_occupancy
  V  V0  1  0.29220000  0.11302000  0.47122000  1.0
  V  V1  1  0.70779000  0.88698000  0.52877000  1.0
  H  H2  1  0.87921000  0.33083000  0.44713000  1.0
  H  H3  1  0.12079000  0.66918000  0.55287000  1.0
  H  H4  1  0.67228000  0.42978000  0.29894000  1.0
  H  H5  1  0.32772000  0.57023000  0.70106000  1.0
  H  H6  1  0.03938000  0.23354000  0.93924000  1.0
  H  H7  1  0.96063000  0.76646000  0.06076000  1.0
  H  H8  1  0.24733000  0.13440000  0.08726000  1.0
  H  H9  1  0.75267000  0.86561000  0.91275000  1.0
  C  C10  1  0.07303000  0.22434000  0.27523000  1.0
  C  C11  1  0.92698000  0.77565000  0.72477000  1.0
  C  C12  1  0.91212000  0.30967000  0.33588000  1.0
  C  C13  1  0.08788000  0.69033000  0.66412000  1.0
  C  C14  1  0.79659000  0.36394000  0.25325000  1.0
  C  C15  1  0.20341000  0.63607000  0.74675000  1.0
  C  C16  1  0.84131000  0.33406000  0.11000000  1.0
  C  C17  1  0.15871000  0.66593000  0.89000000  1.0
  C  C18  1  0.00430000  0.25279000  0.04962000  1.0
  C  C19  1  0.99569000  0.74721000  0.95037000  1.0
  C  C20  1  0.12056000  0.19816000  0.13197000  1.0
  C  C21  1  0.87944000  0.80184000  0.86803000  1.0
  N  N22  1  0.17733000  0.16715000  0.35572000  1.0
  N  N23  1  0.82267000  0.83284000  0.64429000  1.0
  Cl  Cl24  1  0.56645000  0.35478000  0.63237000  1.0
  Cl  Cl25  1  0.43355000  0.64522000  0.36763000  1.0
  Cl  Cl26  1  0.02011000  0.16188000  0.63955000  1.0
  Cl  Cl27  1  0.97990000  0.83812000  0.36045000  1.0
  Cl  Cl28  1  0.46799000  0.01325000  0.66530000  1.0
  Cl  Cl29  1  0.53201000  0.98675000  0.33470000  1.0
  Cl  Cl30  1  0.69305000  0.39904000  0.00704000  1.0
  Cl  Cl31  1  0.30695000  0.60096000  0.99295000  1.0
