# generated using pymatgen
data_AlH4C10SNO7
_symmetry_space_group_name_H-M   'P 1'
_cell_length_a   6.62578000
_cell_length_b   11.06157756
_cell_length_c   12.64890000
_cell_angle_alpha   90.20414989
_cell_angle_beta   104.10400000
_cell_angle_gamma   106.15085921
_symmetry_Int_Tables_number   1
_chemical_formula_structural   AlH4C10SNO7
_chemical_formula_sum   'Al2 H8 C20 S2 N2 O14'
_cell_volume   861.08949355
_cell_formula_units_Z   2
loop_
 _symmetry_equiv_pos_site_id
 _symmetry_equiv_pos_as_xyz
  1  'x, y, z'
loop_
 _atom_site_type_symbol
 _atom_site_label
 _atom_site_symmetry_multiplicity
 _atom_site_fract_x
 _atom_site_fract_y
 _atom_site_fract_z
 _atom_site_occupancy
  Al  Al0  1  0.01149000  0.50004000  0.50065000  1.0
  Al  Al1  1  0.50919000  0.49693000  0.49796000  1.0
  H  H2  1  0.37268000  0.63515000  0.59307000  1.0
  H  H3  1  0.66289000  0.41751000  0.36988000  1.0
  H  H4  1  0.25562000  0.55368000  0.84805000  1.0
  H  H5  1  0.75207000  0.42538000  0.14831000  1.0
  H  H6  1  0.51378000  0.76429000  0.34791000  1.0
  H  H7  1  0.75001000  0.23409000  0.38508000  1.0
  H  H8  1  0.37883000  0.11612000  0.57555000  1.0
  H  H9  1  0.25486000  0.87992000  0.56549000  1.0
  C  C10  1  0.86697000  0.72533000  0.48567000  1.0
  C  C11  1  0.84397000  0.49895000  0.69438000  1.0
  C  C12  1  0.14454000  0.27287000  0.50308000  1.0
  C  C13  1  0.16917000  0.48983000  0.30209000  1.0
  C  C14  1  0.11262000  0.52401000  0.87993000  1.0
  C  C15  1  0.89522000  0.45611000  0.11662000  1.0
  C  C16  1  0.90333000  0.49425000  0.81317000  1.0
  C  C17  1  0.10486000  0.48781000  0.18301000  1.0
  C  C18  1  0.89772000  0.46926000  0.00612000  1.0
  C  C19  1  0.10993000  0.51058000  0.99027000  1.0
  C  C20  1  0.92883000  0.86531000  0.47830000  1.0
  C  C21  1  0.77906000  0.93069000  0.42492000  1.0
  C  C22  1  0.14172000  0.93229000  0.52886000  1.0
  C  C23  1  0.56853000  0.86698000  0.35827000  1.0
  C  C24  1  0.43648000  0.93402000  0.30149000  1.0
  C  C25  1  0.06682000  0.13176000  0.49108000  1.0
  C  C26  1  0.21125000  0.06468000  0.53494000  1.0
  C  C27  1  0.84966000  0.06631000  0.43242000  1.0
  C  C28  1  0.70480000  0.13180000  0.37612000  1.0
  C  C29  1  0.50371000  0.06774000  0.31193000  1.0
  S  S30  1  0.70264000  0.44883000  0.88390000  1.0
  S  S31  1  0.30518000  0.53262000  0.11224000  1.0
  N  N32  1  0.23758000  0.86339000  0.21958000  1.0
  N  N33  1  0.35665000  0.14251000  0.26414000  1.0
  O  O34  1  0.00953000  0.67149000  0.47798000  1.0
  O  O35  1  0.64278000  0.47864000  0.64654000  1.0
  O  O36  1  0.33075000  0.32417000  0.48734000  1.0
  O  O37  1  0.01855000  0.46851000  0.35216000  1.0
  O  O38  1  0.01754000  0.32977000  0.52708000  1.0
  O  O39  1  0.37235000  0.51268000  0.34766000  1.0
  O  O40  1  0.68264000  0.67294000  0.50396000  1.0
  O  O41  1  0.99880000  0.52452000  0.64715000  1.0
  O  O42  1  0.31153000  0.55790000  0.54598000  1.0
  O  O43  1  0.71027000  0.44087000  0.44813000  1.0
  O  O44  1  0.11552000  0.77068000  0.24871000  1.0
  O  O45  1  0.21344000  0.90050000  0.12637000  1.0
  O  O46  1  0.43881000  0.25038000  0.23947000  1.0
  O  O47  1  0.16016000  0.09411000  0.25501000  1.0
