# generated using pymatgen
data_CdH7C9NO4
_symmetry_space_group_name_H-M   'P 1'
_cell_length_a   7.88155000
_cell_length_b   8.45630000
_cell_length_c   8.45630000
_cell_angle_alpha   114.94800000
_cell_angle_beta   104.63000000
_cell_angle_gamma   104.63000000
_symmetry_Int_Tables_number   1
_chemical_formula_structural   CdH7C9NO4
_chemical_formula_sum   'Cd2 H14 C18 N2 O8'
_cell_volume   451.12186312
_cell_formula_units_Z   2
loop_
 _symmetry_equiv_pos_site_id
 _symmetry_equiv_pos_as_xyz
  1  'x, y, z'
loop_
 _atom_site_type_symbol
 _atom_site_label
 _atom_site_symmetry_multiplicity
 _atom_site_fract_x
 _atom_site_fract_y
 _atom_site_fract_z
 _atom_site_occupancy
  Cd  Cd0  1  0.25000000  0.93917000  0.06083000  1.0
  Cd  Cd1  1  0.75000000  0.06083000  0.93917000  1.0
  H  H2  1  0.75000000  0.49382000  0.50618000  1.0
  H  H3  1  0.25000000  0.50618000  0.49382000  1.0
  H  H4  1  0.73367000  0.88147000  0.60313000  1.0
  H  H5  1  0.76633000  0.39687000  0.11853000  1.0
  H  H6  1  0.26634000  0.11853000  0.39688000  1.0
  H  H7  1  0.23367000  0.60313000  0.88147000  1.0
  H  H8  1  0.62054000  0.84472000  0.37206000  1.0
  H  H9  1  0.87946000  0.62794000  0.15528000  1.0
  H  H10  1  0.37946000  0.15528000  0.62794000  1.0
  H  H11  1  0.12054000  0.37206000  0.84472000  1.0
  H  H12  1  0.87231000  0.94450000  0.48674000  1.0
  H  H13  1  0.62769000  0.51326000  0.05550000  1.0
  H  H14  1  0.12770000  0.05550000  0.51326000  1.0
  H  H15  1  0.37231000  0.48674000  0.94450000  1.0
  C  C16  1  0.74313000  0.13758000  0.59697000  1.0
  C  C17  1  0.75687000  0.40303000  0.86242000  1.0
  C  C18  1  0.25687000  0.86242000  0.40303000  1.0
  C  C19  1  0.24313000  0.59697000  0.13758000  1.0
  C  C20  1  0.74113000  0.23274000  0.49503000  1.0
  C  C21  1  0.75887000  0.50497000  0.76726000  1.0
  C  C22  1  0.25886000  0.76726000  0.50497000  1.0
  C  C23  1  0.24113000  0.49503000  0.23274000  1.0
  C  C24  1  0.75000000  0.41755000  0.58246000  1.0
  C  C25  1  0.25000000  0.58245000  0.41754000  1.0
  C  C26  1  0.74181000  0.94173000  0.51202000  1.0
  C  C27  1  0.75819000  0.48797000  0.05827000  1.0
  C  C28  1  0.25819000  0.05827000  0.48797000  1.0
  C  C29  1  0.24181000  0.51203000  0.94173000  1.0
  C  C30  1  0.72429000  0.14181000  0.29285000  1.0
  C  C31  1  0.77571000  0.70715000  0.85819000  1.0
  C  C32  1  0.27571000  0.85818000  0.70714000  1.0
  C  C33  1  0.22429000  0.29285000  0.14181000  1.0
  N  N34  1  0.75000000  0.22389000  0.77611000  1.0
  N  N35  1  0.25000000  0.77611000  0.22389000  1.0
  O  O36  1  0.58879000  0.98049000  0.16499000  1.0
  O  O37  1  0.91121000  0.83501000  0.01951000  1.0
  O  O38  1  0.41121000  0.01951000  0.83501000  1.0
  O  O39  1  0.08879000  0.16499000  0.98049000  1.0
  O  O40  1  0.84841000  0.23873000  0.25951000  1.0
  O  O41  1  0.65160000  0.74050000  0.76127000  1.0
  O  O42  1  0.15159000  0.76127000  0.74049000  1.0
  O  O43  1  0.34840000  0.25950000  0.23873000  1.0
