# generated using pymatgen
data_ZnH9C8NO6
_symmetry_space_group_name_H-M   'P 1'
_cell_length_a   6.41181000
_cell_length_b   9.61318000
_cell_length_c   14.87070000
_cell_angle_alpha   93.87900000
_cell_angle_beta   90.00000000
_cell_angle_gamma   90.00000000
_symmetry_Int_Tables_number   1
_chemical_formula_structural   ZnH9C8NO6
_chemical_formula_sum   'Zn4 H36 C32 N4 O24'
_cell_volume   914.49867836
_cell_formula_units_Z   4
loop_
 _symmetry_equiv_pos_site_id
 _symmetry_equiv_pos_as_xyz
  1  'x, y, z'
loop_
 _atom_site_type_symbol
 _atom_site_label
 _atom_site_symmetry_multiplicity
 _atom_site_fract_x
 _atom_site_fract_y
 _atom_site_fract_z
 _atom_site_occupancy
  Zn  Zn0  1  0.98974000  0.64777000  0.37440000  1.0
  Zn  Zn1  1  0.48974000  0.35223000  0.12559000  1.0
  Zn  Zn2  1  0.01025000  0.35223000  0.62560000  1.0
  Zn  Zn3  1  0.51026000  0.64777000  0.87440000  1.0
  H  H4  1  0.64367000  0.61934000  0.43645000  1.0
  H  H5  1  0.14367000  0.38066000  0.06355000  1.0
  H  H6  1  0.35633000  0.38066000  0.56355000  1.0
  H  H7  1  0.85634000  0.61934000  0.93645000  1.0
  H  H8  1  0.78517000  0.57263000  0.51941000  1.0
  H  H9  1  0.28517000  0.42737000  0.98059000  1.0
  H  H10  1  0.21483000  0.42737000  0.48059000  1.0
  H  H11  1  0.71483000  0.57263000  0.01941000  1.0
  H  H12  1  0.30006000  0.74167000  0.46614000  1.0
  H  H13  1  0.80006000  0.25833000  0.03386000  1.0
  H  H14  1  0.69994000  0.25833000  0.53385000  1.0
  H  H15  1  0.19994000  0.74167000  0.96615000  1.0
  H  H16  1  0.19968000  0.62941000  0.52584000  1.0
  H  H17  1  0.69968000  0.37059000  0.97417000  1.0
  H  H18  1  0.80032000  0.37060000  0.47416000  1.0
  H  H19  1  0.30033000  0.62941000  0.02583000  1.0
  H  H20  1  0.81209000  0.24131000  0.21023000  1.0
  H  H21  1  0.31209000  0.75869000  0.28977000  1.0
  H  H22  1  0.18791000  0.75869000  0.78977000  1.0
  H  H23  1  0.68791000  0.24131000  0.71023000  1.0
  H  H24  1  0.71722000  0.38895000  0.25987000  1.0
  H  H25  1  0.21722000  0.61105000  0.24013000  1.0
  H  H26  1  0.28278000  0.61105000  0.74013000  1.0
  H  H27  1  0.78278000  0.38895000  0.75987000  1.0
  H  H28  1  0.80504000  0.04591000  0.29095000  1.0
  H  H29  1  0.30505000  0.95409000  0.20905000  1.0
  H  H30  1  0.19495000  0.95409000  0.70905000  1.0
  H  H31  1  0.69496000  0.04590000  0.79095000  1.0
  H  H32  1  0.25338000  0.96276000  0.44394000  1.0
  H  H33  1  0.75338000  0.03724000  0.05606000  1.0
  H  H34  1  0.74662000  0.03724000  0.55606000  1.0
  H  H35  1  0.24662000  0.96276000  0.94394000  1.0
  H  H36  1  0.11446000  0.19411000  0.41374000  1.0
  H  H37  1  0.61446000  0.80589000  0.08626000  1.0
  H  H38  1  0.88554000  0.80590000  0.58626000  1.0
  H  H39  1  0.38554000  0.19411000  0.91374000  1.0
  C  C40  1  0.37443000  0.25007000  0.33152000  1.0
  C  C41  1  0.87443000  0.74993000  0.16848000  1.0
  C  C42  1  0.62557000  0.74993000  0.66848000  1.0
  C  C43  1  0.12557000  0.25007000  0.83152000  1.0
  C  C44  1  0.56916000  0.20664000  0.29460000  1.0
  C  C45  1  0.06916000  0.79336000  0.20540000  1.0
  C  C46  1  0.43084000  0.79336000  0.70540000  1.0
  C  C47  1  0.93084000  0.20664000  0.79460000  1.0
  C  C48  1  0.65199000  0.07883000  0.31626000  1.0
  C  C49  1  0.15199000  0.92117000  0.18374000  1.0
  C  C50  1  0.34801000  0.92117000  0.68374000  1.0
  C  C51  1  0.84801000  0.07882000  0.81626000  1.0
  C  C52  1  0.54080000  0.99021000  0.36952000  1.0
  C  C53  1  0.04080000  0.00979000  0.13048000  1.0
  C  C54  1  0.45920000  0.00979000  0.63048000  1.0
  C  C55  1  0.95920000  0.99021000  0.86952000  1.0
  C  C56  1  0.34370000  0.03045000  0.40292000  1.0
  C  C57  1  0.84371000  0.96955000  0.09708000  1.0
  C  C58  1  0.65629000  0.96955000  0.59708000  1.0
  C  C59  1  0.15629000  0.03045000  0.90292000  1.0
  C  C60  1  0.26504000  0.16080000  0.38571000  1.0
  C  C61  1  0.76505000  0.83920000  0.11429000  1.0
  C  C62  1  0.73495000  0.83920000  0.61429000  1.0
  C  C63  1  0.23495000  0.16080000  0.88571000  1.0
  C  C64  1  0.27489000  0.38586000  0.31225000  1.0
  C  C65  1  0.77489000  0.61414000  0.18775000  1.0
  C  C66  1  0.72511000  0.61415000  0.68775000  1.0
  C  C67  1  0.22511000  0.38585000  0.81225000  1.0
  C  C68  1  0.63625000  0.85260000  0.38797000  1.0
  C  C69  1  0.13625000  0.14740000  0.11203000  1.0
  C  C70  1  0.36375000  0.14740000  0.61203000  1.0
  C  C71  1  0.86376000  0.85260000  0.88797000  1.0
  N  N72  1  0.67862000  0.28862000  0.23429000  1.0
  N  N73  1  0.17862000  0.71138000  0.26571000  1.0
  N  N74  1  0.32138000  0.71138000  0.76571000  1.0
  N  N75  1  0.82138000  0.28862000  0.73429000  1.0
  O  O76  1  0.15953000  0.44504000  0.37388000  1.0
  O  O77  1  0.65953000  0.55496000  0.12612000  1.0
  O  O78  1  0.84047000  0.55496000  0.62612000  1.0
  O  O79  1  0.34047000  0.44504000  0.87388000  1.0
  O  O80  1  0.30295000  0.43688000  0.23636000  1.0
  O  O81  1  0.80296000  0.56312000  0.26364000  1.0
  O  O82  1  0.69705000  0.56312000  0.76364000  1.0
  O  O83  1  0.19704000  0.43688000  0.73636000  1.0
  O  O84  1  0.83228000  0.84049000  0.38099000  1.0
  O  O85  1  0.33229000  0.15951000  0.11900000  1.0
  O  O86  1  0.16771000  0.15952000  0.61901000  1.0
  O  O87  1  0.66772000  0.84048000  0.88099000  1.0
  O  O88  1  0.51331000  0.75333000  0.40734000  1.0
  O  O89  1  0.01332000  0.24667000  0.09266000  1.0
  O  O90  1  0.48668000  0.24667000  0.59266000  1.0
  O  O91  1  0.98669000  0.75333000  0.90734000  1.0
  O  O92  1  0.75915000  0.55356000  0.45299000  1.0
  O  O93  1  0.25915000  0.44644000  0.04701000  1.0
  O  O94  1  0.24085000  0.44644000  0.54701000  1.0
  O  O95  1  0.74085000  0.55356000  0.95299000  1.0
  O  O96  1  0.16397000  0.71105000  0.49161000  1.0
  O  O97  1  0.66397000  0.28895000  0.00839000  1.0
  O  O98  1  0.83602000  0.28895000  0.50839000  1.0
  O  O99  1  0.33603000  0.71105000  0.99161000  1.0
