# generated using pymatgen
data_NdH9C13N2O7
_symmetry_space_group_name_H-M   'P 1'
_cell_length_a   9.34790000
_cell_length_b   10.58100000
_cell_length_c   14.33700000
_cell_angle_alpha   90.00000000
_cell_angle_beta   90.00000000
_cell_angle_gamma   95.35820000
_symmetry_Int_Tables_number   1
_chemical_formula_structural   NdH9C13N2O7
_chemical_formula_sum   'Nd4 H36 C52 N8 O28'
_cell_volume   1411.87805172
_cell_formula_units_Z   4
loop_
 _symmetry_equiv_pos_site_id
 _symmetry_equiv_pos_as_xyz
  1  'x, y, z'
loop_
 _atom_site_type_symbol
 _atom_site_label
 _atom_site_symmetry_multiplicity
 _atom_site_fract_x
 _atom_site_fract_y
 _atom_site_fract_z
 _atom_site_occupancy
  Nd  Nd0  1  0.62482000  0.46857000  0.86604000  1.0
  Nd  Nd1  1  0.37518000  0.03143000  0.36604000  1.0
  Nd  Nd2  1  0.37518000  0.53143000  0.13396000  1.0
  Nd  Nd3  1  0.62482000  0.96857000  0.63396000  1.0
  H  H4  1  0.53313000  0.25933000  0.72507000  1.0
  H  H5  1  0.46687000  0.24067000  0.22507000  1.0
  H  H6  1  0.46687000  0.74067000  0.27493000  1.0
  H  H7  1  0.53313000  0.75933000  0.77493000  1.0
  H  H8  1  0.44434000  0.37352000  0.68445000  1.0
  H  H9  1  0.55566000  0.12648000  0.18445000  1.0
  H  H10  1  0.55566000  0.62648000  0.31555000  1.0
  H  H11  1  0.44434000  0.87352000  0.81555000  1.0
  H  H12  1  0.04588000  0.77093000  0.66304000  1.0
  H  H13  1  0.95412000  0.72907000  0.16304000  1.0
  H  H14  1  0.95412000  0.22908000  0.33696000  1.0
  H  H15  1  0.04588000  0.27093000  0.83696000  1.0
  H  H16  1  0.27001000  0.70261000  0.74003000  1.0
  H  H17  1  0.73000000  0.79739000  0.24003000  1.0
  H  H18  1  0.73000000  0.29739000  0.25997000  1.0
  H  H19  1  0.27000000  0.20261000  0.75997000  1.0
  H  H20  1  0.99113000  0.46689000  0.92246000  1.0
  H  H21  1  0.00887000  0.03311000  0.42246000  1.0
  H  H22  1  0.00887000  0.53311000  0.07754000  1.0
  H  H23  1  0.99113000  0.96689000  0.57753000  1.0
  H  H24  1  0.83531000  0.87952000  0.90749000  1.0
  H  H25  1  0.16469000  0.62048000  0.40749000  1.0
  H  H26  1  0.16469000  0.12048000  0.09251000  1.0
  H  H27  1  0.83531000  0.37952000  0.59251000  1.0
  H  H28  1  0.92356000  0.10717000  0.94724000  1.0
  H  H29  1  0.07644000  0.39284000  0.44723000  1.0
  H  H30  1  0.07644000  0.89284000  0.05277000  1.0
  H  H31  1  0.92356000  0.60717000  0.55277000  1.0
  H  H32  1  0.79322000  0.21831000  0.06856000  1.0
  H  H33  1  0.20678000  0.28169000  0.56856000  1.0
  H  H34  1  0.20678000  0.78169000  0.93144000  1.0
  H  H35  1  0.79322000  0.71831000  0.43144000  1.0
  H  H36  1  0.51757000  0.89682000  0.12355000  1.0
  H  H37  1  0.48243000  0.60318000  0.62355000  1.0
  H  H38  1  0.48243000  0.10318000  0.87645000  1.0
  H  H39  1  0.51757000  0.39682000  0.37645000  1.0
  C  C40  1  0.76645000  0.68996000  0.71132000  1.0
  C  C41  1  0.23355000  0.81004000  0.21132000  1.0
  C  C42  1  0.23355000  0.31003000  0.28868000  1.0
  C  C43  1  0.76645000  0.18996000  0.78868000  1.0
  C  C44  1  0.90539000  0.64965000  0.75038000  1.0
  C  C45  1  0.09461000  0.85035000  0.25038000  1.0
  C  C46  1  0.09461000  0.35035000  0.24962000  1.0
  C  C47  1  0.90539000  0.14965000  0.74962000  1.0
  C  C48  1  0.03985000  0.70155000  0.71929000  1.0
  C  C49  1  0.96015000  0.79845000  0.21929000  1.0
  C  C50  1  0.96015000  0.29845000  0.28071000  1.0
  C  C51  1  0.03985000  0.20154000  0.78071000  1.0
  C  C52  1  0.16293000  0.66458000  0.76229000  1.0
  C  C53  1  0.83707000  0.83542000  0.26229000  1.0
  C  C54  1  0.83707000  0.33543000  0.23771000  1.0
  C  C55  1  0.16293000  0.16458000  0.73771000  1.0
  C  C56  1  0.14709000  0.58218000  0.83877000  1.0
  C  C57  1  0.85290000  0.91782000  0.33877000  1.0
  C  C58  1  0.85291000  0.41782000  0.16123000  1.0
  C  C59  1  0.14709000  0.08218000  0.66123000  1.0
  C  C60  1  0.00835000  0.53272000  0.86409000  1.0
  C  C61  1  0.99165000  0.96729000  0.36409000  1.0
  C  C62  1  0.99165000  0.46728000  0.13591000  1.0
  C  C63  1  0.00835000  0.03272000  0.63591000  1.0
  C  C64  1  0.27427000  0.55208000  0.89638000  1.0
  C  C65  1  0.72574000  0.94792000  0.39638000  1.0
  C  C66  1  0.72574000  0.44792000  0.10362000  1.0
  C  C67  1  0.27427000  0.05208000  0.60362000  1.0
  C  C68  1  0.61537000  0.73774000  0.99108000  1.0
  C  C69  1  0.38464000  0.76226000  0.49109000  1.0
  C  C70  1  0.38464000  0.26226000  0.00891000  1.0
  C  C71  1  0.61537000  0.23774000  0.50892000  1.0
  C  C72  1  0.67050000  0.87213000  0.01264000  1.0
  C  C73  1  0.32950000  0.62787000  0.51264000  1.0
  C  C74  1  0.32950000  0.12787000  0.98736000  1.0
  C  C75  1  0.67050000  0.37213000  0.48736000  1.0
  C  C76  1  0.78591000  0.93199000  0.96239000  1.0
  C  C77  1  0.21409000  0.56802000  0.46239000  1.0
  C  C78  1  0.21409000  0.06802000  0.03761000  1.0
  C  C79  1  0.78591000  0.43198000  0.53761000  1.0
  C  C80  1  0.83338000  0.05706000  0.98378000  1.0
  C  C81  1  0.16662000  0.44294000  0.48377000  1.0
  C  C82  1  0.16662000  0.94294000  0.01623000  1.0
  C  C83  1  0.83338000  0.55706000  0.51622000  1.0
  C  C84  1  0.76141000  0.11913000  0.05255000  1.0
  C  C85  1  0.23859000  0.38087000  0.55255000  1.0
  C  C86  1  0.23859000  0.88087000  0.94745000  1.0
  C  C87  1  0.76141000  0.61913000  0.44745000  1.0
  C  C88  1  0.60715000  0.94062000  0.08233000  1.0
  C  C89  1  0.39285000  0.55938000  0.58233000  1.0
  C  C90  1  0.39285000  0.05938000  0.91767000  1.0
  C  C91  1  0.60715000  0.44062000  0.41767000  1.0
  N  N92  1  0.89066000  0.56288000  0.81945000  1.0
  N  N93  1  0.10934000  0.93712000  0.31945000  1.0
  N  N94  1  0.10934000  0.43712000  0.18055000  1.0
  N  N95  1  0.89066000  0.06288000  0.68055000  1.0
  N  N96  1  0.65072000  0.06245000  0.10140000  1.0
  N  N97  1  0.34928000  0.43755000  0.60140000  1.0
  N  N98  1  0.34928000  0.93755000  0.89860000  1.0
  N  N99  1  0.65072000  0.56245000  0.39860000  1.0
  O  O100  1  0.65192000  0.62100000  0.73198000  1.0
  O  O101  1  0.34808000  0.87900000  0.23198000  1.0
  O  O102  1  0.34808000  0.37900000  0.26802000  1.0
  O  O103  1  0.65192000  0.12100000  0.76802000  1.0
  O  O104  1  0.77366000  0.79061000  0.66301000  1.0
  O  O105  1  0.22634000  0.70939000  0.16301000  1.0
  O  O106  1  0.22634000  0.20939000  0.33699000  1.0
  O  O107  1  0.77366000  0.29061000  0.83699000  1.0
  O  O108  1  0.25056000  0.53201000  0.98262000  1.0
  O  O109  1  0.74944000  0.96799000  0.48262000  1.0
  O  O110  1  0.74944000  0.46799000  0.01738000  1.0
  O  O111  1  0.25056000  0.03200000  0.51737000  1.0
  O  O112  1  0.39361000  0.55269000  0.85452000  1.0
  O  O113  1  0.60638000  0.94732000  0.35452000  1.0
  O  O114  1  0.60638000  0.44731000  0.14548000  1.0
  O  O115  1  0.39361000  0.05269000  0.64548000  1.0
  O  O116  1  0.66816000  0.68842000  0.91991000  1.0
  O  O117  1  0.33184000  0.81158000  0.41991000  1.0
  O  O118  1  0.33184000  0.31159000  0.08009000  1.0
  O  O119  1  0.66816000  0.18842000  0.58009000  1.0
  O  O120  1  0.52075000  0.68260000  0.04446000  1.0
  O  O121  1  0.47925000  0.81740000  0.54446000  1.0
  O  O122  1  0.47925000  0.31740000  0.95554000  1.0
  O  O123  1  0.52074000  0.18260000  0.45554000  1.0
  O  O124  1  0.50425000  0.34420000  0.73846000  1.0
  O  O125  1  0.49574000  0.15580000  0.23846000  1.0
  O  O126  1  0.49574000  0.65580000  0.26154000  1.0
  O  O127  1  0.50425000  0.84420000  0.76154000  1.0
