# generated using pymatgen
data_CoH24C25N4O5
_symmetry_space_group_name_H-M   'P 1'
_cell_length_a   9.60381500
_cell_length_b   9.60382000
_cell_length_c   48.32090000
_cell_angle_alpha   90.00000000
_cell_angle_beta   90.00000000
_cell_angle_gamma   120.00005167
_symmetry_Int_Tables_number   1
_chemical_formula_structural   CoH24C25N4O5
_chemical_formula_sum   'Co6 H144 C150 N24 O30'
_cell_volume   3859.69704562
_cell_formula_units_Z   6
loop_
 _symmetry_equiv_pos_site_id
 _symmetry_equiv_pos_as_xyz
  1  'x, y, z'
loop_
 _atom_site_type_symbol
 _atom_site_label
 _atom_site_symmetry_multiplicity
 _atom_site_fract_x
 _atom_site_fract_y
 _atom_site_fract_z
 _atom_site_occupancy
  Co  Co0  1  0.29597000  0.59195000  0.08333000  1.0
  Co  Co1  1  0.29597000  0.70403000  0.75000000  1.0
  Co  Co2  1  0.40805000  0.70402000  0.41666000  1.0
  Co  Co3  1  0.70403000  0.40805000  0.58333000  1.0
  Co  Co4  1  0.70403000  0.29597000  0.25000000  1.0
  Co  Co5  1  0.59195000  0.29598000  0.91666000  1.0
  H  H6  1  0.54245000  0.65633000  0.04457000  1.0
  H  H7  1  0.11388000  0.45755000  0.71124000  1.0
  H  H8  1  0.34367000  0.88612000  0.37790000  1.0
  H  H9  1  0.45755000  0.34367000  0.54457000  1.0
  H  H10  1  0.88612000  0.54245000  0.21124000  1.0
  H  H11  1  0.65633000  0.11388000  0.87790000  1.0
  H  H12  1  0.88612000  0.34367000  0.62209000  1.0
  H  H13  1  0.65633000  0.54245000  0.95542000  1.0
  H  H14  1  0.45755000  0.11388000  0.28875000  1.0
  H  H15  1  0.11388000  0.65633000  0.12209000  1.0
  H  H16  1  0.34367000  0.45755000  0.45542000  1.0
  H  H17  1  0.54245000  0.88612000  0.78875000  1.0
  H  H18  1  0.62571000  0.18081000  0.06658000  1.0
  H  H19  1  0.55510000  0.37430000  0.73324000  1.0
  H  H20  1  0.81920000  0.44489000  0.39991000  1.0
  H  H21  1  0.37429000  0.81919000  0.56658000  1.0
  H  H22  1  0.44490000  0.62570000  0.23324000  1.0
  H  H23  1  0.18080000  0.55510000  0.89991000  1.0
  H  H24  1  0.44490000  0.81922000  0.60008000  1.0
  H  H25  1  0.18079000  0.62569000  0.93342000  1.0
  H  H26  1  0.37432000  0.55510000  0.26675000  1.0
  H  H27  1  0.55510000  0.18078000  0.10008000  1.0
  H  H28  1  0.81921000  0.37431000  0.43342000  1.0
  H  H29  1  0.62568000  0.44490000  0.76675000  1.0
  H  H30  1  0.21368000  0.28256000  0.10923000  1.0
  H  H31  1  0.06888000  0.78631000  0.77590000  1.0
  H  H32  1  0.71744000  0.93113000  0.44256000  1.0
  H  H33  1  0.78631000  0.71743000  0.60923000  1.0
  H  H34  1  0.93113000  0.21370000  0.27590000  1.0
  H  H35  1  0.28256000  0.06887000  0.94256000  1.0
  H  H36  1  0.93112000  0.71744000  0.55744000  1.0
  H  H37  1  0.28256000  0.21368000  0.89077000  1.0
  H  H38  1  0.78631000  0.06887000  0.22410000  1.0
  H  H39  1  0.06888000  0.28256000  0.05744000  1.0
  H  H40  1  0.71744000  0.78632000  0.39077000  1.0
  H  H41  1  0.21369000  0.93113000  0.72410000  1.0
  H  H42  1  0.36006000  0.24139000  0.12348000  1.0
  H  H43  1  0.88132000  0.63993000  0.79015000  1.0
  H  H44  1  0.75862000  0.11868000  0.45681000  1.0
  H  H45  1  0.63994000  0.75862000  0.62348000  1.0
  H  H46  1  0.11868000  0.36007000  0.29015000  1.0
  H  H47  1  0.24138000  0.88132000  0.95681000  1.0
  H  H48  1  0.11867000  0.75862000  0.54319000  1.0
  H  H49  1  0.24137000  0.36004000  0.87652000  1.0
  H  H50  1  0.63994000  0.88132000  0.20985000  1.0
  H  H51  1  0.88133000  0.24138000  0.04319000  1.0
  H  H52  1  0.75863000  0.63996000  0.37652000  1.0
  H  H53  1  0.36006000  0.11868000  0.70985000  1.0
  H  H54  1  0.23534000  0.12034000  0.09616000  1.0
  H  H55  1  0.88499000  0.76466000  0.76283000  1.0
  H  H56  1  0.87966000  0.11501000  0.42949000  1.0
  H  H57  1  0.76466000  0.87966000  0.59616000  1.0
  H  H58  1  0.11501000  0.23534000  0.26283000  1.0
  H  H59  1  0.12034000  0.88499000  0.92949000  1.0
  H  H60  1  0.11500000  0.87966000  0.57051000  1.0
  H  H61  1  0.12034000  0.23534000  0.90384000  1.0
  H  H62  1  0.76466000  0.88499000  0.23717000  1.0
  H  H63  1  0.88500000  0.12034000  0.07051000  1.0
  H  H64  1  0.87966000  0.76466000  0.40384000  1.0
  H  H65  1  0.23534000  0.11501000  0.73717000  1.0
  H  H66  1  0.78452000  0.64318000  0.02284000  1.0
  H  H67  1  0.85866000  0.21548000  0.68951000  1.0
  H  H68  1  0.35682000  0.14134000  0.35617000  1.0
  H  H69  1  0.21548000  0.35682000  0.52284000  1.0
  H  H70  1  0.14134000  0.78452000  0.18951000  1.0
  H  H71  1  0.64318000  0.85866000  0.85617000  1.0
  H  H72  1  0.14134000  0.35683000  0.64382000  1.0
  H  H73  1  0.64317000  0.78451000  0.97715000  1.0
  H  H74  1  0.21549000  0.85866000  0.31049000  1.0
  H  H75  1  0.85866000  0.64317000  0.14382000  1.0
  H  H76  1  0.35683000  0.21549000  0.47715000  1.0
  H  H77  1  0.78451000  0.14134000  0.81049000  1.0
  H  H78  1  0.78755000  0.46193000  0.02765000  1.0
  H  H79  1  0.67438000  0.21244000  0.69432000  1.0
  H  H80  1  0.53806000  0.32562000  0.36098000  1.0
  H  H81  1  0.21244000  0.53806000  0.52765000  1.0
  H  H82  1  0.32562000  0.78756000  0.19432000  1.0
  H  H83  1  0.46194000  0.67438000  0.86098000  1.0
  H  H84  1  0.32561000  0.53806000  0.63901000  1.0
  H  H85  1  0.46193000  0.78754000  0.97234000  1.0
  H  H86  1  0.21245000  0.67439000  0.30568000  1.0
  H  H87  1  0.67439000  0.46194000  0.13901000  1.0
  H  H88  1  0.53807000  0.21245000  0.47234000  1.0
  H  H89  1  0.78755000  0.32562000  0.80568000  1.0
  H  H90  1  0.88720000  0.61977000  0.05173000  1.0
  H  H91  1  0.73257000  0.11281000  0.71840000  1.0
  H  H92  1  0.38023000  0.26744000  0.38506000  1.0
  H  H93  1  0.11280000  0.38023000  0.55173000  1.0
  H  H94  1  0.26743000  0.88719000  0.21840000  1.0
  H  H95  1  0.61977000  0.73257000  0.88506000  1.0
  H  H96  1  0.26743000  0.38023000  0.61494000  1.0
  H  H97  1  0.61976000  0.88720000  0.94827000  1.0
  H  H98  1  0.11280000  0.73256000  0.28160000  1.0
  H  H99  1  0.73256000  0.61976000  0.11493000  1.0
  H  H100  1  0.38024000  0.11280000  0.44827000  1.0
  H  H101  1  0.88720000  0.26744000  0.78160000  1.0
  H  H102  1  0.15170000  0.88028000  0.04724000  1.0
  H  H103  1  0.72860000  0.84830000  0.71391000  1.0
  H  H104  1  0.11971000  0.27141000  0.38057000  1.0
  H  H105  1  0.84830000  0.11972000  0.54724000  1.0
  H  H106  1  0.27140000  0.15170000  0.21391000  1.0
  H  H107  1  0.88029000  0.72859000  0.88057000  1.0
  H  H108  1  0.27142000  0.11972000  0.61943000  1.0
  H  H109  1  0.88028000  0.15170000  0.95276000  1.0
  H  H110  1  0.84830000  0.72859000  0.28609000  1.0
  H  H111  1  0.72858000  0.88028000  0.11943000  1.0
  H  H112  1  0.11972000  0.84830000  0.45276000  1.0
  H  H113  1  0.15170000  0.27141000  0.78609000  1.0
  H  H114  1  0.12416000  0.10980000  0.02927000  1.0
  H  H115  1  0.98565000  0.87584000  0.69594000  1.0
  H  H116  1  0.89019000  0.01436000  0.36260000  1.0
  H  H117  1  0.87584000  0.89020000  0.52927000  1.0
  H  H118  1  0.01435000  0.12416000  0.19594000  1.0
  H  H119  1  0.10981000  0.98564000  0.86260000  1.0
  H  H120  1  0.01436000  0.89020000  0.63739000  1.0
  H  H121  1  0.10980000  0.12416000  0.97073000  1.0
  H  H122  1  0.87584000  0.98565000  0.30406000  1.0
  H  H123  1  0.98564000  0.10980000  0.13740000  1.0
  H  H124  1  0.89020000  0.87584000  0.47073000  1.0
  H  H125  1  0.12416000  0.01436000  0.80406000  1.0
  H  H126  1  0.58061000  0.29866000  0.98831000  1.0
  H  H127  1  0.71805000  0.41939000  0.65498000  1.0
  H  H128  1  0.70134000  0.28195000  0.32164000  1.0
  H  H129  1  0.41939000  0.70134000  0.48831000  1.0
  H  H130  1  0.28195000  0.58061000  0.15498000  1.0
  H  H131  1  0.29866000  0.71805000  0.82164000  1.0
  H  H132  1  0.28196000  0.70135000  0.67836000  1.0
  H  H133  1  0.29865000  0.58061000  0.01169000  1.0
  H  H134  1  0.41939000  0.71804000  0.34502000  1.0
  H  H135  1  0.71804000  0.29865000  0.17836000  1.0
  H  H136  1  0.70135000  0.41939000  0.51169000  1.0
  H  H137  1  0.58061000  0.28196000  0.84502000  1.0
  H  H138  1  0.60666000  0.06597000  0.00599000  1.0
  H  H139  1  0.45931000  0.39335000  0.67266000  1.0
  H  H140  1  0.93404000  0.54069000  0.33932000  1.0
  H  H141  1  0.39334000  0.93403000  0.50599000  1.0
  H  H142  1  0.54069000  0.60665000  0.17266000  1.0
  H  H143  1  0.06596000  0.45931000  0.83932000  1.0
  H  H144  1  0.54070000  0.93405000  0.66068000  1.0
  H  H145  1  0.06596000  0.60666000  0.99401000  1.0
  H  H146  1  0.39335000  0.45930000  0.32734000  1.0
  H  H147  1  0.45930000  0.06595000  0.16068000  1.0
  H  H148  1  0.93404000  0.39334000  0.49401000  1.0
  H  H149  1  0.60665000  0.54070000  0.82734000  1.0
  C  C150  1  0.42005000  0.35598000  0.08367000  1.0
  C  C151  1  0.93593000  0.57996000  0.75034000  1.0
  C  C152  1  0.64402000  0.06407000  0.41701000  1.0
  C  C153  1  0.57995000  0.64402000  0.58367000  1.0
  C  C154  1  0.06408000  0.42005000  0.25034000  1.0
  C  C155  1  0.35598000  0.93593000  0.91701000  1.0
  C  C156  1  0.06407000  0.64402000  0.58299000  1.0
  C  C157  1  0.35597000  0.42004000  0.91632000  1.0
  C  C158  1  0.57996000  0.93593000  0.24966000  1.0
  C  C159  1  0.93593000  0.35598000  0.08299000  1.0
  C  C160  1  0.64403000  0.57996000  0.41632000  1.0
  C  C161  1  0.42004000  0.06407000  0.74966000  1.0
  C  C162  1  0.56105000  0.36232000  0.07392000  1.0
  C  C163  1  0.80126000  0.43895000  0.74058000  1.0
  C  C164  1  0.63768000  0.19873000  0.40725000  1.0
  C  C165  1  0.43895000  0.63768000  0.57392000  1.0
  C  C166  1  0.19874000  0.56105000  0.24058000  1.0
  C  C167  1  0.36232000  0.80127000  0.90725000  1.0
  C  C168  1  0.19873000  0.63768000  0.59275000  1.0
  C  C169  1  0.36231000  0.56105000  0.92608000  1.0
  C  C170  1  0.43896000  0.80126000  0.25941000  1.0
  C  C171  1  0.80127000  0.36232000  0.09275000  1.0
  C  C172  1  0.63769000  0.43895000  0.42608000  1.0
  C  C173  1  0.56104000  0.19874000  0.75941000  1.0
  C  C174  1  0.62992000  0.49154000  0.05523000  1.0
  C  C175  1  0.86162000  0.37009000  0.72190000  1.0
  C  C176  1  0.50847000  0.13839000  0.38857000  1.0
  C  C177  1  0.37008000  0.50846000  0.55523000  1.0
  C  C178  1  0.13838000  0.62991000  0.22190000  1.0
  C  C179  1  0.49153000  0.86161000  0.88857000  1.0
  C  C180  1  0.13839000  0.50847000  0.61143000  1.0
  C  C181  1  0.49153000  0.62992000  0.94476000  1.0
  C  C182  1  0.37009000  0.86162000  0.27809000  1.0
  C  C183  1  0.86161000  0.49153000  0.11143000  1.0
  C  C184  1  0.50847000  0.37008000  0.44476000  1.0
  C  C185  1  0.62991000  0.13838000  0.77810000  1.0
  C  C186  1  0.63040000  0.26079000  0.08333000  1.0
  C  C187  1  0.63039000  0.36961000  0.75000000  1.0
  C  C188  1  0.73921000  0.36960000  0.41666000  1.0
  C  C189  1  0.36960000  0.73921000  0.58333000  1.0
  C  C190  1  0.36961000  0.63039000  0.25000000  1.0
  C  C191  1  0.26079000  0.63040000  0.91666000  1.0
  C  C192  1  0.30079000  0.24415000  0.10418000  1.0
  C  C193  1  0.94335000  0.69921000  0.77085000  1.0
  C  C194  1  0.75586000  0.05664000  0.43751000  1.0
  C  C195  1  0.69922000  0.75586000  0.60418000  1.0
  C  C196  1  0.05665000  0.30079000  0.27085000  1.0
  C  C197  1  0.24414000  0.94336000  0.93751000  1.0
  C  C198  1  0.05664000  0.75586000  0.56249000  1.0
  C  C199  1  0.24414000  0.30078000  0.89582000  1.0
  C  C200  1  0.69922000  0.94336000  0.22915000  1.0
  C  C201  1  0.94336000  0.24414000  0.06249000  1.0
  C  C202  1  0.75586000  0.69922000  0.39582000  1.0
  C  C203  1  0.30078000  0.05664000  0.72915000  1.0
  C  C204  1  0.77988000  0.55828000  0.03851000  1.0
  C  C205  1  0.77841000  0.22012000  0.70518000  1.0
  C  C206  1  0.44171000  0.22159000  0.37184000  1.0
  C  C207  1  0.22012000  0.44172000  0.53851000  1.0
  C  C208  1  0.22159000  0.77988000  0.20518000  1.0
  C  C209  1  0.55829000  0.77841000  0.87184000  1.0
  C  C210  1  0.22159000  0.44171000  0.62816000  1.0
  C  C211  1  0.55828000  0.77988000  0.96149000  1.0
  C  C212  1  0.22012000  0.77840000  0.29482000  1.0
  C  C213  1  0.77841000  0.55829000  0.12816000  1.0
  C  C214  1  0.44172000  0.22012000  0.46149000  1.0
  C  C215  1  0.77988000  0.22160000  0.79482000  1.0
  C  C216  1  0.38126000  0.95989000  0.02791000  1.0
  C  C217  1  0.57865000  0.61875000  0.69458000  1.0
  C  C218  1  0.04010000  0.42136000  0.36124000  1.0
  C  C219  1  0.61874000  0.04011000  0.52791000  1.0
  C  C220  1  0.42135000  0.38125000  0.19458000  1.0
  C  C221  1  0.95990000  0.57864000  0.86124000  1.0
  C  C222  1  0.42137000  0.04011000  0.63876000  1.0
  C  C223  1  0.95989000  0.38126000  0.97209000  1.0
  C  C224  1  0.61875000  0.57864000  0.30542000  1.0
  C  C225  1  0.57863000  0.95989000  0.13876000  1.0
  C  C226  1  0.04011000  0.61874000  0.47209000  1.0
  C  C227  1  0.38125000  0.42136000  0.80542000  1.0
  C  C228  1  0.24453000  0.97172000  0.03410000  1.0
  C  C229  1  0.72721000  0.75547000  0.70077000  1.0
  C  C230  1  0.02827000  0.27280000  0.36743000  1.0
  C  C231  1  0.75547000  0.02828000  0.53410000  1.0
  C  C232  1  0.27279000  0.24453000  0.20077000  1.0
  C  C233  1  0.97173000  0.72720000  0.86743000  1.0
  C  C234  1  0.27281000  0.02827000  0.63257000  1.0
  C  C235  1  0.97173000  0.24454000  0.96590000  1.0
  C  C236  1  0.75547000  0.72720000  0.29923000  1.0
  C  C237  1  0.72719000  0.97172000  0.13257000  1.0
  C  C238  1  0.02828000  0.75547000  0.46590000  1.0
  C  C239  1  0.24452000  0.27279000  0.79923000  1.0
  C  C240  1  0.22894000  0.09913000  0.02416000  1.0
  C  C241  1  0.87019000  0.77106000  0.69083000  1.0
  C  C242  1  0.90087000  0.12981000  0.35749000  1.0
  C  C243  1  0.77106000  0.90087000  0.52416000  1.0
  C  C244  1  0.12981000  0.22894000  0.19083000  1.0
  C  C245  1  0.09913000  0.87019000  0.85749000  1.0
  C  C246  1  0.12982000  0.90088000  0.64250000  1.0
  C  C247  1  0.09912000  0.22894000  0.97584000  1.0
  C  C248  1  0.77106000  0.87018000  0.30917000  1.0
  C  C249  1  0.87018000  0.09912000  0.14251000  1.0
  C  C250  1  0.90088000  0.77106000  0.47584000  1.0
  C  C251  1  0.22894000  0.12982000  0.80917000  1.0
  C  C252  1  0.35308000  0.21692000  0.00806000  1.0
  C  C253  1  0.86385000  0.64692000  0.67473000  1.0
  C  C254  1  0.78307000  0.13615000  0.34140000  1.0
  C  C255  1  0.64692000  0.78308000  0.50806000  1.0
  C  C256  1  0.13615000  0.35308000  0.17473000  1.0
  C  C257  1  0.21693000  0.86385000  0.84140000  1.0
  C  C258  1  0.13616000  0.78307000  0.65860000  1.0
  C  C259  1  0.21692000  0.35308000  0.99193000  1.0
  C  C260  1  0.64692000  0.86384000  0.32526000  1.0
  C  C261  1  0.86383000  0.21692000  0.15860000  1.0
  C  C262  1  0.78308000  0.64692000  0.49193000  1.0
  C  C263  1  0.35308000  0.13615000  0.82526000  1.0
  C  C264  1  0.48809000  0.20532000  0.00114000  1.0
  C  C265  1  0.71724000  0.51193000  0.66781000  1.0
  C  C266  1  0.79469000  0.28278000  0.33447000  1.0
  C  C267  1  0.51191000  0.79468000  0.50114000  1.0
  C  C268  1  0.28276000  0.48808000  0.16781000  1.0
  C  C269  1  0.20531000  0.71722000  0.83447000  1.0
  C  C270  1  0.28278000  0.79469000  0.66552000  1.0
  C  C271  1  0.20531000  0.48809000  0.99886000  1.0
  C  C272  1  0.51191000  0.71722000  0.33219000  1.0
  C  C273  1  0.71722000  0.20531000  0.16552000  1.0
  C  C274  1  0.79469000  0.51191000  0.49886000  1.0
  C  C275  1  0.48808000  0.28277000  0.83219000  1.0
  C  C276  1  0.50177000  0.07677000  0.01102000  1.0
  C  C277  1  0.57501000  0.49823000  0.67769000  1.0
  C  C278  1  0.92322000  0.42499000  0.34435000  1.0
  C  C279  1  0.49823000  0.92323000  0.51102000  1.0
  C  C280  1  0.42499000  0.50177000  0.17769000  1.0
  C  C281  1  0.07678000  0.57501000  0.84435000  1.0
  C  C282  1  0.42500000  0.92323000  0.65565000  1.0
  C  C283  1  0.07678000  0.50178000  0.98898000  1.0
  C  C284  1  0.49823000  0.57500000  0.32231000  1.0
  C  C285  1  0.57500000  0.07677000  0.15565000  1.0
  C  C286  1  0.92322000  0.49822000  0.48898000  1.0
  C  C287  1  0.50177000  0.42500000  0.82231000  1.0
  C  C288  1  0.40120000  0.82804000  0.03999000  1.0
  C  C289  1  0.42685000  0.59881000  0.70666000  1.0
  C  C290  1  0.17196000  0.57315000  0.37332000  1.0
  C  C291  1  0.59880000  0.17196000  0.53999000  1.0
  C  C292  1  0.57315000  0.40120000  0.20666000  1.0
  C  C293  1  0.82804000  0.42685000  0.87332000  1.0
  C  C294  1  0.57316000  0.17196000  0.62668000  1.0
  C  C295  1  0.82804000  0.40120000  0.96001000  1.0
  C  C296  1  0.59880000  0.42684000  0.29334000  1.0
  C  C297  1  0.42684000  0.82804000  0.12668000  1.0
  C  C298  1  0.17196000  0.59880000  0.46001000  1.0
  C  C299  1  0.40120000  0.57316000  0.79334000  1.0
  N  N300  1  0.40339000  0.47386000  0.07158000  1.0
  N  N301  1  0.07047000  0.59662000  0.73824000  1.0
  N  N302  1  0.52614000  0.92953000  0.40491000  1.0
  N  N303  1  0.59661000  0.52614000  0.57158000  1.0
  N  N304  1  0.92953000  0.40338000  0.23824000  1.0
  N  N305  1  0.47386000  0.07047000  0.90491000  1.0
  N  N306  1  0.92953000  0.52614000  0.59509000  1.0
  N  N307  1  0.47386000  0.40339000  0.92842000  1.0
  N  N308  1  0.59661000  0.07046000  0.26175000  1.0
  N  N309  1  0.07047000  0.47386000  0.09509000  1.0
  N  N310  1  0.52614000  0.59661000  0.42842000  1.0
  N  N311  1  0.40339000  0.92954000  0.76175000  1.0
  N  N312  1  0.53174000  0.55433000  0.05450000  1.0
  N  N313  1  0.02258000  0.46827000  0.72117000  1.0
  N  N314  1  0.44567000  0.97741000  0.38783000  1.0
  N  N315  1  0.46826000  0.44567000  0.55450000  1.0
  N  N316  1  0.97742000  0.53173000  0.22117000  1.0
  N  N317  1  0.55433000  0.02259000  0.88783000  1.0
  N  N318  1  0.97742000  0.44568000  0.61216000  1.0
  N  N319  1  0.55432000  0.53174000  0.94549000  1.0
  N  N320  1  0.46827000  0.02258000  0.27883000  1.0
  N  N321  1  0.02258000  0.55432000  0.11216000  1.0
  N  N322  1  0.44568000  0.46826000  0.44549000  1.0
  N  N323  1  0.53173000  0.97742000  0.77883000  1.0
  O  O324  1  0.28365000  0.72915000  0.05578000  1.0
  O  O325  1  0.44550000  0.71635000  0.72245000  1.0
  O  O326  1  0.27084000  0.55450000  0.38911000  1.0
  O  O327  1  0.71635000  0.27086000  0.55578000  1.0
  O  O328  1  0.55450000  0.28365000  0.22245000  1.0
  O  O329  1  0.72916000  0.44550000  0.88911000  1.0
  O  O330  1  0.55450000  0.27082000  0.61088000  1.0
  O  O331  1  0.72916000  0.28366000  0.94422000  1.0
  O  O332  1  0.71634000  0.44551000  0.27755000  1.0
  O  O333  1  0.44550000  0.72918000  0.11088000  1.0
  O  O334  1  0.27084000  0.71634000  0.44422000  1.0
  O  O335  1  0.28366000  0.55449000  0.77755000  1.0
  O  O336  1  0.52428000  0.81799000  0.03454000  1.0
  O  O337  1  0.29372000  0.47573000  0.70121000  1.0
  O  O338  1  0.18203000  0.70630000  0.36787000  1.0
  O  O339  1  0.47572000  0.18202000  0.53454000  1.0
  O  O340  1  0.70628000  0.52427000  0.20121000  1.0
  O  O341  1  0.81797000  0.29370000  0.86787000  1.0
  O  O342  1  0.70630000  0.18204000  0.63213000  1.0
  O  O343  1  0.81797000  0.52427000  0.96546000  1.0
  O  O344  1  0.47574000  0.29371000  0.29879000  1.0
  O  O345  1  0.29370000  0.81796000  0.13213000  1.0
  O  O346  1  0.18203000  0.47573000  0.46546000  1.0
  O  O347  1  0.52426000  0.70629000  0.79879000  1.0
  O  O348  1  0.35592000  0.35592000  0.00000000  1.0
  O  O349  1  0.00001000  0.64409000  0.66666667  1.0
  O  O350  1  0.64408000  1.00000000  0.33333333  1.0
  O  O351  1  0.64408000  0.64408000  0.50000000  1.0
  O  O352  1  0.00000000  0.35592000  0.16667000  1.0
  O  O353  1  0.35592000  1.00000000  0.83333000  1.0
