# generated using pymatgen
data_CdH8C14S2(N4F)2
_symmetry_space_group_name_H-M   'P 1'
_cell_length_a   7.26904000
_cell_length_b   8.85149000
_cell_length_c   14.11040000
_cell_angle_alpha   71.73400000
_cell_angle_beta   79.28300000
_cell_angle_gamma   89.91760000
_symmetry_Int_Tables_number   1
_chemical_formula_structural   CdH8C14S2(N4F)2
_chemical_formula_sum   'Cd2 H16 C28 S4 N16 F4'
_cell_volume   845.53055851
_cell_formula_units_Z   2
loop_
 _symmetry_equiv_pos_site_id
 _symmetry_equiv_pos_as_xyz
  1  'x, y, z'
loop_
 _atom_site_type_symbol
 _atom_site_label
 _atom_site_symmetry_multiplicity
 _atom_site_fract_x
 _atom_site_fract_y
 _atom_site_fract_z
 _atom_site_occupancy
  Cd  Cd0  1  0.75008000  0.61467000  0.99999000  1.0
  Cd  Cd1  1  0.24993000  0.38533000  0.00001000  1.0
  H  H2  1  0.38409000  0.02545000  0.42297000  1.0
  H  H3  1  0.11587000  0.44730000  0.57667000  1.0
  H  H4  1  0.61591000  0.97456000  0.57703000  1.0
  H  H5  1  0.88412000  0.55270000  0.42333000  1.0
  H  H6  1  0.30297000  0.73513000  0.51209000  1.0
  H  H7  1  0.19679000  0.24541000  0.48793000  1.0
  H  H8  1  0.69704000  0.26487000  0.48791000  1.0
  H  H9  1  0.80321000  0.75459000  0.51207000  1.0
  H  H10  1  0.58962000  0.62853000  0.24706000  1.0
  H  H11  1  0.90996000  0.87532000  0.75331000  1.0
  H  H12  1  0.41038000  0.37148000  0.75294000  1.0
  H  H13  1  0.09003000  0.12468000  0.24669000  1.0
  H  H14  1  0.67742000  0.91987000  0.15799000  1.0
  H  H15  1  0.82261000  0.07831000  0.84209000  1.0
  H  H16  1  0.32259000  0.08014000  0.84201000  1.0
  H  H17  1  0.17738000  0.92168000  0.15791000  1.0
  C  C18  1  0.57378000  0.24716000  0.13852000  1.0
  C  C19  1  0.92661000  0.38591000  0.86116000  1.0
  C  C20  1  0.42622000  0.75284000  0.86148000  1.0
  C  C21  1  0.07339000  0.61408000  0.13884000  1.0
  C  C22  1  0.53033000  0.98862000  0.28482000  1.0
  C  C23  1  0.96970000  0.27316000  0.71502000  1.0
  C  C24  1  0.46967000  0.01138000  0.71518000  1.0
  C  C25  1  0.03029000  0.72683000  0.28498000  1.0
  C  C26  1  0.42773000  0.93865000  0.38449000  1.0
  C  C27  1  0.07214000  0.32223000  0.61532000  1.0
  C  C28  1  0.57228000  0.06135000  0.61551000  1.0
  C  C29  1  0.92786000  0.67776000  0.38468000  1.0
  C  C30  1  0.38106000  0.77698000  0.43408000  1.0
  C  C31  1  0.11873000  0.20970000  0.56596000  1.0
  C  C32  1  0.61894000  0.22302000  0.56592000  1.0
  C  C33  1  0.88127000  0.79029000  0.43404000  1.0
  C  C34  1  0.43738000  0.67087000  0.38118000  1.0
  C  C35  1  0.06220000  0.05096000  0.61902000  1.0
  C  C36  1  0.56262000  0.32913000  0.61882000  1.0
  C  C37  1  0.93780000  0.94903000  0.38098000  1.0
  C  C38  1  0.54186000  0.71823000  0.28257000  1.0
  C  C39  1  0.95783000  0.00034000  0.71766000  1.0
  C  C40  1  0.45814000  0.28177000  0.71743000  1.0
  C  C41  1  0.04217000  0.99966000  0.28234000  1.0
  C  C42  1  0.58986000  0.87987000  0.23381000  1.0
  C  C43  1  0.91000000  0.11365000  0.76621000  1.0
  C  C44  1  0.41014000  0.12014000  0.76619000  1.0
  C  C45  1  0.08999000  0.88634000  0.23379000  1.0
  S  S46  1  0.49511000  0.18833000  0.04774000  1.0
  S  S47  1  0.00558000  0.23635000  0.95189000  1.0
  S  S48  1  0.50489000  0.81168000  0.95226000  1.0
  S  S49  1  0.99442000  0.76365000  0.04811000  1.0
  N  N50  1  0.57911000  0.15384000  0.23573000  1.0
  N  N51  1  0.92107000  0.38961000  0.76400000  1.0
  N  N52  1  0.42089000  0.84617000  0.76428000  1.0
  N  N53  1  0.07892000  0.61038000  0.23600000  1.0
  N  N54  1  0.64455000  0.24403000  0.28662000  1.0
  N  N55  1  0.85541000  0.53074000  0.71313000  1.0
  N  N56  1  0.35545000  0.75597000  0.71338000  1.0
  N  N57  1  0.14458000  0.46925000  0.28688000  1.0
  N  N58  1  0.68119000  0.38622000  0.22332000  1.0
  N  N59  1  0.81878000  0.60979000  0.77641000  1.0
  N  N60  1  0.31881000  0.61379000  0.77668000  1.0
  N  N61  1  0.18122000  0.39020000  0.22359000  1.0
  N  N62  1  0.64175000  0.39282000  0.13174000  1.0
  N  N63  1  0.85850000  0.52491000  0.86796000  1.0
  N  N64  1  0.35825000  0.60718000  0.86827000  1.0
  N  N65  1  0.14150000  0.47509000  0.13205000  1.0
  F  F66  1  0.39083000  0.51255000  0.42840000  1.0
  F  F67  1  0.10835000  0.93946000  0.57196000  1.0
  F  F68  1  0.60916000  0.48746000  0.57159000  1.0
  F  F69  1  0.89165000  0.06054000  0.42804000  1.0
