# generated using pymatgen
data_CdH32C24S4(N3O4)2
_symmetry_space_group_name_H-M   'P 1'
_cell_length_a   8.39564000
_cell_length_b   8.86774000
_cell_length_c   10.79280000
_cell_angle_alpha   79.23890000
_cell_angle_beta   84.88000000
_cell_angle_gamma   81.87710000
_symmetry_Int_Tables_number   1
_chemical_formula_structural   CdH32C24S4(N3O4)2
_chemical_formula_sum   'Cd1 H32 C24 S4 N6 O8'
_cell_volume   779.84329481
_cell_formula_units_Z   1
loop_
 _symmetry_equiv_pos_site_id
 _symmetry_equiv_pos_as_xyz
  1  'x, y, z'
loop_
 _atom_site_type_symbol
 _atom_site_label
 _atom_site_symmetry_multiplicity
 _atom_site_fract_x
 _atom_site_fract_y
 _atom_site_fract_z
 _atom_site_occupancy
  Cd  Cd0  1  0.00000000  0.00000000  0.50000000  1.0
  H  H1  1  0.97077000  0.28636000  0.57442000  1.0
  H  H2  1  0.02923000  0.71364000  0.42558000  1.0
  H  H3  1  0.89193000  0.32877000  0.42992000  1.0
  H  H4  1  0.10807000  0.67123000  0.57008000  1.0
  H  H5  1  0.16466000  0.59931000  0.92264000  1.0
  H  H6  1  0.83534000  0.40069000  0.07736000  1.0
  H  H7  1  0.07626000  0.69849000  0.04623000  1.0
  H  H8  1  0.92374000  0.30151000  0.95377000  1.0
  H  H9  1  0.28934000  0.67524000  0.01458000  1.0
  H  H10  1  0.71066000  0.32477000  0.98542000  1.0
  H  H11  1  0.17625000  0.04314000  0.97046000  1.0
  H  H12  1  0.82375000  0.95686000  0.02954000  1.0
  H  H13  1  0.52789000  0.32593000  0.86059000  1.0
  H  H14  1  0.47211000  0.67407000  0.13941000  1.0
  H  H15  1  0.80926000  0.29182000  0.75843000  1.0
  H  H16  1  0.19075000  0.70819000  0.24157000  1.0
  H  H17  1  0.61353000  0.27361000  0.40808000  1.0
  H  H18  1  0.38647000  0.72639000  0.59192000  1.0
  H  H19  1  0.33515000  0.29990000  0.50976000  1.0
  H  H20  1  0.66485000  0.70010000  0.49024000  1.0
  H  H21  1  0.90329000  0.59881000  0.78149000  1.0
  H  H22  1  0.09672000  0.40119000  0.21851000  1.0
  H  H23  1  0.69330000  0.60024000  0.75668000  1.0
  H  H24  1  0.30670000  0.39976000  0.24332000  1.0
  H  H25  1  0.75433000  0.62145000  0.90959000  1.0
  H  H26  1  0.24567000  0.37855000  0.09042000  1.0
  H  H27  1  0.51646000  0.01817000  0.76738000  1.0
  H  H28  1  0.48354000  0.98183000  0.23262000  1.0
  H  H29  1  0.52909000  0.86163000  0.90011000  1.0
  H  H30  1  0.47091000  0.13837000  0.09989000  1.0
  H  H31  1  0.48420000  0.82789000  0.74721000  1.0
  H  H32  1  0.51580000  0.17211000  0.25279000  1.0
  C  C33  1  0.17321000  0.69587000  0.97089000  1.0
  C  C34  1  0.82679000  0.30413000  0.02911000  1.0
  C  C35  1  0.15959000  0.84350000  0.87978000  1.0
  C  C36  1  0.84041000  0.15650000  0.12022000  1.0
  C  C37  1  0.16246000  0.99485000  0.88767000  1.0
  C  C38  1  0.83754000  0.00515000  0.11232000  1.0
  C  C39  1  0.13686000  0.08018000  0.76279000  1.0
  C  C40  1  0.86315000  0.91982000  0.23721000  1.0
  C  C41  1  0.41551000  0.31889000  0.69098000  1.0
  C  C42  1  0.58449000  0.68111000  0.30902000  1.0
  C  C43  1  0.54849000  0.31445000  0.76146000  1.0
  C  C44  1  0.45151000  0.68555000  0.23854000  1.0
  C  C45  1  0.70408000  0.29527000  0.70513000  1.0
  C  C46  1  0.29592000  0.70473000  0.29487000  1.0
  C  C47  1  0.72806000  0.28304000  0.57677000  1.0
  C  C48  1  0.27194000  0.71696000  0.42323000  1.0
  C  C49  1  0.59362000  0.28558000  0.50714000  1.0
  C  C50  1  0.40638000  0.71442000  0.49286000  1.0
  C  C51  1  0.43839000  0.30251000  0.56360000  1.0
  C  C52  1  0.56161000  0.69749000  0.43640000  1.0
  C  C53  1  0.77902000  0.64577000  0.80671000  1.0
  C  C54  1  0.22098000  0.35423000  0.19329000  1.0
  C  C55  1  0.55030000  0.89370000  0.79730000  1.0
  C  C56  1  0.44970000  0.10630000  0.20270000  1.0
  S  S57  1  0.21748000  0.34746000  0.76361000  1.0
  S  S58  1  0.78252000  0.65254000  0.23639000  1.0
  S  S59  1  0.76260000  0.85176000  0.75917000  1.0
  S  S60  1  0.23740000  0.14824000  0.24083000  1.0
  N  N61  1  0.11628000  0.23498000  0.71513000  1.0
  N  N62  1  0.88372000  0.76502000  0.28487000  1.0
  N  N63  1  0.88526000  0.26400000  0.51928000  1.0
  N  N64  1  0.11474000  0.73600000  0.48072000  1.0
  N  N65  1  0.12364000  0.98129000  0.68522000  1.0
  N  N66  1  0.87636000  0.01871000  0.31478000  1.0
  O  O67  1  0.23610000  0.31519000  0.90030000  1.0
  O  O68  1  0.76390000  0.68481000  0.09970000  1.0
  O  O69  1  0.14704000  0.50505000  0.71343000  1.0
  O  O70  1  0.85296000  0.49495000  0.28657000  1.0
  O  O71  1  0.78203000  0.88063000  0.61489000  1.0
  O  O72  1  0.21797000  0.11937000  0.38511000  1.0
  O  O73  1  0.13659000  0.83173000  0.75875000  1.0
  O  O74  1  0.86340000  0.16827000  0.24124000  1.0
