# generated using pymatgen
data_CdH36C32Br2(N3O)4
_symmetry_space_group_name_H-M   'P 1'
_cell_length_a   9.99325000
_cell_length_b   16.42080000
_cell_length_c   17.16681569
_cell_angle_alpha   101.03848030
_cell_angle_beta   106.91391055
_cell_angle_gamma   90.00060000
_symmetry_Int_Tables_number   1
_chemical_formula_structural   CdH36C32Br2(N3O)4
_chemical_formula_sum   'Cd2 H72 C64 Br4 N24 O8'
_cell_volume   2640.64550548
_cell_formula_units_Z   2
loop_
 _symmetry_equiv_pos_site_id
 _symmetry_equiv_pos_as_xyz
  1  'x, y, z'
loop_
 _atom_site_type_symbol
 _atom_site_label
 _atom_site_symmetry_multiplicity
 _atom_site_fract_x
 _atom_site_fract_y
 _atom_site_fract_z
 _atom_site_occupancy
  Cd  Cd0  1  0.00001000  0.00001000  0.00001000  1.0
  Cd  Cd1  1  0.99996000  0.50000000  0.99999000  1.0
  H  H2  1  0.19888000  0.15861000  0.02578000  1.0
  H  H3  1  0.91094000  0.12534000  0.14969000  1.0
  H  H4  1  0.99163000  0.25973000  0.25106000  1.0
  H  H5  1  0.29021000  0.29498000  0.12035000  1.0
  H  H6  1  0.40716000  0.56362000  0.38372000  1.0
  H  H7  1  0.35328000  0.50520000  0.28213000  1.0
  H  H8  1  0.50881000  0.41587000  0.41898000  1.0
  H  H9  1  0.51664000  0.40023000  0.31712000  1.0
  H  H10  1  0.41856000  0.43023000  0.50362000  1.0
  H  H11  1  0.25389000  0.39674000  0.51006000  1.0
  H  H12  1  0.13249000  0.50081000  0.44461000  1.0
  H  H13  1  0.28594000  0.56637000  0.46736000  1.0
  H  H14  1  0.95789000  0.51560000  0.29835000  1.0
  H  H15  1  0.56885000  0.42867000  0.10650000  1.0
  H  H16  1  0.69895000  0.42534000  0.00223000  1.0
  H  H17  1  0.07068000  0.50854000  0.18592000  1.0
  H  H18  1  0.25766000  0.39980000  0.22151000  1.0
  H  H19  1  0.57365000  0.46421000  0.24293000  1.0
  H  H20  1  0.17293000  0.34148000  0.97407000  1.0
  H  H21  1  0.76103000  0.37477000  0.85039000  1.0
  H  H22  1  0.74031000  0.24044000  0.74886000  1.0
  H  H23  1  0.16967000  0.20520000  0.87933000  1.0
  H  H24  1  0.02342000  0.93648000  0.61634000  1.0
  H  H25  1  0.07116000  0.99497000  0.71790000  1.0
  H  H26  1  0.08975000  0.08410000  0.58087000  1.0
  H  H27  1  0.19943000  0.09988000  0.68272000  1.0
  H  H28  1  0.91489000  0.06981000  0.49644000  1.0
  H  H29  1  0.74373000  0.10322000  0.48998000  1.0
  H  H30  1  0.68786000  0.99913000  0.55543000  1.0
  H  H31  1  0.81867000  0.93364000  0.53271000  1.0
  H  H32  1  0.65935000  0.98427000  0.70170000  1.0
  H  H33  1  0.46186000  0.07111000  0.89345000  1.0
  H  H34  1  0.69611000  0.07444000  0.99778000  1.0
  H  H35  1  0.88443000  0.99135000  0.81416000  1.0
  H  H36  1  0.03598000  0.10041000  0.77839000  1.0
  H  H37  1  0.33041000  0.03571000  0.75696000  1.0
  H  H38  1  0.80112000  0.84139000  0.97423000  1.0
  H  H39  1  0.08908000  0.87467000  0.85033000  1.0
  H  H40  1  0.00837000  0.74028000  0.74895000  1.0
  H  H41  1  0.70979000  0.70502000  0.87965000  1.0
  H  H42  1  0.59286000  0.43639000  0.61629000  1.0
  H  H43  1  0.64674000  0.49480000  0.71788000  1.0
  H  H44  1  0.49121000  0.58414000  0.58104000  1.0
  H  H45  1  0.48339000  0.59977000  0.68290000  1.0
  H  H46  1  0.58146000  0.56979000  0.49639000  1.0
  H  H47  1  0.74614000  0.60327000  0.48995000  1.0
  H  H48  1  0.86752000  0.49920000  0.55540000  1.0
  H  H49  1  0.71407000  0.43364000  0.53265000  1.0
  H  H50  1  0.04211000  0.48440000  0.70165000  1.0
  H  H51  1  0.43112000  0.57135000  0.89351000  1.0
  H  H52  1  0.30101000  0.57466000  0.99777000  1.0
  H  H53  1  0.92930000  0.49144000  0.81406000  1.0
  H  H54  1  0.74234000  0.60021000  0.77849000  1.0
  H  H55  1  0.42633000  0.53581000  0.75707000  1.0
  H  H56  1  0.82704000  0.65852000  0.02593000  1.0
  H  H57  1  0.23894000  0.62522000  0.14959000  1.0
  H  H58  1  0.25969000  0.75954000  0.25112000  1.0
  H  H59  1  0.83032000  0.79480000  0.12066000  1.0
  H  H60  1  0.97660000  0.06351000  0.38367000  1.0
  H  H61  1  0.92886000  0.00503000  0.28210000  1.0
  H  H62  1  0.91027000  0.91589000  0.41912000  1.0
  H  H63  1  0.80059000  0.90012000  0.31727000  1.0
  H  H64  1  0.08511000  0.93018000  0.50355000  1.0
  H  H65  1  0.25629000  0.89677000  0.51002000  1.0
  H  H66  1  0.31215000  0.00086000  0.44456000  1.0
  H  H67  1  0.18136000  0.06635000  0.46729000  1.0
  H  H68  1  0.34067000  0.01572000  0.29831000  1.0
  H  H69  1  0.53814000  0.92887000  0.10655000  1.0
  H  H70  1  0.30389000  0.92555000  0.00222000  1.0
  H  H71  1  0.11558000  0.00865000  0.18584000  1.0
  H  H72  1  0.96403000  0.89959000  0.22161000  1.0
  H  H73  1  0.66960000  0.96428000  0.24304000  1.0
  C  C74  1  0.15516000  0.18363000  0.07625000  1.0
  C  C75  1  0.99481000  0.16523000  0.14530000  1.0
  C  C76  1  0.03954000  0.23954000  0.20194000  1.0
  C  C77  1  0.20645000  0.25877000  0.12930000  1.0
  C  C78  1  0.14922000  0.28843000  0.19468000  1.0
  C  C79  1  0.18230000  0.39556000  0.32318000  1.0
  C  C80  1  0.38122000  0.49975000  0.34789000  1.0
  C  C81  1  0.51372000  0.44912000  0.36995000  1.0
  C  C82  1  0.32067000  0.45159000  0.51531000  1.0
  C  C83  1  0.24435000  0.50131000  0.44923000  1.0
  C  C84  1  0.73051000  0.51281000  0.35340000  1.0
  C  C85  1  0.89767000  0.49443000  0.23386000  1.0
  C  C86  1  0.75327000  0.47310000  0.21159000  1.0
  C  C87  1  0.68111000  0.44553000  0.12669000  1.0
  C  C88  1  0.75291000  0.44350000  0.06860000  1.0
  C  C89  1  0.95972000  0.49057000  0.17122000  1.0
  C  C90  1  0.07874000  0.31650000  0.92360000  1.0
  C  C91  1  0.84929000  0.33488000  0.85467000  1.0
  C  C92  1  0.83736000  0.26062000  0.79796000  1.0
  C  C93  1  0.07698000  0.24141000  0.87048000  1.0
  C  C94  1  0.95434000  0.21176000  0.80515000  1.0
  C  C95  1  0.85896000  0.10454000  0.67673000  1.0
  C  C96  1  0.03328000  0.00036000  0.65212000  1.0
  C  C97  1  0.14369000  0.05094000  0.62995000  1.0
  C  C98  1  0.80533000  0.04841000  0.48474000  1.0
  C  C99  1  0.79511000  0.99869000  0.55081000  1.0
  C  C100  1  0.37703000  0.98723000  0.64653000  1.0
  C  C101  1  0.66353000  0.00539000  0.76619000  1.0
  C  C102  1  0.54135000  0.02672000  0.78841000  1.0
  C  C103  1  0.55397000  0.05424000  0.87330000  1.0
  C  C104  1  0.68381000  0.05627000  0.93142000  1.0
  C  C105  1  0.78815000  0.00927000  0.82885000  1.0
  C  C106  1  0.84484000  0.81638000  0.92376000  1.0
  C  C107  1  0.00520000  0.83477000  0.85472000  1.0
  C  C108  1  0.96048000  0.76046000  0.79808000  1.0
  C  C109  1  0.79354000  0.74124000  0.87070000  1.0
  C  C110  1  0.85078000  0.71158000  0.80533000  1.0
  C  C111  1  0.81772000  0.60445000  0.67683000  1.0
  C  C112  1  0.61879000  0.50026000  0.65211000  1.0
  C  C113  1  0.48629000  0.55089000  0.63006000  1.0
  C  C114  1  0.67936000  0.54842000  0.48470000  1.0
  C  C115  1  0.75566000  0.49870000  0.55078000  1.0
  C  C116  1  0.26950000  0.48720000  0.64661000  1.0
  C  C117  1  0.10232000  0.50557000  0.76614000  1.0
  C  C118  1  0.24672000  0.52691000  0.78841000  1.0
  C  C119  1  0.31887000  0.55448000  0.87331000  1.0
  C  C120  1  0.24706000  0.55650000  0.93140000  1.0
  C  C121  1  0.04026000  0.50942000  0.82877000  1.0
  C  C122  1  0.92123000  0.68350000  0.07639000  1.0
  C  C123  1  0.15069000  0.66511000  0.14531000  1.0
  C  C124  1  0.16262000  0.73937000  0.20202000  1.0
  C  C125  1  0.92302000  0.75859000  0.12952000  1.0
  C  C126  1  0.04565000  0.78824000  0.19484000  1.0
  C  C127  1  0.14104000  0.89545000  0.32326000  1.0
  C  C128  1  0.96673000  0.99963000  0.34788000  1.0
  C  C129  1  0.85632000  0.94905000  0.37004000  1.0
  C  C130  1  0.19468000  0.95158000  0.51525000  1.0
  C  C131  1  0.20490000  0.00130000  0.44918000  1.0
  C  C132  1  0.62299000  0.01276000  0.35347000  1.0
  C  C133  1  0.33648000  0.99460000  0.23381000  1.0
  C  C134  1  0.45865000  0.97327000  0.21159000  1.0
  C  C135  1  0.44604000  0.94575000  0.12670000  1.0
  C  C136  1  0.31619000  0.94372000  0.06858000  1.0
  C  C137  1  0.21186000  0.99073000  0.17116000  1.0
  Br  Br138  1  0.17920000  0.03333000  0.88747000  1.0
  Br  Br139  1  0.29207000  0.46663000  0.11251000  1.0
  Br  Br140  1  0.82077000  0.96666000  0.11255000  1.0
  Br  Br141  1  0.70791000  0.53337000  0.88748000  1.0
  N  N142  1  0.05065000  0.13643000  0.08345000  1.0
  N  N143  1  0.26042000  0.46829000  0.36705000  1.0
  N  N144  1  0.20516000  0.36349000  0.24707000  1.0
  N  N145  1  0.89027000  0.46656000  0.08994000  1.0
  N  N146  1  0.64318000  0.50110000  0.39969000  1.0
  N  N147  1  0.67867000  0.47753000  0.26853000  1.0
  N  N148  1  0.96701000  0.36366000  0.91650000  1.0
  N  N149  1  0.89331000  0.03178000  0.63296000  1.0
  N  N150  1  0.95792000  0.13669000  0.75280000  1.0
  N  N151  1  0.79989000  0.03326000  0.91013000  1.0
  N  N152  1  0.24341000  0.99891000  0.60025000  1.0
  N  N153  1  0.40989000  0.02236000  0.73142000  1.0
  N  N154  1  0.94934000  0.86358000  0.91656000  1.0
  N  N155  1  0.73960000  0.53172000  0.63296000  1.0
  N  N156  1  0.79485000  0.63651000  0.75294000  1.0
  N  N157  1  0.10970000  0.53343000  0.91006000  1.0
  N  N158  1  0.35683000  0.49891000  0.60032000  1.0
  N  N159  1  0.32132000  0.52248000  0.73148000  1.0
  N  N160  1  0.03296000  0.63634000  0.08348000  1.0
  N  N161  1  0.10670000  0.96821000  0.36703000  1.0
  N  N162  1  0.04208000  0.86330000  0.24719000  1.0
  N  N163  1  0.20011000  0.96674000  0.08987000  1.0
  N  N164  1  0.75661000  0.00108000  0.39975000  1.0
  N  N165  1  0.59011000  0.97763000  0.26858000  1.0
  O  O166  1  0.09962000  0.36222000  0.35061000  1.0
  O  O167  1  0.84504000  0.55207000  0.38496000  1.0
  O  O168  1  0.74884000  0.13783000  0.64927000  1.0
  O  O169  1  0.46008000  0.94810000  0.61493000  1.0
  O  O170  1  0.90040000  0.63779000  0.64940000  1.0
  O  O171  1  0.15495000  0.44793000  0.61503000  1.0
  O  O172  1  0.25115000  0.86215000  0.35072000  1.0
  O  O173  1  0.53993000  0.05190000  0.38507000  1.0
