# generated using pymatgen
data_Al6H59C84Cl3O28
_symmetry_space_group_name_H-M   'P 1'
_cell_length_a   12.80321061
_cell_length_b   12.81870000
_cell_length_c   27.71970000
_cell_angle_alpha   89.99010000
_cell_angle_beta   89.94607865
_cell_angle_gamma   118.07546479
_symmetry_Int_Tables_number   1
_chemical_formula_structural   Al6H59C84Cl3O28
_chemical_formula_sum   'Al6 H59 C84 Cl3 O28'
_cell_volume   4014.03726248
_cell_formula_units_Z   1
loop_
 _symmetry_equiv_pos_site_id
 _symmetry_equiv_pos_as_xyz
  1  'x, y, z'
loop_
 _atom_site_type_symbol
 _atom_site_label
 _atom_site_symmetry_multiplicity
 _atom_site_fract_x
 _atom_site_fract_y
 _atom_site_fract_z
 _atom_site_occupancy
  Al  Al0  1  0.57312000  0.42209000  0.50451000  1.0
  Al  Al1  1  0.59393000  0.18249000  0.50203000  1.0
  Al  Al2  1  0.81910000  0.41203000  0.50197000  1.0
  Al  Al3  1  0.08278000  0.89942000  0.01265000  1.0
  Al  Al4  1  0.08318000  0.15018000  0.01549000  1.0
  Al  Al5  1  0.84842000  0.93066000  0.01555000  1.0
  H  H6  1  0.70660000  0.24706000  0.73111000  1.0
  H  H7  1  0.66746000  0.04267000  0.21966000  1.0
  H  H8  1  0.96339000  0.62821000  0.21831000  1.0
  H  H9  1  0.36659000  0.33108000  0.22110000  1.0
  H  H10  1  0.69730000  0.01809000  0.13266000  1.0
  H  H11  1  0.98492000  0.68608000  0.13140000  1.0
  H  H12  1  0.30900000  0.30260000  0.13435000  1.0
  H  H13  1  0.97189000  0.35976000  0.28803000  1.0
  H  H14  1  0.63954000  0.61255000  0.28777000  1.0
  H  H15  1  0.38620000  0.02072000  0.28659000  1.0
  H  H16  1  0.04137000  0.27861000  0.23446000  1.0
  H  H17  1  0.76506000  0.46490000  0.73297000  1.0
  H  H18  1  0.71814000  0.76735000  0.23733000  1.0
  H  H19  1  0.22967000  0.95467000  0.23673000  1.0
  H  H20  1  0.06834000  0.25960000  0.14685000  1.0
  H  H21  1  0.73518000  0.81754000  0.14993000  1.0
  H  H22  1  0.18011000  0.92875000  0.14919000  1.0
  H  H23  1  0.69554000  0.99854000  0.29631000  1.0
  H  H24  1  0.00742000  0.69760000  0.29558000  1.0
  H  H25  1  0.29686000  0.30450000  0.29857000  1.0
  H  H26  1  0.85694000  0.35574000  0.72603000  1.0
  H  H27  1  0.65318000  0.50681000  0.72347000  1.0
  H  H28  1  0.53427000  0.28850000  0.72974000  1.0
  H  H29  1  0.50058000  0.13756000  0.72856000  1.0
  H  H30  1  0.66523000  0.02772000  0.38279000  1.0
  H  H31  1  0.97918000  0.63189000  0.38134000  1.0
  H  H32  1  0.36505000  0.33532000  0.38426000  1.0
  H  H33  1  0.97966000  0.14846000  0.70371000  1.0
  H  H34  1  0.85508000  0.82617000  0.70110000  1.0
  H  H35  1  0.17713000  0.01607000  0.70505000  1.0
  H  H36  1  0.99005000  0.12207000  0.78701000  1.0
  H  H37  1  0.86406000  0.86348000  0.78425000  1.0
  H  H38  1  0.13998000  0.01911000  0.78793000  1.0
  H  H39  1  0.73018000  0.23693000  0.81348000  1.0
  H  H40  1  0.76377000  0.98812000  0.71229000  1.0
  H  H41  1  0.01931000  0.77024000  0.71605000  1.0
  H  H42  1  0.22358000  0.23306000  0.70789000  1.0
  H  H43  1  0.66786000  0.02728000  0.80352000  1.0
  H  H44  1  0.97383000  0.64677000  0.80960000  1.0
  H  H45  1  0.35533000  0.34063000  0.79773000  1.0
  H  H46  1  0.77235000  0.97553000  0.79653000  1.0
  H  H47  1  0.01740000  0.79734000  0.79980000  1.0
  H  H48  1  0.20392000  0.23861000  0.79204000  1.0
  H  H49  1  0.01498000  0.29794000  0.71259000  1.0
  H  H50  1  0.76462000  0.50128000  0.81472000  1.0
  H  H51  1  0.70563000  0.71667000  0.70629000  1.0
  H  H52  1  0.29117000  0.97909000  0.71713000  1.0
  H  H53  1  0.03934000  0.27500000  0.79472000  1.0
  H  H54  1  0.71128000  0.76227000  0.78828000  1.0
  H  H55  1  0.24297000  0.96683000  0.79917000  1.0
  H  H56  1  0.65081000  0.02877000  0.71977000  1.0
  H  H57  1  0.98288000  0.62109000  0.72649000  1.0
  H  H58  1  0.37153000  0.34487000  0.71362000  1.0
  H  H59  1  0.50189000  0.27509000  0.81227000  1.0
  H  H60  1  0.94499000  0.38562000  0.37511000  1.0
  H  H61  1  0.61463000  0.55356000  0.37437000  1.0
  H  H62  1  0.44786000  0.04868000  0.37285000  1.0
  H  H63  1  0.51143000  0.56141000  0.48340000  1.0
  H  H64  1  0.20413000  0.81822000  0.03731000  1.0
  C  C65  1  0.78479000  0.54572000  0.57151000  1.0
  C  C66  1  0.86414000  0.15425000  0.85745000  1.0
  C  C67  1  0.83111000  0.71304000  0.85640000  1.0
  C  C68  1  0.29155000  0.15017000  0.85646000  1.0
  C  C69  1  0.81349000  0.18908000  0.66059000  1.0
  C  C70  1  0.82687000  0.62295000  0.66148000  1.0
  C  C71  1  0.37633000  0.17422000  0.66054000  1.0
  C  C72  1  0.80178000  0.20190000  0.61779000  1.0
  C  C73  1  0.81564000  0.59610000  0.61906000  1.0
  C  C74  1  0.40279000  0.18444000  0.61806000  1.0
  C  C75  1  0.21465000  0.11246000  0.94653000  1.0
  C  C76  1  0.45371000  0.21520000  0.57059000  1.0
  C  C77  1  0.89737000  0.11339000  0.94817000  1.0
  C  C78  1  0.87702000  0.78894000  0.94638000  1.0
  C  C79  1  0.80434000  0.20800000  0.38450000  1.0
  C  C80  1  0.79535000  0.58966000  0.38301000  1.0
  C  C81  1  0.40983000  0.19353000  0.38349000  1.0
  C  C82  1  0.89181000  0.30077000  0.35758000  1.0
  C  C83  1  0.70029000  0.58612000  0.35662000  1.0
  C  C84  1  0.41376000  0.10347000  0.35618000  1.0
  C  C85  1  0.90671000  0.28549000  0.30890000  1.0
  C  C86  1  0.71511000  0.61993000  0.30847000  1.0
  C  C87  1  0.77652000  0.22655000  0.56982000  1.0
  C  C88  1  0.37853000  0.08789000  0.30818000  1.0
  C  C89  1  0.83600000  0.17711000  0.28560000  1.0
  C  C90  1  0.82537000  0.65966000  0.28544000  1.0
  C  C91  1  0.33729000  0.16073000  0.28639000  1.0
  C  C92  1  0.77393000  0.54349000  0.43319000  1.0
  C  C93  1  0.45854000  0.21892000  0.43321000  1.0
  C  C94  1  0.78078000  0.22956000  0.43497000  1.0
  C  C95  1  0.74960000  0.08418000  0.31320000  1.0
  C  C96  1  0.92058000  0.66440000  0.31248000  1.0
  C  C97  1  0.33157000  0.24932000  0.31452000  1.0
  C  C98  1  0.75161000  0.04604000  0.78580000  1.0
  C  C99  1  0.73322000  0.09943000  0.36179000  1.0
  C  C100  1  0.90571000  0.62907000  0.36054000  1.0
  C  C101  1  0.36801000  0.26617000  0.36236000  1.0
  C  C102  1  0.75598000  0.08919000  0.20408000  1.0
  C  C103  1  0.91478000  0.67170000  0.20368000  1.0
  C  C104  1  0.32357000  0.24237000  0.20572000  1.0
  C  C105  1  0.77177000  0.07637000  0.15519000  1.0
  C  C106  1  0.92593000  0.70199000  0.15511000  1.0
  C  C107  1  0.29309000  0.22724000  0.15712000  1.0
  C  C108  1  0.98069000  0.21349000  0.16312000  1.0
  C  C109  1  0.95240000  0.70749000  0.78912000  1.0
  C  C110  1  0.78387000  0.77511000  0.16532000  1.0
  C  C111  1  0.22174000  0.01638000  0.16547000  1.0
  C  C112  1  0.96477000  0.22425000  0.21211000  1.0
  C  C113  1  0.77434000  0.74632000  0.21402000  1.0
  C  C114  1  0.25037000  0.03164000  0.21414000  1.0
  C  C115  1  0.85212000  0.16305000  0.23361000  1.0
  C  C116  1  0.83891000  0.69340000  0.23406000  1.0
  C  C117  1  0.30295000  0.14492000  0.23509000  1.0
  C  C118  1  0.88431000  0.13912000  0.13416000  1.0
  C  C119  1  0.85996000  0.75336000  0.13552000  1.0
  C  C120  1  0.29323000  0.25530000  0.78181000  1.0
  C  C121  1  0.24300000  0.11416000  0.13654000  1.0
  C  C122  1  0.20445000  0.09386000  0.08534000  1.0
  C  C123  1  0.90523000  0.11916000  0.08309000  1.0
  C  C124  1  0.87873000  0.79358000  0.08448000  1.0
  C  C125  1  0.79783000  0.26640000  0.73926000  1.0
  C  C126  1  0.74125000  0.53561000  0.73905000  1.0
  C  C127  1  0.46726000  0.19863000  0.73961000  1.0
  C  C128  1  0.95582000  0.20713000  0.72449000  1.0
  C  C129  1  0.79460000  0.74672000  0.72130000  1.0
  C  C130  1  0.25753000  0.04108000  0.72654000  1.0
  C  C131  1  0.74170000  0.05148000  0.73039000  1.0
  C  C132  1  0.96830000  0.19369000  0.77934000  1.0
  C  C133  1  0.79705000  0.77264000  0.77583000  1.0
  C  C134  1  0.23148000  0.03691000  0.78112000  1.0
  C  C135  1  0.87564000  0.14144000  0.90022000  1.0
  C  C136  1  0.84304000  0.73944000  0.89883000  1.0
  C  C137  1  0.26516000  0.14012000  0.89889000  1.0
  C  C138  1  0.82680000  0.17737000  0.71211000  1.0
  C  C139  1  0.83138000  0.64919000  0.71255000  1.0
  C  C140  1  0.35119000  0.16722000  0.71176000  1.0
  C  C141  1  0.81295000  0.25956000  0.79422000  1.0
  C  C142  1  0.95554000  0.68876000  0.73423000  1.0
  C  C143  1  0.74004000  0.55856000  0.79354000  1.0
  C  C144  1  0.44548000  0.19066000  0.79448000  1.0
  C  C145  1  0.85113000  0.16442000  0.80581000  1.0
  C  C146  1  0.82820000  0.68852000  0.80521000  1.0
  C  C147  1  0.31479000  0.15683000  0.80507000  1.0
  C  C148  1  0.30752000  0.25655000  0.72648000  1.0
  Cl  Cl149  1  0.91774000  0.40191000  0.81811000  1.0
  Cl  Cl150  1  0.59223000  0.52113000  0.81395000  1.0
  Cl  Cl151  1  0.48611000  0.08704000  0.82205000  1.0
  O  O152  1  0.47610000  0.31615000  0.55512000  1.0
  O  O153  1  0.47600000  0.31506000  0.45238000  1.0
  O  O154  1  0.68542000  0.15270000  0.45515000  1.0
  O  O155  1  0.85406000  0.52310000  0.45276000  1.0
  O  O156  1  0.67691000  0.52278000  0.45290000  1.0
  O  O157  1  0.48428000  0.14214000  0.45274000  1.0
  O  O158  1  0.85416000  0.32726000  0.45469000  1.0
  O  O159  1  0.66328000  0.33802000  0.50294000  1.0
  O  O160  1  0.00396000  0.99472000  0.01462000  1.0
  O  O161  1  0.18850000  0.01167000  0.96315000  1.0
  O  O162  1  0.99438000  0.18488000  0.96849000  1.0
  O  O163  1  0.67896000  0.15077000  0.55088000  1.0
  O  O164  1  0.80242000  0.80991000  0.97027000  1.0
  O  O165  1  0.96754000  0.79904000  0.06255000  1.0
  O  O166  1  0.19657000  0.17838000  0.06312000  1.0
  O  O167  1  0.82482000  0.02945000  0.06121000  1.0
  O  O168  1  0.17756000  0.99375000  0.06736000  1.0
  O  O169  1  0.00606000  0.18955000  0.06463000  1.0
  O  O170  1  0.80463000  0.82546000  0.06666000  1.0
  O  O171  1  0.86337000  0.52795000  0.54882000  1.0
  O  O172  1  0.97980000  0.81191000  0.95979000  1.0
  O  O173  1  0.19553000  0.19233000  0.96727000  1.0
  O  O174  1  0.81965000  0.01474000  0.96577000  1.0
  O  O175  1  0.68217000  0.51897000  0.55675000  1.0
  O  O176  1  0.47647000  0.13921000  0.54883000  1.0
  O  O177  1  0.85019000  0.32467000  0.55075000  1.0
  O  O178  1  0.49024000  0.49872000  0.50677000  1.0
  O  O179  1  0.15412000  0.81174000  0.01018000  1.0
