# generated using pymatgen
data_AlH3C24(OF2)6
_symmetry_space_group_name_H-M   'P 1'
_cell_length_a   3.95698000
_cell_length_b   28.79330000
_cell_length_c   28.79330000
_cell_angle_alpha   60.00000000
_cell_angle_beta   90.00000000
_cell_angle_gamma   89.99980000
_symmetry_Int_Tables_number   1
_chemical_formula_structural   AlH3C24(OF2)6
_chemical_formula_sum   'Al2 H6 C48 O12 F24'
_cell_volume   2841.04015028
_cell_formula_units_Z   2
loop_
 _symmetry_equiv_pos_site_id
 _symmetry_equiv_pos_as_xyz
  1  'x, y, z'
loop_
 _atom_site_type_symbol
 _atom_site_label
 _atom_site_symmetry_multiplicity
 _atom_site_fract_x
 _atom_site_fract_y
 _atom_site_fract_z
 _atom_site_occupancy
  Al  Al0  1  0.00035000  0.50000000  0.00000000  1.0
  Al  Al1  1  0.00035000  0.16667000  0.66666000  1.0
  H  H2  1  0.49998000  0.27715000  0.33925000  1.0
  H  H3  1  0.49998000  0.38954000  0.32740000  1.0
  H  H4  1  0.49999000  0.38360000  0.77715000  1.0
  H  H5  1  0.49999000  0.28306000  0.88953000  1.0
  H  H6  1  0.49998000  0.83925000  0.88360000  1.0
  H  H7  1  0.49999000  0.82741000  0.78305000  1.0
  C  C8  1  0.50012000  0.58196000  0.95490000  1.0
  C  C9  1  0.50012000  0.46314000  0.08195000  1.0
  C  C10  1  0.50012000  0.45491000  0.96313000  1.0
  C  C11  1  0.50013000  0.20354000  0.58471000  1.0
  C  C12  1  0.50013000  0.21175000  0.70354000  1.0
  C  C13  1  0.50013000  0.08470000  0.71176000  1.0
  C  C14  1  0.49968000  0.23081000  0.52484000  1.0
  C  C15  1  0.50641000  0.28676000  0.49353000  1.0
  C  C16  1  0.50253000  0.31245000  0.43781000  1.0
  C  C17  1  0.50012000  0.28389000  0.40982000  1.0
  C  C18  1  0.49747000  0.22743000  0.44236000  1.0
  C  C19  1  0.49319000  0.20153000  0.49808000  1.0
  C  C20  1  0.50027000  0.30684000  0.35202000  1.0
  C  C21  1  0.50028000  0.35985000  0.31463000  1.0
  C  C22  1  0.49747000  0.43925000  0.22430000  1.0
  C  C23  1  0.50011000  0.38280000  0.25683000  1.0
  C  C24  1  0.50254000  0.35423000  0.22885000  1.0
  C  C25  1  0.50641000  0.37992000  0.17312000  1.0
  C  C26  1  0.49966000  0.43587000  0.14182000  1.0
  C  C27  1  0.49319000  0.46516000  0.16858000  1.0
  C  C28  1  0.49967000  0.24435000  0.73081000  1.0
  C  C29  1  0.50640000  0.21971000  0.78676000  1.0
  C  C30  1  0.50253000  0.24974000  0.81245000  1.0
  C  C31  1  0.50012000  0.30629000  0.78388000  1.0
  C  C32  1  0.49748000  0.33021000  0.72743000  1.0
  C  C33  1  0.49318000  0.30039000  0.70153000  1.0
  C  C34  1  0.50028000  0.34114000  0.80684000  1.0
  C  C35  1  0.50029000  0.32552000  0.85984000  1.0
  C  C36  1  0.49747000  0.33645000  0.93925000  1.0
  C  C37  1  0.50011000  0.36037000  0.88280000  1.0
  C  C38  1  0.50254000  0.41692000  0.85423000  1.0
  C  C39  1  0.50640000  0.44696000  0.87991000  1.0
  C  C40  1  0.49966000  0.42231000  0.93586000  1.0
  C  C41  1  0.49318000  0.36627000  0.96515000  1.0
  C  C42  1  0.49967000  0.02484000  0.74435000  1.0
  C  C43  1  0.50640000  0.99353000  0.71971000  1.0
  C  C44  1  0.50252000  0.93781000  0.74974000  1.0
  C  C45  1  0.50010000  0.90983000  0.80628000  1.0
  C  C46  1  0.49746000  0.94236000  0.83021000  1.0
  C  C47  1  0.49318000  0.99808000  0.80039000  1.0
  C  C48  1  0.50027000  0.85202000  0.84114000  1.0
  C  C49  1  0.50029000  0.81464000  0.82551000  1.0
  C  C50  1  0.49747000  0.72430000  0.83645000  1.0
  C  C51  1  0.50011000  0.75683000  0.86037000  1.0
  C  C52  1  0.50254000  0.72885000  0.91692000  1.0
  C  C53  1  0.50640000  0.67313000  0.94696000  1.0
  C  C54  1  0.49966000  0.64183000  0.92230000  1.0
  C  C55  1  0.49318000  0.66858000  0.86627000  1.0
  O  O56  1  0.26408000  0.44622000  0.99639000  1.0
  O  O57  1  0.26408000  0.55739000  0.94622000  1.0
  O  O58  1  0.26408000  0.49639000  0.05739000  1.0
  O  O59  1  0.73667000  0.48889000  0.95081000  1.0
  O  O60  1  0.73667000  0.45081000  0.06030000  1.0
  O  O61  1  0.73667000  0.56030000  0.98889000  1.0
  O  O62  1  0.26407000  0.10927000  0.72044000  1.0
  O  O63  1  0.26407000  0.17029000  0.60927000  1.0
  O  O64  1  0.26407000  0.22044000  0.67029000  1.0
  O  O65  1  0.73667000  0.10636000  0.67777000  1.0
  O  O66  1  0.73667000  0.17777000  0.71586000  1.0
  O  O67  1  0.73667000  0.21587000  0.60636000  1.0
  F  F68  1  0.49382000  0.14750000  0.52615000  1.0
  F  F69  1  0.50001000  0.19679000  0.41890000  1.0
  F  F70  1  0.50553000  0.31694000  0.51728000  1.0
  F  F71  1  0.49995000  0.36675000  0.41081000  1.0
  F  F72  1  0.49996000  0.29993000  0.25585000  1.0
  F  F73  1  0.50550000  0.34974000  0.14938000  1.0
  F  F74  1  0.50003000  0.46989000  0.24776000  1.0
  F  F75  1  0.49381000  0.51919000  0.14050000  1.0
  F  F76  1  0.49381000  0.32635000  0.64750000  1.0
  F  F77  1  0.50002000  0.38431000  0.69679000  1.0
  F  F78  1  0.50552000  0.16578000  0.81694000  1.0
  F  F79  1  0.49996000  0.22244000  0.86675000  1.0
  F  F80  1  0.49997000  0.44422000  0.79993000  1.0
  F  F81  1  0.50550000  0.50088000  0.84973000  1.0
  F  F82  1  0.50002000  0.28235000  0.96989000  1.0
  F  F83  1  0.49381000  0.34031000  0.01918000  1.0
  F  F84  1  0.49381000  0.02615000  0.82635000  1.0
  F  F85  1  0.50001000  0.91890000  0.88431000  1.0
  F  F86  1  0.50553000  0.01728000  0.66578000  1.0
  F  F87  1  0.49995000  0.91081000  0.72244000  1.0
  F  F88  1  0.49997000  0.75585000  0.94422000  1.0
  F  F89  1  0.50550000  0.64939000  0.00087000  1.0
  F  F90  1  0.50003000  0.74776000  0.78235000  1.0
  F  F91  1  0.49381000  0.64051000  0.84030000  1.0
