# generated using pymatgen
data_CuH6C6S2(BrN)2
_symmetry_space_group_name_H-M   'P 1'
_cell_length_a   3.93191000
_cell_length_b   7.43599000
_cell_length_c   17.49560000
_cell_angle_alpha   93.30380000
_cell_angle_beta   89.98280000
_cell_angle_gamma   89.97360000
_symmetry_Int_Tables_number   1
_chemical_formula_structural   CuH6C6S2(BrN)2
_chemical_formula_sum   'Cu2 H12 C12 S4 Br4 N4'
_cell_volume   510.67986825
_cell_formula_units_Z   2
loop_
 _symmetry_equiv_pos_site_id
 _symmetry_equiv_pos_as_xyz
  1  'x, y, z'
loop_
 _atom_site_type_symbol
 _atom_site_label
 _atom_site_symmetry_multiplicity
 _atom_site_fract_x
 _atom_site_fract_y
 _atom_site_fract_z
 _atom_site_occupancy
  Cu  Cu0  1  0.50001000  0.50000000  0.00000000  1.0
  Cu  Cu1  1  0.00000000  0.50000000  0.50000000  1.0
  H  H2  1  0.70020000  0.89295000  0.96375000  1.0
  H  H3  1  0.20026000  0.10694000  0.53621000  1.0
  H  H4  1  0.29981000  0.10705000  0.03625000  1.0
  H  H5  1  0.79975000  0.89305000  0.46379000  1.0
  H  H6  1  0.33421000  0.70935000  0.72564000  1.0
  H  H7  1  0.83420000  0.29071000  0.77438000  1.0
  H  H8  1  0.66576000  0.29067000  0.27436000  1.0
  H  H9  1  0.16580000  0.70928000  0.22562000  1.0
  H  H10  1  0.30294000  0.45419000  0.82941000  1.0
  H  H11  1  0.80287000  0.54588000  0.67061000  1.0
  H  H12  1  0.69706000  0.54581000  0.17059000  1.0
  H  H13  1  0.19712000  0.45411000  0.32939000  1.0
  C  C14  1  0.59921000  0.82136000  0.91289000  1.0
  C  C15  1  0.09926000  0.17858000  0.58709000  1.0
  C  C16  1  0.40080000  0.17864000  0.08711000  1.0
  C  C17  1  0.90075000  0.82142000  0.41291000  1.0
  C  C18  1  0.40389000  0.72073000  0.78591000  1.0
  C  C19  1  0.90389000  0.27930000  0.71409000  1.0
  C  C20  1  0.59608000  0.27929000  0.21409000  1.0
  C  C21  1  0.09612000  0.72070000  0.28591000  1.0
  C  C22  1  0.39207000  0.59182000  0.83845000  1.0
  C  C23  1  0.89203000  0.40820000  0.66156000  1.0
  C  C24  1  0.60793000  0.40819000  0.16155000  1.0
  C  C25  1  0.10798000  0.59180000  0.33844000  1.0
  S  S26  1  0.55699000  0.91906000  0.82768000  1.0
  S  S27  1  0.05705000  0.08089000  0.67230000  1.0
  S  S28  1  0.44300000  0.08095000  0.17232000  1.0
  S  S29  1  0.94296000  0.91910000  0.32770000  1.0
  Br  Br30  1  0.89109000  0.27995000  0.93117000  1.0
  Br  Br31  1  0.39079000  0.71991000  0.56883000  1.0
  Br  Br32  1  0.10892000  0.72005000  0.06883000  1.0
  Br  Br33  1  0.60919000  0.28009000  0.43117000  1.0
  N  N34  1  0.50265000  0.65086000  0.91039000  1.0
  N  N35  1  0.00264000  0.34912000  0.58961000  1.0
  N  N36  1  0.49736000  0.34914000  0.08961000  1.0
  N  N37  1  0.99737000  0.65088000  0.41039000  1.0
