# generated using pymatgen
data_Zn2H27C34Br(NO2)4
_symmetry_space_group_name_H-M   'P 1'
_cell_length_a   9.70849000
_cell_length_b   11.06760000
_cell_length_c   16.87120000
_cell_angle_alpha   88.84490000
_cell_angle_beta   85.39370000
_cell_angle_gamma   89.60970000
_symmetry_Int_Tables_number   1
_chemical_formula_structural   Zn2H27C34Br(NO2)4
_chemical_formula_sum   'Zn2 H27 C34 Br1 N4 O8'
_cell_volume   1806.55812337
_cell_formula_units_Z   1
loop_
 _symmetry_equiv_pos_site_id
 _symmetry_equiv_pos_as_xyz
  1  'x, y, z'
loop_
 _atom_site_type_symbol
 _atom_site_label
 _atom_site_symmetry_multiplicity
 _atom_site_fract_x
 _atom_site_fract_y
 _atom_site_fract_z
 _atom_site_occupancy
  Zn  Zn0  1  0.63591000  0.51684000  0.50406000  1.0
  Zn  Zn1  1  0.35215000  0.52068000  0.49952000  1.0
  H  H2  1  0.63092000  0.34443000  0.72773000  1.0
  H  H3  1  0.29397000  0.13197000  0.45965000  1.0
  H  H4  1  0.81949000  0.13088000  0.53764000  1.0
  H  H5  1  0.72728000  0.12701000  0.63383000  1.0
  H  H6  1  0.82300000  0.90370000  0.53818000  1.0
  H  H7  1  0.72932000  0.90016000  0.63331000  1.0
  H  H8  1  0.12585000  0.37802000  0.57296000  1.0
  H  H9  1  0.86509000  0.37322000  0.58215000  1.0
  H  H10  1  0.86065000  0.68069000  0.34790000  1.0
  H  H11  1  0.85380000  0.78313000  0.42893000  1.0
  H  H12  1  0.11148000  0.79060000  0.42178000  1.0
  H  H13  1  0.76054000  0.40193000  0.09482000  1.0
  H  H14  1  0.24541000  0.53274000  0.77002000  1.0
  H  H15  1  0.31730000  0.38187000  0.12424000  1.0
  H  H16  1  0.24722000  0.47895000  0.91615000  1.0
  H  H17  1  0.32607000  0.43594000  0.26737000  1.0
  H  H18  1  0.29771000  0.90749000  0.45729000  1.0
  H  H19  1  0.29478000  0.83686000  0.30804000  1.0
  H  H20  1  0.35480000  0.69320000  0.33927000  1.0
  H  H21  1  0.33266000  0.72240000  0.23710000  1.0
  H  H22  1  0.13347000  0.60027000  0.29249000  1.0
  H  H23  1  0.07638000  0.74724000  0.26988000  1.0
  H  H24  1  0.53734000  0.14320000  0.96234000  1.0
  H  H25  1  0.54112000  0.08764000  0.86406000  1.0
  H  H26  1  0.68788000  0.06975000  0.92000000  1.0
  H  H27  1  0.73061000  0.23652000  0.82032000  1.0
  H  H28  1  0.72099000  0.29430000  0.91801000  1.0
  C  C29  1  0.49501000  0.75302000  0.50322000  1.0
  C  C30  1  0.66835000  0.44186000  0.21258000  1.0
  C  C31  1  0.54914000  0.33893000  0.84987000  1.0
  C  C32  1  0.54714000  0.37374000  0.77011000  1.0
  C  C33  1  0.44111000  0.38575000  0.90305000  1.0
  C  C34  1  0.44282000  0.44701000  0.74129000  1.0
  C  C35  1  0.32936000  0.48012000  0.79281000  1.0
  C  C36  1  0.32955000  0.44929000  0.87301000  1.0
  C  C37  1  0.60045000  0.95346000  0.53555000  1.0
  C  C38  1  0.49395000  0.88737000  0.50674000  1.0
  C  C39  1  0.38320000  0.95596000  0.47986000  1.0
  C  C40  1  0.53283000  0.49231000  0.34755000  1.0
  C  C41  1  0.38117000  0.08191000  0.48107000  1.0
  C  C42  1  0.49095000  0.14787000  0.50854000  1.0
  C  C43  1  0.59904000  0.07967000  0.53596000  1.0
  C  C44  1  0.73466000  0.08723000  0.57439000  1.0
  C  C45  1  0.73614000  0.94433000  0.57423000  1.0
  C  C46  1  0.06596000  0.60146000  0.45295000  1.0
  C  C47  1  0.06659000  0.44245000  0.53956000  1.0
  C  C48  1  0.92272000  0.43997000  0.54477000  1.0
  C  C49  1  0.92174000  0.59881000  0.45900000  1.0
  C  C50  1  0.90738000  0.70410000  0.40272000  1.0
  C  C51  1  0.49039000  0.28249000  0.50653000  1.0
  C  C52  1  0.07209000  0.70947000  0.39457000  1.0
  C  C53  1  0.45727000  0.48947000  0.65610000  1.0
  C  C54  1  0.54537000  0.45470000  0.26194000  1.0
  C  C55  1  0.42036000  0.42928000  0.22810000  1.0
  C  C56  1  0.41507000  0.39861000  0.14940000  1.0
  C  C57  1  0.53908000  0.39133000  0.10066000  1.0
  C  C58  1  0.66533000  0.40966000  0.13320000  1.0
  C  C59  1  0.14012000  0.69538000  0.30984000  1.0
  C  C60  1  0.28928000  0.73917000  0.29810000  1.0
  C  C61  1  0.66045000  0.25280000  0.87366000  1.0
  C  C62  1  0.60308000  0.13141000  0.90696000  1.0
  Br  Br63  1  0.84953000  0.46534000  0.24625000  1.0
  N  N64  1  0.54839000  0.37180000  0.01780000  1.0
  N  N65  1  0.43462000  0.38761000  0.98674000  1.0
  N  N66  1  0.14151000  0.52444000  0.49316000  1.0
  N  N67  1  0.84703000  0.51992000  0.50409000  1.0
  O  O68  1  0.60868000  0.69938000  0.51438000  1.0
  O  O69  1  0.38283000  0.70142000  0.48870000  1.0
  O  O70  1  0.63932000  0.52604000  0.37999000  1.0
  O  O71  1  0.41089000  0.48781000  0.38184000  1.0
  O  O72  1  0.60810000  0.33323000  0.49569000  1.0
  O  O73  1  0.37345000  0.33561000  0.51518000  1.0
  O  O74  1  0.57982000  0.48718000  0.62264000  1.0
  O  O75  1  0.34926000  0.52415000  0.62368000  1.0
