# generated using pymatgen
data_CoH14C14S2N2O5
_symmetry_space_group_name_H-M   'P 1'
_cell_length_a   5.62150000
_cell_length_b   8.73880000
_cell_length_c   17.24080000
_cell_angle_alpha   75.60300000
_cell_angle_beta   88.79750000
_cell_angle_gamma   72.73600000
_symmetry_Int_Tables_number   1
_chemical_formula_structural   CoH14C14S2N2O5
_chemical_formula_sum   'Co2 H28 C28 S4 N4 O10'
_cell_volume   782.12256555
_cell_formula_units_Z   2
loop_
 _symmetry_equiv_pos_site_id
 _symmetry_equiv_pos_as_xyz
  1  'x, y, z'
loop_
 _atom_site_type_symbol
 _atom_site_label
 _atom_site_symmetry_multiplicity
 _atom_site_fract_x
 _atom_site_fract_y
 _atom_site_fract_z
 _atom_site_occupancy
  Co  Co0  1  0.97141000  0.00600000  0.24838000  1.0
  Co  Co1  1  0.02858000  0.99400000  0.75162000  1.0
  H  H2  1  0.11916000  0.29447000  0.25006000  1.0
  H  H3  1  0.56744000  0.26997000  0.75700000  1.0
  H  H4  1  0.88082000  0.70553000  0.74994000  1.0
  H  H5  1  0.43257000  0.73005000  0.24300000  1.0
  H  H6  1  0.03066000  0.57706000  0.16470000  1.0
  H  H7  1  0.38006000  0.55208000  0.67293000  1.0
  H  H8  1  0.96936000  0.42295000  0.83530000  1.0
  H  H9  1  0.61994000  0.44793000  0.32707000  1.0
  H  H10  1  0.39764000  0.49978000  0.05785000  1.0
  H  H11  1  0.08295000  0.50400000  0.55779000  1.0
  H  H12  1  0.60239000  0.50022000  0.94215000  1.0
  H  H13  1  0.91706000  0.49600000  0.44221000  1.0
  H  H14  1  0.52125000  0.21720000  0.14576000  1.0
  H  H15  1  0.23556000  0.22069000  0.64336000  1.0
  H  H16  1  0.47875000  0.78278000  0.85424000  1.0
  H  H17  1  0.76446000  0.77930000  0.35664000  1.0
  H  H18  1  0.06787000  0.76424000  0.04365000  1.0
  H  H19  1  0.17013000  0.75063000  0.55357000  1.0
  H  H20  1  0.93216000  0.23575000  0.95636000  1.0
  H  H21  1  0.82983000  0.24938000  0.44643000  1.0
  H  H22  1  0.84590000  0.95138000  0.99386000  1.0
  H  H23  1  0.22100000  0.92810000  0.48722000  1.0
  H  H24  1  0.15410000  0.04862000  0.00613000  1.0
  H  H25  1  0.77898000  0.07190000  0.51279000  1.0
  H  H26  1  0.45465000  0.97435000  0.21293000  1.0
  H  H27  1  0.58646000  0.97152000  0.70476000  1.0
  H  H28  1  0.54534000  0.02565000  0.78707000  1.0
  H  H29  1  0.41354000  0.02848000  0.29525000  1.0
  C  C30  1  0.96500000  0.34354000  0.20512000  1.0
  C  C31  1  0.67394000  0.32420000  0.71050000  1.0
  C  C32  1  0.03503000  0.65645000  0.79488000  1.0
  C  C33  1  0.32604000  0.67581000  0.28950000  1.0
  C  C34  1  0.91353000  0.50273000  0.15625000  1.0
  C  C35  1  0.56958000  0.48424000  0.66278000  1.0
  C  C36  1  0.08648000  0.49726000  0.84375000  1.0
  C  C37  1  0.43041000  0.51577000  0.33722000  1.0
  C  C38  1  0.71682000  0.56148000  0.09715000  1.0
  C  C39  1  0.70694000  0.55117000  0.60161000  1.0
  C  C40  1  0.28319000  0.43851000  0.90284000  1.0
  C  C41  1  0.29305000  0.44883000  0.39839000  1.0
  C  C42  1  0.56501000  0.45886000  0.09744000  1.0
  C  C43  1  0.95766000  0.45660000  0.59940000  1.0
  C  C44  1  0.43501000  0.54115000  0.90256000  1.0
  C  C45  1  0.04235000  0.54339000  0.40061000  1.0
  C  C46  1  0.63280000  0.29955000  0.14668000  1.0
  C  C47  1  0.04667000  0.29777000  0.64789000  1.0
  C  C48  1  0.36722000  0.70045000  0.85332000  1.0
  C  C49  1  0.95333000  0.70222000  0.35212000  1.0
  C  C50  1  0.87494000  0.84215000  0.04502000  1.0
  C  C51  1  0.28765000  0.83319000  0.54414000  1.0
  C  C52  1  0.12504000  0.15785000  0.95499000  1.0
  C  C53  1  0.71234000  0.16680000  0.45586000  1.0
  C  C54  1  0.83556000  0.89452000  0.12399000  1.0
  C  C55  1  0.27164000  0.91910000  0.61233000  1.0
  C  C56  1  0.16443000  0.10548000  0.87602000  1.0
  C  C57  1  0.72833000  0.08090000  0.38767000  1.0
  S  S58  1  0.65372000  0.74546000  0.02219000  1.0
  S  S59  1  0.60275000  0.73074000  0.52430000  1.0
  S  S60  1  0.34630000  0.25454000  0.97781000  1.0
  S  S61  1  0.39723000  0.26926000  0.47570000  1.0
  N  N62  1  0.83733000  0.23814000  0.19772000  1.0
  N  N63  1  0.90465000  0.22703000  0.70085000  1.0
  N  N64  1  0.16269000  0.76186000  0.80229000  1.0
  N  N65  1  0.09536000  0.77297000  0.29915000  1.0
  O  O66  1  0.99790000  0.95808000  0.14298000  1.0
  O  O67  1  0.06866000  0.93332000  0.64952000  1.0
  O  O68  1  0.00208000  0.04194000  0.85702000  1.0
  O  O69  1  0.93132000  0.06667000  0.35048000  1.0
  O  O70  1  0.65574000  0.87075000  0.16415000  1.0
  O  O71  1  0.44999000  0.96993000  0.62501000  1.0
  O  O72  1  0.34426000  0.12925000  0.83585000  1.0
  O  O73  1  0.54999000  0.03008000  0.37499000  1.0
  O  O74  1  0.32742000  0.03920000  0.24304000  1.0
  O  O75  1  0.67256000  0.96079000  0.75696000  1.0
