# generated using pymatgen
data_AgH6C6N3O4
_symmetry_space_group_name_H-M   'P 1'
_cell_length_a   7.98145000
_cell_length_b   8.05577000
_cell_length_c   12.67770000
_cell_angle_alpha   90.00010000
_cell_angle_beta   94.76190000
_cell_angle_gamma   89.99990000
_symmetry_Int_Tables_number   1
_chemical_formula_structural   AgH6C6N3O4
_chemical_formula_sum   'Ag4 H24 C24 N12 O16'
_cell_volume   812.32098187
_cell_formula_units_Z   4
loop_
 _symmetry_equiv_pos_site_id
 _symmetry_equiv_pos_as_xyz
  1  'x, y, z'
loop_
 _atom_site_type_symbol
 _atom_site_label
 _atom_site_symmetry_multiplicity
 _atom_site_fract_x
 _atom_site_fract_y
 _atom_site_fract_z
 _atom_site_occupancy
  Ag  Ag0  1  0.53514000  0.74036000  0.54407000  1.0
  Ag  Ag1  1  0.46486000  0.24036000  0.95593000  1.0
  Ag  Ag2  1  0.46486000  0.25964000  0.45593000  1.0
  Ag  Ag3  1  0.53514000  0.75964000  0.04407000  1.0
  H  H4  1  0.70807000  0.81473000  0.30804000  1.0
  H  H5  1  0.29192000  0.31474000  0.19196000  1.0
  H  H6  1  0.29192000  0.18526000  0.69196000  1.0
  H  H7  1  0.70807000  0.68526000  0.80804000  1.0
  H  H8  1  0.20457000  0.84160000  0.17853000  1.0
  H  H9  1  0.79543000  0.34160000  0.32147000  1.0
  H  H10  1  0.79543000  0.15840000  0.82147000  1.0
  H  H11  1  0.20457000  0.65840000  0.67853000  1.0
  H  H12  1  0.22680000  0.84796000  0.48458000  1.0
  H  H13  1  0.77321000  0.34796000  0.01542000  1.0
  H  H14  1  0.77321000  0.15204000  0.51542000  1.0
  H  H15  1  0.22680000  0.65204000  0.98458000  1.0
  H  H16  1  0.99613000  0.69857000  0.30187000  1.0
  H  H17  1  0.00387000  0.19857000  0.19814000  1.0
  H  H18  1  0.00387000  0.30143000  0.69813000  1.0
  H  H19  1  0.99613000  0.80143000  0.80187000  1.0
  H  H20  1  0.95021000  0.71747000  0.43454000  1.0
  H  H21  1  0.04979000  0.21747000  0.06546000  1.0
  H  H22  1  0.04979000  0.28252000  0.56546000  1.0
  H  H23  1  0.95021000  0.78253000  0.93454000  1.0
  H  H24  1  0.10535000  0.28798000  0.37116000  1.0
  H  H25  1  0.89465000  0.78798000  0.12884000  1.0
  H  H26  1  0.89465000  0.71202000  0.62884000  1.0
  H  H27  1  0.10535000  0.21202000  0.87116000  1.0
  C  C28  1  0.57178000  0.81780000  0.29944000  1.0
  C  C29  1  0.42823000  0.31780000  0.20056000  1.0
  C  C30  1  0.42822000  0.18220000  0.70056000  1.0
  C  C31  1  0.57178000  0.68220000  0.79944000  1.0
  C  C32  1  0.31752000  0.83216000  0.23211000  1.0
  C  C33  1  0.68247000  0.33216000  0.26789000  1.0
  C  C34  1  0.68247000  0.16784000  0.76789000  1.0
  C  C35  1  0.31753000  0.66784000  0.73211000  1.0
  C  C36  1  0.08197000  0.01450000  0.38250000  1.0
  C  C37  1  0.91802000  0.51450000  0.11750000  1.0
  C  C38  1  0.91802000  0.98549000  0.61750000  1.0
  C  C39  1  0.08197000  0.48550000  0.88250000  1.0
  C  C40  1  0.17312000  0.84597000  0.40166000  1.0
  C  C41  1  0.82688000  0.34597000  0.09834000  1.0
  C  C42  1  0.82688000  0.15403000  0.59834000  1.0
  C  C43  1  0.17312000  0.65403000  0.90166000  1.0
  C  C44  1  0.05368000  0.70021000  0.38348000  1.0
  C  C45  1  0.94632000  0.20021000  0.11652000  1.0
  C  C46  1  0.94632000  0.29979000  0.61652000  1.0
  C  C47  1  0.05368000  0.79980000  0.88348000  1.0
  C  C48  1  0.13203000  0.53258000  0.40832000  1.0
  C  C49  1  0.86797000  0.03258000  0.09168000  1.0
  C  C50  1  0.86797000  0.46742000  0.59168000  1.0
  C  C51  1  0.13203000  0.96742000  0.90832000  1.0
  N  N52  1  0.47928000  0.82418000  0.38209000  1.0
  N  N53  1  0.52072000  0.32418000  0.11791000  1.0
  N  N54  1  0.52072000  0.17582000  0.61791000  1.0
  N  N55  1  0.47928000  0.67582000  0.88209000  1.0
  N  N56  1  0.47615000  0.82150000  0.20544000  1.0
  N  N57  1  0.52385000  0.32150000  0.29456000  1.0
  N  N58  1  0.52385000  0.17850000  0.79456000  1.0
  N  N59  1  0.47615000  0.67850000  0.70544000  1.0
  N  N60  1  0.31710000  0.83287000  0.33779000  1.0
  N  N61  1  0.68290000  0.33287000  0.16221000  1.0
  N  N62  1  0.68290000  0.16714000  0.66221000  1.0
  N  N63  1  0.31711000  0.66714000  0.83779000  1.0
  O  O64  1  0.18224000  0.13846000  0.37155000  1.0
  O  O65  1  0.81776000  0.63846000  0.12845000  1.0
  O  O66  1  0.81776000  0.86154000  0.62845000  1.0
  O  O67  1  0.18224000  0.36155000  0.87155000  1.0
  O  O68  1  0.92627000  0.02113000  0.38081000  1.0
  O  O69  1  0.07374000  0.52113000  0.11919000  1.0
  O  O70  1  0.07374000  0.97887000  0.61919000  1.0
  O  O71  1  0.92626000  0.47888000  0.88081000  1.0
  O  O72  1  0.04411000  0.41060000  0.36251000  1.0
  O  O73  1  0.95589000  0.91060000  0.13749000  1.0
  O  O74  1  0.95589000  0.58940000  0.63749000  1.0
  O  O75  1  0.04411000  0.08940000  0.86251000  1.0
  O  O76  1  0.26364000  0.51348000  0.46670000  1.0
  O  O77  1  0.73636000  0.01348000  0.03331000  1.0
  O  O78  1  0.73636000  0.48652000  0.53330000  1.0
  O  O79  1  0.26364000  0.98652000  0.96670000  1.0
