# generated using pymatgen
data_CoH5C6(N2O)2
_symmetry_space_group_name_H-M   'P 1'
_cell_length_a   12.57740000
_cell_length_b   12.57720000
_cell_length_c   25.34160000
_cell_angle_alpha   90.00010000
_cell_angle_beta   89.99990000
_cell_angle_gamma   89.99890000
_symmetry_Int_Tables_number   1
_chemical_formula_structural   CoH5C6(N2O)2
_chemical_formula_sum   'Co16 H80 C96 N64 O32'
_cell_volume   4008.74906440
_cell_formula_units_Z   16
loop_
 _symmetry_equiv_pos_site_id
 _symmetry_equiv_pos_as_xyz
  1  'x, y, z'
loop_
 _atom_site_type_symbol
 _atom_site_label
 _atom_site_symmetry_multiplicity
 _atom_site_fract_x
 _atom_site_fract_y
 _atom_site_fract_z
 _atom_site_occupancy
  Co  Co0  1  0.92895000  0.96303000  0.43862000  1.0
  Co  Co1  1  0.57106000  0.53697000  0.43863000  1.0
  Co  Co2  1  0.46302000  0.07106000  0.43862000  1.0
  Co  Co3  1  0.03698000  0.42894000  0.43862000  1.0
  Co  Co4  1  0.57105000  0.96303000  0.06137000  1.0
  Co  Co5  1  0.92895000  0.53697000  0.06137000  1.0
  Co  Co6  1  0.03699000  0.07105000  0.06138000  1.0
  Co  Co7  1  0.46301000  0.42895000  0.06138000  1.0
  Co  Co8  1  0.07105000  0.03697000  0.56137000  1.0
  Co  Co9  1  0.42894000  0.46303000  0.56138000  1.0
  Co  Co10  1  0.53698000  0.92894000  0.56138000  1.0
  Co  Co11  1  0.96302000  0.57106000  0.56138000  1.0
  Co  Co12  1  0.42895000  0.03697000  0.93863000  1.0
  Co  Co13  1  0.07105000  0.46303000  0.93863000  1.0
  Co  Co14  1  0.96301000  0.92895000  0.93862000  1.0
  Co  Co15  1  0.53699000  0.57105000  0.93862000  1.0
  H  H16  1  0.95171000  0.12398000  0.35120000  1.0
  H  H17  1  0.54829000  0.37602000  0.35120000  1.0
  H  H18  1  0.62397000  0.04829000  0.35120000  1.0
  H  H19  1  0.87603000  0.45171000  0.35120000  1.0
  H  H20  1  0.54829000  0.12398000  0.14880000  1.0
  H  H21  1  0.95171000  0.37602000  0.14880000  1.0
  H  H22  1  0.87602000  0.04829000  0.14879000  1.0
  H  H23  1  0.62398000  0.45171000  0.14879000  1.0
  H  H24  1  0.04829000  0.87602000  0.64880000  1.0
  H  H25  1  0.45171000  0.62398000  0.64880000  1.0
  H  H26  1  0.37602000  0.95171000  0.64880000  1.0
  H  H27  1  0.12397000  0.54829000  0.64880000  1.0
  H  H28  1  0.45171000  0.87602000  0.85120000  1.0
  H  H29  1  0.04829000  0.62398000  0.85120000  1.0
  H  H30  1  0.12398000  0.95171000  0.85121000  1.0
  H  H31  1  0.37602000  0.54829000  0.85121000  1.0
  H  H32  1  0.97783000  0.26412000  0.35002000  1.0
  H  H33  1  0.52217000  0.23588000  0.35002000  1.0
  H  H34  1  0.76412000  0.02217000  0.35002000  1.0
  H  H35  1  0.73588000  0.47783000  0.35002000  1.0
  H  H36  1  0.52217000  0.26411000  0.14998000  1.0
  H  H37  1  0.97783000  0.23589000  0.14998000  1.0
  H  H38  1  0.73588000  0.02217000  0.14998000  1.0
  H  H39  1  0.76412000  0.47783000  0.14998000  1.0
  H  H40  1  0.02217000  0.73588000  0.64998000  1.0
  H  H41  1  0.47783000  0.76412000  0.64998000  1.0
  H  H42  1  0.23588000  0.97783000  0.64998000  1.0
  H  H43  1  0.26412000  0.52217000  0.64998000  1.0
  H  H44  1  0.47783000  0.73589000  0.85002000  1.0
  H  H45  1  0.02217000  0.76411000  0.85002000  1.0
  H  H46  1  0.26412000  0.97783000  0.85002000  1.0
  H  H47  1  0.23587000  0.52217000  0.85002000  1.0
  H  H48  1  0.93026000  0.67969000  0.34187000  1.0
  H  H49  1  0.56975000  0.82031000  0.34187000  1.0
  H  H50  1  0.17968000  0.06975000  0.34187000  1.0
  H  H51  1  0.32032000  0.43025000  0.34187000  1.0
  H  H52  1  0.56975000  0.67969000  0.15813000  1.0
  H  H53  1  0.93025000  0.82031000  0.15813000  1.0
  H  H54  1  0.32031000  0.06974000  0.15813000  1.0
  H  H55  1  0.17969000  0.43026000  0.15813000  1.0
  H  H56  1  0.06974000  0.32031000  0.65813000  1.0
  H  H57  1  0.43026000  0.17969000  0.65813000  1.0
  H  H58  1  0.82032000  0.93025000  0.65813000  1.0
  H  H59  1  0.67968000  0.56975000  0.65813000  1.0
  H  H60  1  0.43025000  0.32031000  0.84187000  1.0
  H  H61  1  0.06975000  0.17969000  0.84187000  1.0
  H  H62  1  0.67969000  0.93026000  0.84187000  1.0
  H  H63  1  0.82031000  0.56974000  0.84187000  1.0
  H  H64  1  0.92589000  0.55461000  0.26506000  1.0
  H  H65  1  0.57412000  0.94539000  0.26506000  1.0
  H  H66  1  0.05460000  0.07412000  0.26507000  1.0
  H  H67  1  0.44540000  0.42588000  0.26507000  1.0
  H  H68  1  0.57412000  0.55460000  0.23493000  1.0
  H  H69  1  0.92588000  0.94539000  0.23493000  1.0
  H  H70  1  0.44539000  0.07412000  0.23493000  1.0
  H  H71  1  0.05461000  0.42588000  0.23493000  1.0
  H  H72  1  0.07412000  0.44539000  0.73494000  1.0
  H  H73  1  0.42588000  0.05461000  0.73494000  1.0
  H  H74  1  0.94540000  0.92588000  0.73493000  1.0
  H  H75  1  0.55460000  0.57412000  0.73493000  1.0
  H  H76  1  0.42588000  0.44540000  0.76507000  1.0
  H  H77  1  0.07412000  0.05460000  0.76507000  1.0
  H  H78  1  0.55461000  0.92588000  0.76507000  1.0
  H  H79  1  0.94539000  0.57412000  0.76507000  1.0
  H  H80  1  0.06355000  0.27900000  0.53484000  1.0
  H  H81  1  0.43645000  0.22100000  0.53484000  1.0
  H  H82  1  0.77899000  0.93645000  0.53484000  1.0
  H  H83  1  0.72100000  0.56355000  0.53484000  1.0
  H  H84  1  0.43645000  0.27899000  0.96516000  1.0
  H  H85  1  0.06355000  0.22101000  0.96516000  1.0
  H  H86  1  0.72099000  0.93645000  0.96516000  1.0
  H  H87  1  0.77901000  0.56355000  0.96516000  1.0
  H  H88  1  0.93645000  0.72100000  0.46516000  1.0
  H  H89  1  0.56355000  0.77900000  0.46516000  1.0
  H  H90  1  0.22101000  0.06355000  0.46516000  1.0
  H  H91  1  0.27900000  0.43645000  0.46516000  1.0
  H  H92  1  0.56355000  0.72101000  0.03484000  1.0
  H  H93  1  0.93645000  0.77899000  0.03484000  1.0
  H  H94  1  0.27901000  0.06355000  0.03484000  1.0
  H  H95  1  0.22099000  0.43645000  0.03484000  1.0
  C  C96  1  0.92961000  0.89541000  0.33797000  1.0
  C  C97  1  0.57039000  0.60460000  0.33797000  1.0
  C  C98  1  0.39540000  0.07038000  0.33797000  1.0
  C  C99  1  0.10460000  0.42961000  0.33797000  1.0
  C  C100  1  0.57039000  0.89541000  0.16202000  1.0
  C  C101  1  0.92961000  0.60459000  0.16202000  1.0
  C  C102  1  0.10460000  0.07038000  0.16203000  1.0
  C  C103  1  0.39540000  0.42962000  0.16203000  1.0
  C  C104  1  0.07039000  0.10459000  0.66203000  1.0
  C  C105  1  0.42961000  0.39541000  0.66203000  1.0
  C  C106  1  0.60460000  0.92962000  0.66203000  1.0
  C  C107  1  0.89540000  0.57039000  0.66203000  1.0
  C  C108  1  0.42961000  0.10459000  0.83798000  1.0
  C  C109  1  0.07039000  0.39541000  0.83798000  1.0
  C  C110  1  0.89540000  0.92962000  0.83797000  1.0
  C  C111  1  0.60460000  0.57038000  0.83797000  1.0
  C  C112  1  0.92916000  0.82003000  0.29277000  1.0
  C  C113  1  0.57084000  0.67998000  0.29277000  1.0
  C  C114  1  0.32002000  0.07084000  0.29277000  1.0
  C  C115  1  0.17998000  0.42917000  0.29277000  1.0
  C  C116  1  0.57084000  0.82003000  0.20723000  1.0
  C  C117  1  0.92917000  0.67997000  0.20723000  1.0
  C  C118  1  0.17998000  0.07084000  0.20724000  1.0
  C  C119  1  0.32002000  0.42916000  0.20724000  1.0
  C  C120  1  0.07084000  0.17998000  0.70723000  1.0
  C  C121  1  0.42916000  0.32003000  0.70723000  1.0
  C  C122  1  0.67998000  0.92916000  0.70723000  1.0
  C  C123  1  0.82002000  0.57084000  0.70723000  1.0
  C  C124  1  0.42917000  0.17998000  0.79277000  1.0
  C  C125  1  0.07083000  0.32003000  0.79277000  1.0
  C  C126  1  0.82002000  0.92916000  0.79276000  1.0
  C  C127  1  0.67998000  0.57084000  0.79277000  1.0
  C  C128  1  0.92944000  0.70981000  0.30157000  1.0
  C  C129  1  0.57056000  0.79019000  0.30157000  1.0
  C  C130  1  0.20981000  0.07057000  0.30157000  1.0
  C  C131  1  0.29019000  0.42944000  0.30157000  1.0
  C  C132  1  0.57056000  0.70981000  0.19843000  1.0
  C  C133  1  0.92944000  0.79018000  0.19843000  1.0
  C  C134  1  0.29019000  0.07056000  0.19843000  1.0
  C  C135  1  0.20981000  0.42944000  0.19843000  1.0
  C  C136  1  0.07056000  0.29018000  0.69843000  1.0
  C  C137  1  0.42944000  0.20982000  0.69843000  1.0
  C  C138  1  0.79019000  0.92944000  0.69843000  1.0
  C  C139  1  0.70981000  0.57056000  0.69843000  1.0
  C  C140  1  0.42944000  0.29019000  0.80157000  1.0
  C  C141  1  0.07056000  0.20981000  0.80157000  1.0
  C  C142  1  0.70981000  0.92944000  0.80157000  1.0
  C  C143  1  0.79019000  0.57056000  0.80157000  1.0
  C  C144  1  0.92745000  0.64030000  0.25897000  1.0
  C  C145  1  0.57255000  0.85970000  0.25897000  1.0
  C  C146  1  0.14029000  0.07256000  0.25897000  1.0
  C  C147  1  0.35971000  0.42745000  0.25897000  1.0
  C  C148  1  0.57255000  0.64029000  0.24103000  1.0
  C  C149  1  0.92745000  0.85971000  0.24103000  1.0
  C  C150  1  0.35970000  0.07255000  0.24103000  1.0
  C  C151  1  0.14030000  0.42745000  0.24103000  1.0
  C  C152  1  0.07255000  0.35970000  0.74103000  1.0
  C  C153  1  0.42746000  0.14030000  0.74103000  1.0
  C  C154  1  0.85971000  0.92745000  0.74103000  1.0
  C  C155  1  0.64029000  0.57255000  0.74103000  1.0
  C  C156  1  0.42745000  0.35971000  0.75897000  1.0
  C  C157  1  0.07255000  0.14029000  0.75897000  1.0
  C  C158  1  0.64030000  0.92745000  0.75897000  1.0
  C  C159  1  0.85970000  0.57255000  0.75897000  1.0
  C  C160  1  0.04135000  0.23311000  0.50029000  1.0
  C  C161  1  0.45866000  0.26689000  0.50029000  1.0
  C  C162  1  0.73311000  0.95865000  0.50029000  1.0
  C  C163  1  0.76689000  0.54134000  0.50030000  1.0
  C  C164  1  0.45865000  0.23310000  0.99970000  1.0
  C  C165  1  0.04135000  0.26690000  0.99970000  1.0
  C  C166  1  0.76687000  0.95866000  0.99971000  1.0
  C  C167  1  0.73313000  0.54134000  0.99971000  1.0
  C  C168  1  0.95866000  0.76689000  0.49971000  1.0
  C  C169  1  0.54134000  0.73312000  0.49971000  1.0
  C  C170  1  0.26689000  0.04135000  0.49971000  1.0
  C  C171  1  0.23311000  0.45866000  0.49971000  1.0
  C  C172  1  0.54135000  0.76690000  0.00030000  1.0
  C  C173  1  0.95865000  0.73310000  0.00030000  1.0
  C  C174  1  0.23313000  0.04134000  0.00029000  1.0
  C  C175  1  0.26687000  0.45866000  0.00029000  1.0
  C  C176  1  0.99772000  0.18940000  0.42093000  1.0
  C  C177  1  0.50228000  0.31060000  0.42093000  1.0
  C  C178  1  0.68940000  0.00228000  0.42093000  1.0
  C  C179  1  0.81060000  0.49772000  0.42093000  1.0
  C  C180  1  0.50228000  0.18939000  0.07907000  1.0
  C  C181  1  0.99772000  0.31061000  0.07907000  1.0
  C  C182  1  0.81060000  0.00228000  0.07907000  1.0
  C  C183  1  0.68940000  0.49772000  0.07907000  1.0
  C  C184  1  0.00228000  0.81060000  0.57907000  1.0
  C  C185  1  0.49771000  0.68940000  0.57907000  1.0
  C  C186  1  0.31060000  0.99772000  0.57907000  1.0
  C  C187  1  0.18940000  0.50228000  0.57907000  1.0
  C  C188  1  0.49772000  0.81061000  0.92093000  1.0
  C  C189  1  0.00228000  0.68939000  0.92093000  1.0
  C  C190  1  0.18940000  0.99772000  0.92093000  1.0
  C  C191  1  0.31059000  0.50228000  0.92093000  1.0
  N  N192  1  0.02811000  0.12892000  0.50111000  1.0
  N  N193  1  0.47189000  0.37108000  0.50111000  1.0
  N  N194  1  0.62892000  0.97189000  0.50111000  1.0
  N  N195  1  0.87108000  0.52811000  0.50111000  1.0
  N  N196  1  0.47189000  0.12891000  0.99889000  1.0
  N  N197  1  0.02811000  0.37109000  0.99889000  1.0
  N  N198  1  0.87107000  0.97189000  0.99889000  1.0
  N  N199  1  0.62893000  0.52811000  0.99889000  1.0
  N  N200  1  0.97189000  0.87108000  0.49889000  1.0
  N  N201  1  0.52811000  0.62892000  0.49889000  1.0
  N  N202  1  0.37108000  0.02811000  0.49889000  1.0
  N  N203  1  0.12892000  0.47189000  0.49889000  1.0
  N  N204  1  0.52811000  0.87109000  0.00111000  1.0
  N  N205  1  0.97189000  0.62891000  0.00111000  1.0
  N  N206  1  0.12893000  0.02811000  0.00111000  1.0
  N  N207  1  0.37107000  0.47189000  0.00111000  1.0
  N  N208  1  0.00035000  0.09873000  0.44996000  1.0
  N  N209  1  0.49965000  0.40127000  0.44996000  1.0
  N  N210  1  0.59873000  0.99965000  0.44996000  1.0
  N  N211  1  0.90127000  0.50035000  0.44996000  1.0
  N  N212  1  0.49965000  0.09873000  0.05004000  1.0
  N  N213  1  0.00035000  0.40127000  0.05004000  1.0
  N  N214  1  0.90126000  0.99965000  0.05004000  1.0
  N  N215  1  0.59874000  0.50035000  0.05004000  1.0
  N  N216  1  0.99965000  0.90127000  0.55004000  1.0
  N  N217  1  0.50035000  0.59873000  0.55004000  1.0
  N  N218  1  0.40127000  0.00035000  0.55004000  1.0
  N  N219  1  0.09873000  0.49965000  0.55004000  1.0
  N  N220  1  0.50035000  0.90127000  0.94996000  1.0
  N  N221  1  0.99965000  0.59873000  0.94996000  1.0
  N  N222  1  0.09874000  0.00035000  0.94996000  1.0
  N  N223  1  0.40125000  0.49965000  0.94996000  1.0
  N  N224  1  0.97312000  0.19321000  0.36968000  1.0
  N  N225  1  0.52688000  0.30679000  0.36968000  1.0
  N  N226  1  0.69321000  0.02688000  0.36968000  1.0
  N  N227  1  0.80679000  0.47312000  0.36968000  1.0
  N  N228  1  0.52688000  0.19321000  0.13032000  1.0
  N  N229  1  0.97312000  0.30679000  0.13032000  1.0
  N  N230  1  0.80678000  0.02688000  0.13032000  1.0
  N  N231  1  0.69322000  0.47312000  0.13032000  1.0
  N  N232  1  0.02688000  0.80679000  0.63032000  1.0
  N  N233  1  0.47312000  0.69321000  0.63032000  1.0
  N  N234  1  0.30679000  0.97312000  0.63032000  1.0
  N  N235  1  0.19321000  0.52688000  0.63032000  1.0
  N  N236  1  0.47312000  0.80679000  0.86968000  1.0
  N  N237  1  0.02688000  0.69321000  0.86968000  1.0
  N  N238  1  0.19322000  0.97311000  0.86968000  1.0
  N  N239  1  0.30678000  0.52688000  0.86968000  1.0
  N  N240  1  0.02398000  0.27540000  0.45157000  1.0
  N  N241  1  0.47602000  0.22460000  0.45157000  1.0
  N  N242  1  0.77540000  0.97602000  0.45157000  1.0
  N  N243  1  0.72460000  0.52398000  0.45157000  1.0
  N  N244  1  0.47602000  0.27539000  0.04843000  1.0
  N  N245  1  0.02398000  0.22461000  0.04843000  1.0
  N  N246  1  0.72459000  0.97602000  0.04843000  1.0
  N  N247  1  0.77541000  0.52398000  0.04843000  1.0
  N  N248  1  0.97602000  0.72460000  0.54843000  1.0
  N  N249  1  0.52398000  0.77540000  0.54843000  1.0
  N  N250  1  0.22460000  0.02398000  0.54843000  1.0
  N  N251  1  0.27540000  0.47602000  0.54843000  1.0
  N  N252  1  0.52398000  0.72461000  0.95157000  1.0
  N  N253  1  0.97602000  0.77539000  0.95157000  1.0
  N  N254  1  0.27541000  0.02398000  0.95157000  1.0
  N  N255  1  0.22459000  0.47602000  0.95157000  1.0
  O  O256  1  0.95511000  0.85788000  0.38375000  1.0
  O  O257  1  0.54490000  0.64212000  0.38375000  1.0
  O  O258  1  0.35788000  0.04488000  0.38375000  1.0
  O  O259  1  0.14212000  0.45511000  0.38375000  1.0
  O  O260  1  0.54490000  0.85789000  0.11625000  1.0
  O  O261  1  0.95510000  0.64211000  0.11625000  1.0
  O  O262  1  0.14213000  0.04488000  0.11626000  1.0
  O  O263  1  0.35787000  0.45512000  0.11626000  1.0
  O  O264  1  0.04489000  0.14212000  0.61625000  1.0
  O  O265  1  0.45510000  0.35788000  0.61625000  1.0
  O  O266  1  0.64212000  0.95512000  0.61625000  1.0
  O  O267  1  0.85788000  0.54489000  0.61625000  1.0
  O  O268  1  0.45510000  0.14212000  0.88375000  1.0
  O  O269  1  0.04490000  0.35789000  0.88375000  1.0
  O  O270  1  0.85787000  0.95512000  0.88374000  1.0
  O  O271  1  0.64213000  0.54488000  0.88374000  1.0
  O  O272  1  0.90430000  0.99222000  0.33132000  1.0
  O  O273  1  0.59570000  0.50778000  0.33132000  1.0
  O  O274  1  0.49221000  0.09570000  0.33132000  1.0
  O  O275  1  0.00779000  0.40431000  0.33132000  1.0
  O  O276  1  0.59569000  0.99222000  0.16868000  1.0
  O  O277  1  0.90430000  0.50778000  0.16868000  1.0
  O  O278  1  0.00779000  0.09569000  0.16868000  1.0
  O  O279  1  0.49221000  0.40431000  0.16868000  1.0
  O  O280  1  0.09570000  0.00778000  0.66868000  1.0
  O  O281  1  0.40430000  0.49222000  0.66868000  1.0
  O  O282  1  0.50779000  0.90430000  0.66868000  1.0
  O  O283  1  0.99221000  0.59570000  0.66868000  1.0
  O  O284  1  0.40430000  0.00778000  0.83132000  1.0
  O  O285  1  0.09570000  0.49222000  0.83132000  1.0
  O  O286  1  0.99221000  0.90431000  0.83132000  1.0
  O  O287  1  0.50779000  0.59570000  0.83132000  1.0
