# generated using pymatgen
data_AgH10C12N5O3F4
_symmetry_space_group_name_H-M   'P 1'
_cell_length_a   6.34869000
_cell_length_b   9.16264000
_cell_length_c   25.19460000
_cell_angle_alpha   90.00000000
_cell_angle_beta   90.00000000
_cell_angle_gamma   100.56700000
_symmetry_Int_Tables_number   1
_chemical_formula_structural   AgH10C12N5O3F4
_chemical_formula_sum   'Ag4 H40 C48 N20 O12 F16'
_cell_volume   1440.73432595
_cell_formula_units_Z   4
loop_
 _symmetry_equiv_pos_site_id
 _symmetry_equiv_pos_as_xyz
  1  'x, y, z'
loop_
 _atom_site_type_symbol
 _atom_site_label
 _atom_site_symmetry_multiplicity
 _atom_site_fract_x
 _atom_site_fract_y
 _atom_site_fract_z
 _atom_site_occupancy
  Ag  Ag0  1  0.86467000  0.49879000  0.66265000  1.0
  Ag  Ag1  1  0.13533000  0.00121000  0.16265000  1.0
  Ag  Ag2  1  0.13533000  0.50121000  0.33735000  1.0
  Ag  Ag3  1  0.86467000  0.99879000  0.83735000  1.0
  H  H4  1  0.43095000  0.31621000  0.69179000  1.0
  H  H5  1  0.56906000  0.18379000  0.19179000  1.0
  H  H6  1  0.56905000  0.68378000  0.30821000  1.0
  H  H7  1  0.43094000  0.81621000  0.80821000  1.0
  H  H8  1  0.16936000  0.34876000  0.70109000  1.0
  H  H9  1  0.83064000  0.15124000  0.20109000  1.0
  H  H10  1  0.83064000  0.65124000  0.29891000  1.0
  H  H11  1  0.16936000  0.84876000  0.79891000  1.0
  H  H12  1  0.71035000  0.57846000  0.54995000  1.0
  H  H13  1  0.28966000  0.92154000  0.04995000  1.0
  H  H14  1  0.28966000  0.42154000  0.45005000  1.0
  H  H15  1  0.71034000  0.07846000  0.95005000  1.0
  H  H16  1  0.08861000  0.69027000  0.57407000  1.0
  H  H17  1  0.91140000  0.80972000  0.07407000  1.0
  H  H18  1  0.91139000  0.30972000  0.42593000  1.0
  H  H19  1  0.08860000  0.19027000  0.92593000  1.0
  H  H20  1  0.77092000  0.96496000  0.34347000  1.0
  H  H21  1  0.22908000  0.53504000  0.84347000  1.0
  H  H22  1  0.22909000  0.03504000  0.65652000  1.0
  H  H23  1  0.77092000  0.46496000  0.15652000  1.0
  H  H24  1  0.75503000  0.15554000  0.33317000  1.0
  H  H25  1  0.24497000  0.34446000  0.83317000  1.0
  H  H26  1  0.24497000  0.84446000  0.66683000  1.0
  H  H27  1  0.75503000  0.65554000  0.16683000  1.0
  H  H28  1  0.60753000  0.01424000  0.29177000  1.0
  H  H29  1  0.39247000  0.48576000  0.79178000  1.0
  H  H30  1  0.39247000  0.98576000  0.70823000  1.0
  H  H31  1  0.60753000  0.51424000  0.20823000  1.0
  H  H32  1  0.21332000  0.02998000  0.31664000  1.0
  H  H33  1  0.78667000  0.47002000  0.81664000  1.0
  H  H34  1  0.78668000  0.97002000  0.68336000  1.0
  H  H35  1  0.21332000  0.52998000  0.18336000  1.0
  H  H36  1  0.36556000  0.20356000  0.33739000  1.0
  H  H37  1  0.63444000  0.29645000  0.83739000  1.0
  H  H38  1  0.63444000  0.79644000  0.66261000  1.0
  H  H39  1  0.36556000  0.70356000  0.16261000  1.0
  H  H40  1  0.18909000  0.09451000  0.38286000  1.0
  H  H41  1  0.81092000  0.40549000  0.88286000  1.0
  H  H42  1  0.81092000  0.90549000  0.61714000  1.0
  H  H43  1  0.18909000  0.59451000  0.11714000  1.0
  C  C44  1  0.34191000  0.46430000  0.63982000  1.0
  C  C45  1  0.65810000  0.03570000  0.13983000  1.0
  C  C46  1  0.65809000  0.53570000  0.36018000  1.0
  C  C47  1  0.34190000  0.96430000  0.86017000  1.0
  C  C48  1  0.55788000  0.56948000  0.57078000  1.0
  C  C49  1  0.44212000  0.93052000  0.07078000  1.0
  C  C50  1  0.44212000  0.43052000  0.42922000  1.0
  C  C51  1  0.55787000  0.06948000  0.92922000  1.0
  C  C52  1  0.39874000  0.64382000  0.55164000  1.0
  C  C53  1  0.60127000  0.85618000  0.05164000  1.0
  C  C54  1  0.60126000  0.35618000  0.44836000  1.0
  C  C55  1  0.39874000  0.14382000  0.94836000  1.0
  C  C56  1  0.21420000  0.62757000  0.58319000  1.0
  C  C57  1  0.78581000  0.87242000  0.08319000  1.0
  C  C58  1  0.78581000  0.37242000  0.41681000  1.0
  C  C59  1  0.21419000  0.12757000  0.91681000  1.0
  C  C60  1  0.42259000  0.73578000  0.50360000  1.0
  C  C61  1  0.57741000  0.76422000  0.00360000  1.0
  C  C62  1  0.57741000  0.26422000  0.49640000  1.0
  C  C63  1  0.42258000  0.23579000  0.99640000  1.0
  C  C64  1  0.61576000  0.82715000  0.48858000  1.0
  C  C65  1  0.38423000  0.67285000  0.98858000  1.0
  C  C66  1  0.38424000  0.17285000  0.51142000  1.0
  C  C67  1  0.61576000  0.32715000  0.01142000  1.0
  C  C68  1  0.63417000  0.91871000  0.44440000  1.0
  C  C69  1  0.36582000  0.58130000  0.94440000  1.0
  C  C70  1  0.36582000  0.08129000  0.55560000  1.0
  C  C71  1  0.63418000  0.41871000  0.05560000  1.0
  C  C72  1  0.45984000  0.92692000  0.41020000  1.0
  C  C73  1  0.54015000  0.57308000  0.91020000  1.0
  C  C74  1  0.54016000  0.07307000  0.58980000  1.0
  C  C75  1  0.45984000  0.42692000  0.08980000  1.0
  C  C76  1  0.26633000  0.83251000  0.42474000  1.0
  C  C77  1  0.73367000  0.66749000  0.92474000  1.0
  C  C78  1  0.73367000  0.16748000  0.57526000  1.0
  C  C79  1  0.26633000  0.33251000  0.07526000  1.0
  C  C80  1  0.25028000  0.74269000  0.46935000  1.0
  C  C81  1  0.74972000  0.75731000  0.96935000  1.0
  C  C82  1  0.74973000  0.25731000  0.53065000  1.0
  C  C83  1  0.25027000  0.24269000  0.03065000  1.0
  C  C84  1  0.66418000  0.04114000  0.33254000  1.0
  C  C85  1  0.33582000  0.45886000  0.83254000  1.0
  C  C86  1  0.33582000  0.95886000  0.66746000  1.0
  C  C87  1  0.66418000  0.54114000  0.16746000  1.0
  C  C88  1  0.30100000  0.08946000  0.35021000  1.0
  C  C89  1  0.69900000  0.41054000  0.85022000  1.0
  C  C90  1  0.69900000  0.91054000  0.64979000  1.0
  C  C91  1  0.30100000  0.58946000  0.14979000  1.0
  N  N92  1  0.18180000  0.53829000  0.62560000  1.0
  N  N93  1  0.81821000  0.96171000  0.12560000  1.0
  N  N94  1  0.81820000  0.46171000  0.37441000  1.0
  N  N95  1  0.18179000  0.03829000  0.87440000  1.0
  N  N96  1  0.30830000  0.36654000  0.67945000  1.0
  N  N97  1  0.69171000  0.13346000  0.17945000  1.0
  N  N98  1  0.69170000  0.63345000  0.32056000  1.0
  N  N99  1  0.30829000  0.86654000  0.82055000  1.0
  N  N100  1  0.53569000  0.48652000  0.61471000  1.0
  N  N101  1  0.46431000  0.01348000  0.11471000  1.0
  N  N102  1  0.46431000  0.51348000  0.38529000  1.0
  N  N103  1  0.53568000  0.98652000  0.88529000  1.0
  N  N104  1  0.47927000  0.02254000  0.36798000  1.0
  N  N105  1  0.52072000  0.47746000  0.86798000  1.0
  N  N106  1  0.52073000  0.97746000  0.63202000  1.0
  N  N107  1  0.47928000  0.52254000  0.13202000  1.0
  N  N108  1  0.78404000  0.71137000  0.75566000  1.0
  N  N109  1  0.21596000  0.78863000  0.25566000  1.0
  N  N110  1  0.21596000  0.28863000  0.24434000  1.0
  N  N111  1  0.78404000  0.21137000  0.74434000  1.0
  O  O112  1  0.66918000  0.60800000  0.72929000  1.0
  O  O113  1  0.33082000  0.89200000  0.22930000  1.0
  O  O114  1  0.33082000  0.39200000  0.27071000  1.0
  O  O115  1  0.66918000  0.10800000  0.77071000  1.0
  O  O116  1  0.69693000  0.77007000  0.79371000  1.0
  O  O117  1  0.30306000  0.72993000  0.29371000  1.0
  O  O118  1  0.30307000  0.22994000  0.20629000  1.0
  O  O119  1  0.69693000  0.27007000  0.70629000  1.0
  O  O120  1  0.97888000  0.75455000  0.74458000  1.0
  O  O121  1  0.02111000  0.74545000  0.24458000  1.0
  O  O122  1  0.02112000  0.24546000  0.25542000  1.0
  O  O123  1  0.97888000  0.25455000  0.75542000  1.0
  F  F124  1  0.79032000  0.83694000  0.52061000  1.0
  F  F125  1  0.20969000  0.66307000  0.02061000  1.0
  F  F126  1  0.20969000  0.16306000  0.47939000  1.0
  F  F127  1  0.79031000  0.33694000  0.97939000  1.0
  F  F128  1  0.82281000  0.01378000  0.43668000  1.0
  F  F129  1  0.17718000  0.48622000  0.93669000  1.0
  F  F130  1  0.17719000  0.98622000  0.56332000  1.0
  F  F131  1  0.82280000  0.51379000  0.06331000  1.0
  F  F132  1  0.09107000  0.82144000  0.39295000  1.0
  F  F133  1  0.90892000  0.67858000  0.89295000  1.0
  F  F134  1  0.90893000  0.17856000  0.60705000  1.0
  F  F135  1  0.09108000  0.32144000  0.10705000  1.0
  F  F136  1  0.05987000  0.64902000  0.47740000  1.0
  F  F137  1  0.94013000  0.85098000  0.97740000  1.0
  F  F138  1  0.94013000  0.35099000  0.52260000  1.0
  F  F139  1  0.05986000  0.14902000  0.02260000  1.0
