# generated using pymatgen
data_AgH7C6IN
_symmetry_space_group_name_H-M   'P 1'
_cell_length_a   4.49596000
_cell_length_b   10.61040000
_cell_length_c   16.09860000
_cell_angle_alpha   90.00030000
_cell_angle_beta   90.00010000
_cell_angle_gamma   89.99990000
_symmetry_Int_Tables_number   1
_chemical_formula_structural   AgH7C6IN
_chemical_formula_sum   'Ag4 H28 C24 I4 N4'
_cell_volume   767.96655162
_cell_formula_units_Z   4
loop_
 _symmetry_equiv_pos_site_id
 _symmetry_equiv_pos_as_xyz
  1  'x, y, z'
loop_
 _atom_site_type_symbol
 _atom_site_label
 _atom_site_symmetry_multiplicity
 _atom_site_fract_x
 _atom_site_fract_y
 _atom_site_fract_z
 _atom_site_occupancy
  Ag  Ag0  1  0.61836000  0.90540000  0.25863000  1.0
  Ag  Ag1  1  0.11837000  0.09460000  0.24136000  1.0
  Ag  Ag2  1  0.38163000  0.59459000  0.75864000  1.0
  Ag  Ag3  1  0.88163000  0.40540000  0.74137000  1.0
  H  H4  1  0.35668000  0.57345000  0.50531000  1.0
  H  H5  1  0.85669000  0.42655000  0.99468000  1.0
  H  H6  1  0.64332000  0.92655000  0.00532000  1.0
  H  H7  1  0.14331000  0.07346000  0.49468000  1.0
  H  H8  1  0.66964000  0.39652000  0.44971000  1.0
  H  H9  1  0.16964000  0.60348000  0.05029000  1.0
  H  H10  1  0.33037000  0.10348000  0.94971000  1.0
  H  H11  1  0.83037000  0.89652000  0.55029000  1.0
  H  H12  1  0.96240000  0.43206000  0.31930000  1.0
  H  H13  1  0.46239000  0.56794000  0.18070000  1.0
  H  H14  1  0.03763000  0.06795000  0.81930000  1.0
  H  H15  1  0.53763000  0.93205000  0.68070000  1.0
  H  H16  1  0.93363000  0.64432000  0.25070000  1.0
  H  H17  1  0.43363000  0.35568000  0.24930000  1.0
  H  H18  1  0.06637000  0.85568000  0.75070000  1.0
  H  H19  1  0.56637000  0.14431000  0.74930000  1.0
  H  H20  1  0.43526000  0.89049000  0.44922000  1.0
  H  H21  1  0.93525000  0.10951000  0.05078000  1.0
  H  H22  1  0.56472000  0.60950000  0.94923000  1.0
  H  H23  1  0.06471000  0.39050000  0.55078000  1.0
  H  H24  1  0.12741000  0.83603000  0.39171000  1.0
  H  H25  1  0.62741000  0.16397000  0.10829000  1.0
  H  H26  1  0.87259000  0.66397000  0.89171000  1.0
  H  H27  1  0.37258000  0.33603000  0.60830000  1.0
  H  H28  1  0.18162000  0.78096000  0.49563000  1.0
  H  H29  1  0.68161000  0.21904000  0.00437000  1.0
  H  H30  1  0.81839000  0.71903000  0.99564000  1.0
  H  H31  1  0.31838000  0.28097000  0.50437000  1.0
  C  C32  1  0.47779000  0.70010000  0.40640000  1.0
  C  C33  1  0.97779000  0.29990000  0.09360000  1.0
  C  C34  1  0.52221000  0.79989000  0.90640000  1.0
  C  C35  1  0.02220000  0.20011000  0.59360000  1.0
  C  C36  1  0.29467000  0.80747000  0.43789000  1.0
  C  C37  1  0.79467000  0.19253000  0.06211000  1.0
  C  C38  1  0.70531000  0.69254000  0.93789000  1.0
  C  C39  1  0.20530000  0.30746000  0.56211000  1.0
  C  C40  1  0.48626000  0.58472000  0.44857000  1.0
  C  C41  1  0.98627000  0.41528000  0.05142000  1.0
  C  C42  1  0.51374000  0.91527000  0.94857000  1.0
  C  C43  1  0.01374000  0.08474000  0.55143000  1.0
  C  C44  1  0.66039000  0.48695000  0.41780000  1.0
  C  C45  1  0.16039000  0.51304000  0.08220000  1.0
  C  C46  1  0.33960000  0.01305000  0.91780000  1.0
  C  C47  1  0.83961000  0.98695000  0.58220000  1.0
  C  C48  1  0.82406000  0.50625000  0.34542000  1.0
  C  C49  1  0.32408000  0.49375000  0.15458000  1.0
  C  C50  1  0.17595000  0.99375000  0.84542000  1.0
  C  C51  1  0.67597000  0.00625000  0.65457000  1.0
  C  C52  1  0.80667000  0.62334000  0.30693000  1.0
  C  C53  1  0.30666000  0.37666000  0.19307000  1.0
  C  C54  1  0.19335000  0.87667000  0.80693000  1.0
  C  C55  1  0.69334000  0.12333000  0.69307000  1.0
  I  I56  1  0.11863000  0.86681000  0.14820000  1.0
  I  I57  1  0.61863000  0.13320000  0.35180000  1.0
  I  I58  1  0.88137000  0.63319000  0.64820000  1.0
  I  I59  1  0.38137000  0.36680000  0.85180000  1.0
  N  N60  1  0.63741000  0.71819000  0.33618000  1.0
  N  N61  1  0.13741000  0.28181000  0.16382000  1.0
  N  N62  1  0.36260000  0.78181000  0.83618000  1.0
  N  N63  1  0.86260000  0.21819000  0.66383000  1.0
