# generated using pymatgen
data_Zr6H27C52N2O32F5
_symmetry_space_group_name_H-M   'P 1'
_cell_length_a   14.78040000
_cell_length_b   14.78510000
_cell_length_c   14.78609924
_cell_angle_alpha   89.98958189
_cell_angle_beta   60.01364816
_cell_angle_gamma   60.03960000
_symmetry_Int_Tables_number   1
_chemical_formula_structural   Zr6H27C52N2O32F5
_chemical_formula_sum   'Zr6 H27 C52 N2 O32 F5'
_cell_volume   2286.84934493
_cell_formula_units_Z   1
loop_
 _symmetry_equiv_pos_site_id
 _symmetry_equiv_pos_as_xyz
  1  'x, y, z'
loop_
 _atom_site_type_symbol
 _atom_site_label
 _atom_site_symmetry_multiplicity
 _atom_site_fract_x
 _atom_site_fract_y
 _atom_site_fract_z
 _atom_site_occupancy
  Zr  Zr0  1  0.49986000  0.11747000  0.62240000  1.0
  Zr  Zr1  1  0.49751000  0.87996000  0.38431000  1.0
  Zr  Zr2  1  0.26032000  0.11881000  0.62343000  1.0
  Zr  Zr3  1  0.73822000  0.87832000  0.38341000  1.0
  Zr  Zr4  1  0.49967000  0.11729000  0.38272000  1.0
  Zr  Zr5  1  0.49965000  0.87786000  0.62216000  1.0
  H  H6  1  0.31237000  0.28057000  0.59578000  1.0
  H  H7  1  0.68582000  0.90501000  0.22079000  1.0
  H  H8  1  0.30976000  0.90475000  0.59867000  1.0
  H  H9  1  0.68810000  0.90351000  0.59686000  1.0
  H  H10  1  0.54979000  0.39045000  0.62042000  1.0
  H  H11  1  0.50020000  0.40975000  0.35598000  1.0
  H  H12  1  0.54724000  0.56174000  0.61711000  1.0
  H  H13  1  0.48104000  0.15179000  0.92906000  1.0
  H  H14  1  0.48396000  0.85882000  0.92344000  1.0
  H  H15  1  0.48050000  0.14805000  0.09912000  1.0
  H  H16  1  0.77260000  0.14056000  0.08366000  1.0
  H  H17  1  0.05545000  0.88272000  0.11927000  1.0
  H  H18  1  0.94680000  0.13700000  0.91465000  1.0
  H  H19  1  0.77189000  0.57236000  0.64078000  1.0
  H  H20  1  0.05765000  0.57904000  0.35044000  1.0
  H  H21  1  0.94633000  0.40293000  0.63630000  1.0
  H  H22  1  0.27623000  0.42507000  0.74189000  1.0
  H  H23  1  0.28828000  0.58419000  0.74872000  1.0
  H  H24  1  0.95330000  0.75250000  0.08395000  1.0
  H  H25  1  0.12585000  0.74884000  0.92224000  1.0
  H  H26  1  0.06265000  0.86393000  0.34866000  1.0
  H  H27  1  0.76422000  0.15205000  0.64244000  1.0
  H  H28  1  0.22653000  0.87036000  0.35436000  1.0
  H  H29  1  0.70413000  0.58984000  0.22237000  1.0
  H  H30  1  0.76270000  0.46937000  0.13681000  1.0
  H  H31  1  0.03344000  0.26289000  0.92061000  1.0
  H  H32  1  0.93232000  0.31465000  0.06206000  1.0
  C  C33  1  0.51489000  0.29399000  0.49498000  1.0
  C  C34  1  0.48878000  0.00132000  0.20432000  1.0
  C  C35  1  0.51119000  0.68820000  0.49397000  1.0
  C  C36  1  0.49002000  0.00279000  0.81112000  1.0
  C  C37  1  0.19630000  0.30202000  0.80811000  1.0
  C  C38  1  0.80393000  0.00222000  0.49758000  1.0
  C  C39  1  0.80372000  0.69268000  0.20052000  1.0
  C  C40  1  0.19102000  0.00794000  0.50316000  1.0
  C  C41  1  0.19816000  0.29783000  0.49665000  1.0
  C  C42  1  0.19794000  0.00398000  0.81539000  1.0
  C  C43  1  0.80222000  0.68945000  0.49904000  1.0
  C  C44  1  0.80255000  0.00527000  0.20549000  1.0
  C  C45  1  0.52136000  0.58235000  0.48674000  1.0
  C  C46  1  0.52374000  0.39056000  0.48941000  1.0
  C  C47  1  0.51114000  0.53589000  0.41218000  1.0
  C  C48  1  0.53927000  0.43201000  0.56202000  1.0
  C  C49  1  0.51160000  0.44191000  0.41294000  1.0
  C  C50  1  0.53778000  0.52665000  0.56019000  1.0
  C  C51  1  0.48354000  0.00203000  0.10604000  1.0
  C  C52  1  0.48424000  0.00494000  0.91505000  1.0
  C  C53  1  0.48308000  0.92196000  0.05508000  1.0
  C  C54  1  0.48195000  0.08738000  0.96509000  1.0
  C  C55  1  0.48357000  0.92246000  0.96100000  1.0
  C  C56  1  0.48167000  0.08524000  0.05908000  1.0
  C  C57  1  0.09779000  0.00903000  0.92186000  1.0
  C  C58  1  0.90362000  0.01082000  0.11044000  1.0
  C  C59  1  0.12524000  0.94006000  0.98314000  1.0
  C  C60  1  0.87220000  0.08454000  0.05445000  1.0
  C  C61  1  0.03055000  0.93943000  0.07555000  1.0
  C  C62  1  0.96860000  0.08269000  0.96130000  1.0
  C  C63  1  0.09861000  0.39628000  0.49280000  1.0
  C  C64  1  0.90391000  0.58638000  0.49639000  1.0
  C  C65  1  0.12705000  0.44765000  0.41257000  1.0
  C  C66  1  0.87217000  0.53639000  0.57680000  1.0
  C  C67  1  0.03212000  0.54116000  0.41351000  1.0
  C  C68  1  0.96868000  0.44279000  0.57435000  1.0
  C  C69  1  0.09367000  0.40540000  0.90482000  1.0
  C  C70  1  0.10492000  0.49623000  0.90899000  1.0
  C  C71  1  0.98644000  0.41273000  0.99051000  1.0
  C  C72  1  0.20388000  0.49686000  0.81698000  1.0
  C  C73  1  0.21157000  0.58592000  0.82094000  1.0
  C  C74  1  0.90308000  0.59555000  0.09727000  1.0
  C  C75  1  0.88688000  0.51154000  0.08660000  1.0
  C  C76  1  0.01054000  0.59109000  0.00766000  1.0
  C  C77  1  0.02239000  0.68064000  0.00928000  1.0
  C  C78  1  0.12021000  0.67835000  0.91828000  1.0
  C  C79  1  0.08889000  0.01270000  0.50075000  1.0
  C  C80  1  0.90368000  0.00687000  0.49555000  1.0
  C  C81  1  0.95723000  0.09235000  0.58024000  1.0
  C  C82  1  0.03411000  0.92786000  0.41337000  1.0
  C  C83  1  0.86528000  0.09013000  0.57871000  1.0
  C  C84  1  0.12463000  0.93138000  0.41661000  1.0
  N  N85  1  0.78283000  0.51341000  0.16675000  1.0
  N  N86  1  0.96577000  0.33105000  0.98989000  1.0
  O  O87  1  0.51024000  0.25789000  0.57455000  1.0
  O  O88  1  0.49061000  0.92470000  0.24480000  1.0
  O  O89  1  0.50541000  0.73221000  0.42100000  1.0
  O  O90  1  0.49319000  0.07830000  0.77062000  1.0
  O  O91  1  0.16061000  0.25864000  0.76934000  1.0
  O  O92  1  0.84214000  0.92342000  0.42235000  1.0
  O  O93  1  0.83939000  0.73294000  0.24172000  1.0
  O  O94  1  0.15622000  0.08110000  0.58172000  1.0
  O  O95  1  0.31510000  0.25805000  0.42184000  1.0
  O  O96  1  0.31375000  0.92248000  0.76970000  1.0
  O  O97  1  0.68615000  0.72954000  0.57718000  1.0
  O  O98  1  0.68701000  0.07828000  0.24025000  1.0
  O  O99  1  0.15863000  0.08093000  0.77650000  1.0
  O  O100  1  0.83929000  0.73072000  0.42396000  1.0
  O  O101  1  0.84013000  0.92645000  0.24279000  1.0
  O  O102  1  0.15893000  0.26146000  0.57593000  1.0
  O  O103  1  0.31297000  0.26113000  0.76849000  1.0
  O  O104  1  0.30637000  0.92901000  0.42716000  1.0
  O  O105  1  0.68593000  0.73204000  0.24349000  1.0
  O  O106  1  0.68762000  0.07680000  0.57625000  1.0
  O  O107  1  0.49379000  0.92420000  0.76960000  1.0
  O  O108  1  0.50929000  0.25718000  0.42122000  1.0
  O  O109  1  0.49338000  0.07668000  0.23992000  1.0
  O  O110  1  0.50671000  0.72805000  0.57383000  1.0
  O  O111  1  0.63450000  0.93018000  0.57016000  1.0
  O  O112  1  0.36339000  0.93145000  0.57187000  1.0
  O  O113  1  0.63340000  0.93149000  0.30105000  1.0
  O  O114  1  0.36602000  0.20033000  0.56978000  1.0
  O  O115  1  0.39913000  0.04878000  0.45430000  1.0
  O  O116  1  0.59920000  0.04759000  0.45299000  1.0
  O  O117  1  0.59769000  0.84987000  0.45379000  1.0
  O  O118  1  0.40097000  0.04731000  0.65180000  1.0
  F  F119  1  0.49778000  0.58255000  0.33658000  1.0
  F  F120  1  0.48289000  0.83966000  0.09543000  1.0
  F  F121  1  0.24646000  0.87038000  0.95377000  1.0
  F  F122  1  0.24954000  0.40821000  0.33038000  1.0
  F  F123  1  0.91397000  0.17490000  0.66326000  1.0
