# generated using pymatgen
data_CdH6C7(SN2)2
_symmetry_space_group_name_H-M   'P 1'
_cell_length_a   8.30220000
_cell_length_b   9.54887000
_cell_length_c   13.18910000
_cell_angle_alpha   89.99990000
_cell_angle_beta   85.56110000
_cell_angle_gamma   89.99990000
_symmetry_Int_Tables_number   1
_chemical_formula_structural   CdH6C7(SN2)2
_chemical_formula_sum   'Cd4 H24 C28 S8 N16'
_cell_volume   1042.45107418
_cell_formula_units_Z   4
loop_
 _symmetry_equiv_pos_site_id
 _symmetry_equiv_pos_as_xyz
  1  'x, y, z'
loop_
 _atom_site_type_symbol
 _atom_site_label
 _atom_site_symmetry_multiplicity
 _atom_site_fract_x
 _atom_site_fract_y
 _atom_site_fract_z
 _atom_site_occupancy
  Cd  Cd0  1  0.85276000  0.21160000  0.37430000  1.0
  Cd  Cd1  1  0.64724000  0.71160000  0.12570000  1.0
  Cd  Cd2  1  0.14724000  0.78839000  0.62570000  1.0
  Cd  Cd3  1  0.35276000  0.28839000  0.87430000  1.0
  H  H4  1  0.84565000  0.42640000  0.57550000  1.0
  H  H5  1  0.65435000  0.92640000  0.92450000  1.0
  H  H6  1  0.15435000  0.57360000  0.42450000  1.0
  H  H7  1  0.34565000  0.07360000  0.07550000  1.0
  H  H8  1  0.34813000  0.17046000  0.66008000  1.0
  H  H9  1  0.15186000  0.67046000  0.83992000  1.0
  H  H10  1  0.65187000  0.82954000  0.33992000  1.0
  H  H11  1  0.84813000  0.32954000  0.16008000  1.0
  H  H12  1  0.51495000  0.12891000  0.49436000  1.0
  H  H13  1  0.98505000  0.62891000  0.00563000  1.0
  H  H14  1  0.48505000  0.87109000  0.50564000  1.0
  H  H15  1  0.01495000  0.37109000  0.99436000  1.0
  H  H16  1  0.58576000  0.55007000  0.80246000  1.0
  H  H17  1  0.91424000  0.05007000  0.69754000  1.0
  H  H18  1  0.41423000  0.44993000  0.19754000  1.0
  H  H19  1  0.08577000  0.94993000  0.30246000  1.0
  H  H20  1  0.76442000  0.58444000  0.72168000  1.0
  H  H21  1  0.73558000  0.08445000  0.77832000  1.0
  H  H22  1  0.23558000  0.41555000  0.27832000  1.0
  H  H23  1  0.26442000  0.91555000  0.22168000  1.0
  H  H24  1  0.76505000  0.45218000  0.81662000  1.0
  H  H25  1  0.73495000  0.95219000  0.68338000  1.0
  H  H26  1  0.23495000  0.54782000  0.18338000  1.0
  H  H27  1  0.26505000  0.04781000  0.31662000  1.0
  C  C28  1  0.85265000  0.88174000  0.47719000  1.0
  C  C29  1  0.64735000  0.38174000  0.02281000  1.0
  C  C30  1  0.14735000  0.11826000  0.52281000  1.0
  C  C31  1  0.35265000  0.61826000  0.97719000  1.0
  C  C32  1  0.88384000  0.55171000  0.28964000  1.0
  C  C33  1  0.61616000  0.05171000  0.21036000  1.0
  C  C34  1  0.11616000  0.44829000  0.71036000  1.0
  C  C35  1  0.38384000  0.94829000  0.78964000  1.0
  C  C36  1  0.73343000  0.36977000  0.59509000  1.0
  C  C37  1  0.76657000  0.86977000  0.90491000  1.0
  C  C38  1  0.26657000  0.63023000  0.40491000  1.0
  C  C39  1  0.23343000  0.13023000  0.09509000  1.0
  C  C40  1  0.64117000  0.39585000  0.68719000  1.0
  C  C41  1  0.85883000  0.89585000  0.81281000  1.0
  C  C42  1  0.35883000  0.60415000  0.31281000  1.0
  C  C43  1  0.14118000  0.10415000  0.18719000  1.0
  C  C44  1  0.45978000  0.22763000  0.64126000  1.0
  C  C45  1  0.04021000  0.72763000  0.85874000  1.0
  C  C46  1  0.54022000  0.77237000  0.35874000  1.0
  C  C47  1  0.95978000  0.27237000  0.14126000  1.0
  C  C48  1  0.55161000  0.20399000  0.55043000  1.0
  C  C49  1  0.94839000  0.70399000  0.94957000  1.0
  C  C50  1  0.44839000  0.79601000  0.44957000  1.0
  C  C51  1  0.05161000  0.29601000  0.05043000  1.0
  C  C52  1  0.69138000  0.50240000  0.76101000  1.0
  C  C53  1  0.80862000  0.00241000  0.73899000  1.0
  C  C54  1  0.30862000  0.49760000  0.23899000  1.0
  C  C55  1  0.19138000  0.99760000  0.26101000  1.0
  S  S56  1  0.87018000  0.73345000  0.53622000  1.0
  S  S57  1  0.62982000  0.23345000  0.96378000  1.0
  S  S58  1  0.12983000  0.26655000  0.46378000  1.0
  S  S59  1  0.37017000  0.76655000  0.03622000  1.0
  S  S60  1  0.92492000  0.69344000  0.22362000  1.0
  S  S61  1  0.57508000  0.19344000  0.27638000  1.0
  S  S62  1  0.07507000  0.30656000  0.77638000  1.0
  S  S63  1  0.42493000  0.80656000  0.72362000  1.0
  N  N64  1  0.83476000  0.98713000  0.43234000  1.0
  N  N65  1  0.66524000  0.48713000  0.06766000  1.0
  N  N66  1  0.16524000  0.01287000  0.56766000  1.0
  N  N67  1  0.33476000  0.51287000  0.93234000  1.0
  N  N68  1  0.85741000  0.44974000  0.33915000  1.0
  N  N69  1  0.64259000  0.94974000  0.16085000  1.0
  N  N70  1  0.14259000  0.55026000  0.66085000  1.0
  N  N71  1  0.35741000  0.05026000  0.83915000  1.0
  N  N72  1  0.50534000  0.32081000  0.70964000  1.0
  N  N73  1  0.99466000  0.82081000  0.79036000  1.0
  N  N74  1  0.49465000  0.67919000  0.29036000  1.0
  N  N75  1  0.00534000  0.17919000  0.20964000  1.0
  N  N76  1  0.68981000  0.27407000  0.52852000  1.0
  N  N77  1  0.81018000  0.77407000  0.97148000  1.0
  N  N78  1  0.31019000  0.72593000  0.47148000  1.0
  N  N79  1  0.18981000  0.22593000  0.02852000  1.0
