# generated using pymatgen
data_LaH8C7NO8
_symmetry_space_group_name_H-M   'P 1'
_cell_length_a   6.93424000
_cell_length_b   8.58279000
_cell_length_c   18.76760000
_cell_angle_alpha   81.36060000
_cell_angle_beta   79.36570000
_cell_angle_gamma   66.20700000
_symmetry_Int_Tables_number   1
_chemical_formula_structural   LaH8C7NO8
_chemical_formula_sum   'La4 H32 C28 N4 O32'
_cell_volume   1000.90032447
_cell_formula_units_Z   4
loop_
 _symmetry_equiv_pos_site_id
 _symmetry_equiv_pos_as_xyz
  1  'x, y, z'
loop_
 _atom_site_type_symbol
 _atom_site_label
 _atom_site_symmetry_multiplicity
 _atom_site_fract_x
 _atom_site_fract_y
 _atom_site_fract_z
 _atom_site_occupancy
  La  La0  1  0.49991000  0.92178000  0.61628000  1.0
  La  La1  1  0.03806000  0.57798000  0.88370000  1.0
  La  La2  1  0.50009000  0.07821000  0.38372000  1.0
  La  La3  1  0.96194000  0.42202000  0.11629000  1.0
  H  H4  1  0.97428000  0.60295000  0.61821000  1.0
  H  H5  1  0.19586000  0.89680000  0.88173000  1.0
  H  H6  1  0.02573000  0.39705000  0.38179000  1.0
  H  H7  1  0.80415000  0.10320000  0.11827000  1.0
  H  H8  1  0.89038000  0.70533000  0.69033000  1.0
  H  H9  1  0.28632000  0.79433000  0.80964000  1.0
  H  H10  1  0.10961000  0.29466000  0.30967000  1.0
  H  H11  1  0.71368000  0.20566000  0.19036000  1.0
  H  H12  1  0.02348000  0.97326000  0.58090000  1.0
  H  H13  1  0.57747000  0.52668000  0.91914000  1.0
  H  H14  1  0.97652000  0.02675000  0.41910000  1.0
  H  H15  1  0.42252000  0.47332000  0.08086000  1.0
  H  H16  1  0.20292000  0.92644000  0.51310000  1.0
  H  H17  1  0.64237000  0.57371000  0.98690000  1.0
  H  H18  1  0.79709000  0.07356000  0.48690000  1.0
  H  H19  1  0.35763000  0.42629000  0.01310000  1.0
  H  H20  1  0.03132000  0.12508000  0.69180000  1.0
  H  H21  1  0.84667000  0.37491000  0.80862000  1.0
  H  H22  1  0.96868000  0.87492000  0.30820000  1.0
  H  H23  1  0.15331000  0.62509000  0.19138000  1.0
  H  H24  1  0.12826000  0.25333000  0.64375000  1.0
  H  H25  1  0.02481000  0.24659000  0.85623000  1.0
  H  H26  1  0.87175000  0.74667000  0.35625000  1.0
  H  H27  1  0.97519000  0.75341000  0.14377000  1.0
  H  H28  1  0.50443000  0.26104000  0.69231000  1.0
  H  H29  1  0.45841000  0.23857000  0.80762000  1.0
  H  H30  1  0.49556000  0.73896000  0.30769000  1.0
  H  H31  1  0.54159000  0.76143000  0.19238000  1.0
  H  H32  1  0.85032000  0.30762000  0.47861000  1.0
  H  H33  1  0.63604000  0.19214000  0.02153000  1.0
  H  H34  1  0.14969000  0.69238000  0.52139000  1.0
  H  H35  1  0.36397000  0.80786000  0.97847000  1.0
  C  C36  1  0.38029000  0.59848000  0.71739000  1.0
  C  C37  1  0.69683000  0.90131000  0.78253000  1.0
  C  C38  1  0.61970000  0.40152000  0.28261000  1.0
  C  C39  1  0.30317000  0.09870000  0.21747000  1.0
  C  C40  1  0.51166000  0.50720000  0.65158000  1.0
  C  C41  1  0.67117000  0.99261000  0.84835000  1.0
  C  C42  1  0.48834000  0.49280000  0.34842000  1.0
  C  C43  1  0.32883000  0.00739000  0.15165000  1.0
  C  C44  1  0.56420000  0.33411000  0.64792000  1.0
  C  C45  1  0.54677000  0.16562000  0.85204000  1.0
  C  C46  1  0.43580000  0.66588000  0.35208000  1.0
  C  C47  1  0.45323000  0.83438000  0.14796000  1.0
  C  C48  1  0.69112000  0.25419000  0.58510000  1.0
  C  C49  1  0.53056000  0.24557000  0.91492000  1.0
  C  C50  1  0.30888000  0.74580000  0.41490000  1.0
  C  C51  1  0.46943000  0.75443000  0.08508000  1.0
  C  C52  1  0.75665000  0.35999000  0.52894000  1.0
  C  C53  1  0.64545000  0.13983000  0.97112000  1.0
  C  C54  1  0.24336000  0.64001000  0.47106000  1.0
  C  C55  1  0.35455000  0.86017000  0.02888000  1.0
  C  C56  1  0.69095000  0.53258000  0.53697000  1.0
  C  C57  1  0.76065000  0.96730000  0.96305000  1.0
  C  C58  1  0.30905000  0.46741000  0.46303000  1.0
  C  C59  1  0.23935000  0.03271000  0.03695000  1.0
  C  C60  1  0.73897000  0.65382000  0.47651000  1.0
  C  C61  1  0.86912000  0.84613000  0.02356000  1.0
  C  C62  1  0.26103000  0.34618000  0.52350000  1.0
  C  C63  1  0.13088000  0.15387000  0.97644000  1.0
  N  N64  1  0.57254000  0.60606000  0.59730000  1.0
  N  N65  1  0.77649000  0.89381000  0.90266000  1.0
  N  N66  1  0.42746000  0.39394000  0.40270000  1.0
  N  N67  1  0.22351000  0.10620000  0.09734000  1.0
  O  O68  1  0.36527000  0.75225000  0.71893000  1.0
  O  O69  1  0.83690000  0.74750000  0.78104000  1.0
  O  O70  1  0.63473000  0.24774000  0.28107000  1.0
  O  O71  1  0.16309000  0.25250000  0.21896000  1.0
  O  O72  1  0.29590000  0.52032000  0.76706000  1.0
  O  O73  1  0.58399000  0.97934000  0.73289000  1.0
  O  O74  1  0.70409000  0.47967000  0.23294000  1.0
  O  O75  1  0.41600000  0.02066000  0.26711000  1.0
  O  O76  1  0.64705000  0.81414000  0.48689000  1.0
  O  O77  1  0.94779000  0.68580000  0.01317000  1.0
  O  O78  1  0.35295000  0.18585000  0.51311000  1.0
  O  O79  1  0.05221000  0.31420000  0.98682000  1.0
  O  O80  1  0.85903000  0.59592000  0.41910000  1.0
  O  O81  1  0.87370000  0.90407000  0.08099000  1.0
  O  O82  1  0.14097000  0.40408000  0.58090000  1.0
  O  O83  1  0.12631000  0.09593000  0.91900000  1.0
  O  O84  1  0.74175000  0.09048000  0.57837000  1.0
  O  O85  1  0.41068000  0.40924000  0.92164000  1.0
  O  O86  1  0.25825000  0.90951000  0.42163000  1.0
  O  O87  1  0.58932000  0.59076000  0.07836000  1.0
  O  O88  1  0.88005000  0.71372000  0.63751000  1.0
  O  O89  1  0.23172000  0.78596000  0.86247000  1.0
  O  O90  1  0.11995000  0.28628000  0.36249000  1.0
  O  O91  1  0.76828000  0.21404000  0.13753000  1.0
  O  O92  1  0.17988000  0.92402000  0.56742000  1.0
  O  O93  1  0.67128000  0.57593000  0.93258000  1.0
  O  O94  1  0.82012000  0.07598000  0.43257000  1.0
  O  O95  1  0.32872000  0.42407000  0.06742000  1.0
  O  O96  1  0.16115000  0.14627000  0.67818000  1.0
  O  O97  1  0.98460000  0.35364000  0.82180000  1.0
  O  O98  1  0.83886000  0.85373000  0.32182000  1.0
  O  O99  1  0.01539000  0.64636000  0.17819000  1.0
