# generated using pymatgen
data_CdH28C28(N5O3)2
_symmetry_space_group_name_H-M   'P 1'
_cell_length_a   8.48412000
_cell_length_b   8.59247000
_cell_length_c   20.96090000
_cell_angle_alpha   89.99990000
_cell_angle_beta   90.00000000
_cell_angle_gamma   102.43000000
_symmetry_Int_Tables_number   1
_chemical_formula_structural   CdH28C28(N5O3)2
_chemical_formula_sum   'Cd2 H56 C56 N20 O12'
_cell_volume   1492.22240156
_cell_formula_units_Z   2
loop_
 _symmetry_equiv_pos_site_id
 _symmetry_equiv_pos_as_xyz
  1  'x, y, z'
loop_
 _atom_site_type_symbol
 _atom_site_label
 _atom_site_symmetry_multiplicity
 _atom_site_fract_x
 _atom_site_fract_y
 _atom_site_fract_z
 _atom_site_occupancy
  Cd  Cd0  1  0.00000000  0.50000000  0.50000000  1.0
  Cd  Cd1  1  0.50000000  0.50000000  0.00000000  1.0
  H  H2  1  0.78430000  0.79299000  0.52769000  1.0
  H  H3  1  0.71569000  0.20700000  0.02769000  1.0
  H  H4  1  0.21569000  0.20700000  0.47231000  1.0
  H  H5  1  0.28431000  0.79299000  0.97231000  1.0
  H  H6  1  0.65918000  0.30533000  0.57716000  1.0
  H  H7  1  0.84082000  0.69466000  0.07716000  1.0
  H  H8  1  0.34082000  0.69466000  0.42284000  1.0
  H  H9  1  0.15918000  0.30533000  0.92284000  1.0
  H  H10  1  0.41332000  0.45542000  0.61566000  1.0
  H  H11  1  0.08668000  0.54458000  0.11565000  1.0
  H  H12  1  0.58668000  0.54458000  0.38435000  1.0
  H  H13  1  0.91332000  0.45542000  0.88434000  1.0
  H  H14  1  0.35831000  0.72397000  0.59464000  1.0
  H  H15  1  0.14169000  0.27603000  0.09464000  1.0
  H  H16  1  0.64169000  0.27603000  0.40536000  1.0
  H  H17  1  0.85831000  0.72398000  0.90536000  1.0
  H  H18  1  0.49007000  0.85548000  0.54257000  1.0
  H  H19  1  0.00993000  0.14452000  0.04257000  1.0
  H  H20  1  0.50993000  0.14452000  0.45743000  1.0
  H  H21  1  0.99007000  0.85548000  0.95743000  1.0
  H  H22  1  0.72670000  0.04980000  0.58482000  1.0
  H  H23  1  0.77330000  0.95020000  0.08482000  1.0
  H  H24  1  0.27330000  0.95020000  0.41518000  1.0
  H  H25  1  0.22670000  0.04980000  0.91518000  1.0
  H  H26  1  0.84964000  0.21116000  0.67696000  1.0
  H  H27  1  0.65036000  0.78884000  0.17696000  1.0
  H  H28  1  0.15036000  0.78884000  0.32304000  1.0
  H  H29  1  0.34964000  0.21116000  0.82304000  1.0
  H  H30  1  0.51904000  0.91076000  0.80410000  1.0
  H  H31  1  0.98095000  0.08925000  0.30410000  1.0
  H  H32  1  0.48095000  0.08925000  0.19590000  1.0
  H  H33  1  0.01905000  0.91076000  0.69590000  1.0
  H  H34  1  0.39263000  0.74899000  0.71146000  1.0
  H  H35  1  0.10737000  0.25101000  0.21146000  1.0
  H  H36  1  0.60737000  0.25101000  0.28854000  1.0
  H  H37  1  0.89263000  0.74899000  0.78854000  1.0
  H  H38  1  0.77916000  0.08491000  0.84362000  1.0
  H  H39  1  0.72084000  0.91508000  0.34362000  1.0
  H  H40  1  0.22084000  0.91509000  0.15638000  1.0
  H  H41  1  0.27916000  0.08492000  0.65638000  1.0
  H  H42  1  0.89842000  0.22343000  0.79040000  1.0
  H  H43  1  0.60158000  0.77657000  0.29040000  1.0
  H  H44  1  0.10158000  0.77657000  0.20960000  1.0
  H  H45  1  0.39842000  0.22343000  0.70960000  1.0
  H  H46  1  0.70050000  0.44099000  0.74399000  1.0
  H  H47  1  0.79950000  0.55900000  0.24399000  1.0
  H  H48  1  0.29950000  0.55900000  0.25601000  1.0
  H  H49  1  0.20050000  0.44100000  0.75601000  1.0
  H  H50  1  0.56105000  0.61814000  0.83127000  1.0
  H  H51  1  0.93896000  0.38187000  0.33127000  1.0
  H  H52  1  0.43895000  0.38186000  0.16873000  1.0
  H  H53  1  0.06105000  0.61814000  0.66873000  1.0
  H  H54  1  0.64065000  0.20239000  0.92151000  1.0
  H  H55  1  0.85935000  0.79761000  0.42151000  1.0
  H  H56  1  0.35935000  0.79761000  0.07849000  1.0
  H  H57  1  0.14065000  0.20239000  0.57849000  1.0
  C  C58  1  0.72011000  0.67884000  0.54588000  1.0
  C  C59  1  0.77988000  0.32116000  0.04588000  1.0
  C  C60  1  0.27988000  0.32116000  0.45412000  1.0
  C  C61  1  0.22011000  0.67884000  0.95412000  1.0
  C  C62  1  0.64923000  0.42849000  0.57301000  1.0
  C  C63  1  0.85076000  0.57150000  0.07301000  1.0
  C  C64  1  0.35076000  0.57150000  0.42699000  1.0
  C  C65  1  0.14924000  0.42850000  0.92699000  1.0
  C  C66  1  0.52769000  0.50059000  0.59244000  1.0
  C  C67  1  0.97231000  0.49941000  0.09244000  1.0
  C  C68  1  0.47231000  0.49941000  0.40756000  1.0
  C  C69  1  0.02769000  0.50059000  0.90756000  1.0
  C  C70  1  0.48423000  0.78389000  0.58616000  1.0
  C  C71  1  0.01577000  0.21611000  0.08616000  1.0
  C  C72  1  0.51577000  0.21611000  0.41384000  1.0
  C  C73  1  0.98423000  0.78389000  0.91384000  1.0
  C  C74  1  0.55221000  0.88738000  0.64213000  1.0
  C  C75  1  0.94779000  0.11261000  0.14213000  1.0
  C  C76  1  0.44779000  0.11262000  0.35787000  1.0
  C  C77  1  0.05221000  0.88739000  0.85787000  1.0
  C  C78  1  0.67970000  0.01896000  0.63274000  1.0
  C  C79  1  0.82030000  0.98104000  0.13274000  1.0
  C  C80  1  0.32030000  0.98104000  0.36726000  1.0
  C  C81  1  0.17970000  0.01896000  0.86726000  1.0
  C  C82  1  0.74910000  0.10987000  0.68468000  1.0
  C  C83  1  0.75090000  0.89013000  0.18468000  1.0
  C  C84  1  0.25090000  0.89013000  0.31532000  1.0
  C  C85  1  0.24910000  0.10987000  0.81532000  1.0
  C  C86  1  0.69295000  0.07074000  0.74663000  1.0
  C  C87  1  0.80705000  0.92926000  0.24664000  1.0
  C  C88  1  0.30705000  0.92926000  0.25337000  1.0
  C  C89  1  0.19296000  0.07074000  0.75336000  1.0
  C  C90  1  0.56331000  0.94087000  0.75589000  1.0
  C  C91  1  0.93669000  0.05913000  0.25589000  1.0
  C  C92  1  0.43669000  0.05913000  0.24411000  1.0
  C  C93  1  0.06332000  0.94087000  0.74411000  1.0
  C  C94  1  0.49356000  0.85009000  0.70399000  1.0
  C  C95  1  0.00644000  0.14991000  0.20399000  1.0
  C  C96  1  0.50644000  0.14991000  0.29601000  1.0
  C  C97  1  0.99357000  0.85009000  0.79601000  1.0
  C  C98  1  0.77417000  0.16405000  0.80290000  1.0
  C  C99  1  0.72583000  0.83595000  0.30290000  1.0
  C  C100  1  0.22583000  0.83595000  0.19710000  1.0
  C  C101  1  0.27417000  0.16405000  0.69710000  1.0
  C  C102  1  0.66624000  0.41964000  0.79360000  1.0
  C  C103  1  0.83377000  0.58036000  0.29360000  1.0
  C  C104  1  0.33377000  0.58036000  0.20640000  1.0
  C  C105  1  0.16623000  0.41964000  0.70640000  1.0
  C  C106  1  0.59668000  0.50509000  0.83705000  1.0
  C  C107  1  0.90333000  0.49491000  0.33705000  1.0
  C  C108  1  0.40332000  0.49491000  0.16295000  1.0
  C  C109  1  0.09668000  0.50509000  0.66295000  1.0
  C  C110  1  0.63508000  0.29413000  0.88651000  1.0
  C  C111  1  0.86492000  0.70587000  0.38651000  1.0
  C  C112  1  0.36492000  0.70587000  0.11349000  1.0
  C  C113  1  0.13509000  0.29413000  0.61349000  1.0
  N  N114  1  0.76824000  0.54135000  0.54393000  1.0
  N  N115  1  0.73176000  0.45864000  0.04393000  1.0
  N  N116  1  0.23176000  0.45864000  0.45607000  1.0
  N  N117  1  0.26824000  0.54135000  0.95607000  1.0
  N  N118  1  0.57391000  0.65838000  0.57445000  1.0
  N  N119  1  0.92609000  0.34162000  0.07445000  1.0
  N  N120  1  0.42609000  0.34162000  0.42555000  1.0
  N  N121  1  0.07391000  0.65838000  0.92555000  1.0
  N  N122  1  0.69047000  0.28636000  0.82601000  1.0
  N  N123  1  0.80954000  0.71364000  0.32601000  1.0
  N  N124  1  0.30954000  0.71364000  0.17399000  1.0
  N  N125  1  0.19047000  0.28637000  0.67399000  1.0
  N  N126  1  0.57872000  0.42588000  0.89491000  1.0
  N  N127  1  0.92128000  0.57412000  0.39491000  1.0
  N  N128  1  0.42128000  0.57412000  0.10509000  1.0
  N  N129  1  0.07872000  0.42589000  0.60509000  1.0
  N  N130  1  0.15185000  0.88029000  0.54286000  1.0
  N  N131  1  0.34814000  0.11971000  0.04285000  1.0
  N  N132  1  0.84815000  0.11971000  0.45715000  1.0
  N  N133  1  0.65186000  0.88029000  0.95714000  1.0
  O  O134  1  0.12680000  0.78726000  0.49418000  1.0
  O  O135  1  0.37319000  0.21274000  0.99418000  1.0
  O  O136  1  0.87320000  0.21274000  0.50582000  1.0
  O  O137  1  0.62680000  0.78726000  0.00582000  1.0
  O  O138  1  0.24837000  0.01421000  0.53701000  1.0
  O  O139  1  0.25162000  0.98578000  0.03701000  1.0
  O  O140  1  0.75162000  0.98578000  0.46299000  1.0
  O  O141  1  0.74838000  0.01422000  0.96299000  1.0
  O  O142  1  0.08225000  0.83785000  0.59488000  1.0
  O  O143  1  0.41773000  0.16215000  0.09487000  1.0
  O  O144  1  0.91773000  0.16215000  0.40513000  1.0
  O  O145  1  0.58228000  0.83785000  0.90513000  1.0
