# generated using pymatgen
data_CdH14C14(SN3)2
_symmetry_space_group_name_H-M   'P 1'
_cell_length_a   9.91968000
_cell_length_b   10.34320000
_cell_length_c   10.42570000
_cell_angle_alpha   63.91790000
_cell_angle_beta   63.62750000
_cell_angle_gamma   82.04180000
_symmetry_Int_Tables_number   1
_chemical_formula_structural   CdH14C14(SN3)2
_chemical_formula_sum   'Cd2 H28 C28 S4 N12'
_cell_volume   858.61633662
_cell_formula_units_Z   2
loop_
 _symmetry_equiv_pos_site_id
 _symmetry_equiv_pos_as_xyz
  1  'x, y, z'
loop_
 _atom_site_type_symbol
 _atom_site_label
 _atom_site_symmetry_multiplicity
 _atom_site_fract_x
 _atom_site_fract_y
 _atom_site_fract_z
 _atom_site_occupancy
  Cd  Cd0  1  0.11767000  0.28668000  0.40172000  1.0
  Cd  Cd1  1  0.88233000  0.71332000  0.59828000  1.0
  H  H2  1  0.95917000  0.64165000  0.24486000  1.0
  H  H3  1  0.04082000  0.35835000  0.75514000  1.0
  H  H4  1  0.09840000  0.81350000  0.91918000  1.0
  H  H5  1  0.90160000  0.18650000  0.08082000  1.0
  H  H6  1  0.34186000  0.80074000  0.70108000  1.0
  H  H7  1  0.65814000  0.19926000  0.29892000  1.0
  H  H8  1  0.45464000  0.65425000  0.74983000  1.0
  H  H9  1  0.54536000  0.34575000  0.25017000  1.0
  H  H10  1  0.37318000  0.65081000  0.55513000  1.0
  H  H11  1  0.62682000  0.34919000  0.44487000  1.0
  H  H12  1  0.18119000  0.63873000  0.68964000  1.0
  H  H13  1  0.81882000  0.36127000  0.31036000  1.0
  H  H14  1  0.29870000  0.49465000  0.73610000  1.0
  H  H15  1  0.70130000  0.50535000  0.26390000  1.0
  H  H16  1  0.57463000  0.32319000  0.86339000  1.0
  H  H17  1  0.42537000  0.67681000  0.13661000  1.0
  H  H18  1  0.75547000  0.13591000  0.83454000  1.0
  H  H19  1  0.24454000  0.86409000  0.16546000  1.0
  H  H20  1  0.52261000  0.86536000  0.33448000  1.0
  H  H21  1  0.47739000  0.13464000  0.66553000  1.0
  H  H22  1  0.34169000  0.05363000  0.36378000  1.0
  H  H23  1  0.65831000  0.94637000  0.63623000  1.0
  H  H24  1  0.84509000  0.90623000  0.94245000  1.0
  H  H25  1  0.15491000  0.09377000  0.05755000  1.0
  H  H26  1  0.70058000  0.77125000  0.10040000  1.0
  H  H27  1  0.29942000  0.22875000  0.89960000  1.0
  H  H28  1  0.81689000  0.84738000  0.14188000  1.0
  H  H29  1  0.18311000  0.15262000  0.85812000  1.0
  C  C30  1  0.18750000  0.55916000  0.44381000  1.0
  C  C31  1  0.81250000  0.44085000  0.55619000  1.0
  C  C32  1  0.06115000  0.93872000  0.64779000  1.0
  C  C33  1  0.93885000  0.06128000  0.35221000  1.0
  C  C34  1  0.05437000  0.62115000  0.15275000  1.0
  C  C35  1  0.94563000  0.37885000  0.84725000  1.0
  C  C36  1  0.12190000  0.70773000  0.99067000  1.0
  C  C37  1  0.87810000  0.29227000  0.00933000  1.0
  C  C38  1  0.24140000  0.50906000  0.04728000  1.0
  C  C39  1  0.75859000  0.49094000  0.95271000  1.0
  C  C40  1  0.34152000  0.68269000  0.75741000  1.0
  C  C41  1  0.65848000  0.31731000  0.24259000  1.0
  C  C42  1  0.29481000  0.61224000  0.68094000  1.0
  C  C43  1  0.70519000  0.38776000  0.31906000  1.0
  C  C44  1  0.44580000  0.19962000  0.11535000  1.0
  C  C45  1  0.55420000  0.80038000  0.88465000  1.0
  C  C46  1  0.56337000  0.22227000  0.96573000  1.0
  C  C47  1  0.43663000  0.77773000  0.03427000  1.0
  C  C48  1  0.66412000  0.11664000  0.95075000  1.0
  C  C49  1  0.33588000  0.88336000  0.04925000  1.0
  C  C50  1  0.65115000  0.98634000  0.08245000  1.0
  C  C51  1  0.34885000  0.01366000  0.91755000  1.0
  C  C52  1  0.53392000  0.96558000  0.23105000  1.0
  C  C53  1  0.46607000  0.03442000  0.76895000  1.0
  C  C54  1  0.43231000  0.07018000  0.24812000  1.0
  C  C55  1  0.56769000  0.92982000  0.75188000  1.0
  C  C56  1  0.75968000  0.87225000  0.06509000  1.0
  C  C57  1  0.24032000  0.12775000  0.93491000  1.0
  S  S58  1  0.29853000  0.42680000  0.44747000  1.0
  S  S59  1  0.70148000  0.57319000  0.55253000  1.0
  S  S60  1  0.15308000  0.06241000  0.64199000  1.0
  S  S61  1  0.84692000  0.93759000  0.35801000  1.0
  N  N62  1  0.10812000  0.65611000  0.43976000  1.0
  N  N63  1  0.89188000  0.34388000  0.56024000  1.0
  N  N64  1  0.99510000  0.84698000  0.65573000  1.0
  N  N65  1  0.00490000  0.15302000  0.34427000  1.0
  N  N66  1  0.12910000  0.49900000  0.18566000  1.0
  N  N67  1  0.87090000  0.50100000  0.81434000  1.0
  N  N68  1  0.23904000  0.63609000  0.92564000  1.0
  N  N69  1  0.76096000  0.36392000  0.07436000  1.0
  N  N70  1  0.34716000  0.41326000  0.01899000  1.0
  N  N71  1  0.65284000  0.58674000  0.98101000  1.0
  N  N72  1  0.33900000  0.29994000  0.14225000  1.0
  N  N73  1  0.66100000  0.70006000  0.85775000  1.0
