# generated using pymatgen
data_ZnH20C22(NO2)2
_symmetry_space_group_name_H-M   'P 1'
_cell_length_a   8.97672000
_cell_length_b   9.89453000
_cell_length_c   12.24550000
_cell_angle_alpha   83.08720000
_cell_angle_beta   71.67640000
_cell_angle_gamma   76.80030000
_symmetry_Int_Tables_number   1
_chemical_formula_structural   ZnH20C22(NO2)2
_chemical_formula_sum   'Zn2 H40 C44 N4 O8'
_cell_volume   1003.83465429
_cell_formula_units_Z   2
loop_
 _symmetry_equiv_pos_site_id
 _symmetry_equiv_pos_as_xyz
  1  'x, y, z'
loop_
 _atom_site_type_symbol
 _atom_site_label
 _atom_site_symmetry_multiplicity
 _atom_site_fract_x
 _atom_site_fract_y
 _atom_site_fract_z
 _atom_site_occupancy
  Zn  Zn0  1  0.32866000  0.10903000  0.69503000  1.0
  Zn  Zn1  1  0.67134000  0.89097000  0.30497000  1.0
  H  H2  1  0.57385000  0.71550000  0.94050000  1.0
  H  H3  1  0.42615000  0.28450000  0.05950000  1.0
  H  H4  1  0.69272000  0.45906000  0.95215000  1.0
  H  H5  1  0.30728000  0.54094000  0.04785000  1.0
  H  H6  1  0.72545000  0.31334000  0.79182000  1.0
  H  H7  1  0.27455000  0.68666000  0.20818000  1.0
  H  H8  1  0.52637000  0.67339000  0.60953000  1.0
  H  H9  1  0.47363000  0.32661000  0.39047000  1.0
  H  H10  1  0.74454000  0.30847000  0.58278000  1.0
  H  H11  1  0.25546000  0.69153000  0.41721000  1.0
  H  H12  1  0.64079000  0.45403000  0.51500000  1.0
  H  H13  1  0.35921000  0.54597000  0.48500000  1.0
  H  H14  1  0.32718000  0.94534000  0.51275000  1.0
  H  H15  1  0.67282000  0.05466000  0.48725000  1.0
  H  H16  1  0.21371000  0.97008000  0.35047000  1.0
  H  H17  1  0.78629000  0.02992000  0.64953000  1.0
  H  H18  1  0.97821000  0.38870000  0.45005000  1.0
  H  H19  1  0.02179000  0.61130000  0.54995000  1.0
  H  H20  1  0.10687000  0.34718000  0.60800000  1.0
  H  H21  1  0.89313000  0.65282000  0.39200000  1.0
  H  H22  1  0.09673000  0.14514000  0.21681000  1.0
  H  H23  1  0.90326000  0.85486000  0.78318000  1.0
  H  H24  1  0.91260000  0.12871000  0.31873000  1.0
  H  H25  1  0.08740000  0.87129000  0.68127000  1.0
  H  H26  1  0.01608000  0.40701000  0.23182000  1.0
  H  H27  1  0.98392000  0.59299000  0.76818000  1.0
  H  H28  1  0.83268000  0.38839000  0.33353000  1.0
  H  H29  1  0.16732000  0.61161000  0.66647000  1.0
  H  H30  1  0.75227000  0.27855000  0.19920000  1.0
  H  H31  1  0.24772000  0.72145000  0.80080000  1.0
  H  H32  1  0.78273000  0.44715000  0.15195000  1.0
  H  H33  1  0.21727000  0.55285000  0.84805000  1.0
  H  H34  1  0.79218000  0.17558000  0.01917000  1.0
  H  H35  1  0.20782000  0.82442000  0.98083000  1.0
  H  H36  1  0.98295000  0.09376000  0.83144000  1.0
  H  H37  1  0.01706000  0.90624000  0.16856000  1.0
  H  H38  1  0.33128000  0.28163000  0.86757000  1.0
  H  H39  1  0.66872000  0.71837000  0.13243000  1.0
  H  H40  1  0.15232000  0.37806000  0.05370000  1.0
  H  H41  1  0.84768000  0.62194000  0.94630000  1.0
  C  C42  1  0.46698000  0.86032000  0.77251000  1.0
  C  C43  1  0.53302000  0.13968000  0.22750000  1.0
  C  C44  1  0.54518000  0.70881000  0.77419000  1.0
  C  C45  1  0.45482000  0.29119000  0.22582000  1.0
  C  C46  1  0.59220000  0.64879000  0.87079000  1.0
  C  C47  1  0.40780000  0.35121000  0.12921000  1.0
  C  C48  1  0.65832000  0.50702000  0.87635000  1.0
  C  C49  1  0.34168000  0.49298000  0.12365000  1.0
  C  C50  1  0.67666000  0.42481000  0.78623000  1.0
  C  C51  1  0.32334000  0.57519000  0.21377000  1.0
  C  C52  1  0.62925000  0.48328000  0.68910000  1.0
  C  C53  1  0.37075000  0.51672000  0.31090000  1.0
  C  C54  1  0.56447000  0.62573000  0.68389000  1.0
  C  C55  1  0.43553000  0.37427000  0.31611000  1.0
  C  C56  1  0.63788000  0.39220000  0.59634000  1.0
  C  C57  1  0.36212000  0.60780000  0.40366000  1.0
  C  C58  1  0.49006000  0.32629000  0.63177000  1.0
  C  C59  1  0.50994000  0.67371000  0.36823000  1.0
  C  C60  1  0.24692000  0.04111000  0.49708000  1.0
  C  C61  1  0.75308000  0.95889000  0.50292000  1.0
  C  C62  1  0.18108000  0.05599000  0.40698000  1.0
  C  C63  1  0.81892000  0.94400000  0.59302000  1.0
  C  C64  1  0.07952000  0.18086000  0.38785000  1.0
  C  C65  1  0.92048000  0.81914000  0.61215000  1.0
  C  C66  1  0.05264000  0.28772000  0.46155000  1.0
  C  C67  1  0.94736000  0.71227000  0.53845000  1.0
  C  C68  1  0.12264000  0.26582000  0.55029000  1.0
  C  C69  1  0.87736000  0.73418000  0.44971000  1.0
  C  C70  1  0.00437000  0.19381000  0.29228000  1.0
  C  C71  1  0.99563000  0.80619000  0.70772000  1.0
  C  C72  1  0.92662000  0.34023000  0.25926000  1.0
  C  C73  1  0.07338000  0.65978000  0.74074000  1.0
  C  C74  1  0.84578000  0.34015000  0.16623000  1.0
  C  C75  1  0.15422000  0.65985000  0.83377000  1.0
  C  C76  1  0.95534000  0.28668000  0.05276000  1.0
  C  C77  1  0.04466000  0.71332000  0.94724000  1.0
  C  C78  1  0.90928000  0.20470000  0.98803000  1.0
  C  C79  1  0.09072000  0.79530000  0.01197000  1.0
  C  C80  1  0.01548000  0.15759000  0.88363000  1.0
  C  C81  1  0.98452000  0.84241000  0.11637000  1.0
  C  C82  1  0.20953000  0.26348000  0.90336000  1.0
  C  C83  1  0.79047000  0.73652000  0.09663000  1.0
  C  C84  1  0.10911000  0.31629000  0.00696000  1.0
  C  C85  1  0.89089000  0.68372000  0.99304000  1.0
  N  N86  1  0.21717000  0.14388000  0.56892000  1.0
  N  N87  1  0.78283000  0.85612000  0.43108000  1.0
  N  N88  1  0.16367000  0.18547000  0.84176000  1.0
  N  N89  1  0.83633000  0.81453000  0.15824000  1.0
  O  O90  1  0.45788000  0.93445000  0.85089000  1.0
  O  O91  1  0.54213000  0.06555000  0.14911000  1.0
  O  O92  1  0.40716000  0.90519000  0.68708000  1.0
  O  O93  1  0.59283000  0.09481000  0.31293000  1.0
  O  O94  1  0.35410000  0.39878000  0.63834000  1.0
  O  O95  1  0.64590000  0.60122000  0.36166000  1.0
  O  O96  1  0.51863000  0.19316000  0.65570000  1.0
  O  O97  1  0.48137000  0.80684000  0.34430000  1.0
