# generated using pymatgen
data_CuH8C12S2N5
_symmetry_space_group_name_H-M   'P 1'
_cell_length_a   7.66909000
_cell_length_b   9.37399000
_cell_length_c   9.87851000
_cell_angle_alpha   83.51600000
_cell_angle_beta   81.67810000
_cell_angle_gamma   71.64510000
_symmetry_Int_Tables_number   1
_chemical_formula_structural   CuH8C12S2N5
_chemical_formula_sum   'Cu2 H16 C24 S4 N10'
_cell_volume   665.22111948
_cell_formula_units_Z   2
loop_
 _symmetry_equiv_pos_site_id
 _symmetry_equiv_pos_as_xyz
  1  'x, y, z'
loop_
 _atom_site_type_symbol
 _atom_site_label
 _atom_site_symmetry_multiplicity
 _atom_site_fract_x
 _atom_site_fract_y
 _atom_site_fract_z
 _atom_site_occupancy
  Cu  Cu0  1  0.95926000  0.83079000  0.16708000  1.0
  Cu  Cu1  1  0.04074000  0.16921000  0.83292000  1.0
  H  H2  1  0.98913000  0.86307000  0.57968000  1.0
  H  H3  1  0.01087000  0.13693000  0.42033000  1.0
  H  H4  1  0.23922000  0.94278000  0.65490000  1.0
  H  H5  1  0.76078000  0.05722000  0.34511000  1.0
  H  H6  1  0.56979000  0.82366000  0.55486000  1.0
  H  H7  1  0.43021000  0.17633000  0.44515000  1.0
  H  H8  1  0.63119000  0.63072000  0.38406000  1.0
  H  H9  1  0.36881000  0.36928000  0.61594000  1.0
  H  H10  1  0.33776000  0.28399000  0.09452000  1.0
  H  H11  1  0.66224000  0.71602000  0.90548000  1.0
  H  H12  1  0.46149000  0.33642000  0.85065000  1.0
  H  H13  1  0.53851000  0.66358000  0.14935000  1.0
  H  H14  1  0.36312000  0.60069000  0.74481000  1.0
  H  H15  1  0.63689000  0.39931000  0.25519000  1.0
  H  H16  1  0.14072000  0.80289000  0.88593000  1.0
  H  H17  1  0.85929000  0.19712000  0.11407000  1.0
  C  C18  1  0.54071000  0.97849000  0.17880000  1.0
  C  C19  1  0.45929000  0.02150000  0.82120000  1.0
  C  C20  1  0.23360000  0.00095000  0.18841000  1.0
  C  C21  1  0.76639000  0.99904000  0.81159000  1.0
  C  C22  1  0.18278000  0.71146000  0.43669000  1.0
  C  C23  1  0.81722000  0.28854000  0.56331000  1.0
  C  C24  1  0.13261000  0.81661000  0.53646000  1.0
  C  C25  1  0.86738000  0.18339000  0.46354000  1.0
  C  C26  1  0.27293000  0.86025000  0.57820000  1.0
  C  C27  1  0.72707000  0.13975000  0.42180000  1.0
  C  C28  1  0.45585000  0.79435000  0.52318000  1.0
  C  C29  1  0.54415000  0.20565000  0.47682000  1.0
  C  C30  1  0.48997000  0.68701000  0.42787000  1.0
  C  C31  1  0.51003000  0.31299000  0.57213000  1.0
  C  C32  1  0.17962000  0.51758000  0.11620000  1.0
  C  C33  1  0.82038000  0.48243000  0.88380000  1.0
  C  C34  1  0.29774000  0.39707000  0.04390000  1.0
  C  C35  1  0.70227000  0.60294000  0.95610000  1.0
  C  C36  1  0.36415000  0.42629000  0.90867000  1.0
  C  C37  1  0.63586000  0.57371000  0.09133000  1.0
  C  C38  1  0.30990000  0.57364000  0.84944000  1.0
  C  C39  1  0.69011000  0.42637000  0.15055000  1.0
  C  C40  1  0.18892000  0.68617000  0.92731000  1.0
  C  C41  1  0.81108000  0.31384000  0.07269000  1.0
  S  S42  1  0.99447000  0.67412000  0.37326000  1.0
  S  S43  1  0.00553000  0.32588000  0.62674000  1.0
  S  S44  1  0.10625000  0.47167000  0.29029000  1.0
  S  S45  1  0.89375000  0.52833000  0.70971000  1.0
  N  N46  1  0.70217000  0.92337000  0.15854000  1.0
  N  N47  1  0.29782000  0.07662000  0.84146000  1.0
  N  N48  1  0.10109000  0.96681000  0.17762000  1.0
  N  N49  1  0.89890000  0.03319000  0.82238000  1.0
  N  N50  1  0.36694000  0.05194000  0.20530000  1.0
  N  N51  1  0.63305000  0.94806000  0.79471000  1.0
  N  N52  1  0.35569000  0.64723000  0.38304000  1.0
  N  N53  1  0.64431000  0.35277000  0.61695000  1.0
  N  N54  1  0.12329000  0.65932000  0.05958000  1.0
  N  N55  1  0.87671000  0.34068000  0.94042000  1.0
