# generated using pymatgen
data_CdH19C26N5O4
_symmetry_space_group_name_H-M   'P 1'
_cell_length_a   9.44151000
_cell_length_b   12.34660000
_cell_length_c   23.28220000
_cell_angle_alpha   90.00080000
_cell_angle_beta   90.00040000
_cell_angle_gamma   111.03800000
_symmetry_Int_Tables_number   1
_chemical_formula_structural   CdH19C26N5O4
_chemical_formula_sum   'Cd4 H76 C104 N20 O16'
_cell_volume   2533.10920493
_cell_formula_units_Z   4
loop_
 _symmetry_equiv_pos_site_id
 _symmetry_equiv_pos_as_xyz
  1  'x, y, z'
loop_
 _atom_site_type_symbol
 _atom_site_label
 _atom_site_symmetry_multiplicity
 _atom_site_fract_x
 _atom_site_fract_y
 _atom_site_fract_z
 _atom_site_occupancy
  Cd  Cd0  1  0.92068000  0.89393000  0.84698000  1.0
  Cd  Cd1  1  0.57931000  0.60606000  0.34698000  1.0
  Cd  Cd2  1  0.07932000  0.10607000  0.15302000  1.0
  Cd  Cd3  1  0.42069000  0.39394000  0.65302000  1.0
  H  H4  1  0.15558000  0.64715000  0.75687000  1.0
  H  H5  1  0.34444000  0.85285000  0.25686000  1.0
  H  H6  1  0.84444000  0.35285000  0.24313000  1.0
  H  H7  1  0.65556000  0.14715000  0.74313000  1.0
  H  H8  1  0.96678000  0.27366000  0.75893000  1.0
  H  H9  1  0.53325000  0.22633000  0.25892000  1.0
  H  H10  1  0.03323000  0.72633000  0.24107000  1.0
  H  H11  1  0.46676000  0.77367000  0.74108000  1.0
  H  H12  1  0.76649000  0.27928000  0.82576000  1.0
  H  H13  1  0.73353000  0.22072000  0.32576000  1.0
  H  H14  1  0.23351000  0.72072000  0.17424000  1.0
  H  H15  1  0.26648000  0.77928000  0.67424000  1.0
  H  H16  1  0.75967000  0.47239000  0.85855000  1.0
  H  H17  1  0.74034000  0.02761000  0.35855000  1.0
  H  H18  1  0.24034000  0.52762000  0.14145000  1.0
  H  H19  1  0.25966000  0.97239000  0.64145000  1.0
  H  H20  1  0.88545000  0.09485000  0.94549000  1.0
  H  H21  1  0.61454000  0.40515000  0.44549000  1.0
  H  H22  1  0.11453000  0.90514000  0.05451000  1.0
  H  H23  1  0.38546000  0.59485000  0.55451000  1.0
  H  H24  1  0.77253000  0.73405000  0.96459000  1.0
  H  H25  1  0.72747000  0.76595000  0.46459000  1.0
  H  H26  1  0.22747000  0.26595000  0.03541000  1.0
  H  H27  1  0.27251000  0.23404000  0.53541000  1.0
  H  H28  1  0.65439000  0.81856000  0.05778000  1.0
  H  H29  1  0.84561000  0.68144000  0.55778000  1.0
  H  H30  1  0.34561000  0.18144000  0.94222000  1.0
  H  H31  1  0.15438000  0.31856000  0.44222000  1.0
  H  H32  1  0.96550000  0.81336000  0.15151000  1.0
  H  H33  1  0.53450000  0.68663000  0.65150000  1.0
  H  H34  1  0.03450000  0.18663000  0.84850000  1.0
  H  H35  1  0.46550000  0.31338000  0.34850000  1.0
  H  H36  1  0.51353000  0.78500000  0.18735000  1.0
  H  H37  1  0.98649000  0.71502000  0.68735000  1.0
  H  H38  1  0.48647000  0.21500000  0.81265000  1.0
  H  H39  1  0.01351000  0.28498000  0.31264000  1.0
  H  H40  1  0.70374000  0.01799000  0.19033000  1.0
  H  H41  1  0.79630000  0.48203000  0.69033000  1.0
  H  H42  1  0.29627000  0.98201000  0.80967000  1.0
  H  H43  1  0.20369000  0.51797000  0.30967000  1.0
  H  H44  1  0.92824000  0.19865000  0.04408000  1.0
  H  H45  1  0.57175000  0.30135000  0.54409000  1.0
  H  H46  1  0.07175000  0.80135000  0.95592000  1.0
  H  H47  1  0.42824000  0.69864000  0.45591000  1.0
  H  H48  1  0.48590000  0.93106000  0.05766000  1.0
  H  H49  1  0.01410000  0.56894000  0.55766000  1.0
  H  H50  1  0.51410000  0.06894000  0.94235000  1.0
  H  H51  1  0.98589000  0.43107000  0.44235000  1.0
  H  H52  1  0.39419000  0.06511000  0.11062000  1.0
  H  H53  1  0.10581000  0.43488000  0.61062000  1.0
  H  H54  1  0.60580000  0.93488000  0.88938000  1.0
  H  H55  1  0.89419000  0.56512000  0.38938000  1.0
  H  H56  1  0.83886000  0.33228000  0.09748000  1.0
  H  H57  1  0.66114000  0.16773000  0.59748000  1.0
  H  H58  1  0.16113000  0.66772000  0.90252000  1.0
  H  H59  1  0.33887000  0.83227000  0.40252000  1.0
  H  H60  1  0.75182000  0.44771000  0.06883000  1.0
  H  H61  1  0.74819000  0.05229000  0.56882000  1.0
  H  H62  1  0.24818000  0.55230000  0.93118000  1.0
  H  H63  1  0.25182000  0.94771000  0.43118000  1.0
  H  H64  1  0.43189000  0.38645000  0.20871000  1.0
  H  H65  1  0.06811000  0.11356000  0.70872000  1.0
  H  H66  1  0.56811000  0.61356000  0.79129000  1.0
  H  H67  1  0.93190000  0.88644000  0.29129000  1.0
  H  H68  1  0.50644000  0.59871000  0.22248000  1.0
  H  H69  1  0.99356000  0.90130000  0.72248000  1.0
  H  H70  1  0.49357000  0.40130000  0.77753000  1.0
  H  H71  1  0.00644000  0.09870000  0.27752000  1.0
  H  H72  1  0.82620000  0.65770000  0.08347000  1.0
  H  H73  1  0.67381000  0.84230000  0.58346000  1.0
  H  H74  1  0.17381000  0.34230000  0.91654000  1.0
  H  H75  1  0.32619000  0.15770000  0.41654000  1.0
  H  H76  1  0.44863000  0.23623000  0.15888000  1.0
  H  H77  1  0.05137000  0.26377000  0.65888000  1.0
  H  H78  1  0.55136000  0.76377000  0.84112000  1.0
  H  H79  1  0.94864000  0.73623000  0.34112000  1.0
  C  C80  1  0.94817000  0.68518000  0.82652000  1.0
  C  C81  1  0.55183000  0.81482000  0.32652000  1.0
  C  C82  1  0.05185000  0.31482000  0.17347000  1.0
  C  C83  1  0.44816000  0.18518000  0.67347000  1.0
  C  C84  1  0.19756000  0.45792000  0.71344000  1.0
  C  C85  1  0.30245000  0.04208000  0.21344000  1.0
  C  C86  1  0.80245000  0.54208000  0.28656000  1.0
  C  C87  1  0.69755000  0.95793000  0.78656000  1.0
  C  C88  1  0.95682000  0.57080000  0.80965000  1.0
  C  C89  1  0.54319000  0.92920000  0.30965000  1.0
  C  C90  1  0.04319000  0.42921000  0.19035000  1.0
  C  C91  1  0.45681000  0.07079000  0.69035000  1.0
  C  C92  1  0.07027000  0.56671000  0.77203000  1.0
  C  C93  1  0.42974000  0.93329000  0.27202000  1.0
  C  C94  1  0.92974000  0.43329000  0.22797000  1.0
  C  C95  1  0.57026000  0.06671000  0.72797000  1.0
  C  C96  1  0.07513000  0.46025000  0.75378000  1.0
  C  C97  1  0.42488000  0.03975000  0.25378000  1.0
  C  C98  1  0.92487000  0.53975000  0.24622000  1.0
  C  C99  1  0.57512000  0.96025000  0.74622000  1.0
  C  C100  1  0.96447000  0.35690000  0.77341000  1.0
  C  C101  1  0.53555000  0.14310000  0.27341000  1.0
  C  C102  1  0.03554000  0.64310000  0.22659000  1.0
  C  C103  1  0.46446000  0.85691000  0.72659000  1.0
  C  C104  1  0.85146000  0.36064000  0.81114000  1.0
  C  C105  1  0.64855000  0.13936000  0.31113000  1.0
  C  C106  1  0.14854000  0.63937000  0.18886000  1.0
  C  C107  1  0.35145000  0.86064000  0.68886000  1.0
  C  C108  1  0.84772000  0.46713000  0.82959000  1.0
  C  C109  1  0.65230000  0.03287000  0.32958000  1.0
  C  C110  1  0.15230000  0.53288000  0.17041000  1.0
  C  C111  1  0.34770000  0.96712000  0.67041000  1.0
  C  C112  1  0.84331000  0.00797000  0.96331000  1.0
  C  C113  1  0.65668000  0.49203000  0.46331000  1.0
  C  C114  1  0.15666000  0.99202000  0.03669000  1.0
  C  C115  1  0.34332000  0.50797000  0.53669000  1.0
  C  C116  1  0.78045000  0.82156000  0.97537000  1.0
  C  C117  1  0.71955000  0.67843000  0.47537000  1.0
  C  C118  1  0.21954000  0.17844000  0.02463000  1.0
  C  C119  1  0.28044000  0.32156000  0.52463000  1.0
  C  C120  1  0.71977000  0.86153000  0.02072000  1.0
  C  C121  1  0.78021000  0.63847000  0.52072000  1.0
  C  C122  1  0.28022000  0.13847000  0.97928000  1.0
  C  C123  1  0.21977000  0.36152000  0.47928000  1.0
  C  C124  1  0.86879000  0.83908000  0.15902000  1.0
  C  C125  1  0.63123000  0.66092000  0.65902000  1.0
  C  C126  1  0.13122000  0.16091000  0.84098000  1.0
  C  C127  1  0.36877000  0.33908000  0.34098000  1.0
  C  C128  1  0.63348000  0.82669000  0.17856000  1.0
  C  C129  1  0.86655000  0.67333000  0.67856000  1.0
  C  C130  1  0.36652000  0.17332000  0.82144000  1.0
  C  C131  1  0.13345000  0.32667000  0.32144000  1.0
  C  C132  1  0.72881000  0.94080000  0.18078000  1.0
  C  C133  1  0.77122000  0.55920000  0.68078000  1.0
  C  C134  1  0.27120000  0.05920000  0.81922000  1.0
  C  C135  1  0.22878000  0.44079000  0.31922000  1.0
  C  C136  1  0.80953000  0.17023000  0.05699000  1.0
  C  C137  1  0.69047000  0.32977000  0.55699000  1.0
  C  C138  1  0.19046000  0.82977000  0.94301000  1.0
  C  C139  1  0.30953000  0.67023000  0.44301000  1.0
  C  C140  1  0.71177000  0.05703000  0.04580000  1.0
  C  C141  1  0.78822000  0.44297000  0.54580000  1.0
  C  C142  1  0.28822000  0.94297000  0.95420000  1.0
  C  C143  1  0.21177000  0.55703000  0.45420000  1.0
  C  C144  1  0.56270000  0.01932000  0.06631000  1.0
  C  C145  1  0.93730000  0.48068000  0.56631000  1.0
  C  C146  1  0.43730000  0.98069000  0.93369000  1.0
  C  C147  1  0.06269000  0.51932000  0.43369000  1.0
  C  C148  1  0.51115000  0.09536000  0.09570000  1.0
  C  C149  1  0.98885000  0.40463000  0.59570000  1.0
  C  C150  1  0.48884000  0.90464000  0.90430000  1.0
  C  C151  1  0.01115000  0.59536000  0.40430000  1.0
  C  C152  1  0.60636000  0.21166000  0.10573000  1.0
  C  C153  1  0.89364000  0.28834000  0.60573000  1.0
  C  C154  1  0.39363000  0.78834000  0.89427000  1.0
  C  C155  1  0.10636000  0.71166000  0.39427000  1.0
  C  C156  1  0.75804000  0.24679000  0.08679000  1.0
  C  C157  1  0.74195000  0.25321000  0.58679000  1.0
  C  C158  1  0.24195000  0.75321000  0.91321000  1.0
  C  C159  1  0.25805000  0.74678000  0.41321000  1.0
  C  C160  1  0.70103000  0.47899000  0.10394000  1.0
  C  C161  1  0.79897000  0.02101000  0.60394000  1.0
  C  C162  1  0.29898000  0.52101000  0.89607000  1.0
  C  C163  1  0.20103000  0.97899000  0.39606000  1.0
  C  C164  1  0.59179000  0.40061000  0.13989000  1.0
  C  C165  1  0.90820000  0.09938000  0.63989000  1.0
  C  C166  1  0.40821000  0.59939000  0.86011000  1.0
  C  C167  1  0.09180000  0.90062000  0.36011000  1.0
  C  C168  1  0.51984000  0.44611000  0.18170000  1.0
  C  C169  1  0.98016000  0.05390000  0.68170000  1.0
  C  C170  1  0.48016000  0.55390000  0.81830000  1.0
  C  C171  1  0.01985000  0.94610000  0.31830000  1.0
  C  C172  1  0.56047000  0.56473000  0.18927000  1.0
  C  C173  1  0.93953000  0.93528000  0.68927000  1.0
  C  C174  1  0.43953000  0.43528000  0.81074000  1.0
  C  C175  1  0.06048000  0.06472000  0.31073000  1.0
  C  C176  1  0.67461000  0.64125000  0.15507000  1.0
  C  C177  1  0.82540000  0.85875000  0.65507000  1.0
  C  C178  1  0.32539000  0.35875000  0.84493000  1.0
  C  C179  1  0.17460000  0.14125000  0.34493000  1.0
  C  C180  1  0.74201000  0.59802000  0.11180000  1.0
  C  C181  1  0.75800000  0.90198000  0.61180000  1.0
  C  C182  1  0.25799000  0.40199000  0.88821000  1.0
  C  C183  1  0.24201000  0.09802000  0.38820000  1.0
  N  N184  1  0.85740000  0.91394000  0.94002000  1.0
  N  N185  1  0.64259000  0.58606000  0.44002000  1.0
  N  N186  1  0.14258000  0.08606000  0.05998000  1.0
  N  N187  1  0.35740000  0.41394000  0.55999000  1.0
  N  N188  1  0.76057000  0.98005000  0.01261000  1.0
  N  N189  1  0.73942000  0.51995000  0.51262000  1.0
  N  N190  1  0.23942000  0.01994000  0.98739000  1.0
  N  N191  1  0.26057000  0.48005000  0.48739000  1.0
  N  N192  1  0.72349000  0.76317000  0.16429000  1.0
  N  N193  1  0.77652000  0.73683000  0.66429000  1.0
  N  N194  1  0.27651000  0.23683000  0.83571000  1.0
  N  N195  1  0.22348000  0.26317000  0.33571000  1.0
  N  N196  1  0.87449000  0.94699000  0.16844000  1.0
  N  N197  1  0.62554000  0.55301000  0.66844000  1.0
  N  N198  1  0.12552000  0.05300000  0.83156000  1.0
  N  N199  1  0.37446000  0.44700000  0.33156000  1.0
  N  N200  1  0.54473000  0.28109000  0.13559000  1.0
  N  N201  1  0.95527000  0.21891000  0.63559000  1.0
  N  N202  1  0.45526000  0.71891000  0.86441000  1.0
  N  N203  1  0.04474000  0.78109000  0.36441000  1.0
  O  O204  1  0.20534000  0.35627000  0.70369000  1.0
  O  O205  1  0.29467000  0.14373000  0.20369000  1.0
  O  O206  1  0.79466000  0.64373000  0.29631000  1.0
  O  O207  1  0.70533000  0.85628000  0.79631000  1.0
  O  O208  1  0.28536000  0.54943000  0.69041000  1.0
  O  O209  1  0.21465000  0.95057000  0.19041000  1.0
  O  O210  1  0.71465000  0.45056000  0.30958000  1.0
  O  O211  1  0.78534000  0.04944000  0.80959000  1.0
  O  O212  1  0.86204000  0.68939000  0.86798000  1.0
  O  O213  1  0.63794000  0.81060000  0.36798000  1.0
  O  O214  1  0.13796000  0.31061000  0.13201000  1.0
  O  O215  1  0.36204000  0.18939000  0.63201000  1.0
  O  O216  1  0.02680000  0.77535000  0.79779000  1.0
  O  O217  1  0.47321000  0.72465000  0.29778000  1.0
  O  O218  1  0.97322000  0.22465000  0.20221000  1.0
  O  O219  1  0.52678000  0.27535000  0.70221000  1.0
