# generated using pymatgen
data_MnH18C20(I2O3)4
_symmetry_space_group_name_H-M   'P 1'
_cell_length_a   9.74051000
_cell_length_b   10.13630000
_cell_length_c   10.26130000
_cell_angle_alpha   100.55000000
_cell_angle_beta   101.06200000
_cell_angle_gamma   111.82600000
_symmetry_Int_Tables_number   1
_chemical_formula_structural   MnH18C20(I2O3)4
_chemical_formula_sum   'Mn1 H18 C20 I8 O12'
_cell_volume   886.30471541
_cell_formula_units_Z   1
loop_
 _symmetry_equiv_pos_site_id
 _symmetry_equiv_pos_as_xyz
  1  'x, y, z'
loop_
 _atom_site_type_symbol
 _atom_site_label
 _atom_site_symmetry_multiplicity
 _atom_site_fract_x
 _atom_site_fract_y
 _atom_site_fract_z
 _atom_site_occupancy
  Mn  Mn0  1  0.50000000  0.50000000  0.50000000  1.0
  H  H1  1  0.78473000  0.32513000  0.40563000  1.0
  H  H2  1  0.21527000  0.67487000  0.59435000  1.0
  H  H3  1  0.73710000  0.32476000  0.56685000  1.0
  H  H4  1  0.26291000  0.67525000  0.43315000  1.0
  H  H5  1  0.82656000  0.49609000  0.52644000  1.0
  H  H6  1  0.17344000  0.50391000  0.47354000  1.0
  H  H7  1  0.47992000  0.59587000  0.20805000  1.0
  H  H8  1  0.52008000  0.40414000  0.79195000  1.0
  H  H9  1  0.30774000  0.44026000  0.09939000  1.0
  H  H10  1  0.69226000  0.55975000  0.90061000  1.0
  H  H11  1  0.47728000  0.41488000  0.17108000  1.0
  H  H12  1  0.52273000  0.58513000  0.82891000  1.0
  H  H13  1  0.51457000  0.26922000  0.39594000  1.0
  H  H14  1  0.48543000  0.73078000  0.60406000  1.0
  H  H15  1  0.26503000  0.36604000  0.28679000  1.0
  H  H16  1  0.73497000  0.63396000  0.71320000  1.0
  H  H17  1  0.71042000  0.03583000  0.68081000  1.0
  H  H18  1  0.28958000  0.96416000  0.31920000  1.0
  C  C19  1  0.28700000  0.18818000  0.45737000  1.0
  C  C20  1  0.71300000  0.81182000  0.54263000  1.0
  C  C21  1  0.13824000  0.08703000  0.47647000  1.0
  C  C22  1  0.86177000  0.91297000  0.52353000  1.0
  C  C23  1  0.14140000  0.01722000  0.58265000  1.0
  C  C24  1  0.85860000  0.98278000  0.41735000  1.0
  C  C25  1  0.00345000  0.93112000  0.60723000  1.0
  C  C26  1  0.99655000  0.06888000  0.39277000  1.0
  C  C27  1  0.74519000  0.37951000  0.48380000  1.0
  C  C28  1  0.25481000  0.62049000  0.51619000  1.0
  C  C29  1  0.40875000  0.47770000  0.18904000  1.0
  C  C30  1  0.59125000  0.52230000  0.81096000  1.0
  C  C31  1  0.85422000  0.18805000  0.84699000  1.0
  C  C32  1  0.14578000  0.81195000  0.15302000  1.0
  C  C33  1  0.92484000  0.35144000  0.92040000  1.0
  C  C34  1  0.07515000  0.64856000  0.07961000  1.0
  C  C35  1  0.86572000  0.40406000  0.02249000  1.0
  C  C36  1  0.13427000  0.59594000  0.97751000  1.0
  C  C37  1  0.94088000  0.55233000  0.10287000  1.0
  C  C38  1  0.05912000  0.44766000  0.89713000  1.0
  I  I39  1  0.35856000  0.05727000  0.70922000  1.0
  I  I40  1  0.64144000  0.94273000  0.29079000  1.0
  I  I41  1  0.00957000  0.84443000  0.77870000  1.0
  I  I42  1  0.99043000  0.15557000  0.22130000  1.0
  I  I43  1  0.65931000  0.25661000  0.04886000  1.0
  I  I44  1  0.34068000  0.74340000  0.95114000  1.0
  I  I45  1  0.85670000  0.63368000  0.25862000  1.0
  I  I46  1  0.14329000  0.36632000  0.74138000  1.0
  O  O47  1  0.33001000  0.32589000  0.51342000  1.0
  O  O48  1  0.67000000  0.67411000  0.48658000  1.0
  O  O49  1  0.35911000  0.13351000  0.38843000  1.0
  O  O50  1  0.64089000  0.86649000  0.61157000  1.0
  O  O51  1  0.59682000  0.37346000  0.41742000  1.0
  O  O52  1  0.40318000  0.62654000  0.58258000  1.0
  O  O53  1  0.35726000  0.46039000  0.31066000  1.0
  O  O54  1  0.64274000  0.53961000  0.68934000  1.0
  O  O55  1  0.89328000  0.10469000  0.90182000  1.0
  O  O56  1  0.10672000  0.89531000  0.09820000  1.0
  O  O57  1  0.75145000  0.14844000  0.72532000  1.0
  O  O58  1  0.24854000  0.85155000  0.27469000  1.0
