# generated using pymatgen
data_HgH5C8S2N5
_symmetry_space_group_name_H-M   'P 1'
_cell_length_a   7.29850000
_cell_length_b   10.42100000
_cell_length_c   15.70380000
_cell_angle_alpha   81.25930000
_cell_angle_beta   82.71000000
_cell_angle_gamma   78.19820000
_symmetry_Int_Tables_number   1
_chemical_formula_structural   HgH5C8S2N5
_chemical_formula_sum   'Hg4 H20 C32 S8 N20'
_cell_volume   1149.88755058
_cell_formula_units_Z   4
loop_
 _symmetry_equiv_pos_site_id
 _symmetry_equiv_pos_as_xyz
  1  'x, y, z'
loop_
 _atom_site_type_symbol
 _atom_site_label
 _atom_site_symmetry_multiplicity
 _atom_site_fract_x
 _atom_site_fract_y
 _atom_site_fract_z
 _atom_site_occupancy
  Hg  Hg0  1  0.16246000  0.80996000  0.95054000  1.0
  Hg  Hg1  1  0.83754000  0.19004000  0.04946000  1.0
  Hg  Hg2  1  0.20612000  0.54346000  0.19411000  1.0
  Hg  Hg3  1  0.79389000  0.45654000  0.80589000  1.0
  H  H4  1  0.38187000  0.70264000  0.77794000  1.0
  H  H5  1  0.61814000  0.29736000  0.22206000  1.0
  H  H6  1  0.56027000  0.77219000  0.63719000  1.0
  H  H7  1  0.43974000  0.22780000  0.36281000  1.0
  H  H8  1  0.48531000  0.16079000  0.71586000  1.0
  H  H9  1  0.51468000  0.83922000  0.28413000  1.0
  H  H10  1  0.31596000  0.07535000  0.85340000  1.0
  H  H11  1  0.68403000  0.92466000  0.14660000  1.0
  H  H12  1  0.12850000  0.23735000  0.21275000  1.0
  H  H13  1  0.87150000  0.76265000  0.78725000  1.0
  H  H14  1  0.96477000  0.07600000  0.31347000  1.0
  H  H15  1  0.03523000  0.92400000  0.68653000  1.0
  H  H16  1  0.80788000  0.37415000  0.48795000  1.0
  H  H17  1  0.19212000  0.62586000  0.51205000  1.0
  H  H18  1  0.97627000  0.51805000  0.38281000  1.0
  H  H19  1  0.02372000  0.48196000  0.61718000  1.0
  H  H20  1  0.68102000  0.28530000  0.60334000  1.0
  H  H21  1  0.31898000  0.71471000  0.39666000  1.0
  H  H22  1  0.52309000  0.31490000  0.52916000  1.0
  H  H23  1  0.47691000  0.68510000  0.47084000  1.0
  C  C24  1  0.40885000  0.80298000  0.76148000  1.0
  C  C25  1  0.59116000  0.19702000  0.23852000  1.0
  C  C26  1  0.50712000  0.84181000  0.68370000  1.0
  C  C27  1  0.49289000  0.15819000  0.31630000  1.0
  C  C28  1  0.53594000  0.97286000  0.66423000  1.0
  C  C29  1  0.46406000  0.02714000  0.33577000  1.0
  C  C30  1  0.46698000  0.05857000  0.72686000  1.0
  C  C31  1  0.53301000  0.94144000  0.27314000  1.0
  C  C32  1  0.37114000  0.01112000  0.80360000  1.0
  C  C33  1  0.62885000  0.98889000  0.19639000  1.0
  C  C34  1  0.63951000  0.00820000  0.58120000  1.0
  C  C35  1  0.36049000  0.99180000  0.41880000  1.0
  C  C36  1  0.78396000  0.11265000  0.46869000  1.0
  C  C37  1  0.21604000  0.88735000  0.53130000  1.0
  C  C38  1  0.05536000  0.26234000  0.27478000  1.0
  C  C39  1  0.94465000  0.73766000  0.72522000  1.0
  C  C40  1  0.96336000  0.17385000  0.33032000  1.0
  C  C41  1  0.03664000  0.82615000  0.66968000  1.0
  C  C42  1  0.87053000  0.21035000  0.40972000  1.0
  C  C43  1  0.12947000  0.78965000  0.59028000  1.0
  C  C44  1  0.87562000  0.33695000  0.42859000  1.0
  C  C45  1  0.12438000  0.66305000  0.57141000  1.0
  C  C46  1  0.97079000  0.41934000  0.36923000  1.0
  C  C47  1  0.02921000  0.58066000  0.63077000  1.0
  C  C48  1  0.86820000  0.04102000  0.86039000  1.0
  C  C49  1  0.13179000  0.95897000  0.13962000  1.0
  C  C50  1  0.57495000  0.66425000  0.96248000  1.0
  C  C51  1  0.42505000  0.33575000  0.03752000  1.0
  C  C52  1  0.13646000  0.49244000  0.89258000  1.0
  C  C53  1  0.86355000  0.50756000  0.10742000  1.0
  C  C54  1  0.43506000  0.48579000  0.35881000  1.0
  C  C55  1  0.56493000  0.51421000  0.64119000  1.0
  S  S56  1  0.83169000  0.91835000  0.93807000  1.0
  S  S57  1  0.16831000  0.08164000  0.06194000  1.0
  S  S58  1  0.43488000  0.73327000  0.04082000  1.0
  S  S59  1  0.56512000  0.26673000  0.95919000  1.0
  S  S60  1  0.08544000  0.35111000  0.87637000  1.0
  S  S61  1  0.91456000  0.64888000  0.12363000  1.0
  S  S62  1  0.48539000  0.56222000  0.26061000  1.0
  S  S63  1  0.51461000  0.43777000  0.73939000  1.0
  N  N64  1  0.34057000  0.88638000  0.82057000  1.0
  N  N65  1  0.65943000  0.11362000  0.17943000  1.0
  N  N66  1  0.72568000  0.91980000  0.52856000  1.0
  N  N67  1  0.27432000  0.08020000  0.47144000  1.0
  N  N68  1  0.81411000  0.98459000  0.45871000  1.0
  N  N69  1  0.18589000  0.01542000  0.54128000  1.0
  N  N70  1  0.05943000  0.38351000  0.29379000  1.0
  N  N71  1  0.94058000  0.61649000  0.70621000  1.0
  N  N72  1  0.88519000  0.13057000  0.80610000  1.0
  N  N73  1  0.11480000  0.86942000  0.19391000  1.0
  N  N74  1  0.67897000  0.61903000  0.90640000  1.0
  N  N75  1  0.32103000  0.38097000  0.09360000  1.0
  N  N76  1  0.17843000  0.59232000  0.90163000  1.0
  N  N77  1  0.82157000  0.40767000  0.09837000  1.0
  N  N78  1  0.40575000  0.43416000  0.43008000  1.0
  N  N79  1  0.59423000  0.56584000  0.56992000  1.0
  N  N80  1  0.58422000  0.24812000  0.57779000  1.0
  N  N81  1  0.41578000  0.75189000  0.42221000  1.0
  N  N82  1  0.67153000  0.13112000  0.54507000  1.0
  N  N83  1  0.32846000  0.86889000  0.45493000  1.0
