# generated using pymatgen
data_Cu3H24C14(N11O)2
_symmetry_space_group_name_H-M   'P 1'
_cell_length_a   7.70135000
_cell_length_b   8.51172000
_cell_length_c   11.05900000
_cell_angle_alpha   91.52390000
_cell_angle_beta   107.44000000
_cell_angle_gamma   93.52330000
_symmetry_Int_Tables_number   1
_chemical_formula_structural   Cu3H24C14(N11O)2
_chemical_formula_sum   'Cu3 H24 C14 N22 O2'
_cell_volume   689.53336301
_cell_formula_units_Z   1
loop_
 _symmetry_equiv_pos_site_id
 _symmetry_equiv_pos_as_xyz
  1  'x, y, z'
loop_
 _atom_site_type_symbol
 _atom_site_label
 _atom_site_symmetry_multiplicity
 _atom_site_fract_x
 _atom_site_fract_y
 _atom_site_fract_z
 _atom_site_occupancy
  Cu  Cu0  1  0.49883000  0.49883000  0.49976000  1.0
  Cu  Cu1  1  0.10595000  0.35423000  0.42390000  1.0
  Cu  Cu2  1  0.89560000  0.64556000  0.57622000  1.0
  H  H3  1  0.69317000  0.27475000  0.95614000  1.0
  H  H4  1  0.30698000  0.72544000  0.04397000  1.0
  H  H5  1  0.87918000  0.02629000  0.39402000  1.0
  H  H6  1  0.12070000  0.97350000  0.60593000  1.0
  H  H7  1  0.92901000  0.89561000  0.28123000  1.0
  H  H8  1  0.07125000  0.10423000  0.71883000  1.0
  H  H9  1  0.92499000  0.58603000  0.25231000  1.0
  H  H10  1  0.07560000  0.41387000  0.74792000  1.0
  H  H11  1  0.71916000  0.57595000  0.12198000  1.0
  H  H12  1  0.28097000  0.42371000  0.87861000  1.0
  H  H13  1  0.93168000  0.58116000  0.09193000  1.0
  H  H14  1  0.06810000  0.41899000  0.90808000  1.0
  H  H15  1  0.78853000  0.84711000  0.09950000  1.0
  H  H16  1  0.21197000  0.15284000  0.90016000  1.0
  H  H17  1  0.82467000  0.92941000  0.96307000  1.0
  H  H18  1  0.17459000  0.07100000  0.03638000  1.0
  H  H19  1  0.60691000  0.92522000  0.98506000  1.0
  H  H20  1  0.39284000  0.07472000  0.01517000  1.0
  H  H21  1  0.40129000  0.02694000  0.38581000  1.0
  H  H22  1  0.59869000  0.97340000  0.61411000  1.0
  H  H23  1  0.24249000  0.06942000  0.23850000  1.0
  H  H24  1  0.75705000  0.93061000  0.76142000  1.0
  H  H25  1  0.23727000  0.87435000  0.29676000  1.0
  H  H26  1  0.76286000  0.12576000  0.70339000  1.0
  C  C27  1  0.76876000  0.25013000  0.05266000  1.0
  C  C28  1  0.23151000  0.74987000  0.94744000  1.0
  C  C29  1  0.84948000  0.36063000  0.15409000  1.0
  C  C30  1  0.15100000  0.63925000  0.84608000  1.0
  C  C31  1  0.95646000  0.01484000  0.32595000  1.0
  C  C32  1  0.04349000  0.98504000  0.67403000  1.0
  C  C33  1  0.80197000  0.10153000  0.10057000  1.0
  C  C34  1  0.19809000  0.89843000  0.89943000  1.0
  C  C35  1  0.85748000  0.53572000  0.15602000  1.0
  C  C36  1  0.14281000  0.46418000  0.84425000  1.0
  C  C37  1  0.75358000  0.94291000  0.03476000  1.0
  C  C38  1  0.24631000  0.05714000  0.96508000  1.0
  C  C39  1  0.26204000  0.00095000  0.32392000  1.0
  C  C40  1  0.73789000  0.99921000  0.67611000  1.0
  N  N41  1  0.67158000  0.61214000  0.42131000  1.0
  N  N42  1  0.32813000  0.38789000  0.57931000  1.0
  N  N43  1  0.92636000  0.28344000  0.25926000  1.0
  N  N44  1  0.07410000  0.71634000  0.74088000  1.0
  N  N45  1  0.89738000  0.12623000  0.22605000  1.0
  N  N46  1  0.10271000  0.87360000  0.77396000  1.0
  N  N47  1  0.28363000  0.46494000  0.34399000  1.0
  N  N48  1  0.71604000  0.53558000  0.65537000  1.0
  N  N49  1  0.78418000  0.28052000  0.48443000  1.0
  N  N50  1  0.21540000  0.72050000  0.51513000  1.0
  N  N51  1  0.94531000  0.31384000  0.52997000  1.0
  N  N52  1  0.05424000  0.68709000  0.46951000  1.0
  N  N53  1  0.62260000  0.70857000  0.34139000  1.0
  N  N54  1  0.37716000  0.29110000  0.65878000  1.0
  N  N55  1  0.30527000  0.42216000  0.24390000  1.0
  N  N56  1  0.69538000  0.57701000  0.75615000  1.0
  N  N57  1  0.62604000  0.25235000  0.44654000  1.0
  N  N58  1  0.37343000  0.74897000  0.55289000  1.0
  N  N59  1  0.57485000  0.79751000  0.26232000  1.0
  N  N60  1  0.42428000  0.20236000  0.73815000  1.0
  N  N61  1  0.32413000  0.38561000  0.14711000  1.0
  N  N62  1  0.67666000  0.61341000  0.85299000  1.0
  O  O63  1  0.14213000  0.04643000  0.39450000  1.0
  O  O64  1  0.85781000  0.95362000  0.60560000  1.0
