# generated using pymatgen
data_Ag2H3C5N3O5
_symmetry_space_group_name_H-M   'P 1'
_cell_length_a   6.03109000
_cell_length_b   8.86880000
_cell_length_c   15.38310000
_cell_angle_alpha   86.84390000
_cell_angle_beta   89.99940000
_cell_angle_gamma   89.99970000
_symmetry_Int_Tables_number   1
_chemical_formula_structural   Ag2H3C5N3O5
_chemical_formula_sum   'Ag8 H12 C20 N12 O20'
_cell_volume   821.57140271
_cell_formula_units_Z   4
loop_
 _symmetry_equiv_pos_site_id
 _symmetry_equiv_pos_as_xyz
  1  'x, y, z'
loop_
 _atom_site_type_symbol
 _atom_site_label
 _atom_site_symmetry_multiplicity
 _atom_site_fract_x
 _atom_site_fract_y
 _atom_site_fract_z
 _atom_site_occupancy
  Ag  Ag0  1  0.21610000  0.36237000  0.19451000  1.0
  Ag  Ag1  1  0.71611000  0.63762000  0.30549000  1.0
  Ag  Ag2  1  0.78390000  0.63763000  0.80550000  1.0
  Ag  Ag3  1  0.28389000  0.36237000  0.69450000  1.0
  Ag  Ag4  1  0.55527000  0.24896000  0.32113000  1.0
  Ag  Ag5  1  0.05527000  0.75103000  0.17887000  1.0
  Ag  Ag6  1  0.44473000  0.75104000  0.67887000  1.0
  Ag  Ag7  1  0.94472000  0.24896000  0.82113000  1.0
  H  H8  1  0.20103000  0.15015000  0.03303000  1.0
  H  H9  1  0.70103000  0.84986000  0.46697000  1.0
  H  H10  1  0.79895000  0.84987000  0.96696000  1.0
  H  H11  1  0.29898000  0.15014000  0.53303000  1.0
  H  H12  1  0.92108000  0.38768000  0.99429000  1.0
  H  H13  1  0.42107000  0.61232000  0.50571000  1.0
  H  H14  1  0.07892000  0.61233000  0.00571000  1.0
  H  H15  1  0.57893000  0.38768000  0.49429000  1.0
  H  H16  1  0.43799000  0.10451000  0.90140000  1.0
  H  H17  1  0.93800000  0.89550000  0.59860000  1.0
  H  H18  1  0.56200000  0.89548000  0.09860000  1.0
  H  H19  1  0.06201000  0.10450000  0.40140000  1.0
  C  C20  1  0.62325000  0.37031000  0.07157000  1.0
  C  C21  1  0.12324000  0.62969000  0.42843000  1.0
  C  C22  1  0.37675000  0.62969000  0.92842000  1.0
  C  C23  1  0.87676000  0.37031000  0.57157000  1.0
  C  C24  1  0.36042000  0.20664000  0.02290000  1.0
  C  C25  1  0.86041000  0.79337000  0.47710000  1.0
  C  C26  1  0.63957000  0.79336000  0.97710000  1.0
  C  C27  1  0.13958000  0.20664000  0.52290000  1.0
  C  C28  1  0.70333000  0.48571000  0.13308000  1.0
  C  C29  1  0.20333000  0.51428000  0.36693000  1.0
  C  C30  1  0.29667000  0.51428000  0.86692000  1.0
  C  C31  1  0.79667000  0.48572000  0.63308000  1.0
  C  C32  1  0.75895000  0.33566000  0.00205000  1.0
  C  C33  1  0.25895000  0.66435000  0.49795000  1.0
  C  C34  1  0.24104000  0.66435000  0.99794000  1.0
  C  C35  1  0.74105000  0.33565000  0.50206000  1.0
  C  C36  1  0.49392000  0.17894000  0.95111000  1.0
  C  C37  1  0.99393000  0.82107000  0.54889000  1.0
  C  C38  1  0.50607000  0.82106000  0.04889000  1.0
  C  C39  1  0.00607000  0.17893000  0.45112000  1.0
  N  N40  1  0.42316000  0.30417000  0.08227000  1.0
  N  N41  1  0.92316000  0.69584000  0.41773000  1.0
  N  N42  1  0.57683000  0.69584000  0.91773000  1.0
  N  N43  1  0.07684000  0.30417000  0.58227000  1.0
  N  N44  1  0.89863000  0.06363000  0.19704000  1.0
  N  N45  1  0.39863000  0.93636000  0.30296000  1.0
  N  N46  1  0.10137000  0.93636000  0.80296000  1.0
  N  N47  1  0.60137000  0.06364000  0.69704000  1.0
  N  N48  1  0.80564000  0.24336000  0.44095000  1.0
  N  N49  1  0.30564000  0.75663000  0.05905000  1.0
  N  N50  1  0.19436000  0.75663000  0.55905000  1.0
  N  N51  1  0.69436000  0.24337000  0.94094000  1.0
  O  O52  1  0.57236000  0.52436000  0.19239000  1.0
  O  O53  1  0.07236000  0.47565000  0.30761000  1.0
  O  O54  1  0.42765000  0.47564000  0.80761000  1.0
  O  O55  1  0.92764000  0.52435000  0.69239000  1.0
  O  O56  1  0.86895000  0.19971000  0.21699000  1.0
  O  O57  1  0.36895000  0.80028000  0.28302000  1.0
  O  O58  1  0.13106000  0.80029000  0.78301000  1.0
  O  O59  1  0.63106000  0.19971000  0.71698000  1.0
  O  O60  1  0.89728000  0.53693000  0.11878000  1.0
  O  O61  1  0.39727000  0.46305000  0.38123000  1.0
  O  O62  1  0.10272000  0.46306000  0.88122000  1.0
  O  O63  1  0.60274000  0.53695000  0.61878000  1.0
  O  O64  1  0.41316000  0.03982000  0.24225000  1.0
  O  O65  1  0.91315000  0.96017000  0.25775000  1.0
  O  O66  1  0.58685000  0.96018000  0.75775000  1.0
  O  O67  1  0.08685000  0.03983000  0.74225000  1.0
  O  O68  1  0.91604000  0.03188000  0.11832000  1.0
  O  O69  1  0.41604000  0.96812000  0.38168000  1.0
  O  O70  1  0.08395000  0.96812000  0.88168000  1.0
  O  O71  1  0.58395000  0.03188000  0.61832000  1.0
