# generated using pymatgen
data_RbH8C8Br(N2O3)2
_symmetry_space_group_name_H-M   'P 1'
_cell_length_a   7.23474000
_cell_length_b   8.10957000
_cell_length_c   21.88500000
_cell_angle_alpha   90.00000000
_cell_angle_beta   90.00000000
_cell_angle_gamma   90.00000000
_symmetry_Int_Tables_number   1
_chemical_formula_structural   RbH8C8Br(N2O3)2
_chemical_formula_sum   'Rb4 H32 C32 Br4 N16 O24'
_cell_volume   1284.00674766
_cell_formula_units_Z   4
loop_
 _symmetry_equiv_pos_site_id
 _symmetry_equiv_pos_as_xyz
  1  'x, y, z'
loop_
 _atom_site_type_symbol
 _atom_site_label
 _atom_site_symmetry_multiplicity
 _atom_site_fract_x
 _atom_site_fract_y
 _atom_site_fract_z
 _atom_site_occupancy
  Rb  Rb0  1  0.60450000  0.56531000  0.75000000  1.0
  Rb  Rb1  1  0.10450000  0.93469000  0.25000000  1.0
  Rb  Rb2  1  0.89550000  0.06531000  0.75000000  1.0
  Rb  Rb3  1  0.39550000  0.43469000  0.25000000  1.0
  H  H4  1  0.77077000  0.54426000  0.57164000  1.0
  H  H5  1  0.27077000  0.95574000  0.42836000  1.0
  H  H6  1  0.72923000  0.04426000  0.92836000  1.0
  H  H7  1  0.22923000  0.45574000  0.07164000  1.0
  H  H8  1  0.22923000  0.45574000  0.42836000  1.0
  H  H9  1  0.72923000  0.04426000  0.57164000  1.0
  H  H10  1  0.27077000  0.95574000  0.07164000  1.0
  H  H11  1  0.77077000  0.54426000  0.92836000  1.0
  H  H12  1  0.86543000  0.68939000  0.62222000  1.0
  H  H13  1  0.36543000  0.81061000  0.37778000  1.0
  H  H14  1  0.63457000  0.18939000  0.87779000  1.0
  H  H15  1  0.13457000  0.31061000  0.12222000  1.0
  H  H16  1  0.13457000  0.31061000  0.37778000  1.0
  H  H17  1  0.63458000  0.18939000  0.62222000  1.0
  H  H18  1  0.36542000  0.81061000  0.12221000  1.0
  H  H19  1  0.86543000  0.68939000  0.87779000  1.0
  H  H20  1  0.31894000  0.66676000  0.53162000  1.0
  H  H21  1  0.81894000  0.83324000  0.46838000  1.0
  H  H22  1  0.18106000  0.16676000  0.96838000  1.0
  H  H23  1  0.68106000  0.33324000  0.03162000  1.0
  H  H24  1  0.68106000  0.33324000  0.46838000  1.0
  H  H25  1  0.18106000  0.16676000  0.53162000  1.0
  H  H26  1  0.81894000  0.83324000  0.03162000  1.0
  H  H27  1  0.31894000  0.66676000  0.96838000  1.0
  H  H28  1  0.20823000  0.35067000  0.67396000  1.0
  H  H29  1  0.70823000  0.14933000  0.32604000  1.0
  H  H30  1  0.29177000  0.85067000  0.82604000  1.0
  H  H31  1  0.79177000  0.64933000  0.17396000  1.0
  H  H32  1  0.79177000  0.64933000  0.32604000  1.0
  H  H33  1  0.29177000  0.85067000  0.67396000  1.0
  H  H34  1  0.70823000  0.14933000  0.17396000  1.0
  H  H35  1  0.20823000  0.35067000  0.82604000  1.0
  C  C36  1  0.28683000  0.50774000  0.60512000  1.0
  C  C37  1  0.78683000  0.99226000  0.39488000  1.0
  C  C38  1  0.21318000  0.00774000  0.89488000  1.0
  C  C39  1  0.71317000  0.49226000  0.10512000  1.0
  C  C40  1  0.71318000  0.49226000  0.39488000  1.0
  C  C41  1  0.21317000  0.00774000  0.60512000  1.0
  C  C42  1  0.78683000  0.99226000  0.10512000  1.0
  C  C43  1  0.28683000  0.50774000  0.89488000  1.0
  C  C44  1  0.96787000  0.44772000  0.63607000  1.0
  C  C45  1  0.46787000  0.05229000  0.36393000  1.0
  C  C46  1  0.53213000  0.94772000  0.86393000  1.0
  C  C47  1  0.03213000  0.55228000  0.13607000  1.0
  C  C48  1  0.03214000  0.55228000  0.36393000  1.0
  C  C49  1  0.53214000  0.94772000  0.63607000  1.0
  C  C50  1  0.46786000  0.05228000  0.13607000  1.0
  C  C51  1  0.96786000  0.44771000  0.86393000  1.0
  C  C52  1  0.90084000  0.58121000  0.59348000  1.0
  C  C53  1  0.40084000  0.91879000  0.40652000  1.0
  C  C54  1  0.59917000  0.08122000  0.90652000  1.0
  C  C55  1  0.09917000  0.41878000  0.09348000  1.0
  C  C56  1  0.09917000  0.41878000  0.40652000  1.0
  C  C57  1  0.59917000  0.08122000  0.59348000  1.0
  C  C58  1  0.40083000  0.91878000  0.09348000  1.0
  C  C59  1  0.90083000  0.58122000  0.90652000  1.0
  C  C60  1  0.03848000  0.64194000  0.54735000  1.0
  C  C61  1  0.53848000  0.85806000  0.45266000  1.0
  C  C62  1  0.46152000  0.14193000  0.95265000  1.0
  C  C63  1  0.96152000  0.35806000  0.04734000  1.0
  C  C64  1  0.96152000  0.35806000  0.45265000  1.0
  C  C65  1  0.46152000  0.14194000  0.54735000  1.0
  C  C66  1  0.53847000  0.85806000  0.04735000  1.0
  C  C67  1  0.03847000  0.64194000  0.95266000  1.0
  Br  Br68  1  0.35336000  0.21182000  0.75000000  1.0
  Br  Br69  1  0.85336000  0.28818000  0.25000000  1.0
  Br  Br70  1  0.14664000  0.71182000  0.75000000  1.0
  Br  Br71  1  0.64664000  0.78818000  0.25000000  1.0
  N  N72  1  0.22053000  0.60861000  0.55882000  1.0
  N  N73  1  0.72053000  0.89139000  0.44118000  1.0
  N  N74  1  0.27947000  0.10861000  0.94118000  1.0
  N  N75  1  0.77947000  0.39139000  0.05882000  1.0
  N  N76  1  0.77947000  0.39139000  0.44118000  1.0
  N  N77  1  0.27947000  0.10861000  0.55882000  1.0
  N  N78  1  0.72053000  0.89139000  0.05882000  1.0
  N  N79  1  0.22053000  0.60861000  0.94118000  1.0
  N  N80  1  0.15532000  0.42339000  0.63864000  1.0
  N  N81  1  0.65532000  0.07661000  0.36136000  1.0
  N  N82  1  0.34468000  0.92339000  0.86136000  1.0
  N  N83  1  0.84468000  0.57661000  0.13863000  1.0
  N  N84  1  0.84468000  0.57661000  0.36136000  1.0
  N  N85  1  0.34468000  0.92339000  0.63864000  1.0
  N  N86  1  0.65532000  0.07661000  0.13863000  1.0
  N  N87  1  0.15532000  0.42339000  0.86137000  1.0
  O  O88  1  0.45346000  0.49112000  0.61457000  1.0
  O  O89  1  0.95345000  0.00888000  0.38543000  1.0
  O  O90  1  0.04653000  0.99112000  0.88543000  1.0
  O  O91  1  0.54654000  0.50888000  0.11457000  1.0
  O  O92  1  0.54654000  0.50888000  0.38543000  1.0
  O  O93  1  0.04654000  0.99112000  0.61457000  1.0
  O  O94  1  0.95346000  0.00888000  0.11457000  1.0
  O  O95  1  0.45346000  0.49112000  0.88543000  1.0
  O  O96  1  0.86187000  0.36718000  0.66880000  1.0
  O  O97  1  0.36187000  0.13282000  0.33120000  1.0
  O  O98  1  0.63813000  0.86718000  0.83120000  1.0
  O  O99  1  0.13813000  0.63282000  0.16880000  1.0
  O  O100  1  0.13813000  0.63282000  0.33120000  1.0
  O  O101  1  0.63813000  0.86718000  0.66880000  1.0
  O  O102  1  0.36187000  0.13282000  0.16880000  1.0
  O  O103  1  0.86188000  0.36718000  0.83120000  1.0
  O  O104  1  0.99630000  0.72247000  0.50127000  1.0
  O  O105  1  0.49630000  0.77753000  0.49873000  1.0
  O  O106  1  0.50370000  0.22248000  0.99873000  1.0
  O  O107  1  0.00370000  0.27753000  0.00127000  1.0
  O  O108  1  0.00371000  0.27753000  0.49873000  1.0
  O  O109  1  0.50370000  0.22248000  0.50127000  1.0
  O  O110  1  0.49630000  0.77752000  0.00127000  1.0
  O  O111  1  0.99630000  0.72247000  0.99873000  1.0
