# generated using pymatgen
data_CuH10(C2N)3
_symmetry_space_group_name_H-M   'P 1'
_cell_length_a   12.26440000
_cell_length_b   12.26680000
_cell_length_c   12.31320000
_cell_angle_alpha   106.23000000
_cell_angle_beta   106.23300000
_cell_angle_gamma   106.12200000
_symmetry_Int_Tables_number   1
_chemical_formula_structural   CuH10(C2N)3
_chemical_formula_sum   'Cu6 H60 C36 N18'
_cell_volume   1575.39468043
_cell_formula_units_Z   6
loop_
 _symmetry_equiv_pos_site_id
 _symmetry_equiv_pos_as_xyz
  1  'x, y, z'
loop_
 _atom_site_type_symbol
 _atom_site_label
 _atom_site_symmetry_multiplicity
 _atom_site_fract_x
 _atom_site_fract_y
 _atom_site_fract_z
 _atom_site_occupancy
  Cu  Cu0  1  0.60037000  0.97755000  0.11258000  1.0
  Cu  Cu1  1  0.97667000  0.11227000  0.59985000  1.0
  Cu  Cu2  1  0.11215000  0.60032000  0.97743000  1.0
  Cu  Cu3  1  0.39963000  0.02245000  0.88742000  1.0
  Cu  Cu4  1  0.02333000  0.88773000  0.40015000  1.0
  Cu  Cu5  1  0.88785000  0.39968000  0.02257000  1.0
  H  H6  1  0.09101000  0.68382000  0.72651000  1.0
  H  H7  1  0.68396000  0.72654000  0.09112000  1.0
  H  H8  1  0.72621000  0.09100000  0.68408000  1.0
  H  H9  1  0.90899000  0.31618000  0.27349000  1.0
  H  H10  1  0.31604000  0.27346000  0.90888000  1.0
  H  H11  1  0.27379000  0.90899000  0.31592000  1.0
  H  H12  1  0.14419000  0.84426000  0.76274000  1.0
  H  H13  1  0.84437000  0.76242000  0.14409000  1.0
  H  H14  1  0.76227000  0.14415000  0.84399000  1.0
  H  H15  1  0.85581000  0.15574000  0.23726000  1.0
  H  H16  1  0.15563000  0.23758000  0.85591000  1.0
  H  H17  1  0.23773000  0.85585000  0.15601000  1.0
  H  H18  1  0.93448000  0.76224000  0.76976000  1.0
  H  H19  1  0.76227000  0.76957000  0.93525000  1.0
  H  H20  1  0.76957000  0.93458000  0.76214000  1.0
  H  H21  1  0.06552000  0.23776000  0.23024000  1.0
  H  H22  1  0.23773000  0.23043000  0.06475000  1.0
  H  H23  1  0.23043000  0.06542000  0.23786000  1.0
  H  H24  1  0.04492000  0.86979000  0.91725000  1.0
  H  H25  1  0.86988000  0.91750000  0.04516000  1.0
  H  H26  1  0.91747000  0.04492000  0.86956000  1.0
  H  H27  1  0.95508000  0.13021000  0.08275000  1.0
  H  H28  1  0.13012000  0.08250000  0.95484000  1.0
  H  H29  1  0.08253000  0.95508000  0.13044000  1.0
  H  H30  1  0.99564000  0.70959000  0.88494000  1.0
  H  H31  1  0.70961000  0.88527000  0.99593000  1.0
  H  H32  1  0.88530000  0.99565000  0.70992000  1.0
  H  H33  1  0.00436000  0.29041000  0.11506000  1.0
  H  H34  1  0.29039000  0.11473000  0.00407000  1.0
  H  H35  1  0.11470000  0.00435000  0.29008000  1.0
  H  H36  1  0.36898000  0.72081000  0.19520000  1.0
  H  H37  1  0.72068000  0.19572000  0.36933000  1.0
  H  H38  1  0.19552000  0.36908000  0.72079000  1.0
  H  H39  1  0.63101000  0.27919000  0.80480000  1.0
  H  H40  1  0.27932000  0.80428000  0.63067000  1.0
  H  H41  1  0.80448000  0.63092000  0.27921000  1.0
  H  H42  1  0.51461000  0.78065000  0.18705000  1.0
  H  H43  1  0.78066000  0.18712000  0.51433000  1.0
  H  H44  1  0.18710000  0.51463000  0.78044000  1.0
  H  H45  1  0.48539000  0.21935000  0.81295000  1.0
  H  H46  1  0.21934000  0.81288000  0.48567000  1.0
  H  H47  1  0.81290000  0.48537000  0.21956000  1.0
  H  H48  1  0.44449000  0.55127000  0.13696000  1.0
  H  H49  1  0.55111000  0.13718000  0.44432000  1.0
  H  H50  1  0.13728000  0.44447000  0.55185000  1.0
  H  H51  1  0.55551000  0.44873000  0.86304000  1.0
  H  H52  1  0.44889000  0.86283000  0.55568000  1.0
  H  H53  1  0.86272000  0.55553000  0.44815000  1.0
  H  H54  1  0.45391000  0.58231000  0.00617000  1.0
  H  H55  1  0.58228000  0.00589000  0.45360000  1.0
  H  H56  1  0.00579000  0.45387000  0.58235000  1.0
  H  H57  1  0.54609000  0.41770000  0.99383000  1.0
  H  H58  1  0.41772000  0.99411000  0.54640000  1.0
  H  H59  1  0.99420000  0.54613000  0.41765000  1.0
  H  H60  1  0.30831000  0.52531000  0.01554000  1.0
  H  H61  1  0.52515000  0.01547000  0.30855000  1.0
  H  H62  1  0.01551000  0.30834000  0.52558000  1.0
  H  H63  1  0.69170000  0.47469000  0.98446000  1.0
  H  H64  1  0.47485000  0.98454000  0.69145000  1.0
  H  H65  1  0.98449000  0.69166000  0.47442000  1.0
  C  C66  1  0.23786000  0.79318000  0.89928000  1.0
  C  C67  1  0.79354000  0.89940000  0.23789000  1.0
  C  C68  1  0.89922000  0.23786000  0.79327000  1.0
  C  C69  1  0.76214000  0.20682000  0.10072000  1.0
  C  C70  1  0.20646000  0.10060000  0.76211000  1.0
  C  C71  1  0.10079000  0.76214000  0.20673000  1.0
  C  C72  1  0.12224000  0.77420000  0.80110000  1.0
  C  C73  1  0.77442000  0.80120000  0.12238000  1.0
  C  C74  1  0.80092000  0.12225000  0.77425000  1.0
  C  C75  1  0.87776000  0.22580000  0.19890000  1.0
  C  C76  1  0.22558000  0.19880000  0.87762000  1.0
  C  C77  1  0.19908000  0.87775000  0.22575000  1.0
  C  C78  1  0.01820000  0.77927000  0.84571000  1.0
  C  C79  1  0.77935000  0.84587000  0.01862000  1.0
  C  C80  1  0.84580000  0.01823000  0.77927000  1.0
  C  C81  1  0.98180000  0.22073000  0.15429000  1.0
  C  C82  1  0.22065000  0.15413000  0.98138000  1.0
  C  C83  1  0.15420000  0.98177000  0.22073000  1.0
  C  C84  1  0.36546000  0.76951000  0.04237000  1.0
  C  C85  1  0.76936000  0.04229000  0.36537000  1.0
  C  C86  1  0.04213000  0.36554000  0.76929000  1.0
  C  C87  1  0.63454000  0.23049000  0.95763000  1.0
  C  C88  1  0.23064000  0.95770000  0.63463000  1.0
  C  C89  1  0.95787000  0.63446000  0.23071000  1.0
  C  C90  1  0.41765000  0.71902000  0.13214000  1.0
  C  C91  1  0.71887000  0.13230000  0.41765000  1.0
  C  C92  1  0.13209000  0.41770000  0.71890000  1.0
  C  C93  1  0.58235000  0.28098000  0.86786000  1.0
  C  C94  1  0.28113000  0.86770000  0.58235000  1.0
  C  C95  1  0.86791000  0.58230000  0.28110000  1.0
  C  C96  1  0.40563000  0.58673000  0.06923000  1.0
  C  C97  1  0.58661000  0.06923000  0.40557000  1.0
  C  C98  1  0.06920000  0.40563000  0.58700000  1.0
  C  C99  1  0.59437000  0.41327000  0.93077000  1.0
  C  C100  1  0.41339000  0.93077000  0.59443000  1.0
  C  C101  1  0.93080000  0.59437000  0.41300000  1.0
  N  N102  1  0.34836000  0.88121000  0.93263000  1.0
  N  N103  1  0.88144000  0.93243000  0.34811000  1.0
  N  N104  1  0.93277000  0.34828000  0.88131000  1.0
  N  N105  1  0.65164000  0.11880000  0.06737000  1.0
  N  N106  1  0.11856000  0.06756000  0.65189000  1.0
  N  N107  1  0.06723000  0.65172000  0.11869000  1.0
  N  N108  1  0.43047000  0.86548000  0.02435000  1.0
  N  N109  1  0.86538000  0.02402000  0.43013000  1.0
  N  N110  1  0.02435000  0.43045000  0.86537000  1.0
  N  N111  1  0.56953000  0.13452000  0.97565000  1.0
  N  N112  1  0.13462000  0.97598000  0.56987000  1.0
  N  N113  1  0.97565000  0.56955000  0.13463000  1.0
  N  N114  1  0.24464000  0.72212000  0.96640000  1.0
  N  N115  1  0.72221000  0.96659000  0.24483000  1.0
  N  N116  1  0.96606000  0.24472000  0.72199000  1.0
  N  N117  1  0.75536000  0.27788000  0.03360000  1.0
  N  N118  1  0.27779000  0.03341000  0.75517000  1.0
  N  N119  1  0.03394000  0.75528000  0.27801000  1.0
