# generated using pymatgen
data_ZnH6(C5N2)2
_symmetry_space_group_name_H-M   'P 1'
_cell_length_a   14.75234183
_cell_length_b   14.75230000
_cell_length_c   14.75290000
_cell_angle_alpha   109.47100000
_cell_angle_beta   109.47138951
_cell_angle_gamma   109.47009402
_symmetry_Int_Tables_number   1
_chemical_formula_structural   ZnH6(C5N2)2
_chemical_formula_sum   'Zn6 H36 C60 N24'
_cell_volume   2471.62469631
_cell_formula_units_Z   6
loop_
 _symmetry_equiv_pos_site_id
 _symmetry_equiv_pos_as_xyz
  1  'x, y, z'
loop_
 _atom_site_type_symbol
 _atom_site_label
 _atom_site_symmetry_multiplicity
 _atom_site_fract_x
 _atom_site_fract_y
 _atom_site_fract_z
 _atom_site_occupancy
  Zn  Zn0  1  0.75002000  0.25002000  0.49999000  1.0
  Zn  Zn1  1  0.24999000  0.74999000  0.50001000  1.0
  Zn  Zn2  1  0.25003000  0.50003000  0.75003000  1.0
  Zn  Zn3  1  0.50004000  0.25002000  0.75001000  1.0
  Zn  Zn4  1  0.49998000  0.75000000  0.25000000  1.0
  Zn  Zn5  1  0.75000000  0.50000000  0.24997000  1.0
  H  H6  1  0.35844000  0.99999000  0.22844000  1.0
  H  H7  1  0.86998000  0.64153000  0.64155000  1.0
  H  H8  1  0.99999000  0.22844000  0.35846000  1.0
  H  H9  1  0.22843000  0.99999000  0.35845000  1.0
  H  H10  1  0.64155000  0.64155000  0.86999000  1.0
  H  H11  1  0.77156000  0.77156000  0.13001000  1.0
  H  H12  1  0.64154000  0.86998000  0.64155000  1.0
  H  H13  1  0.99999000  0.35845000  0.22844000  1.0
  H  H14  1  0.77154000  0.13000000  0.77155000  1.0
  H  H15  1  0.13001000  0.77155000  0.77156000  1.0
  H  H16  1  0.22844000  0.35846000  0.00000000  1.0
  H  H17  1  0.35847000  0.22845000  0.00000000  1.0
  H  H18  1  0.87914000  0.11549000  0.53346000  1.0
  H  H19  1  0.65430000  0.12085000  0.23634000  1.0
  H  H20  1  0.88451000  0.41795000  0.76365000  1.0
  H  H21  1  0.41795000  0.88450000  0.76365000  1.0
  H  H22  1  0.12086000  0.23636000  0.65432000  1.0
  H  H23  1  0.23636000  0.12086000  0.65432000  1.0
  H  H24  1  0.46654000  0.58204000  0.34569000  1.0
  H  H25  1  0.58204000  0.46654000  0.34568000  1.0
  H  H26  1  0.65431000  0.23635000  0.12085000  1.0
  H  H27  1  0.23634000  0.65430000  0.12087000  1.0
  H  H28  1  0.53345000  0.11549000  0.87913000  1.0
  H  H29  1  0.11550000  0.53345000  0.87915000  1.0
  H  H30  1  0.88450000  0.76365000  0.41796000  1.0
  H  H31  1  0.46655000  0.34569000  0.58204000  1.0
  H  H32  1  0.76364000  0.88450000  0.41796000  1.0
  H  H33  1  0.34569000  0.46654000  0.58204000  1.0
  H  H34  1  0.41797000  0.76366000  0.88452000  1.0
  H  H35  1  0.53345000  0.87914000  0.11550000  1.0
  H  H36  1  0.76366000  0.41796000  0.88451000  1.0
  H  H37  1  0.87915000  0.53345000  0.11549000  1.0
  H  H38  1  0.58203000  0.34568000  0.46653000  1.0
  H  H39  1  0.11549000  0.87914000  0.53346000  1.0
  H  H40  1  0.34568000  0.58203000  0.46654000  1.0
  H  H41  1  0.12085000  0.65431000  0.23637000  1.0
  C  C42  1  0.79171000  0.05736000  0.47409000  1.0
  C  C43  1  0.68238000  0.20829000  0.26565000  1.0
  C  C44  1  0.94264000  0.41673000  0.73435000  1.0
  C  C45  1  0.41672000  0.94263000  0.73435000  1.0
  C  C46  1  0.20829000  0.26565000  0.68238000  1.0
  C  C47  1  0.26566000  0.20829000  0.68238000  1.0
  C  C48  1  0.52590000  0.58327000  0.31762000  1.0
  C  C49  1  0.58327000  0.52591000  0.31761000  1.0
  C  C50  1  0.68237000  0.26565000  0.20828000  1.0
  C  C51  1  0.26564000  0.68237000  0.20829000  1.0
  C  C52  1  0.47409000  0.05736000  0.79171000  1.0
  C  C53  1  0.05737000  0.47409000  0.79172000  1.0
  C  C54  1  0.94263000  0.73435000  0.41673000  1.0
  C  C55  1  0.52591000  0.31762000  0.58327000  1.0
  C  C56  1  0.73434000  0.94263000  0.41672000  1.0
  C  C57  1  0.31762000  0.52590000  0.58327000  1.0
  C  C58  1  0.41673000  0.73436000  0.94264000  1.0
  C  C59  1  0.47409000  0.79172000  0.05737000  1.0
  C  C60  1  0.73436000  0.41673000  0.94264000  1.0
  C  C61  1  0.79172000  0.47409000  0.05736000  1.0
  C  C62  1  0.58328000  0.31762000  0.52590000  1.0
  C  C63  1  0.05736000  0.79172000  0.47410000  1.0
  C  C64  1  0.31762000  0.58327000  0.52591000  1.0
  C  C65  1  0.20828000  0.68238000  0.26567000  1.0
  C  C66  1  0.61769000  0.00001000  0.36860000  1.0
  C  C67  1  0.75092000  0.38232000  0.38230000  1.0
  C  C68  1  0.00002000  0.36862000  0.61770000  1.0
  C  C69  1  0.36860000  0.00000000  0.61769000  1.0
  C  C70  1  0.38232000  0.38232000  0.75092000  1.0
  C  C71  1  0.63139000  0.63140000  0.24908000  1.0
  C  C72  1  0.38230000  0.75091000  0.38231000  1.0
  C  C73  1  1.00000000  0.61769000  0.36861000  1.0
  C  C74  1  0.63141000  0.24909000  0.63139000  1.0
  C  C75  1  0.24909000  0.63139000  0.63140000  1.0
  C  C76  1  0.36860000  0.61769000  0.00000000  1.0
  C  C77  1  0.61769000  0.36860000  0.99999000  1.0
  C  C78  1  0.51854000  0.00001000  0.31563000  1.0
  C  C79  1  0.79709000  0.48146000  0.48144000  1.0
  C  C80  1  0.00002000  0.31565000  0.51856000  1.0
  C  C81  1  0.31563000  0.00000000  0.51854000  1.0
  C  C82  1  0.48146000  0.48146000  0.79709000  1.0
  C  C83  1  0.68436000  0.68437000  0.20290000  1.0
  C  C84  1  0.48145000  0.79708000  0.48146000  1.0
  C  C85  1  1.00000000  0.51855000  0.31564000  1.0
  C  C86  1  0.68438000  0.20292000  0.68436000  1.0
  C  C87  1  0.20291000  0.68436000  0.68437000  1.0
  C  C88  1  0.31563000  0.51855000  0.00000000  1.0
  C  C89  1  0.51855000  0.31563000  0.00000000  1.0
  C  C90  1  0.43341000  1.00000000  0.26907000  1.0
  C  C91  1  0.83565000  0.56657000  0.56657000  1.0
  C  C92  1  1.00000000  0.26907000  0.43342000  1.0
  C  C93  1  0.26908000  0.00001000  0.43343000  1.0
  C  C94  1  0.56659000  0.56659000  0.83567000  1.0
  C  C95  1  0.73092000  0.73092000  0.16433000  1.0
  C  C96  1  0.56657000  0.83565000  0.56657000  1.0
  C  C97  1  1.00000000  0.43342000  0.26908000  1.0
  C  C98  1  0.73092000  0.16434000  0.73092000  1.0
  C  C99  1  0.16434000  0.73092000  0.73092000  1.0
  C  C100  1  0.26908000  0.43343000  0.00001000  1.0
  C  C101  1  0.43343000  0.26908000  0.00000000  1.0
  N  N102  1  0.71818000  0.09332000  0.44356000  1.0
  N  N103  1  0.72539000  0.28183000  0.37512000  1.0
  N  N104  1  0.90671000  0.35027000  0.62488000  1.0
  N  N105  1  0.35025000  0.90669000  0.62487000  1.0
  N  N106  1  0.28183000  0.37514000  0.72539000  1.0
  N  N107  1  0.37514000  0.28182000  0.72539000  1.0
  N  N108  1  0.55643000  0.64975000  0.27461000  1.0
  N  N109  1  0.64974000  0.55644000  0.27460000  1.0
  N  N110  1  0.72538000  0.37513000  0.28181000  1.0
  N  N111  1  0.37512000  0.72538000  0.28183000  1.0
  N  N112  1  0.44356000  0.09331000  0.71817000  1.0
  N  N113  1  0.09333000  0.44357000  0.71820000  1.0
  N  N114  1  0.90668000  0.62486000  0.35024000  1.0
  N  N115  1  0.55645000  0.27462000  0.64974000  1.0
  N  N116  1  0.62486000  0.90669000  0.35025000  1.0
  N  N117  1  0.27462000  0.55643000  0.64975000  1.0
  N  N118  1  0.35026000  0.62488000  0.90670000  1.0
  N  N119  1  0.44355000  0.71818000  0.09331000  1.0
  N  N120  1  0.62488000  0.35025000  0.90669000  1.0
  N  N121  1  0.71818000  0.44356000  0.09330000  1.0
  N  N122  1  0.64976000  0.27462000  0.55643000  1.0
  N  N123  1  0.09330000  0.71817000  0.44356000  1.0
  N  N124  1  0.27461000  0.64974000  0.55644000  1.0
  N  N125  1  0.28181000  0.72538000  0.37514000  1.0
