# generated using pymatgen
data_CuH11C8N3
_symmetry_space_group_name_H-M   'P 1'
_cell_length_a   8.85673000
_cell_length_b   10.02000000
_cell_length_c   10.79460000
_cell_angle_alpha   89.99990000
_cell_angle_beta   89.99900000
_cell_angle_gamma   68.87000000
_symmetry_Int_Tables_number   1
_chemical_formula_structural   CuH11C8N3
_chemical_formula_sum   'Cu4 H44 C32 N12'
_cell_volume   893.55210440
_cell_formula_units_Z   4
loop_
 _symmetry_equiv_pos_site_id
 _symmetry_equiv_pos_as_xyz
  1  'x, y, z'
loop_
 _atom_site_type_symbol
 _atom_site_label
 _atom_site_symmetry_multiplicity
 _atom_site_fract_x
 _atom_site_fract_y
 _atom_site_fract_z
 _atom_site_occupancy
  Cu  Cu0  1  0.78605000  0.23500000  0.65290000  1.0
  Cu  Cu1  1  0.71396000  0.76499000  0.15291000  1.0
  Cu  Cu2  1  0.21395000  0.76500000  0.34710000  1.0
  Cu  Cu3  1  0.28604000  0.23500000  0.84709000  1.0
  H  H4  1  0.60705000  0.48580000  0.22428000  1.0
  H  H5  1  0.89296000  0.51420000  0.72428000  1.0
  H  H6  1  0.39296000  0.51419000  0.77571000  1.0
  H  H7  1  0.10704000  0.48581000  0.27572000  1.0
  H  H8  1  0.64181000  0.08511000  0.17967000  1.0
  H  H9  1  0.85819000  0.91489000  0.67967000  1.0
  H  H10  1  0.35819000  0.91488000  0.82033000  1.0
  H  H11  1  0.14181000  0.08512000  0.32033000  1.0
  H  H12  1  0.57468000  0.24890000  0.09513000  1.0
  H  H13  1  0.92533000  0.75110000  0.59513000  1.0
  H  H14  1  0.42532000  0.75109000  0.90487000  1.0
  H  H15  1  0.07467000  0.24891000  0.40487000  1.0
  H  H16  1  0.44056000  0.20686000  0.19599000  1.0
  H  H17  1  0.05944000  0.79315000  0.69599000  1.0
  H  H18  1  0.55944000  0.79314000  0.80401000  1.0
  H  H19  1  0.94056000  0.20685000  0.30401000  1.0
  H  H20  1  0.85388000  0.48325000  0.51945000  1.0
  H  H21  1  0.64611000  0.51675000  0.01946000  1.0
  H  H22  1  0.14612000  0.51675000  0.48054000  1.0
  H  H23  1  0.35389000  0.48325000  0.98054000  1.0
  H  H24  1  0.64714000  0.58772000  0.54450000  1.0
  H  H25  1  0.85285000  0.41228000  0.04450000  1.0
  H  H26  1  0.35285000  0.41228000  0.45549000  1.0
  H  H27  1  0.14715000  0.58772000  0.95549000  1.0
  H  H28  1  0.74198000  0.60569000  0.40317000  1.0
  H  H29  1  0.75803000  0.39431000  0.90317000  1.0
  H  H30  1  0.25802000  0.39431000  0.59682000  1.0
  H  H31  1  0.24197000  0.60570000  0.09682000  1.0
  H  H32  1  0.74449000  0.03893000  0.52081000  1.0
  H  H33  1  0.75551000  0.96107000  0.02082000  1.0
  H  H34  1  0.25552000  0.96107000  0.47919000  1.0
  H  H35  1  0.24448000  0.03893000  0.97918000  1.0
  H  H36  1  0.71830000  0.99008000  0.36732000  1.0
  H  H37  1  0.78170000  0.00992000  0.86733000  1.0
  H  H38  1  0.28169000  0.00992000  0.63268000  1.0
  H  H39  1  0.21830000  0.99008000  0.13268000  1.0
  H  H40  1  0.44084000  0.15673000  0.54271000  1.0
  H  H41  1  0.05915000  0.84327000  0.04271000  1.0
  H  H42  1  0.55916000  0.84327000  0.45730000  1.0
  H  H43  1  0.94084000  0.15673000  0.95730000  1.0
  H  H44  1  0.41772000  0.09785000  0.39120000  1.0
  H  H45  1  0.08228000  0.90215000  0.89120000  1.0
  H  H46  1  0.58228000  0.90215000  0.60881000  1.0
  H  H47  1  0.91772000  0.09785000  0.10881000  1.0
  C  C48  1  0.61853000  0.27137000  0.28731000  1.0
  C  C49  1  0.88147000  0.72863000  0.78731000  1.0
  C  C50  1  0.38147000  0.72863000  0.71269000  1.0
  C  C51  1  0.11852000  0.27137000  0.21269000  1.0
  C  C52  1  0.63335000  0.40490000  0.29579000  1.0
  C  C53  1  0.86665000  0.59511000  0.79580000  1.0
  C  C54  1  0.36665000  0.59510000  0.70420000  1.0
  C  C55  1  0.13335000  0.40490000  0.20421000  1.0
  C  C56  1  0.69026000  0.41373000  0.41615000  1.0
  C  C57  1  0.80974000  0.58627000  0.91615000  1.0
  C  C58  1  0.30974000  0.58627000  0.58384000  1.0
  C  C59  1  0.19026000  0.41373000  0.08384000  1.0
  C  C60  1  0.56649000  0.19943000  0.18416000  1.0
  C  C61  1  0.93351000  0.80057000  0.68416000  1.0
  C  C62  1  0.43350000  0.80056000  0.81584000  1.0
  C  C63  1  0.06649000  0.19944000  0.31584000  1.0
  C  C64  1  0.73533000  0.52922000  0.47366000  1.0
  C  C65  1  0.76467000  0.47079000  0.97367000  1.0
  C  C66  1  0.26467000  0.47078000  0.52633000  1.0
  C  C67  1  0.23533000  0.52922000  0.02633000  1.0
  C  C68  1  0.66359000  0.06936000  0.44015000  1.0
  C  C69  1  0.83641000  0.93064000  0.94016000  1.0
  C  C70  1  0.33642000  0.93064000  0.55985000  1.0
  C  C71  1  0.16358000  0.06936000  0.05985000  1.0
  C  C72  1  0.49542000  0.07211000  0.47406000  1.0
  C  C73  1  0.00458000  0.92789000  0.97405000  1.0
  C  C74  1  0.50458000  0.92789000  0.52595000  1.0
  C  C75  1  0.99542000  0.07212000  0.02595000  1.0
  C  C76  1  0.48650000  0.21780000  0.78595000  1.0
  C  C77  1  0.01351000  0.78220000  0.28596000  1.0
  C  C78  1  0.51351000  0.78220000  0.21406000  1.0
  C  C79  1  0.98651000  0.21781000  0.71404000  1.0
  N  N80  1  0.66399000  0.20745000  0.39964000  1.0
  N  N81  1  0.83601000  0.79255000  0.89964000  1.0
  N  N82  1  0.33601000  0.79254000  0.60036000  1.0
  N  N83  1  0.16398000  0.20746000  0.10036000  1.0
  N  N84  1  0.70754000  0.29291000  0.47918000  1.0
  N  N85  1  0.79246000  0.70709000  0.97918000  1.0
  N  N86  1  0.29247000  0.70708000  0.52082000  1.0
  N  N87  1  0.20753000  0.29292000  0.02082000  1.0
  N  N88  1  0.60914000  0.21139000  0.73891000  1.0
  N  N89  1  0.89086000  0.78860000  0.23892000  1.0
  N  N90  1  0.39086000  0.78861000  0.26109000  1.0
  N  N91  1  0.10914000  0.21140000  0.76108000  1.0
