# generated using pymatgen
data_CuH10C4(BrN5)2
_symmetry_space_group_name_H-M   'P 1'
_cell_length_a   5.20962000
_cell_length_b   6.46371000
_cell_length_c   9.08585000
_cell_angle_alpha   80.84800000
_cell_angle_beta   77.52000000
_cell_angle_gamma   89.47060000
_symmetry_Int_Tables_number   1
_chemical_formula_structural   CuH10C4(BrN5)2
_chemical_formula_sum   'Cu1 H10 C4 Br2 N10'
_cell_volume   294.81989717
_cell_formula_units_Z   1
loop_
 _symmetry_equiv_pos_site_id
 _symmetry_equiv_pos_as_xyz
  1  'x, y, z'
loop_
 _atom_site_type_symbol
 _atom_site_label
 _atom_site_symmetry_multiplicity
 _atom_site_fract_x
 _atom_site_fract_y
 _atom_site_fract_z
 _atom_site_occupancy
  Cu  Cu0  1  0.00000000  0.00000000  0.00000000  1.0
  H  H1  1  0.73870000  0.64651000  0.91561000  1.0
  H  H2  1  0.26130000  0.35349000  0.08439000  1.0
  H  H3  1  0.48632000  0.74445000  0.03599000  1.0
  H  H4  1  0.51369000  0.25554000  0.96400000  1.0
  H  H5  1  0.50376000  0.75918000  0.39167000  1.0
  H  H6  1  0.49624000  0.24083000  0.60833000  1.0
  H  H7  1  0.17707000  0.86435000  0.42083000  1.0
  H  H8  1  0.82293000  0.13566000  0.57917000  1.0
  H  H9  1  0.22471000  0.59120000  0.47991000  1.0
  H  H10  1  0.77529000  0.40880000  0.52009000  1.0
  C  C11  1  0.45963000  0.78799000  0.81772000  1.0
  C  C12  1  0.54036000  0.21201000  0.18228000  1.0
  C  C13  1  0.30758000  0.75015000  0.46662000  1.0
  C  C14  1  0.69241000  0.24985000  0.53337000  1.0
  Br  Br15  1  0.98430000  0.33737000  0.82656000  1.0
  Br  Br16  1  0.01571000  0.66262000  0.17343000  1.0
  N  N17  1  0.53107000  0.72805000  0.67990000  1.0
  N  N18  1  0.46892000  0.27195000  0.32011000  1.0
  N  N19  1  0.33151000  0.79512000  0.61475000  1.0
  N  N20  1  0.66849000  0.20488000  0.38525000  1.0
  N  N21  1  0.14711000  0.89051000  0.69952000  1.0
  N  N22  1  0.85290000  0.10949000  0.30049000  1.0
  N  N23  1  0.22564000  0.88846000  0.82995000  1.0
  N  N24  1  0.77437000  0.11154000  0.17005000  1.0
  N  N25  1  0.60201000  0.76123000  0.92809000  1.0
  N  N26  1  0.39800000  0.23876000  0.07192000  1.0
