# generated using pymatgen
data_DyPH12C13NO11
_symmetry_space_group_name_H-M   'P 1'
_cell_length_a   7.26338000
_cell_length_b   9.55439000
_cell_length_c   12.31250000
_cell_angle_alpha   111.34290000
_cell_angle_beta   91.70240000
_cell_angle_gamma   91.09370000
_symmetry_Int_Tables_number   1
_chemical_formula_structural   DyPH12C13NO11
_chemical_formula_sum   'Dy2 P2 H24 C26 N2 O22'
_cell_volume   795.09174571
_cell_formula_units_Z   2
loop_
 _symmetry_equiv_pos_site_id
 _symmetry_equiv_pos_as_xyz
  1  'x, y, z'
loop_
 _atom_site_type_symbol
 _atom_site_label
 _atom_site_symmetry_multiplicity
 _atom_site_fract_x
 _atom_site_fract_y
 _atom_site_fract_z
 _atom_site_occupancy
  Dy  Dy0  1  0.25465000  0.69983000  0.40893000  1.0
  Dy  Dy1  1  0.74537000  0.30018000  0.59107000  1.0
  P  P2  1  0.28576000  0.48239000  0.10774000  1.0
  P  P3  1  0.71425000  0.51760000  0.89226000  1.0
  H  H4  1  0.87956000  0.72880000  0.34233000  1.0
  H  H5  1  0.12047000  0.27119000  0.65768000  1.0
  H  H6  1  0.89945000  0.90126000  0.41370000  1.0
  H  H7  1  0.10056000  0.09874000  0.58631000  1.0
  H  H8  1  0.35848000  0.53113000  0.95014000  1.0
  H  H9  1  0.64153000  0.46887000  0.04987000  1.0
  H  H10  1  0.22869000  0.72752000  0.70797000  1.0
  H  H11  1  0.77129000  0.27248000  0.29203000  1.0
  H  H12  1  0.41642000  0.74330000  0.95766000  1.0
  H  H13  1  0.58358000  0.25670000  0.04234000  1.0
  H  H14  1  0.48459000  0.79102000  0.15303000  1.0
  H  H15  1  0.51540000  0.20898000  0.84698000  1.0
  H  H16  1  0.41067000  0.04391000  0.30442000  1.0
  H  H17  1  0.58931000  0.95608000  0.69558000  1.0
  H  H18  1  0.26470000  0.23190000  0.24225000  1.0
  H  H19  1  0.73530000  0.76810000  0.75775000  1.0
  H  H20  1  0.03585000  0.21994000  0.86310000  1.0
  H  H21  1  0.96414000  0.78006000  0.13690000  1.0
  H  H22  1  0.11020000  0.96700000  0.72591000  1.0
  H  H23  1  0.88979000  0.03299000  0.27410000  1.0
  H  H24  1  0.08126000  0.34918000  0.18658000  1.0
  H  H25  1  0.91874000  0.65081000  0.81342000  1.0
  H  H26  1  0.98169000  0.38594000  0.06807000  1.0
  H  H27  1  0.01831000  0.61406000  0.93193000  1.0
  C  C28  1  0.41292000  0.87623000  0.13063000  1.0
  C  C29  1  0.58706000  0.12377000  0.86938000  1.0
  C  C30  1  0.37019000  0.01545000  0.21321000  1.0
  C  C31  1  0.62980000  0.98454000  0.78679000  1.0
  C  C32  1  0.28646000  0.12067000  0.17750000  1.0
  C  C33  1  0.71353000  0.87933000  0.82250000  1.0
  C  C34  1  0.23593000  0.08680000  0.05845000  1.0
  C  C35  1  0.76406000  0.91320000  0.94156000  1.0
  C  C36  1  0.14691000  0.18950000  0.01589000  1.0
  C  C37  1  0.85309000  0.81050000  0.98411000  1.0
  C  C38  1  0.10491000  0.14306000  0.89706000  1.0
  C  C39  1  0.89509000  0.85694000  0.10294000  1.0
  C  C40  1  0.14646000  0.99921000  0.81839000  1.0
  C  C41  1  0.85352000  0.00079000  0.18162000  1.0
  C  C42  1  0.23397000  0.89682000  0.85703000  1.0
  C  C43  1  0.76602000  0.10319000  0.14297000  1.0
  C  C44  1  0.27931000  0.94196000  0.97831000  1.0
  C  C45  1  0.72069000  0.05803000  0.02169000  1.0
  C  C46  1  0.10562000  0.34393000  0.09791000  1.0
  C  C47  1  0.89438000  0.65606000  0.90209000  1.0
  C  C48  1  0.45608000  0.42903000  0.45200000  1.0
  C  C49  1  0.54395000  0.57097000  0.54801000  1.0
  C  C50  1  0.04104000  0.54028000  0.56247000  1.0
  C  C51  1  0.95894000  0.45972000  0.43751000  1.0
  C  C52  1  0.42506000  0.03975000  0.54339000  1.0
  C  C53  1  0.57495000  0.96025000  0.45662000  1.0
  N  N54  1  0.36920000  0.84446000  0.01816000  1.0
  N  N55  1  0.63079000  0.15554000  0.98184000  1.0
  O  O56  1  0.25446000  0.62167000  0.21696000  1.0
  O  O57  1  0.74555000  0.37832000  0.78304000  1.0
  O  O58  1  0.97199000  0.80933000  0.37836000  1.0
  O  O59  1  0.02804000  0.19068000  0.62164000  1.0
  O  O60  1  0.24384000  0.51927000  0.99379000  1.0
  O  O61  1  0.75616000  0.48073000  0.00621000  1.0
  O  O62  1  0.47883000  0.42118000  0.10402000  1.0
  O  O63  1  0.52117000  0.57882000  0.89598000  1.0
  O  O64  1  0.28138000  0.75800000  0.79042000  1.0
  O  O65  1  0.71860000  0.24200000  0.20958000  1.0
  O  O66  1  0.34704000  0.45260000  0.37852000  1.0
  O  O67  1  0.65299000  0.54740000  0.62148000  1.0
  O  O68  1  0.49895000  0.30303000  0.45538000  1.0
  O  O69  1  0.50107000  0.69698000  0.54464000  1.0
  O  O70  1  0.13208000  0.66290000  0.57881000  1.0
  O  O71  1  0.86790000  0.33711000  0.42118000  1.0
  O  O72  1  0.01409000  0.48093000  0.63649000  1.0
  O  O73  1  0.98589000  0.51908000  0.36349000  1.0
  O  O74  1  0.27201000  0.96569000  0.53118000  1.0
  O  O75  1  0.72798000  0.03431000  0.46882000  1.0
  O  O76  1  0.46488000  0.16827000  0.61766000  1.0
  O  O77  1  0.53514000  0.83171000  0.38235000  1.0
