# generated using pymatgen
data_Cd3H40C22S6N4(Cl3O4)2
_symmetry_space_group_name_H-M   'P 1'
_cell_length_a   10.08130000
_cell_length_b   10.09990000
_cell_length_c   11.59470000
_cell_angle_alpha   67.72940000
_cell_angle_beta   73.52930000
_cell_angle_gamma   63.38160000
_symmetry_Int_Tables_number   1
_chemical_formula_structural   Cd3H40C22S6N4(Cl3O4)2
_chemical_formula_sum   'Cd3 H40 C22 S6 N4 Cl6 O8'
_cell_volume   967.44187890
_cell_formula_units_Z   1
loop_
 _symmetry_equiv_pos_site_id
 _symmetry_equiv_pos_as_xyz
  1  'x, y, z'
loop_
 _atom_site_type_symbol
 _atom_site_label
 _atom_site_symmetry_multiplicity
 _atom_site_fract_x
 _atom_site_fract_y
 _atom_site_fract_z
 _atom_site_occupancy
  Cd  Cd0  1  0.00000000  0.00000000  0.00000000  1.0
  Cd  Cd1  1  0.05793000  0.34555000  0.93096000  1.0
  Cd  Cd2  1  0.94207000  0.65445000  0.06904000  1.0
  H  H3  1  0.32526000  0.73854000  0.75893000  1.0
  H  H4  1  0.67474000  0.26147000  0.24107000  1.0
  H  H5  1  0.39226000  0.53964000  0.84561000  1.0
  H  H6  1  0.60774000  0.46036000  0.15439000  1.0
  H  H7  1  0.65717000  0.52931000  0.79324000  1.0
  H  H8  1  0.34282000  0.47069000  0.20677000  1.0
  H  H9  1  0.59136000  0.72878000  0.70482000  1.0
  H  H10  1  0.40864000  0.27122000  0.29518000  1.0
  H  H11  1  0.69546000  0.51821000  0.47756000  1.0
  H  H12  1  0.30454000  0.48179000  0.52244000  1.0
  H  H13  1  0.79912000  0.51471000  0.58151000  1.0
  H  H14  1  0.20087000  0.48529000  0.41850000  1.0
  H  H15  1  0.57709000  0.80909000  0.42390000  1.0
  H  H16  1  0.42291000  0.19091000  0.57610000  1.0
  H  H17  1  0.77154000  0.72379000  0.36591000  1.0
  H  H18  1  0.22846000  0.27621000  0.63409000  1.0
  H  H19  1  0.59636000  0.04215000  0.41946000  1.0
  H  H20  1  0.40364000  0.95785000  0.58054000  1.0
  H  H21  1  0.77833000  0.96030000  0.33656000  1.0
  H  H22  1  0.22167000  0.03969000  0.66344000  1.0
  H  H23  1  0.78108000  0.14872000  0.40911000  1.0
  H  H24  1  0.21892000  0.85128000  0.59089000  1.0
  H  H25  1  0.89903000  0.96223000  0.49397000  1.0
  H  H26  1  0.10097000  0.03777000  0.50603000  1.0
  H  H27  1  0.70123000  0.28526000  0.55533000  1.0
  H  H28  1  0.29877000  0.71474000  0.44467000  1.0
  H  H29  1  0.86248000  0.12526000  0.61941000  1.0
  H  H30  1  0.13752000  0.87474000  0.38059000  1.0
  H  H31  1  0.71188000  0.25420000  0.77575000  1.0
  H  H32  1  0.28813000  0.74579000  0.22425000  1.0
  H  H33  1  0.71341000  0.06535000  0.82642000  1.0
  H  H34  1  0.28659000  0.93465000  0.17358000  1.0
  H  H35  1  0.90378000  0.71865000  0.69964000  1.0
  H  H36  1  0.09623000  0.28135000  0.30036000  1.0
  H  H37  1  0.96789000  0.55092000  0.64945000  1.0
  H  H38  1  0.03212000  0.44908000  0.35054000  1.0
  H  H39  1  0.05135000  0.69082000  0.56975000  1.0
  H  H40  1  0.94865000  0.30918000  0.43024000  1.0
  H  H41  1  0.11453000  0.61644000  0.78476000  1.0
  H  H42  1  0.88548000  0.38356000  0.21523000  1.0
  C  C43  1  0.38201000  0.87173000  0.91058000  1.0
  C  C44  1  0.61798000  0.12828000  0.08942000  1.0
  C  C45  1  0.42069000  0.11016000  0.84345000  1.0
  C  C46  1  0.57932000  0.88984000  0.15655000  1.0
  C  C47  1  0.41445000  0.64606000  0.81327000  1.0
  C  C48  1  0.58555000  0.35395000  0.18673000  1.0
  C  C49  1  0.56843000  0.62255000  0.73732000  1.0
  C  C50  1  0.43156000  0.37745000  0.26269000  1.0
  C  C51  1  0.69530000  0.58063000  0.53736000  1.0
  C  C52  1  0.30470000  0.41937000  0.46264000  1.0
  C  C53  1  0.69035000  0.73874000  0.45180000  1.0
  C  C54  1  0.30965000  0.26126000  0.54820000  1.0
  C  C55  1  0.71514000  0.96737000  0.43070000  1.0
  C  C56  1  0.28486000  0.03263000  0.56930000  1.0
  C  C57  1  0.78133000  0.03876000  0.48067000  1.0
  C  C58  1  0.21868000  0.96123000  0.51933000  1.0
  C  C59  1  0.73931000  0.16945000  0.62460000  1.0
  C  C60  1  0.26069000  0.83055000  0.37540000  1.0
  C  C61  1  0.67347000  0.17940000  0.75667000  1.0
  C  C62  1  0.32653000  0.82060000  0.24333000  1.0
  C  C63  1  0.00221000  0.63298000  0.66147000  1.0
  C  C64  1  0.99779000  0.36702000  0.33852000  1.0
  S  S65  1  0.53523000  0.92336000  0.83837000  1.0
  S  S66  1  0.46477000  0.07664000  0.16164000  1.0
  S  S67  1  0.38728000  0.68460000  0.96048000  1.0
  S  S68  1  0.61271000  0.31540000  0.03952000  1.0
  S  S69  1  0.47061000  0.26841000  0.78442000  1.0
  S  S70  1  0.52939000  0.73159000  0.21558000  1.0
  N  N71  1  0.28149000  0.12399000  0.89737000  1.0
  N  N72  1  0.71851000  0.87601000  0.10263000  1.0
  N  N73  1  0.25993000  0.98987000  0.93313000  1.0
  N  N74  1  0.74006000  0.01013000  0.06687000  1.0
  Cl  Cl75  1  0.98648000  0.15250000  0.14845000  1.0
  Cl  Cl76  1  0.01352000  0.84751000  0.85155000  1.0
  Cl  Cl77  1  0.95675000  0.25347000  0.80554000  1.0
  Cl  Cl78  1  0.04325000  0.74653000  0.19446000  1.0
  Cl  Cl79  1  0.80396000  0.57407000  0.96686000  1.0
  Cl  Cl80  1  0.19604000  0.42593000  0.03314000  1.0
  O  O81  1  0.56713000  0.58258000  0.63137000  1.0
  O  O82  1  0.43287000  0.41742000  0.36863000  1.0
  O  O83  1  0.72774000  0.81619000  0.51154000  1.0
  O  O84  1  0.27226000  0.18381000  0.48846000  1.0
  O  O85  1  0.69851000  0.06780000  0.59692000  1.0
  O  O86  1  0.30150000  0.93220000  0.40308000  1.0
  O  O87  1  0.11299000  0.54474000  0.74721000  1.0
  O  O88  1  0.88702000  0.45526000  0.25278000  1.0
