# generated using pymatgen
data_CoHC4N4O3
_symmetry_space_group_name_H-M   'P 1'
_cell_length_a   6.98427000
_cell_length_b   15.02420000
_cell_length_c   15.02901678
_cell_angle_alpha   117.64288481
_cell_angle_beta   98.94906202
_cell_angle_gamma   98.81540000
_symmetry_Int_Tables_number   1
_chemical_formula_structural   CoHC4N4O3
_chemical_formula_sum   'Co6 H6 C24 N24 O18'
_cell_volume   1333.45049817
_cell_formula_units_Z   6
loop_
 _symmetry_equiv_pos_site_id
 _symmetry_equiv_pos_as_xyz
  1  'x, y, z'
loop_
 _atom_site_type_symbol
 _atom_site_label
 _atom_site_symmetry_multiplicity
 _atom_site_fract_x
 _atom_site_fract_y
 _atom_site_fract_z
 _atom_site_occupancy
  Co  Co0  1  0.38695000  0.42183000  0.68065000  1.0
  Co  Co1  1  0.70794000  0.32003000  0.74081000  1.0
  Co  Co2  1  0.96644000  0.26036000  0.58039000  1.0
  Co  Co3  1  0.61397000  0.58200000  0.32080000  1.0
  Co  Co4  1  0.29216000  0.67875000  0.26112000  1.0
  Co  Co5  1  0.03138000  0.73865000  0.41745000  1.0
  H  H6  1  0.15624000  0.47784000  0.02183000  1.0
  H  H7  1  0.13406000  0.97854000  0.45536000  1.0
  H  H8  1  0.67859000  0.54444000  0.52226000  1.0
  H  H9  1  0.84444000  0.52269000  0.97707000  1.0
  H  H10  1  0.86693000  0.02234000  0.54580000  1.0
  H  H11  1  0.32228000  0.45452000  0.47751000  1.0
  C  C12  1  0.53136000  0.46432000  0.89832000  1.0
  C  C13  1  0.63274000  0.10133000  0.56593000  1.0
  C  C14  1  0.06722000  0.43391000  0.53551000  1.0
  C  C15  1  0.46924000  0.53650000  0.10048000  1.0
  C  C16  1  0.36835000  0.89950000  0.43568000  1.0
  C  C17  1  0.93301000  0.56421000  0.46356000  1.0
  C  C18  1  0.33283000  0.45093000  0.91136000  1.0
  C  C19  1  0.42129000  0.08859000  0.53917000  1.0
  C  C20  1  0.88222000  0.46088000  0.54934000  1.0
  C  C21  1  0.66772000  0.54971000  0.08739000  1.0
  C  C22  1  0.57985000  0.91227000  0.46209000  1.0
  C  C23  1  0.11865000  0.53792000  0.45047000  1.0
  C  C24  1  0.30748000  0.48815000  0.01173000  1.0
  C  C25  1  0.29536000  0.98840000  0.47590000  1.0
  C  C26  1  0.81963000  0.52396000  0.51207000  1.0
  C  C27  1  0.69307000  0.51254000  0.98705000  1.0
  C  C28  1  0.70562000  0.01247000  0.52544000  1.0
  C  C29  1  0.18108000  0.47479000  0.48760000  1.0
  C  C30  1  0.15093000  0.39133000  0.82278000  1.0
  C  C31  1  0.32803000  0.17751000  0.56868000  1.0
  C  C32  1  0.75943000  0.43165000  0.60866000  1.0
  C  C33  1  0.85015000  0.60828000  0.17597000  1.0
  C  C34  1  0.67350000  0.82353000  0.43194000  1.0
  C  C35  1  0.24252000  0.56790000  0.39189000  1.0
  N  N36  1  0.36995000  0.56438000  0.75082000  1.0
  N  N37  1  0.62063000  0.24893000  0.81426000  1.0
  N  N38  1  0.80688000  0.18636000  0.43602000  1.0
  N  N39  1  0.62636000  0.43637000  0.24913000  1.0
  N  N40  1  0.37619000  0.75072000  0.18671000  1.0
  N  N41  1  0.18971000  0.81291000  0.56353000  1.0
  N  N42  1  0.37002000  0.64868000  0.78705000  1.0
  N  N43  1  0.58616000  0.21342000  0.86301000  1.0
  N  N44  1  0.72308000  0.13777000  0.35184000  1.0
  N  N45  1  0.62632000  0.35229000  0.21496000  1.0
  N  N46  1  0.41017000  0.78496000  0.13692000  1.0
  N  N47  1  0.27338000  0.86288000  0.64758000  1.0
  N  N48  1  0.00468000  0.36550000  0.11933000  1.0
  N  N49  1  0.88449000  0.88037000  0.24562000  1.0
  N  N50  1  0.63874000  0.75400000  0.63451000  1.0
  N  N51  1  0.99240000  0.63369000  0.88080000  1.0
  N  N52  1  0.11391000  0.11943000  0.75413000  1.0
  N  N53  1  0.35967000  0.24670000  0.36587000  1.0
  N  N54  1  0.12211000  0.32290000  0.11851000  1.0
  N  N55  1  0.00322000  0.88144000  0.20430000  1.0
  N  N56  1  0.79875000  0.79551000  0.67674000  1.0
  N  N57  1  0.87920000  0.67856000  0.88147000  1.0
  N  N58  1  0.99696000  0.11835000  0.79645000  1.0
  N  N59  1  0.20112000  0.20315000  0.32207000  1.0
  O  O60  1  0.57297000  0.43338000  0.80550000  1.0
  O  O61  1  0.76732000  0.19371000  0.62830000  1.0
  O  O62  1  0.13951000  0.37134000  0.56522000  1.0
  O  O63  1  0.42789000  0.56691000  0.19307000  1.0
  O  O64  1  0.23437000  0.80702000  0.37345000  1.0
  O  O65  1  0.86109000  0.62598000  0.43276000  1.0
  O  O66  1  0.17394000  0.35225000  0.73006000  1.0
  O  O67  1  0.44398000  0.27013000  0.62151000  1.0
  O  O68  1  0.82221000  0.37846000  0.64819000  1.0
  O  O69  1  0.82698000  0.64937000  0.26874000  1.0
  O  O70  1  0.55759000  0.73080000  0.38019000  1.0
  O  O71  1  0.17766000  0.61942000  0.35059000  1.0
  O  O72  1  0.98105000  0.37715000  0.84176000  1.0
  O  O73  1  0.13879000  0.15840000  0.53694000  1.0
  O  O74  1  0.60272000  0.46414000  0.62208000  1.0
  O  O75  1  0.02021000  0.61903000  0.15663000  1.0
  O  O76  1  0.86289000  0.84263000  0.46202000  1.0
  O  O77  1  0.40204000  0.53799000  0.38125000  1.0
