# generated using pymatgen
data_AgH8C15Br2N5O4
_symmetry_space_group_name_H-M   'P 1'
_cell_length_a   7.79758000
_cell_length_b   9.02735000
_cell_length_c   12.47190000
_cell_angle_alpha   101.46600000
_cell_angle_beta   100.06900000
_cell_angle_gamma   90.69540000
_symmetry_Int_Tables_number   1
_chemical_formula_structural   AgH8C15Br2N5O4
_chemical_formula_sum   'Ag2 H16 C30 Br4 N10 O8'
_cell_volume   846.14214253
_cell_formula_units_Z   2
loop_
 _symmetry_equiv_pos_site_id
 _symmetry_equiv_pos_as_xyz
  1  'x, y, z'
loop_
 _atom_site_type_symbol
 _atom_site_label
 _atom_site_symmetry_multiplicity
 _atom_site_fract_x
 _atom_site_fract_y
 _atom_site_fract_z
 _atom_site_occupancy
  Ag  Ag0  1  0.54897000  0.82261000  0.48817000  1.0
  Ag  Ag1  1  0.45102000  0.17739000  0.51183000  1.0
  H  H2  1  0.98069000  0.20825000  0.47234000  1.0
  H  H3  1  0.01931000  0.79175000  0.52766000  1.0
  H  H4  1  0.86299000  0.92966000  0.14156000  1.0
  H  H5  1  0.13701000  0.07034000  0.85844000  1.0
  H  H6  1  0.01985000  0.11879000  0.07108000  1.0
  H  H7  1  0.98015000  0.88121000  0.92892000  1.0
  H  H8  1  0.19684000  0.36099000  0.86384000  1.0
  H  H9  1  0.80316000  0.63901000  0.13616000  1.0
  H  H10  1  0.27316000  0.44080000  0.70029000  1.0
  H  H11  1  0.72685000  0.55919000  0.29971000  1.0
  H  H12  1  0.48117000  0.87010000  0.90780000  1.0
  H  H13  1  0.51883000  0.12990000  0.09220000  1.0
  H  H14  1  0.22249000  0.47816000  0.25021000  1.0
  H  H15  1  0.77750000  0.52184000  0.74979000  1.0
  H  H16  1  0.29150000  0.60215000  0.14860000  1.0
  H  H17  1  0.70849000  0.39785000  0.85140000  1.0
  C  C18  1  0.08024000  0.29186000  0.34386000  1.0
  C  C19  1  0.91976000  0.70814000  0.65614000  1.0
  C  C20  1  0.98873000  0.18951000  0.38447000  1.0
  C  C21  1  0.01127000  0.81050000  0.61554000  1.0
  C  C22  1  0.90639000  0.05921000  0.31107000  1.0
  C  C23  1  0.09361000  0.94080000  0.68893000  1.0
  C  C24  1  0.80893000  0.95876000  0.35358000  1.0
  C  C25  1  0.19106000  0.04124000  0.64642000  1.0
  C  C26  1  0.92071000  0.03276000  0.19817000  1.0
  C  C27  1  0.07929000  0.96725000  0.80183000  1.0
  C  C28  1  0.01047000  0.13746000  0.15849000  1.0
  C  C29  1  0.98953000  0.86254000  0.84151000  1.0
  C  C30  1  0.09020000  0.27169000  0.22915000  1.0
  C  C31  1  0.90980000  0.72831000  0.77085000  1.0
  C  C32  1  0.18578000  0.38593000  0.08253000  1.0
  C  C33  1  0.81423000  0.61407000  0.91747000  1.0
  C  C34  1  0.29599000  0.56599000  0.98030000  1.0
  C  C35  1  0.70401000  0.43401000  0.01970000  1.0
  C  C36  1  0.26076000  0.47126000  0.87326000  1.0
  C  C37  1  0.73924000  0.52874000  0.12674000  1.0
  C  C38  1  0.30322000  0.51715000  0.78119000  1.0
  C  C39  1  0.69678000  0.48285000  0.21880000  1.0
  C  C40  1  0.38452000  0.66095000  0.79260000  1.0
  C  C41  1  0.61549000  0.33904000  0.20740000  1.0
  C  C42  1  0.43100000  0.71297000  0.70147000  1.0
  C  C43  1  0.56900000  0.28703000  0.29853000  1.0
  C  C44  1  0.41933000  0.75827000  0.89791000  1.0
  C  C45  1  0.58067000  0.24172000  0.10208000  1.0
  C  C46  1  0.37392000  0.71198000  0.98879000  1.0
  C  C47  1  0.62608000  0.28802000  0.01121000  1.0
  Br  Br48  1  0.19904000  0.46013000  0.44871000  1.0
  Br  Br49  1  0.80096000  0.53987000  0.55129000  1.0
  Br  Br50  1  0.41965000  0.85248000  0.12701000  1.0
  Br  Br51  1  0.58036000  0.14752000  0.87299000  1.0
  N  N52  1  0.72470000  0.88206000  0.39144000  1.0
  N  N53  1  0.27529000  0.11794000  0.60856000  1.0
  N  N54  1  0.17462000  0.38214000  0.19206000  1.0
  N  N55  1  0.82538000  0.61787000  0.80793000  1.0
  N  N56  1  0.25965000  0.52375000  0.07481000  1.0
  N  N57  1  0.74034000  0.47625000  0.92519000  1.0
  N  N58  1  0.47196000  0.76034000  0.62859000  1.0
  N  N59  1  0.52805000  0.23965000  0.37141000  1.0
  N  N60  1  0.20517000  0.75536000  0.32717000  1.0
  N  N61  1  0.79483000  0.24463000  0.67283000  1.0
  O  O62  1  0.13748000  0.28047000  0.00280000  1.0
  O  O63  1  0.86252000  0.71952000  0.99720000  1.0
  O  O64  1  0.22808000  0.86548000  0.40978000  1.0
  O  O65  1  0.77192000  0.13452000  0.59022000  1.0
  O  O66  1  0.06008000  0.72191000  0.26558000  1.0
  O  O67  1  0.93992000  0.27809000  0.73442000  1.0
  O  O68  1  0.33686000  0.67486000  0.30773000  1.0
  O  O69  1  0.66314000  0.32514000  0.69226000  1.0
