# generated using pymatgen
data_Mn3H24C42N6O13
_symmetry_space_group_name_H-M   'P 1'
_cell_length_a   15.53400000
_cell_length_b   16.75850000
_cell_length_c   16.75860000
_cell_angle_alpha   120.00059217
_cell_angle_beta   90.00030000
_cell_angle_gamma   89.99970000
_symmetry_Int_Tables_number   1
_chemical_formula_structural   Mn3H24C42N6O13
_chemical_formula_sum   'Mn6 H48 C84 N12 O26'
_cell_volume   3778.19370356
_cell_formula_units_Z   2
loop_
 _symmetry_equiv_pos_site_id
 _symmetry_equiv_pos_as_xyz
  1  'x, y, z'
loop_
 _atom_site_type_symbol
 _atom_site_label
 _atom_site_symmetry_multiplicity
 _atom_site_fract_x
 _atom_site_fract_y
 _atom_site_fract_z
 _atom_site_occupancy
  Mn  Mn0  1  0.75000000  0.26734000  0.73261000  1.0
  Mn  Mn1  1  0.75000000  0.46528000  0.73257000  1.0
  Mn  Mn2  1  0.74998000  0.26738000  0.53473000  1.0
  Mn  Mn3  1  0.25000000  0.73268000  0.26743000  1.0
  Mn  Mn4  1  0.24998000  0.53473000  0.26741000  1.0
  Mn  Mn5  1  0.24999000  0.73271000  0.46537000  1.0
  H  H6  1  0.55493000  0.06398000  0.66000000  1.0
  H  H7  1  0.55490000  0.59600000  0.93602000  1.0
  H  H8  1  0.55492000  0.34006000  0.40404000  1.0
  H  H9  1  0.05489000  0.93601000  0.34005000  1.0
  H  H10  1  0.05489000  0.40398000  0.06396000  1.0
  H  H11  1  0.05490000  0.66000000  0.59600000  1.0
  H  H12  1  0.44512000  0.93601000  0.59602000  1.0
  H  H13  1  0.44511000  0.40402000  0.34004000  1.0
  H  H14  1  0.44509000  0.65996000  0.06398000  1.0
  H  H15  1  0.94508000  0.06398000  0.40403000  1.0
  H  H16  1  0.94509000  0.59603000  0.66000000  1.0
  H  H17  1  0.94508000  0.34002000  0.93599000  1.0
  H  H18  1  0.44511000  0.93600000  0.34004000  1.0
  H  H19  1  0.44511000  0.40398000  0.06396000  1.0
  H  H20  1  0.44510000  0.66001000  0.59601000  1.0
  H  H21  1  0.94508000  0.06398000  0.66000000  1.0
  H  H22  1  0.94510000  0.59601000  0.93603000  1.0
  H  H23  1  0.94508000  0.34005000  0.40404000  1.0
  H  H24  1  0.55492000  0.06398000  0.40403000  1.0
  H  H25  1  0.55491000  0.59604000  0.66000000  1.0
  H  H26  1  0.55493000  0.34002000  0.93600000  1.0
  H  H27  1  0.05488000  0.93601000  0.59602000  1.0
  H  H28  1  0.05489000  0.40402000  0.34004000  1.0
  H  H29  1  0.05491000  0.65996000  0.06398000  1.0
  H  H30  1  0.75000000  0.31292000  0.93349000  1.0
  H  H31  1  0.75000000  0.62057000  0.68705000  1.0
  H  H32  1  0.75000000  0.06651000  0.37943000  1.0
  H  H33  1  0.25000000  0.68706000  0.06647000  1.0
  H  H34  1  0.25000000  0.37938000  0.31290000  1.0
  H  H35  1  0.25000000  0.93349000  0.62057000  1.0
  H  H36  1  0.25000000  0.68706000  0.62058000  1.0
  H  H37  1  0.25000000  0.37940000  0.06647000  1.0
  H  H38  1  0.25000000  0.93350000  0.31291000  1.0
  H  H39  1  0.75000000  0.31293000  0.37941000  1.0
  H  H40  1  0.75000000  0.62057000  0.93349000  1.0
  H  H41  1  0.75000000  0.06650000  0.68705000  1.0
  H  H42  1  0.75000000  0.23164000  0.02561000  1.0
  H  H43  1  0.75000000  0.79397000  0.76832000  1.0
  H  H44  1  0.75000000  0.97437000  0.20603000  1.0
  H  H45  1  0.25000000  0.76833000  0.97434000  1.0
  H  H46  1  0.25000000  0.20598000  0.23162000  1.0
  H  H47  1  0.25000000  0.02562000  0.79396000  1.0
  H  H48  1  0.25000000  0.76834000  0.79397000  1.0
  H  H49  1  0.25000000  0.20600000  0.97435000  1.0
  H  H50  1  0.25000000  0.02562000  0.23163000  1.0
  H  H51  1  0.75000000  0.23165000  0.20601000  1.0
  H  H52  1  0.75000000  0.79397000  0.02562000  1.0
  H  H53  1  0.75000000  0.97436000  0.76831000  1.0
  C  C54  1  0.62846000  0.14475000  0.57239000  1.0
  C  C55  1  0.62848000  0.42764000  0.85525000  1.0
  C  C56  1  0.62846000  0.42766000  0.57237000  1.0
  C  C57  1  0.12845000  0.85527000  0.42767000  1.0
  C  C58  1  0.12847000  0.57236000  0.14473000  1.0
  C  C59  1  0.12846000  0.57239000  0.42766000  1.0
  C  C60  1  0.37155000  0.85526000  0.42765000  1.0
  C  C61  1  0.37154000  0.57239000  0.42766000  1.0
  C  C62  1  0.37153000  0.57236000  0.14473000  1.0
  C  C63  1  0.87154000  0.14475000  0.57238000  1.0
  C  C64  1  0.87154000  0.42765000  0.57238000  1.0
  C  C65  1  0.87153000  0.42764000  0.85525000  1.0
  C  C66  1  0.56132000  0.07060000  0.53533000  1.0
  C  C67  1  0.56131000  0.46470000  0.92939000  1.0
  C  C68  1  0.56132000  0.46474000  0.53532000  1.0
  C  C69  1  0.06129000  0.92940000  0.46473000  1.0
  C  C70  1  0.06130000  0.53528000  0.07059000  1.0
  C  C71  1  0.06130000  0.53532000  0.46472000  1.0
  C  C72  1  0.43872000  0.92940000  0.46473000  1.0
  C  C73  1  0.43870000  0.53532000  0.46472000  1.0
  C  C74  1  0.43870000  0.53528000  0.07059000  1.0
  C  C75  1  0.93868000  0.07060000  0.53532000  1.0
  C  C76  1  0.93868000  0.46473000  0.53532000  1.0
  C  C77  1  0.93869000  0.46471000  0.92939000  1.0
  C  C78  1  0.53043000  0.03516000  0.59000000  1.0
  C  C79  1  0.53041000  0.55481000  0.96482000  1.0
  C  C80  1  0.53042000  0.41005000  0.44521000  1.0
  C  C81  1  0.03040000  0.96483000  0.41005000  1.0
  C  C82  1  0.03040000  0.44517000  0.03515000  1.0
  C  C83  1  0.03041000  0.59001000  0.55484000  1.0
  C  C84  1  0.46961000  0.96483000  0.55484000  1.0
  C  C85  1  0.46960000  0.44521000  0.41004000  1.0
  C  C86  1  0.46959000  0.58997000  0.03516000  1.0
  C  C87  1  0.96958000  0.03516000  0.44521000  1.0
  C  C88  1  0.96958000  0.55485000  0.59000000  1.0
  C  C89  1  0.96958000  0.41002000  0.96482000  1.0
  C  C90  1  0.46961000  0.96483000  0.41005000  1.0
  C  C91  1  0.46961000  0.44517000  0.03515000  1.0
  C  C92  1  0.46960000  0.59001000  0.55484000  1.0
  C  C93  1  0.96957000  0.03516000  0.59000000  1.0
  C  C94  1  0.96958000  0.55481000  0.96482000  1.0
  C  C95  1  0.96958000  0.41006000  0.44522000  1.0
  C  C96  1  0.53042000  0.03516000  0.44521000  1.0
  C  C97  1  0.53042000  0.55485000  0.59000000  1.0
  C  C98  1  0.53042000  0.41002000  0.96482000  1.0
  C  C99  1  0.03039000  0.96483000  0.55484000  1.0
  C  C100  1  0.03040000  0.44521000  0.41004000  1.0
  C  C101  1  0.03041000  0.58997000  0.03516000  1.0
  C  C102  1  0.75000000  0.23805000  0.90015000  1.0
  C  C103  1  0.75000000  0.66211000  0.76193000  1.0
  C  C104  1  0.75000000  0.09984000  0.33788000  1.0
  C  C105  1  0.25000000  0.76193000  0.09981000  1.0
  C  C106  1  0.25000000  0.33785000  0.23802000  1.0
  C  C107  1  0.25000000  0.90015000  0.66211000  1.0
  C  C108  1  0.25000000  0.76193000  0.66211000  1.0
  C  C109  1  0.25000000  0.33786000  0.09981000  1.0
  C  C110  1  0.25000000  0.90015000  0.23802000  1.0
  C  C111  1  0.75000000  0.23806000  0.33788000  1.0
  C  C112  1  0.75000000  0.66211000  0.90015000  1.0
  C  C113  1  0.75000000  0.09984000  0.76193000  1.0
  C  C114  1  0.75000000  0.19284000  0.95065000  1.0
  C  C115  1  0.75000000  0.75781000  0.80713000  1.0
  C  C116  1  0.75000000  0.04933000  0.24218000  1.0
  C  C117  1  0.25000000  0.80713000  0.04929000  1.0
  C  C118  1  0.25000000  0.24215000  0.19284000  1.0
  C  C119  1  0.25000000  0.95066000  0.75780000  1.0
  C  C120  1  0.25000000  0.80713000  0.75781000  1.0
  C  C121  1  0.25000000  0.24215000  0.04929000  1.0
  C  C122  1  0.25000000  0.95067000  0.19284000  1.0
  C  C123  1  0.75000000  0.19286000  0.24217000  1.0
  C  C124  1  0.75000000  0.75781000  0.95066000  1.0
  C  C125  1  0.75000000  0.04932000  0.80712000  1.0
  C  C126  1  0.75000000  0.09620000  0.90377000  1.0
  C  C127  1  0.75000000  0.80757000  0.90377000  1.0
  C  C128  1  0.75000000  0.09620000  0.19240000  1.0
  C  C129  1  0.25000000  0.90377000  0.09618000  1.0
  C  C130  1  0.25000000  0.19239000  0.09618000  1.0
  C  C131  1  0.25000000  0.90379000  0.80758000  1.0
  C  C132  1  0.75000000  0.04523000  0.95474000  1.0
  C  C133  1  0.75000000  0.90951000  0.95475000  1.0
  C  C134  1  0.75000000  0.04523000  0.09047000  1.0
  C  C135  1  0.25000000  0.95474000  0.04522000  1.0
  C  C136  1  0.25000000  0.09047000  0.04522000  1.0
  C  C137  1  0.25000000  0.95475000  0.90950000  1.0
  N  N138  1  0.74999000  0.19251000  0.80746000  1.0
  N  N139  1  0.75000000  0.61495000  0.80745000  1.0
  N  N140  1  0.75000000  0.19254000  0.38505000  1.0
  N  N141  1  0.25000000  0.80747000  0.19250000  1.0
  N  N142  1  0.25000000  0.38501000  0.19250000  1.0
  N  N143  1  0.25000000  0.80748000  0.61497000  1.0
  N  N144  1  0.75000000  0.09482000  0.04739000  1.0
  N  N145  1  0.75000000  0.95258000  0.90516000  1.0
  N  N146  1  0.75000000  0.95259000  0.04740000  1.0
  N  N147  1  0.25001000  0.90516000  0.95257000  1.0
  N  N148  1  0.24999000  0.04740000  0.09481000  1.0
  N  N149  1  0.25001000  0.04740000  0.95257000  1.0
  O  O150  1  0.75000000  0.33333333  0.66666667  1.0
  O  O151  1  0.25000000  0.66666667  0.33338667  1.0
  O  O152  1  0.65491000  0.17296000  0.65410000  1.0
  O  O153  1  0.65494000  0.48116000  0.82706000  1.0
  O  O154  1  0.65492000  0.34595000  0.51886000  1.0
  O  O155  1  0.15490000  0.82708000  0.34596000  1.0
  O  O156  1  0.15493000  0.51883000  0.17292000  1.0
  O  O157  1  0.15492000  0.65408000  0.48115000  1.0
  O  O158  1  0.34508000  0.82707000  0.48117000  1.0
  O  O159  1  0.34508000  0.51885000  0.34593000  1.0
  O  O160  1  0.34509000  0.65406000  0.17294000  1.0
  O  O161  1  0.84508000  0.17295000  0.51888000  1.0
  O  O162  1  0.84508000  0.48117000  0.65410000  1.0
  O  O163  1  0.84506000  0.34593000  0.82705000  1.0
  O  O164  1  0.34510000  0.82707000  0.34596000  1.0
  O  O165  1  0.34507000  0.51883000  0.17292000  1.0
  O  O166  1  0.34507000  0.65409000  0.48116000  1.0
  O  O167  1  0.84509000  0.17297000  0.65411000  1.0
  O  O168  1  0.84507000  0.48115000  0.82704000  1.0
  O  O169  1  0.84509000  0.34595000  0.51888000  1.0
  O  O170  1  0.65490000  0.17295000  0.51887000  1.0
  O  O171  1  0.65492000  0.48117000  0.65410000  1.0
  O  O172  1  0.65494000  0.34593000  0.82704000  1.0
  O  O173  1  0.15491000  0.82707000  0.48117000  1.0
  O  O174  1  0.15492000  0.51885000  0.34594000  1.0
  O  O175  1  0.15492000  0.65406000  0.17294000  1.0
