# generated using pymatgen
data_MgH7C5O7
_symmetry_space_group_name_H-M   'P 1'
_cell_length_a   5.92980000
_cell_length_b   7.31637000
_cell_length_c   8.98753000
_cell_angle_alpha   105.39400000
_cell_angle_beta   105.63900000
_cell_angle_gamma   97.20900000
_symmetry_Int_Tables_number   1
_chemical_formula_structural   MgH7C5O7
_chemical_formula_sum   'Mg2 H14 C10 O14'
_cell_volume   353.76666359
_cell_formula_units_Z   2
loop_
 _symmetry_equiv_pos_site_id
 _symmetry_equiv_pos_as_xyz
  1  'x, y, z'
loop_
 _atom_site_type_symbol
 _atom_site_label
 _atom_site_symmetry_multiplicity
 _atom_site_fract_x
 _atom_site_fract_y
 _atom_site_fract_z
 _atom_site_occupancy
  Mg  Mg0  1  0.00657000  0.82271000  0.68947000  1.0
  Mg  Mg1  1  0.99343000  0.17729000  0.31053000  1.0
  H  H2  1  0.22413000  0.96449000  0.04532000  1.0
  H  H3  1  0.77587000  0.03550000  0.95468000  1.0
  H  H4  1  0.34826000  0.05404000  0.94107000  1.0
  H  H5  1  0.65174000  0.94596000  0.05893000  1.0
  H  H6  1  0.26657000  0.71187000  0.50820000  1.0
  H  H7  1  0.73343000  0.28813000  0.49180000  1.0
  H  H8  1  0.26984000  0.56194000  0.60806000  1.0
  H  H9  1  0.73016000  0.43806000  0.39194000  1.0
  H  H10  1  0.70317000  0.07347000  0.70901000  1.0
  H  H11  1  0.29684000  0.92653000  0.29099000  1.0
  H  H12  1  0.56981000  0.86302000  0.70369000  1.0
  H  H13  1  0.43019000  0.13698000  0.29631000  1.0
  H  H14  1  0.08881000  0.31222000  0.93502000  1.0
  H  H15  1  0.91119000  0.68778000  0.06498000  1.0
  C  C16  1  0.24331000  0.23811000  0.67346000  1.0
  C  C17  1  0.75669000  0.76189000  0.32654000  1.0
  C  C18  1  0.37970000  0.37235000  0.84208000  1.0
  C  C19  1  0.62030000  0.62765000  0.15792000  1.0
  C  C20  1  0.26987000  0.39375000  0.96320000  1.0
  C  C21  1  0.73014000  0.60626000  0.03681000  1.0
  C  C22  1  0.61347000  0.47844000  0.88009000  1.0
  C  C23  1  0.38653000  0.52156000  0.11991000  1.0
  C  C24  1  0.74266000  0.45140000  0.75603000  1.0
  C  C25  1  0.25734000  0.54860000  0.24397000  1.0
  O  O26  1  0.17087000  0.06387000  0.66027000  1.0
  O  O27  1  0.82913000  0.93613000  0.33973000  1.0
  O  O28  1  0.20880000  0.31042000  0.55649000  1.0
  O  O29  1  0.79120000  0.68958000  0.44350000  1.0
  O  O30  1  0.86745000  0.59956000  0.74931000  1.0
  O  O31  1  0.13255000  0.40044000  0.25069000  1.0
  O  O32  1  0.72072000  0.27858000  0.66539000  1.0
  O  O33  1  0.27928000  0.72143000  0.33461000  1.0
  O  O34  1  0.23875000  0.93829000  0.93386000  1.0
  O  O35  1  0.76124000  0.06171000  0.06614000  1.0
  O  O36  1  0.28520000  0.70386000  0.62188000  1.0
  O  O37  1  0.71480000  0.29614000  0.37812000  1.0
  O  O38  1  0.72781000  0.95705000  0.74605000  1.0
  O  O39  1  0.27219000  0.04295000  0.25395000  1.0
