# generated using pymatgen
data_NiH24C32(NO5)2
_symmetry_space_group_name_H-M   'P 1'
_cell_length_a   10.35000000
_cell_length_b   10.35000000
_cell_length_c   14.16840000
_cell_angle_alpha   87.94300000
_cell_angle_beta   87.94300000
_cell_angle_gamma   73.03000000
_symmetry_Int_Tables_number   1
_chemical_formula_structural   NiH24C32(NO5)2
_chemical_formula_sum   'Ni2 H48 C64 N4 O20'
_cell_volume   1450.21948240
_cell_formula_units_Z   2
loop_
 _symmetry_equiv_pos_site_id
 _symmetry_equiv_pos_as_xyz
  1  'x, y, z'
loop_
 _atom_site_type_symbol
 _atom_site_label
 _atom_site_symmetry_multiplicity
 _atom_site_fract_x
 _atom_site_fract_y
 _atom_site_fract_z
 _atom_site_occupancy
  Ni  Ni0  1  0.50000000  0.00000000  0.00000000  1.0
  Ni  Ni1  1  0.00000000  0.50000000  0.50000000  1.0
  H  H2  1  0.78458000  0.58075000  0.82914000  1.0
  H  H3  1  0.41926000  0.21542000  0.67087000  1.0
  H  H4  1  0.21542000  0.41926000  0.17087000  1.0
  H  H5  1  0.58074000  0.78458000  0.32914000  1.0
  H  H6  1  0.99734000  0.39323000  0.82927000  1.0
  H  H7  1  0.60678000  0.00265000  0.67073000  1.0
  H  H8  1  0.00266000  0.60678000  0.17073000  1.0
  H  H9  1  0.39322000  0.99735000  0.32927000  1.0
  H  H10  1  0.19759000  0.64940000  0.95723000  1.0
  H  H11  1  0.35060000  0.80241000  0.54277000  1.0
  H  H12  1  0.80241000  0.35060000  0.04277000  1.0
  H  H13  1  0.64940000  0.19759000  0.45723000  1.0
  H  H14  1  0.86487000  0.00120000  0.85873000  1.0
  H  H15  1  0.99879000  0.13514000  0.64127000  1.0
  H  H16  1  0.13514000  0.99879000  0.14128000  1.0
  H  H17  1  0.00121000  0.86487000  0.35872000  1.0
  H  H18  1  0.11853000  0.78502000  0.08242000  1.0
  H  H19  1  0.21499000  0.88147000  0.41759000  1.0
  H  H20  1  0.88147000  0.21498000  0.91759000  1.0
  H  H21  1  0.78502000  0.11853000  0.58241000  1.0
  H  H22  1  0.52960000  0.71029000  0.95079000  1.0
  H  H23  1  0.28971000  0.47040000  0.54920000  1.0
  H  H24  1  0.47041000  0.28971000  0.04920000  1.0
  H  H25  1  0.71028000  0.52960000  0.45080000  1.0
  H  H26  1  0.43389000  0.59233000  0.83369000  1.0
  H  H27  1  0.40767000  0.56611000  0.66630000  1.0
  H  H28  1  0.56611000  0.40767000  0.16630000  1.0
  H  H29  1  0.59233000  0.43389000  0.33370000  1.0
  H  H30  1  0.15185000  0.97940000  0.76165000  1.0
  H  H31  1  0.02060000  0.84815000  0.73834000  1.0
  H  H32  1  0.84815000  0.02060000  0.23835000  1.0
  H  H33  1  0.97940000  0.15185000  0.26165000  1.0
  H  H34  1  0.26132000  0.08109000  0.87992000  1.0
  H  H35  1  0.91890000  0.73867000  0.62008000  1.0
  H  H36  1  0.73867000  0.91890000  0.12008000  1.0
  H  H37  1  0.08109000  0.26133000  0.37992000  1.0
  H  H38  1  0.20282000  0.31189000  0.77854000  1.0
  H  H39  1  0.68812000  0.79717000  0.72147000  1.0
  H  H40  1  0.79718000  0.68812000  0.22146000  1.0
  H  H41  1  0.31188000  0.20282000  0.27853000  1.0
  H  H42  1  0.44479000  0.17976000  0.85709000  1.0
  H  H43  1  0.82024000  0.55521000  0.64291000  1.0
  H  H44  1  0.55521000  0.82024000  0.14291000  1.0
  H  H45  1  0.17976000  0.44479000  0.35709000  1.0
  H  H46  1  0.56890000  0.04598000  0.83717000  1.0
  H  H47  1  0.95402000  0.43110000  0.66283000  1.0
  H  H48  1  0.43110000  0.95402000  0.16282000  1.0
  H  H49  1  0.04598000  0.56891000  0.33718000  1.0
  C  C50  1  0.73725000  0.83121000  0.89051000  1.0
  C  C51  1  0.16879000  0.26275000  0.60949000  1.0
  C  C52  1  0.26276000  0.16879000  0.10949000  1.0
  C  C53  1  0.83121000  0.73725000  0.39051000  1.0
  C  C54  1  0.87075000  0.72307000  0.89046000  1.0
  C  C55  1  0.27693000  0.12925000  0.60954000  1.0
  C  C56  1  0.12925000  0.27693000  0.10955000  1.0
  C  C57  1  0.72307000  0.87075000  0.39045000  1.0
  C  C58  1  0.87620000  0.59663000  0.85571000  1.0
  C  C59  1  0.40337000  0.12380000  0.64430000  1.0
  C  C60  1  0.12380000  0.40338000  0.14429000  1.0
  C  C61  1  0.59662000  0.87620000  0.35571000  1.0
  C  C62  1  0.99573000  0.49094000  0.85609000  1.0
  C  C63  1  0.50906000  0.00426000  0.64391000  1.0
  C  C64  1  0.00427000  0.50906000  0.14391000  1.0
  C  C65  1  0.49094000  0.99574000  0.35609000  1.0
  C  C66  1  0.11249000  0.51153000  0.89164000  1.0
  C  C67  1  0.48847000  0.88751000  0.60836000  1.0
  C  C68  1  0.88751000  0.48847000  0.10836000  1.0
  C  C69  1  0.51153000  0.11249000  0.39164000  1.0
  C  C70  1  0.10538000  0.63622000  0.92990000  1.0
  C  C71  1  0.36378000  0.89462000  0.57010000  1.0
  C  C72  1  0.89462000  0.36378000  0.07010000  1.0
  C  C73  1  0.63622000  0.10538000  0.42990000  1.0
  C  C74  1  0.98659000  0.74424000  0.92951000  1.0
  C  C75  1  0.25577000  0.01341000  0.57049000  1.0
  C  C76  1  0.01341000  0.25577000  0.07050000  1.0
  C  C77  1  0.74424000  0.98659000  0.42950000  1.0
  C  C78  1  0.98997000  0.87544000  0.96619000  1.0
  C  C79  1  0.12457000  0.01003000  0.53382000  1.0
  C  C80  1  0.01003000  0.12456000  0.03383000  1.0
  C  C81  1  0.87544000  0.98997000  0.46618000  1.0
  C  C82  1  0.92352000  0.99932000  0.92144000  1.0
  C  C83  1  0.00068000  0.07647000  0.57856000  1.0
  C  C84  1  0.07648000  0.00068000  0.07857000  1.0
  C  C85  1  0.99932000  0.92353000  0.42143000  1.0
  C  C86  1  0.06666000  0.87911000  0.04542000  1.0
  C  C87  1  0.12089000  0.93334000  0.45458000  1.0
  C  C88  1  0.93334000  0.12089000  0.95459000  1.0
  C  C89  1  0.87911000  0.06666000  0.54541000  1.0
  C  C90  1  0.24757000  0.40838000  0.89067000  1.0
  C  C91  1  0.59162000  0.75242000  0.60933000  1.0
  C  C92  1  0.75242000  0.59162000  0.10933000  1.0
  C  C93  1  0.40838000  0.24758000  0.39067000  1.0
  C  C94  1  0.44829000  0.76651000  0.90527000  1.0
  C  C95  1  0.23348000  0.55171000  0.59472000  1.0
  C  C96  1  0.55171000  0.23349000  0.09472000  1.0
  C  C97  1  0.76651000  0.44829000  0.40527000  1.0
  C  C98  1  0.39434000  0.70161000  0.83949000  1.0
  C  C99  1  0.29839000  0.60566000  0.66050000  1.0
  C  C100  1  0.60566000  0.29839000  0.16050000  1.0
  C  C101  1  0.70161000  0.39434000  0.33949000  1.0
  C  C102  1  0.28584000  0.77675000  0.78511000  1.0
  C  C103  1  0.22326000  0.71416000  0.71488000  1.0
  C  C104  1  0.71416000  0.22326000  0.21488000  1.0
  C  C105  1  0.77674000  0.28584000  0.28512000  1.0
  C  C106  1  0.23594000  0.91545000  0.80130000  1.0
  C  C107  1  0.08455000  0.76406000  0.69870000  1.0
  C  C108  1  0.76406000  0.08455000  0.19870000  1.0
  C  C109  1  0.91545000  0.23594000  0.30130000  1.0
  C  C110  1  0.29692000  0.97342000  0.86668000  1.0
  C  C111  1  0.02658000  0.70308000  0.63332000  1.0
  C  C112  1  0.70308000  0.02658000  0.13332000  1.0
  C  C113  1  0.97342000  0.29692000  0.36668000  1.0
  N  N114  1  0.40245000  0.90092000  0.91733000  1.0
  N  N115  1  0.09908000  0.59755000  0.58266000  1.0
  N  N116  1  0.59755000  0.09908000  0.08266000  1.0
  N  N117  1  0.90092000  0.40245000  0.41734000  1.0
  O  O118  1  0.68439000  0.86518000  0.97103000  1.0
  O  O119  1  0.13482000  0.31561000  0.52897000  1.0
  O  O120  1  0.31561000  0.13482000  0.02897000  1.0
  O  O121  1  0.86518000  0.68439000  0.47103000  1.0
  O  O122  1  0.68581000  0.88102000  0.81155000  1.0
  O  O123  1  0.11898000  0.31419000  0.68845000  1.0
  O  O124  1  0.31419000  0.11897000  0.18845000  1.0
  O  O125  1  0.88103000  0.68582000  0.31155000  1.0
  O  O126  1  0.33867000  0.41620000  0.94125000  1.0
  O  O127  1  0.58381000  0.66134000  0.55874000  1.0
  O  O128  1  0.66134000  0.58380000  0.05875000  1.0
  O  O129  1  0.41619000  0.33866000  0.44126000  1.0
  O  O130  1  0.27070000  0.30479000  0.83093000  1.0
  O  O131  1  0.69521000  0.72930000  0.66907000  1.0
  O  O132  1  0.72931000  0.69521000  0.16907000  1.0
  O  O133  1  0.30479000  0.27069000  0.33093000  1.0
  O  O134  1  0.53008000  0.12018000  0.88153000  1.0
  O  O135  1  0.87982000  0.46992000  0.61847000  1.0
  O  O136  1  0.46992000  0.87982000  0.11847000  1.0
  O  O137  1  0.12018000  0.53008000  0.38153000  1.0
