# generated using pymatgen
data_Cd3H12(C7N5)2
_symmetry_space_group_name_H-M   'P 1'
_cell_length_a   12.87200000
_cell_length_b   14.68080000
_cell_length_c   15.05390000
_cell_angle_alpha   90.00000000
_cell_angle_beta   89.99980000
_cell_angle_gamma   89.99910000
_symmetry_Int_Tables_number   1
_chemical_formula_structural   Cd3H12(C7N5)2
_chemical_formula_sum   'Cd12 H48 C56 N40'
_cell_volume   2844.75441442
_cell_formula_units_Z   4
loop_
 _symmetry_equiv_pos_site_id
 _symmetry_equiv_pos_as_xyz
  1  'x, y, z'
loop_
 _atom_site_type_symbol
 _atom_site_label
 _atom_site_symmetry_multiplicity
 _atom_site_fract_x
 _atom_site_fract_y
 _atom_site_fract_z
 _atom_site_occupancy
  Cd  Cd0  1  0.00000000  0.75000000  0.65808000  1.0
  Cd  Cd1  1  0.50000000  0.75000000  0.15808000  1.0
  Cd  Cd2  1  0.00000000  0.25000000  0.34192000  1.0
  Cd  Cd3  1  0.50000000  0.25000000  0.84192000  1.0
  Cd  Cd4  1  0.23807000  0.06260000  0.59444000  1.0
  Cd  Cd5  1  0.73807000  0.43739000  0.09444000  1.0
  Cd  Cd6  1  0.23806000  0.56260000  0.40556000  1.0
  Cd  Cd7  1  0.26193000  0.06260000  0.09444000  1.0
  Cd  Cd8  1  0.76193000  0.93740000  0.40556000  1.0
  Cd  Cd9  1  0.26193000  0.56261000  0.90556000  1.0
  Cd  Cd10  1  0.76193000  0.43740000  0.59444000  1.0
  Cd  Cd11  1  0.73807000  0.93740000  0.90556000  1.0
  H  H12  1  0.45843000  0.94637000  0.31592000  1.0
  H  H13  1  0.95843000  0.55363000  0.81592000  1.0
  H  H14  1  0.45844000  0.44637000  0.68408000  1.0
  H  H15  1  0.04157000  0.94637000  0.81592000  1.0
  H  H16  1  0.54156000  0.05363000  0.68408000  1.0
  H  H17  1  0.04157000  0.44637000  0.18408000  1.0
  H  H18  1  0.54156000  0.55363000  0.31592000  1.0
  H  H19  1  0.95843000  0.05363000  0.18408000  1.0
  H  H20  1  0.28525000  0.84552000  0.53143000  1.0
  H  H21  1  0.78525000  0.65448000  0.03144000  1.0
  H  H22  1  0.28526000  0.34553000  0.46857000  1.0
  H  H23  1  0.21474000  0.84552000  0.03144000  1.0
  H  H24  1  0.71475000  0.15448000  0.46857000  1.0
  H  H25  1  0.21475000  0.34552000  0.96856000  1.0
  H  H26  1  0.71474000  0.65448000  0.53143000  1.0
  H  H27  1  0.78525000  0.15448000  0.96856000  1.0
  H  H28  1  0.39283000  0.79782000  0.37705000  1.0
  H  H29  1  0.89283000  0.70218000  0.87706000  1.0
  H  H30  1  0.39284000  0.29782000  0.62295000  1.0
  H  H31  1  0.10716000  0.79781000  0.87706000  1.0
  H  H32  1  0.60717000  0.20218000  0.62295000  1.0
  H  H33  1  0.10717000  0.29782000  0.12294000  1.0
  H  H34  1  0.60716000  0.70218000  0.37705000  1.0
  H  H35  1  0.89284000  0.20218000  0.12294000  1.0
  H  H36  1  0.42082000  0.14918000  0.46960000  1.0
  H  H37  1  0.92080000  0.35082000  0.96959000  1.0
  H  H38  1  0.42082000  0.64918000  0.53041000  1.0
  H  H39  1  0.07920000  0.14918000  0.96959000  1.0
  H  H40  1  0.57919000  0.85082000  0.53040000  1.0
  H  H41  1  0.07919000  0.64919000  0.03041000  1.0
  H  H42  1  0.57918000  0.35082000  0.46959000  1.0
  H  H43  1  0.92081000  0.85081000  0.03041000  1.0
  H  H44  1  0.34999000  0.14188000  0.36845000  1.0
  H  H45  1  0.84998000  0.35813000  0.86845000  1.0
  H  H46  1  0.34999000  0.64188000  0.63155000  1.0
  H  H47  1  0.15002000  0.14187000  0.86845000  1.0
  H  H48  1  0.65001000  0.85812000  0.63155000  1.0
  H  H49  1  0.15002000  0.64187000  0.13155000  1.0
  H  H50  1  0.65001000  0.35812000  0.36845000  1.0
  H  H51  1  0.84998000  0.85813000  0.13155000  1.0
  H  H52  1  0.48595000  0.11787000  0.37029000  1.0
  H  H53  1  0.98595000  0.38213000  0.87029000  1.0
  H  H54  1  0.48595000  0.61787000  0.62971000  1.0
  H  H55  1  0.01405000  0.11787000  0.87029000  1.0
  H  H56  1  0.51405000  0.88213000  0.62971000  1.0
  H  H57  1  0.01405000  0.61787000  0.12971000  1.0
  H  H58  1  0.51405000  0.38213000  0.37029000  1.0
  H  H59  1  0.98595000  0.88213000  0.12971000  1.0
  C  C60  1  0.14403000  0.95051000  0.64781000  1.0
  C  C61  1  0.64404000  0.54949000  0.14782000  1.0
  C  C62  1  0.14404000  0.45051000  0.35219000  1.0
  C  C63  1  0.35596000  0.95051000  0.14782000  1.0
  C  C64  1  0.85597000  0.04949000  0.35218000  1.0
  C  C65  1  0.35597000  0.45051000  0.85219000  1.0
  C  C66  1  0.85597000  0.54949000  0.64781000  1.0
  C  C67  1  0.64404000  0.04949000  0.85219000  1.0
  C  C68  1  0.15865000  0.63346000  0.81205000  1.0
  C  C69  1  0.65865000  0.86655000  0.31205000  1.0
  C  C70  1  0.15865000  0.13346000  0.18794000  1.0
  C  C71  1  0.34135000  0.63345000  0.31206000  1.0
  C  C72  1  0.84135000  0.36654000  0.18795000  1.0
  C  C73  1  0.34135000  0.13346000  0.68795000  1.0
  C  C74  1  0.84135000  0.86654000  0.81205000  1.0
  C  C75  1  0.65866000  0.36655000  0.68795000  1.0
  C  C76  1  0.15564000  0.65542000  0.49586000  1.0
  C  C77  1  0.65563000  0.84458000  0.99587000  1.0
  C  C78  1  0.15565000  0.15542000  0.50413000  1.0
  C  C79  1  0.34436000  0.65542000  0.99588000  1.0
  C  C80  1  0.84435000  0.34458000  0.50413000  1.0
  C  C81  1  0.34437000  0.15541000  0.00412000  1.0
  C  C82  1  0.84435000  0.84458000  0.49587000  1.0
  C  C83  1  0.65564000  0.34458000  0.00414000  1.0
  C  C84  1  0.39027000  0.01350000  0.42673000  1.0
  C  C85  1  0.89026000  0.48650000  0.92673000  1.0
  C  C86  1  0.39027000  0.51350000  0.57327000  1.0
  C  C87  1  0.10973000  0.01350000  0.92673000  1.0
  C  C88  1  0.60973000  0.98650000  0.57327000  1.0
  C  C89  1  0.10973000  0.51350000  0.07327000  1.0
  C  C90  1  0.60973000  0.48650000  0.42673000  1.0
  C  C91  1  0.89026000  0.98650000  0.07327000  1.0
  C  C92  1  0.32844000  0.88763000  0.48516000  1.0
  C  C93  1  0.82844000  0.61237000  0.98517000  1.0
  C  C94  1  0.32845000  0.38763000  0.51484000  1.0
  C  C95  1  0.17155000  0.88763000  0.98516000  1.0
  C  C96  1  0.67156000  0.11237000  0.51484000  1.0
  C  C97  1  0.17156000  0.38763000  0.01483000  1.0
  C  C98  1  0.67155000  0.61237000  0.48516000  1.0
  C  C99  1  0.82844000  0.11237000  0.01483000  1.0
  C  C100  1  0.38058000  0.86275000  0.40954000  1.0
  C  C101  1  0.88058000  0.63726000  0.90954000  1.0
  C  C102  1  0.38058000  0.36275000  0.59046000  1.0
  C  C103  1  0.11942000  0.86274000  0.90954000  1.0
  C  C104  1  0.61942000  0.13725000  0.59046000  1.0
  C  C105  1  0.11942000  0.36274000  0.09045000  1.0
  C  C106  1  0.61941000  0.63725000  0.40954000  1.0
  C  C107  1  0.88058000  0.13726000  0.09045000  1.0
  C  C108  1  0.41308000  0.11079000  0.40746000  1.0
  C  C109  1  0.91307000  0.38921000  0.90745000  1.0
  C  C110  1  0.41308000  0.61079000  0.59255000  1.0
  C  C111  1  0.08693000  0.11078000  0.90745000  1.0
  C  C112  1  0.58692000  0.88921000  0.59254000  1.0
  C  C113  1  0.08692000  0.61079000  0.09255000  1.0
  C  C114  1  0.58692000  0.38921000  0.40745000  1.0
  C  C115  1  0.91307000  0.88921000  0.09255000  1.0
  N  N116  1  0.09667000  0.88587000  0.66810000  1.0
  N  N117  1  0.59667000  0.61413000  0.16811000  1.0
  N  N118  1  0.09667000  0.38587000  0.33190000  1.0
  N  N119  1  0.40333000  0.88587000  0.16811000  1.0
  N  N120  1  0.90333000  0.11413000  0.33190000  1.0
  N  N121  1  0.40333000  0.38587000  0.83190000  1.0
  N  N122  1  0.90333000  0.61413000  0.66810000  1.0
  N  N123  1  0.59667000  0.11413000  0.83190000  1.0
  N  N124  1  0.10394000  0.67654000  0.76649000  1.0
  N  N125  1  0.60395000  0.82346000  0.26649000  1.0
  N  N126  1  0.10395000  0.17653000  0.23351000  1.0
  N  N127  1  0.39606000  0.67654000  0.26650000  1.0
  N  N128  1  0.89606000  0.32346000  0.23351000  1.0
  N  N129  1  0.39605000  0.17654000  0.73351000  1.0
  N  N130  1  0.89606000  0.82347000  0.76649000  1.0
  N  N131  1  0.60395000  0.32346000  0.73351000  1.0
  N  N132  1  0.11209000  0.69760000  0.55003000  1.0
  N  N133  1  0.61208000  0.80240000  0.05005000  1.0
  N  N134  1  0.11208000  0.19760000  0.44996000  1.0
  N  N135  1  0.38792000  0.69759000  0.05005000  1.0
  N  N136  1  0.88791000  0.30240000  0.44996000  1.0
  N  N137  1  0.38792000  0.19760000  0.94995000  1.0
  N  N138  1  0.88791000  0.80240000  0.55004000  1.0
  N  N139  1  0.61209000  0.30240000  0.94996000  1.0
  N  N140  1  0.41888000  0.94264000  0.37429000  1.0
  N  N141  1  0.91888000  0.55736000  0.87429000  1.0
  N  N142  1  0.41888000  0.44264000  0.62571000  1.0
  N  N143  1  0.08112000  0.94264000  0.87429000  1.0
  N  N144  1  0.58112000  0.05736000  0.62571000  1.0
  N  N145  1  0.08112000  0.44264000  0.12571000  1.0
  N  N146  1  0.58112000  0.55736000  0.37429000  1.0
  N  N147  1  0.91888000  0.05736000  0.12571000  1.0
  N  N148  1  0.33541000  0.98125000  0.49547000  1.0
  N  N149  1  0.83541000  0.51876000  0.99547000  1.0
  N  N150  1  0.33542000  0.48125000  0.50453000  1.0
  N  N151  1  0.16458000  0.98124000  0.99547000  1.0
  N  N152  1  0.66459000  0.01876000  0.50453000  1.0
  N  N153  1  0.16458000  0.48125000  0.00453000  1.0
  N  N154  1  0.66458000  0.51875000  0.49547000  1.0
  N  N155  1  0.83542000  0.01875000  0.00453000  1.0
