# generated using pymatgen
data_TbAgH8C12(N2O5)2
_symmetry_space_group_name_H-M   'P 1'
_cell_length_a   6.77558000
_cell_length_b   9.23838000
_cell_length_c   14.44597882
_cell_angle_alpha   78.30146651
_cell_angle_beta   81.67191567
_cell_angle_gamma   76.48400000
_symmetry_Int_Tables_number   1
_chemical_formula_structural   TbAgH8C12(N2O5)2
_chemical_formula_sum   'Tb2 Ag2 H16 C24 N8 O20'
_cell_volume   856.42346953
_cell_formula_units_Z   2
loop_
 _symmetry_equiv_pos_site_id
 _symmetry_equiv_pos_as_xyz
  1  'x, y, z'
loop_
 _atom_site_type_symbol
 _atom_site_label
 _atom_site_symmetry_multiplicity
 _atom_site_fract_x
 _atom_site_fract_y
 _atom_site_fract_z
 _atom_site_occupancy
  Tb  Tb0  1  0.18528000  0.51158000  0.72728000  1.0
  Tb  Tb1  1  0.81475000  0.48841000  0.27271000  1.0
  Ag  Ag2  1  0.79323000  0.17771000  0.80191000  1.0
  Ag  Ag3  1  0.20677000  0.82230000  0.19809000  1.0
  H  H4  1  0.49274000  0.72828000  0.83946000  1.0
  H  H5  1  0.50722000  0.27172000  0.16055000  1.0
  H  H6  1  0.39406000  0.65636000  0.01619000  1.0
  H  H7  1  0.60592000  0.34365000  0.98382000  1.0
  H  H8  1  0.81458000  0.04601000  0.61701000  1.0
  H  H9  1  0.18542000  0.95399000  0.38300000  1.0
  H  H10  1  0.83098000  0.13603000  0.43910000  1.0
  H  H11  1  0.16902000  0.86397000  0.56091000  1.0
  H  H12  1  0.03446000  0.61367000  0.91949000  1.0
  H  H13  1  0.96555000  0.38633000  0.08052000  1.0
  H  H14  1  0.16778000  0.44544000  0.93272000  1.0
  H  H15  1  0.83222000  0.55456000  0.06727000  1.0
  H  H16  1  0.88288000  0.76254000  0.70814000  1.0
  H  H17  1  0.11712000  0.23746000  0.29187000  1.0
  H  H18  1  0.99161000  0.82304000  0.77838000  1.0
  H  H19  1  0.00840000  0.17698000  0.22164000  1.0
  C  C20  1  0.42238000  0.81433000  0.88300000  1.0
  C  C21  1  0.57761000  0.18567000  0.11700000  1.0
  C  C22  1  0.36717000  0.77392000  0.98039000  1.0
  C  C23  1  0.63282000  0.22608000  0.01961000  1.0
  C  C24  1  0.24492000  0.02533000  0.99090000  1.0
  C  C25  1  0.75510000  0.97467000  0.00910000  1.0
  C  C26  1  0.30015000  0.06368000  0.89303000  1.0
  C  C27  1  0.69985000  0.93632000  0.10697000  1.0
  C  C28  1  0.25789000  0.22416000  0.84032000  1.0
  C  C29  1  0.74211000  0.77584000  0.15968000  1.0
  C  C30  1  0.14537000  0.14107000  0.05339000  1.0
  C  C31  1  0.85463000  0.85893000  0.94661000  1.0
  C  C32  1  0.79643000  0.16569000  0.58650000  1.0
  C  C33  1  0.20355000  0.83431000  0.41350000  1.0
  C  C34  1  0.80711000  0.21480000  0.48846000  1.0
  C  C35  1  0.19285000  0.78519000  0.51154000  1.0
  C  C36  1  0.75475000  0.46084000  0.51128000  1.0
  C  C37  1  0.24526000  0.53915000  0.48871000  1.0
  C  C38  1  0.73922000  0.41181000  0.60997000  1.0
  C  C39  1  0.26078000  0.58818000  0.39003000  1.0
  C  C40  1  0.68946000  0.52209000  0.67903000  1.0
  C  C41  1  0.31054000  0.47791000  0.32096000  1.0
  C  C42  1  0.73601000  0.62693000  0.46712000  1.0
  C  C43  1  0.26400000  0.37307000  0.53287000  1.0
  N  N44  1  0.39287000  0.95876000  0.83956000  1.0
  N  N45  1  0.60711000  0.04124000  0.16044000  1.0
  N  N46  1  0.28209000  0.87912000  0.03373000  1.0
  N  N47  1  0.71788000  0.12089000  0.96628000  1.0
  N  N48  1  0.76442000  0.26322000  0.64732000  1.0
  N  N49  1  0.23561000  0.73678000  0.35268000  1.0
  N  N50  1  0.78965000  0.36170000  0.45126000  1.0
  N  N51  1  0.21036000  0.63829000  0.54873000  1.0
  O  O52  1  0.07815000  0.28548000  0.81810000  1.0
  O  O53  1  0.92184000  0.71452000  0.18191000  1.0
  O  O54  1  0.40219000  0.29487000  0.81632000  1.0
  O  O55  1  0.59783000  0.70511000  0.18367000  1.0
  O  O56  1  0.14391000  0.27956000  0.02040000  1.0
  O  O57  1  0.85612000  0.72044000  0.97959000  1.0
  O  O58  1  0.06756000  0.09095000  0.13548000  1.0
  O  O59  1  0.93241000  0.90906000  0.86451000  1.0
  O  O60  1  0.83632000  0.55172000  0.71154000  1.0
  O  O61  1  0.16367000  0.44828000  0.28846000  1.0
  O  O62  1  0.50290000  0.57010000  0.70459000  1.0
  O  O63  1  0.49709000  0.42991000  0.29541000  1.0
  O  O64  1  0.71567000  0.71995000  0.52083000  1.0
  O  O65  1  0.28437000  0.28004000  0.47916000  1.0
  O  O66  1  0.74476000  0.65385000  0.37568000  1.0
  O  O67  1  0.25524000  0.34614000  0.62432000  1.0
  O  O68  1  0.15064000  0.54328000  0.88875000  1.0
  O  O69  1  0.84936000  0.45672000  0.11125000  1.0
  O  O70  1  0.01705000  0.77439000  0.71936000  1.0
  O  O71  1  0.98301000  0.22559000  0.28062000  1.0
