# generated using pymatgen
data_Na2CuH6C2O9
_symmetry_space_group_name_H-M   'P 1'
_cell_length_a   6.10660000
_cell_length_b   9.78923000
_cell_length_c   13.58150000
_cell_angle_alpha   87.87490000
_cell_angle_beta   89.99990000
_cell_angle_gamma   89.99990000
_symmetry_Int_Tables_number   1
_chemical_formula_structural   Na2CuH6C2O9
_chemical_formula_sum   'Na8 Cu4 H24 C8 O36'
_cell_volume   811.32891275
_cell_formula_units_Z   4
loop_
 _symmetry_equiv_pos_site_id
 _symmetry_equiv_pos_as_xyz
  1  'x, y, z'
loop_
 _atom_site_type_symbol
 _atom_site_label
 _atom_site_symmetry_multiplicity
 _atom_site_fract_x
 _atom_site_fract_y
 _atom_site_fract_z
 _atom_site_occupancy
  Na  Na0  1  0.24274000  0.83628000  0.19758000  1.0
  Na  Na1  1  0.74274000  0.66371000  0.30242000  1.0
  Na  Na2  1  0.75726000  0.16372000  0.80242000  1.0
  Na  Na3  1  0.25727000  0.33629000  0.69758000  1.0
  Na  Na4  1  0.48347000  0.89207000  0.40530000  1.0
  Na  Na5  1  0.98348000  0.60793000  0.09470000  1.0
  Na  Na6  1  0.51654000  0.10793000  0.59470000  1.0
  Na  Na7  1  0.01653000  0.39208000  0.90530000  1.0
  Cu  Cu8  1  0.50644000  0.12136000  0.17723000  1.0
  Cu  Cu9  1  0.00644000  0.37863000  0.32277000  1.0
  Cu  Cu10  1  0.49356000  0.87864000  0.82277000  1.0
  Cu  Cu11  1  0.99356000  0.62137000  0.67723000  1.0
  H  H12  1  0.07252000  0.05097000  0.09172000  1.0
  H  H13  1  0.57252000  0.44903000  0.40828000  1.0
  H  H14  1  0.92748000  0.94903000  0.90828000  1.0
  H  H15  1  0.42749000  0.55098000  0.59172000  1.0
  H  H16  1  0.24069000  0.00791000  0.01132000  1.0
  H  H17  1  0.74069000  0.49209000  0.48867000  1.0
  H  H18  1  0.75931000  0.99209000  0.98867000  1.0
  H  H19  1  0.25932000  0.50791000  0.51133000  1.0
  H  H20  1  0.24089000  0.85667000  0.58982000  1.0
  H  H21  1  0.74089000  0.64334000  0.91018000  1.0
  H  H22  1  0.75910000  0.14333000  0.41018000  1.0
  H  H23  1  0.25911000  0.35666000  0.08982000  1.0
  H  H24  1  0.47800000  0.81623000  0.62155000  1.0
  H  H25  1  0.97800000  0.68377000  0.87845000  1.0
  H  H26  1  0.52200000  0.18377000  0.37845000  1.0
  H  H27  1  0.02200000  0.31623000  0.12155000  1.0
  H  H28  1  0.89728000  0.80764000  0.49057000  1.0
  H  H29  1  0.39730000  0.69235000  0.00943000  1.0
  H  H30  1  0.10272000  0.19236000  0.50943000  1.0
  H  H31  1  0.60270000  0.30765000  0.99057000  1.0
  H  H32  1  0.95579000  0.88961000  0.39220000  1.0
  H  H33  1  0.45581000  0.61038000  0.10780000  1.0
  H  H34  1  0.04421000  0.11039000  0.60780000  1.0
  H  H35  1  0.54420000  0.38962000  0.89220000  1.0
  C  C36  1  0.74536000  0.92208000  0.17033000  1.0
  C  C37  1  0.24536000  0.57791000  0.32967000  1.0
  C  C38  1  0.25464000  0.07792000  0.82967000  1.0
  C  C39  1  0.75464000  0.42207000  0.67033000  1.0
  C  C40  1  0.15222000  0.11703000  0.32724000  1.0
  C  C41  1  0.65222000  0.38296000  0.17275000  1.0
  C  C42  1  0.84777000  0.88297000  0.67276000  1.0
  C  C43  1  0.34777000  0.61704000  0.82724000  1.0
  O  O44  1  0.58351000  0.93487000  0.23291000  1.0
  O  O45  1  0.08351000  0.56512000  0.26709000  1.0
  O  O46  1  0.41649000  0.06513000  0.76709000  1.0
  O  O47  1  0.91649000  0.43488000  0.73291000  1.0
  O  O48  1  0.77002000  0.03069000  0.11054000  1.0
  O  O49  1  0.27002000  0.46930000  0.38946000  1.0
  O  O50  1  0.22998000  0.96931000  0.88946000  1.0
  O  O51  1  0.73000000  0.53070000  0.61054000  1.0
  O  O52  1  0.86374000  0.81698000  0.16850000  1.0
  O  O53  1  0.36374000  0.68301000  0.33150000  1.0
  O  O54  1  0.13625000  0.18302000  0.83150000  1.0
  O  O55  1  0.63627000  0.31701000  0.66850000  1.0
  O  O56  1  0.28463000  0.18846000  0.27022000  1.0
  O  O57  1  0.78464000  0.31153000  0.22978000  1.0
  O  O58  1  0.71536000  0.81153000  0.72978000  1.0
  O  O59  1  0.21535000  0.68847000  0.77022000  1.0
  O  O60  1  0.15010000  0.98709000  0.33316000  1.0
  O  O61  1  0.65011000  0.51289000  0.16684000  1.0
  O  O62  1  0.84989000  0.01290000  0.66685000  1.0
  O  O63  1  0.34989000  0.48710000  0.83315000  1.0
  O  O64  1  0.01998000  0.18975000  0.38200000  1.0
  O  O65  1  0.51997000  0.31024000  0.11800000  1.0
  O  O66  1  0.98002000  0.81025000  0.61801000  1.0
  O  O67  1  0.48001000  0.68975000  0.88199000  1.0
  O  O68  1  0.22847000  0.02811000  0.08237000  1.0
  O  O69  1  0.72846000  0.47189000  0.41763000  1.0
  O  O70  1  0.77153000  0.97190000  0.91762000  1.0
  O  O71  1  0.27154000  0.52812000  0.58238000  1.0
  O  O72  1  0.39779000  0.87189000  0.57218000  1.0
  O  O73  1  0.89780000  0.62812000  0.92782000  1.0
  O  O74  1  0.60220000  0.12811000  0.42782000  1.0
  O  O75  1  0.10220000  0.37189000  0.07218000  1.0
  O  O76  1  0.85143000  0.82064000  0.42119000  1.0
  O  O77  1  0.35145000  0.67935000  0.07881000  1.0
  O  O78  1  0.14857000  0.17936000  0.57881000  1.0
  O  O79  1  0.64855000  0.32065000  0.92119000  1.0
