# generated using pymatgen
data_CuH7C7N4ClO3
_symmetry_space_group_name_H-M   'P 1'
_cell_length_a   6.43465000
_cell_length_b   9.72771000
_cell_length_c   10.20930000
_cell_angle_alpha   69.66700000
_cell_angle_beta   90.00310000
_cell_angle_gamma   90.00200000
_symmetry_Int_Tables_number   1
_chemical_formula_structural   CuH7C7N4ClO3
_chemical_formula_sum   'Cu2 H14 C14 N8 Cl2 O6'
_cell_volume   599.22553454
_cell_formula_units_Z   2
loop_
 _symmetry_equiv_pos_site_id
 _symmetry_equiv_pos_as_xyz
  1  'x, y, z'
loop_
 _atom_site_type_symbol
 _atom_site_label
 _atom_site_symmetry_multiplicity
 _atom_site_fract_x
 _atom_site_fract_y
 _atom_site_fract_z
 _atom_site_occupancy
  Cu  Cu0  1  0.00000000  0.50000000  0.00000000  1.0
  Cu  Cu1  1  0.50000000  0.50000000  0.00000000  1.0
  H  H2  1  0.75002000  0.16070000  0.29892000  1.0
  H  H3  1  0.24998000  0.83930000  0.70108000  1.0
  H  H4  1  0.75001000  0.90835000  0.29355000  1.0
  H  H5  1  0.24999000  0.09165000  0.70645000  1.0
  H  H6  1  0.74998000  0.69497000  0.52333000  1.0
  H  H7  1  0.25001000  0.30503000  0.47667000  1.0
  H  H8  1  0.75004000  0.78503000  0.09175000  1.0
  H  H9  1  0.24997000  0.21497000  0.90825000  1.0
  H  H10  1  0.74999000  0.47648000  0.24698000  1.0
  H  H11  1  0.25002000  0.52352000  0.75302000  1.0
  H  H12  1  0.89014000  0.70212000  0.25100000  1.0
  H  H13  1  0.39013000  0.29789000  0.74901000  1.0
  H  H14  1  0.10986000  0.29788000  0.74900000  1.0
  H  H15  1  0.60988000  0.70212000  0.25099000  1.0
  C  C16  1  0.74999000  0.83772000  0.64453000  1.0
  C  C17  1  0.25001000  0.16228000  0.35547000  1.0
  C  C18  1  0.75003000  0.06691000  0.39596000  1.0
  C  C19  1  0.24996000  0.93309000  0.60405000  1.0
  C  C20  1  0.74998000  0.98530000  0.63405000  1.0
  C  C21  1  0.25001000  0.01470000  0.36594000  1.0
  C  C22  1  0.74999000  0.71613000  0.78344000  1.0
  C  C23  1  0.25001000  0.28387000  0.21656000  1.0
  C  C24  1  0.75002000  0.92466000  0.39356000  1.0
  C  C25  1  0.24996000  0.07533000  0.60644000  1.0
  C  C26  1  0.74999000  0.80829000  0.52008000  1.0
  C  C27  1  0.24999000  0.19170000  0.47992000  1.0
  C  C28  1  0.75001000  0.69435000  0.19217000  1.0
  C  C29  1  0.25000000  0.30566000  0.80783000  1.0
  N  N30  1  0.74999000  0.25828000  0.00530000  1.0
  N  N31  1  0.25001000  0.74172000  0.99470000  1.0
  N  N32  1  0.74999000  0.39204000  0.96287000  1.0
  N  N33  1  0.25001000  0.60796000  0.03713000  1.0
  N  N34  1  0.75000000  0.09744000  0.51450000  1.0
  N  N35  1  0.25000000  0.90256000  0.48550000  1.0
  N  N36  1  0.74999000  0.13147000  0.04198000  1.0
  N  N37  1  0.25001000  0.86853000  0.95802000  1.0
  Cl  Cl38  1  0.74999000  0.02770000  0.78592000  1.0
  Cl  Cl39  1  0.25001000  0.97230000  0.21408000  1.0
  O  O40  1  0.92787000  0.67100000  0.83455000  1.0
  O  O41  1  0.42787000  0.32901000  0.16545000  1.0
  O  O42  1  0.07214000  0.32899000  0.16545000  1.0
  O  O43  1  0.57213000  0.67099000  0.83455000  1.0
  O  O44  1  0.75002000  0.56102000  0.16065000  1.0
  O  O45  1  0.24998000  0.43898000  0.83935000  1.0
