# generated using pymatgen
data_Mn2H9C13N5O8
_symmetry_space_group_name_H-M   'P 1'
_cell_length_a   10.14380000
_cell_length_b   10.45890000
_cell_length_c   11.21100000
_cell_angle_alpha   116.78600000
_cell_angle_beta   96.18670000
_cell_angle_gamma   112.30000000
_symmetry_Int_Tables_number   1
_chemical_formula_structural   Mn2H9C13N5O8
_chemical_formula_sum   'Mn4 H18 C26 N10 O16'
_cell_volume   924.71979222
_cell_formula_units_Z   2
loop_
 _symmetry_equiv_pos_site_id
 _symmetry_equiv_pos_as_xyz
  1  'x, y, z'
loop_
 _atom_site_type_symbol
 _atom_site_label
 _atom_site_symmetry_multiplicity
 _atom_site_fract_x
 _atom_site_fract_y
 _atom_site_fract_z
 _atom_site_occupancy
  Mn  Mn0  1  0.33565000  0.60480000  0.29063000  1.0
  Mn  Mn1  1  0.66435000  0.39520000  0.70937000  1.0
  Mn  Mn2  1  0.50000000  0.50000000  0.00000000  1.0
  Mn  Mn3  1  0.50000000  0.00000000  0.50000000  1.0
  H  H4  1  0.09113000  0.44642000  0.93486000  1.0
  H  H5  1  0.90887000  0.55358000  0.06514000  1.0
  H  H6  1  0.80256000  0.92339000  0.71895000  1.0
  H  H7  1  0.19744000  0.07661000  0.28104000  1.0
  H  H8  1  0.00811000  0.91758000  0.86305000  1.0
  H  H9  1  0.99189000  0.08242000  0.13695000  1.0
  H  H10  1  0.25155000  0.18302000  0.03152000  1.0
  H  H11  1  0.74845000  0.81698000  0.96848000  1.0
  H  H12  1  0.91586000  0.66064000  0.30753000  1.0
  H  H13  1  0.08414000  0.33936000  0.69247000  1.0
  H  H14  1  0.13898000  0.72733000  0.49424000  1.0
  H  H15  1  0.86102000  0.27267000  0.50576000  1.0
  H  H16  1  0.09028000  0.69560000  0.69856000  1.0
  H  H17  1  0.90972000  0.30441000  0.30144000  1.0
  H  H18  1  0.63833000  0.56572000  0.55551000  1.0
  H  H19  1  0.36167000  0.43428000  0.44449000  1.0
  H  H20  1  0.64488000  0.98864000  0.25817000  1.0
  H  H21  1  0.35512000  0.01136000  0.74183000  1.0
  C  C22  1  0.93102000  0.18362000  0.81418000  1.0
  C  C23  1  0.06898000  0.81638000  0.18582000  1.0
  C  C24  1  0.76144000  0.60810000  0.41620000  1.0
  C  C25  1  0.23856000  0.39190000  0.58380000  1.0
  C  C26  1  0.62682000  0.57295000  0.31043000  1.0
  C  C27  1  0.37318000  0.42705000  0.68957000  1.0
  C  C28  1  0.06519000  0.32496000  0.91093000  1.0
  C  C29  1  0.93481000  0.67504000  0.08907000  1.0
  C  C30  1  0.90908000  0.03346000  0.79340000  1.0
  C  C31  1  0.09092000  0.96654000  0.20660000  1.0
  C  C32  1  0.02290000  0.03065000  0.87229000  1.0
  C  C33  1  0.97710000  0.96935000  0.12771000  1.0
  C  C34  1  0.15636000  0.17335000  0.96675000  1.0
  C  C35  1  0.84364000  0.82665000  0.03325000  1.0
  C  C36  1  0.90355000  0.65384000  0.39979000  1.0
  C  C37  1  0.09645000  0.34617000  0.60021000  1.0
  C  C38  1  0.57415000  0.85710000  0.21807000  1.0
  C  C39  1  0.42585000  0.14290000  0.78193000  1.0
  C  C40  1  0.02579000  0.69002000  0.50220000  1.0
  C  C41  1  0.97421000  0.30998000  0.49780000  1.0
  C  C42  1  0.00351000  0.67478000  0.61569000  1.0
  C  C43  1  0.99649000  0.32522000  0.38431000  1.0
  C  C44  1  0.81342000  0.19414000  0.73067000  1.0
  C  C45  1  0.18658000  0.80586000  0.26933000  1.0
  C  C46  1  0.74399000  0.59734000  0.53315000  1.0
  C  C47  1  0.25602000  0.40266000  0.46685000  1.0
  N  N48  1  0.17520000  0.31652000  0.98215000  1.0
  N  N49  1  0.82480000  0.68348000  0.01785000  1.0
  N  N50  1  0.39209000  0.78006000  0.51574000  1.0
  N  N51  1  0.60791000  0.21994000  0.48426000  1.0
  N  N52  1  0.46240000  0.78479000  0.61408000  1.0
  N  N53  1  0.53760000  0.21521000  0.38592000  1.0
  N  N54  1  0.52908000  0.79178000  0.71004000  1.0
  N  N55  1  0.47092000  0.20822000  0.28996000  1.0
  N  N56  1  0.86345000  0.62697000  0.62895000  1.0
  N  N57  1  0.13656000  0.37303000  0.37106000  1.0
  O  O58  1  0.30604000  0.45337000  0.06998000  1.0
  O  O59  1  0.69396000  0.54663000  0.93002000  1.0
  O  O60  1  0.51020000  0.82590000  0.30114000  1.0
  O  O61  1  0.48980000  0.17410000  0.69886000  1.0
  O  O62  1  0.51014000  0.55924000  0.34683000  1.0
  O  O63  1  0.48987000  0.44076000  0.65317000  1.0
  O  O64  1  0.64325000  0.56271000  0.19653000  1.0
  O  O65  1  0.35675000  0.43729000  0.80347000  1.0
  O  O66  1  0.56446000  0.75415000  0.09757000  1.0
  O  O67  1  0.43555000  0.24586000  0.90244000  1.0
  O  O68  1  0.82645000  0.33547000  0.77584000  1.0
  O  O69  1  0.17355000  0.66453000  0.22416000  1.0
  O  O70  1  0.71310000  0.06044000  0.62053000  1.0
  O  O71  1  0.28690000  0.93956000  0.37947000  1.0
  O  O72  1  0.84594000  0.61207000  0.73809000  1.0
  O  O73  1  0.15406000  0.38793000  0.26191000  1.0
