# generated using pymatgen
data_Cu3H12C14(N7O5)2
_symmetry_space_group_name_H-M   'P 1'
_cell_length_a   6.56673000
_cell_length_b   8.44309000
_cell_length_c   11.83220000
_cell_angle_alpha   73.22960000
_cell_angle_beta   89.13270000
_cell_angle_gamma   72.42390000
_symmetry_Int_Tables_number   1
_chemical_formula_structural   Cu3H12C14(N7O5)2
_chemical_formula_sum   'Cu3 H12 C14 N14 O10'
_cell_volume   596.92911883
_cell_formula_units_Z   1
loop_
 _symmetry_equiv_pos_site_id
 _symmetry_equiv_pos_as_xyz
  1  'x, y, z'
loop_
 _atom_site_type_symbol
 _atom_site_label
 _atom_site_symmetry_multiplicity
 _atom_site_fract_x
 _atom_site_fract_y
 _atom_site_fract_z
 _atom_site_occupancy
  Cu  Cu0  1  0.00006000  0.49951000  0.49997000  1.0
  Cu  Cu1  1  0.63468000  0.80318000  0.53740000  1.0
  Cu  Cu2  1  0.36495000  0.19705000  0.46259000  1.0
  H  H3  1  0.64474000  0.61752000  0.90421000  1.0
  H  H4  1  0.35525000  0.38255000  0.09574000  1.0
  H  H5  1  0.67653000  0.46214000  0.12218000  1.0
  H  H6  1  0.32354000  0.53800000  0.87778000  1.0
  H  H7  1  0.18442000  0.03246000  0.06988000  1.0
  H  H8  1  0.81575000  0.96770000  0.93013000  1.0
  H  H9  1  0.15148000  0.18794000  0.85261000  1.0
  H  H10  1  0.84862000  0.81214000  0.14738000  1.0
  H  H11  1  0.02643000  0.86927000  0.41774000  1.0
  H  H12  1  0.97346000  0.13067000  0.58233000  1.0
  H  H13  1  0.07180000  0.81468000  0.55768000  1.0
  H  H14  1  0.92812000  0.18518000  0.44238000  1.0
  C  C15  1  0.86799000  0.50129000  0.73518000  1.0
  C  C16  1  0.13183000  0.49855000  0.26473000  1.0
  C  C17  1  0.89128000  0.40939000  0.86564000  1.0
  C  C18  1  0.10866000  0.59065000  0.13430000  1.0
  C  C19  1  0.75945000  0.48858000  0.94116000  1.0
  C  C20  1  0.24055000  0.51148000  0.05879000  1.0
  C  C21  1  0.77647000  0.40355000  0.06161000  1.0
  C  C22  1  0.22357000  0.59657000  0.93837000  1.0
  C  C23  1  0.92668000  0.23818000  0.10459000  1.0
  C  C24  1  0.07336000  0.76191000  0.89542000  1.0
  C  C25  1  0.06488000  0.15873000  0.03195000  1.0
  C  C26  1  0.93520000  0.84140000  0.96804000  1.0
  C  C27  1  0.04600000  0.24599000  0.91157000  1.0
  C  C28  1  0.95402000  0.75411000  0.08841000  1.0
  N  N29  1  0.67745000  0.60616000  0.47150000  1.0
  N  N30  1  0.32393000  0.39468000  0.52803000  1.0
  N  N31  1  0.59487000  0.62266000  0.37530000  1.0
  N  N32  1  0.40562000  0.37719000  0.62468000  1.0
  N  N33  1  0.51652000  0.63255000  0.28552000  1.0
  N  N34  1  0.48340000  0.36666000  0.71477000  1.0
  N  N35  1  0.52320000  0.00801000  0.60483000  1.0
  N  N36  1  0.47627000  0.99219000  0.39535000  1.0
  N  N37  1  0.48525000  0.98912000  0.70796000  1.0
  N  N38  1  0.51447000  0.01093000  0.29224000  1.0
  N  N39  1  0.45402000  0.96744000  0.80716000  1.0
  N  N40  1  0.54595000  0.03231000  0.19310000  1.0
  N  N41  1  0.93808000  0.14600000  0.22961000  1.0
  N  N42  1  0.06193000  0.85404000  0.77037000  1.0
  O  O43  1  0.98232000  0.41727000  0.67106000  1.0
  O  O44  1  0.01751000  0.58246000  0.32889000  1.0
  O  O45  1  0.73890000  0.65583000  0.70086000  1.0
  O  O46  1  0.26091000  0.34399000  0.29900000  1.0
  O  O47  1  0.06127000  0.99400000  0.26680000  1.0
  O  O48  1  0.93878000  0.00605000  0.73315000  1.0
  O  O49  1  0.82145000  0.22297000  0.29412000  1.0
  O  O50  1  0.17850000  0.77696000  0.70588000  1.0
  O  O51  1  0.98934000  0.80234000  0.49380000  1.0
  O  O52  1  0.01027000  0.19784000  0.50626000  1.0
