# generated using pymatgen
data_Zn2H33C29N9O13
_symmetry_space_group_name_H-M   'P 1'
_cell_length_a   10.03260000
_cell_length_b   11.18870000
_cell_length_c   12.66820000
_cell_angle_alpha   94.24270000
_cell_angle_beta   108.70700000
_cell_angle_gamma   96.32200000
_symmetry_Int_Tables_number   1
_chemical_formula_structural   Zn2H33C29N9O13
_chemical_formula_sum   'Zn2 H33 C29 N9 O13'
_cell_volume   1329.65946147
_cell_formula_units_Z   1
loop_
 _symmetry_equiv_pos_site_id
 _symmetry_equiv_pos_as_xyz
  1  'x, y, z'
loop_
 _atom_site_type_symbol
 _atom_site_label
 _atom_site_symmetry_multiplicity
 _atom_site_fract_x
 _atom_site_fract_y
 _atom_site_fract_z
 _atom_site_occupancy
  Zn  Zn0  1  0.87119000  0.48938000  0.52992000  1.0
  Zn  Zn1  1  0.11927000  0.46794000  0.47518000  1.0
  H  H2  1  0.86308000  0.08614000  0.57150000  1.0
  H  H3  1  0.27311000  0.75380000  0.38983000  1.0
  H  H4  1  0.34020000  0.85405000  0.51855000  1.0
  H  H5  1  0.33302000  0.91101000  0.38787000  1.0
  H  H6  1  0.47708000  0.17524000  0.40802000  1.0
  H  H7  1  0.40912000  0.24536000  0.50838000  1.0
  H  H8  1  0.58649000  0.20366000  0.55274000  1.0
  H  H9  1  0.36581000  0.57790000  0.65245000  1.0
  H  H10  1  0.54535000  0.56246000  0.69915000  1.0
  H  H11  1  0.63982000  0.27181000  0.76839000  1.0
  H  H12  1  0.46530000  0.25827000  0.68861000  1.0
  H  H13  1  0.67671000  0.61493000  0.57915000  1.0
  H  H14  1  0.92684000  0.32287000  0.92617000  1.0
  H  H15  1  0.82959000  0.39986000  0.82876000  1.0
  H  H16  1  0.44449000  0.26784000  0.24446000  1.0
  H  H17  1  0.63403000  0.27091000  0.29973000  1.0
  H  H18  1  0.53791000  0.21805000  0.15397000  1.0
  H  H19  1  0.04301000  0.70897000  0.96316000  1.0
  H  H20  1  0.99246000  0.63812000  0.82727000  1.0
  H  H21  1  0.55367000  0.56823000  0.22426000  1.0
  H  H22  1  0.45477000  0.68242000  0.22386000  1.0
  H  H23  1  0.24915000  0.87713000  0.01571000  1.0
  H  H24  1  0.31922000  0.40282000  0.39560000  1.0
  H  H25  1  0.41736000  0.87537000  0.12268000  1.0
  H  H26  1  0.26585000  0.90809000  0.16093000  1.0
  H  H27  1  0.21170000  0.04418000  0.47935000  1.0
  H  H28  1  0.18309000  0.19109000  0.51875000  1.0
  H  H29  1  0.31138000  0.38900000  0.71803000  1.0
  H  H30  1  0.19104000  0.42451000  0.13894000  1.0
  H  H31  1  0.09710000  0.51192000  0.20904000  1.0
  H  H32  1  0.06833000  0.51696000  0.06188000  1.0
  H  H33  1  0.92140000  0.79720000  0.60670000  1.0
  H  H34  1  0.94859000  0.94479000  0.67340000  1.0
  C  C35  1  0.03205000  0.70684000  0.47718000  1.0
  C  C36  1  0.22712000  0.55074000  0.84393000  1.0
  C  C37  1  0.06763000  0.83883000  0.48030000  1.0
  C  C38  1  0.13488000  0.53952000  0.72456000  1.0
  C  C39  1  0.02302000  0.92263000  0.54288000  1.0
  C  C40  1  0.96100000  0.12834000  0.56246000  1.0
  C  C41  1  0.05633000  0.05589000  0.54502000  1.0
  C  C42  1  0.43810000  0.48860000  0.54051000  1.0
  C  C43  1  0.57068000  0.45528000  0.52210000  1.0
  C  C44  1  0.97142000  0.25718000  0.55237000  1.0
  C  C45  1  0.86750000  0.41305000  0.28957000  1.0
  C  C46  1  0.44261000  0.50871000  0.99391000  1.0
  C  C47  1  0.76587000  0.38025000  0.96725000  1.0
  C  C48  1  0.78394000  0.40125000  0.16616000  1.0
  C  C49  1  0.19275000  0.62481000  0.92387000  1.0
  C  C50  1  0.29026000  0.64954000  0.03340000  1.0
  C  C51  1  0.41250000  0.59296000  0.07164000  1.0
  C  C52  1  0.09053000  0.45934000  0.13039000  1.0
  C  C53  1  0.27998000  0.84637000  0.42814000  1.0
  C  C54  1  0.50435000  0.23666000  0.48558000  1.0
  C  C55  1  0.54426000  0.28255000  0.22593000  1.0
  C  C56  1  0.30118000  0.85501000  0.10117000  1.0
  C  C57  1  0.35202000  0.49415000  0.87916000  1.0
  C  C58  1  0.56993000  0.45065000  0.02164000  1.0
  C  C59  1  0.62484000  0.40948000  0.93606000  1.0
  C  C60  1  0.52194000  0.38231000  0.82427000  1.0
  C  C61  1  0.38939000  0.41781000  0.80091000  1.0
  C  C62  1  0.64113000  0.42233000  0.13075000  1.0
  C  C63  1  0.84609000  0.38300000  0.08121000  1.0
  N  N64  1  0.31374000  0.45072000  0.46540000  1.0
  N  N65  1  0.68601000  0.53035000  0.54844000  1.0
  N  N66  1  0.93582000  0.88862000  0.60330000  1.0
  N  N67  1  0.45700000  0.56530000  0.63247000  1.0
  N  N68  1  0.55252000  0.31487000  0.73914000  1.0
  N  N69  1  0.82689000  0.34181000  0.88666000  1.0
  N  N70  1  0.07173000  0.68055000  0.89663000  1.0
  N  N71  1  0.50094000  0.63085000  0.17995000  1.0
  N  N72  1  0.18094000  0.10118000  0.53053000  1.0
  O  O73  1  0.94187000  0.66840000  0.52424000  1.0
  O  O74  1  0.14014000  0.88002000  0.40971000  1.0
  O  O75  1  0.56508000  0.35044000  0.46233000  1.0
  O  O76  1  0.55651000  0.40433000  0.19742000  1.0
  O  O77  1  0.25997000  0.72928000  0.11012000  1.0
  O  O78  1  0.09382000  0.63727000  0.42932000  1.0
  O  O79  1  0.99986000  0.52201000  0.70231000  1.0
  O  O80  1  0.19316000  0.55078000  0.64847000  1.0
  O  O81  1  0.86294000  0.30972000  0.54857000  1.0
  O  O82  1  0.08822000  0.31259000  0.54535000  1.0
  O  O83  1  0.80886000  0.45616000  0.35682000  1.0
  O  O84  1  0.99382000  0.38681000  0.32005000  1.0
  O  O85  1  0.98245000  0.35503000  0.10341000  1.0
