# generated using pymatgen
data_ZnH16C20N9O5
_symmetry_space_group_name_H-M   'P 1'
_cell_length_a   10.16470000
_cell_length_b   10.77350000
_cell_length_c   12.52920000
_cell_angle_alpha   70.10870000
_cell_angle_beta   80.30140000
_cell_angle_gamma   84.09500000
_symmetry_Int_Tables_number   1
_chemical_formula_structural   ZnH16C20N9O5
_chemical_formula_sum   'Zn2 H32 C40 N18 O10'
_cell_volume   1270.22993483
_cell_formula_units_Z   2
loop_
 _symmetry_equiv_pos_site_id
 _symmetry_equiv_pos_as_xyz
  1  'x, y, z'
loop_
 _atom_site_type_symbol
 _atom_site_label
 _atom_site_symmetry_multiplicity
 _atom_site_fract_x
 _atom_site_fract_y
 _atom_site_fract_z
 _atom_site_occupancy
  Zn  Zn0  1  0.01231000  0.20036000  0.56670000  1.0
  Zn  Zn1  1  0.98769000  0.79964000  0.43329000  1.0
  H  H2  1  0.06442000  0.67952000  0.70905000  1.0
  H  H3  1  0.93558000  0.32048000  0.29095000  1.0
  H  H4  1  0.19290000  0.55676000  0.73437000  1.0
  H  H5  1  0.80710000  0.44325000  0.26563000  1.0
  H  H6  1  0.18407000  0.39541000  0.62700000  1.0
  H  H7  1  0.81593000  0.60458000  0.37301000  1.0
  H  H8  1  0.76727000  0.38097000  0.65980000  1.0
  H  H9  1  0.23273000  0.61903000  0.34020000  1.0
  H  H10  1  0.21587000  0.24241000  0.96887000  1.0
  H  H11  1  0.78412000  0.75759000  0.03114000  1.0
  H  H12  1  0.19751000  0.34007000  0.82866000  1.0
  H  H13  1  0.80248000  0.65992000  0.17135000  1.0
  H  H14  1  0.45526000  0.23809000  0.01884000  1.0
  H  H15  1  0.54473000  0.76190000  0.98116000  1.0
  H  H16  1  0.57872000  0.58657000  0.75919000  1.0
  H  H17  1  0.42127000  0.41342000  0.24082000  1.0
  H  H18  1  0.24959000  0.27973000  0.11725000  1.0
  H  H19  1  0.75041000  0.72028000  0.88274000  1.0
  H  H20  1  0.15206000  0.31266000  0.23487000  1.0
  H  H21  1  0.84794000  0.68735000  0.76513000  1.0
  H  H22  1  0.10485000  0.08475000  0.37318000  1.0
  H  H23  1  0.89516000  0.91526000  0.62682000  1.0
  H  H24  1  0.94447000  0.93642000  0.15353000  1.0
  H  H25  1  0.05553000  0.06359000  0.84647000  1.0
  H  H26  1  0.50152000  0.23209000  0.57651000  1.0
  H  H27  1  0.49849000  0.76793000  0.42347000  1.0
  H  H28  1  0.78262000  0.11748000  0.32430000  1.0
  H  H29  1  0.21738000  0.88252000  0.67569000  1.0
  H  H30  1  0.35939000  0.11043000  0.32480000  1.0
  H  H31  1  0.64060000  0.88956000  0.67521000  1.0
  H  H32  1  0.53016000  0.01407000  0.22220000  1.0
  H  H33  1  0.46983000  0.98592000  0.77780000  1.0
  C  C34  1  0.04014000  0.53396000  0.88126000  1.0
  C  C35  1  0.95986000  0.46604000  0.11875000  1.0
  C  C36  1  0.10810000  0.42903000  0.95663000  1.0
  C  C37  1  0.89190000  0.57097000  0.04337000  1.0
  C  C38  1  0.06881000  0.39692000  0.07549000  1.0
  C  C39  1  0.93119000  0.60308000  0.92451000  1.0
  C  C40  1  0.08453000  0.57424000  0.75325000  1.0
  C  C41  1  0.91547000  0.42576000  0.24675000  1.0
  C  C42  1  0.07758000  0.41610000  0.64589000  1.0
  C  C43  1  0.92242000  0.58390000  0.35412000  1.0
  C  C44  1  0.86444000  0.41111000  0.66378000  1.0
  C  C45  1  0.13556000  0.58890000  0.33622000  1.0
  C  C46  1  0.21696000  0.34474000  0.91058000  1.0
  C  C47  1  0.78303000  0.65525000  0.08942000  1.0
  C  C48  1  0.45885000  0.33083000  0.94788000  1.0
  C  C49  1  0.54114000  0.66916000  0.05213000  1.0
  C  C50  1  0.51800000  0.50659000  0.81662000  1.0
  C  C51  1  0.48199000  0.49341000  0.18339000  1.0
  C  C52  1  0.14622000  0.28925000  0.15721000  1.0
  C  C53  1  0.85379000  0.71076000  0.84279000  1.0
  C  C54  1  0.07164000  0.07136000  0.29979000  1.0
  C  C55  1  0.92836000  0.92864000  0.70021000  1.0
  C  C56  1  0.99255000  0.99961000  0.18508000  1.0
  C  C57  1  0.00744000  0.00039000  0.81492000  1.0
  C  C58  1  0.41607000  0.17738000  0.45383000  1.0
  C  C59  1  0.58394000  0.82262000  0.54617000  1.0
  C  C60  1  0.52181000  0.20085000  0.50121000  1.0
  C  C61  1  0.47820000  0.79916000  0.49879000  1.0
  C  C62  1  0.65353000  0.17987000  0.45478000  1.0
  C  C63  1  0.34648000  0.82014000  0.54521000  1.0
  C  C64  1  0.68031000  0.13762000  0.35894000  1.0
  C  C65  1  0.31969000  0.86238000  0.64105000  1.0
  C  C66  1  0.57427000  0.11249000  0.31238000  1.0
  C  C67  1  0.42572000  0.88751000  0.68762000  1.0
  C  C68  1  0.44229000  0.13292000  0.35920000  1.0
  C  C69  1  0.55771000  0.86707000  0.64081000  1.0
  C  C70  1  0.27702000  0.19381000  0.51070000  1.0
  C  C71  1  0.72299000  0.80619000  0.48931000  1.0
  C  C72  1  0.76207000  0.19239000  0.51748000  1.0
  C  C73  1  0.23794000  0.80762000  0.48250000  1.0
  N  N74  1  0.98163000  0.35803000  0.62133000  1.0
  N  N75  1  0.01837000  0.64196000  0.37868000  1.0
  N  N76  1  0.01965000  0.49909000  0.70070000  1.0
  N  N77  1  0.98035000  0.50091000  0.29930000  1.0
  N  N78  1  0.88386000  0.49760000  0.71279000  1.0
  N  N79  1  0.11614000  0.50240000  0.28721000  1.0
  N  N80  1  0.56520000  0.40310000  0.90158000  1.0
  N  N81  1  0.43479000  0.59689000  0.09842000  1.0
  N  N82  1  0.35267000  0.38881000  0.89298000  1.0
  N  N83  1  0.64733000  0.61119000  0.10702000  1.0
  N  N84  1  0.38969000  0.50237000  0.80780000  1.0
  N  N85  1  0.61031000  0.49762000  0.19220000  1.0
  N  N86  1  0.01185000  0.96794000  0.29678000  1.0
  N  N87  1  0.98815000  0.03206000  0.70322000  1.0
  N  N88  1  0.08628000  0.16063000  0.19395000  1.0
  N  N89  1  0.91373000  0.83937000  0.80605000  1.0
  N  N90  1  0.03708000  0.11652000  0.11902000  1.0
  N  N91  1  0.96292000  0.88349000  0.88098000  1.0
  O  O92  1  0.17885000  0.18591000  0.45888000  1.0
  O  O93  1  0.82116000  0.81410000  0.54112000  1.0
  O  O94  1  0.25813000  0.21337000  0.60541000  1.0
  O  O95  1  0.74188000  0.78662000  0.39461000  1.0
  O  O96  1  0.73266000  0.20287000  0.61533000  1.0
  O  O97  1  0.26736000  0.79715000  0.38464000  1.0
  O  O98  1  0.88460000  0.18857000  0.46622000  1.0
  O  O99  1  0.11542000  0.81143000  0.53377000  1.0
  O  O100  1  0.60418000  0.06522000  0.22149000  1.0
  O  O101  1  0.39581000  0.93477000  0.77851000  1.0
