# generated using pymatgen
data_KH6C5NO4
_symmetry_space_group_name_H-M   'P 1'
_cell_length_a   10.89620000
_cell_length_b   12.77550000
_cell_length_c   13.57539994
_cell_angle_alpha   118.07333120
_cell_angle_beta   113.66067107
_cell_angle_gamma   90.00180000
_symmetry_Int_Tables_number   1
_chemical_formula_structural   KH6C5NO4
_chemical_formula_sum   'K8 H48 C40 N8 O32'
_cell_volume   1484.95047657
_cell_formula_units_Z   8
loop_
 _symmetry_equiv_pos_site_id
 _symmetry_equiv_pos_as_xyz
  1  'x, y, z'
loop_
 _atom_site_type_symbol
 _atom_site_label
 _atom_site_symmetry_multiplicity
 _atom_site_fract_x
 _atom_site_fract_y
 _atom_site_fract_z
 _atom_site_occupancy
  K  K0  1  0.74504000  0.75007000  0.50012000  1.0
  K  K1  1  0.75492000  0.24997000  0.49980000  1.0
  K  K2  1  0.25496000  0.24993000  0.49988000  1.0
  K  K3  1  0.24508000  0.75002000  0.50019000  1.0
  K  K4  1  0.63499000  0.88500000  0.27013000  1.0
  K  K5  1  0.86493000  0.61486000  0.72984000  1.0
  K  K6  1  0.36500000  0.11500000  0.72987000  1.0
  K  K7  1  0.13507000  0.38514000  0.27016000  1.0
  H  H8  1  0.33089000  0.76092000  0.23460000  1.0
  H  H9  1  0.90405000  0.97341000  0.23454000  1.0
  H  H10  1  0.16944000  0.52664000  0.76530000  1.0
  H  H11  1  0.59591000  0.73930000  0.76533000  1.0
  H  H12  1  0.66910000  0.23908000  0.76540000  1.0
  H  H13  1  0.09595000  0.02659000  0.76546000  1.0
  H  H14  1  0.83055000  0.47336000  0.23470000  1.0
  H  H15  1  0.40408000  0.26071000  0.23467000  1.0
  H  H16  1  0.22965000  0.64121000  0.22323000  1.0
  H  H17  1  0.99380000  0.08181000  0.22316000  1.0
  H  H18  1  0.27066000  0.41830000  0.77668000  1.0
  H  H19  1  0.50624000  0.85913000  0.77672000  1.0
  H  H20  1  0.77035000  0.35879000  0.77677000  1.0
  H  H21  1  0.00620000  0.91819000  0.77684000  1.0
  H  H22  1  0.72934000  0.58171000  0.22332000  1.0
  H  H23  1  0.49376000  0.14087000  0.22327000  1.0
  H  H24  1  0.23260000  0.62446000  0.08792000  1.0
  H  H25  1  0.85556000  0.96317000  0.08785000  1.0
  H  H26  1  0.26767000  0.53684000  0.91197000  1.0
  H  H27  1  0.64438000  0.87576000  0.91202000  1.0
  H  H28  1  0.76739000  0.37554000  0.91208000  1.0
  H  H29  1  0.14444000  0.03683000  0.91215000  1.0
  H  H30  1  0.73233000  0.46317000  0.08804000  1.0
  H  H31  1  0.35561000  0.12423000  0.08797000  1.0
  H  H32  1  0.03249000  0.63137000  0.58166000  1.0
  H  H33  1  0.54909000  0.45042000  0.58179000  1.0
  H  H34  1  0.46712000  0.04955000  0.41810000  1.0
  H  H35  1  0.95080000  0.86868000  0.41832000  1.0
  H  H36  1  0.96751000  0.36863000  0.41834000  1.0
  H  H37  1  0.45091000  0.54958000  0.41821000  1.0
  H  H38  1  0.53289000  0.95046000  0.58191000  1.0
  H  H39  1  0.04920000  0.13132000  0.58168000  1.0
  H  H40  1  0.88451000  0.53942000  0.49627000  1.0
  H  H41  1  0.61179000  0.45676000  0.49640000  1.0
  H  H42  1  0.61526000  0.04332000  0.50349000  1.0
  H  H43  1  0.88815000  0.96066000  0.50363000  1.0
  H  H44  1  0.11549000  0.46058000  0.50373000  1.0
  H  H45  1  0.38821000  0.54324000  0.50360000  1.0
  H  H46  1  0.38475000  0.95669000  0.49652000  1.0
  H  H47  1  0.11185000  0.03935000  0.49637000  1.0
  H  H48  1  0.28832000  0.44023000  0.11386000  1.0
  H  H49  1  0.82568000  0.17335000  0.11371000  1.0
  H  H50  1  0.21183000  0.32682000  0.88624000  1.0
  H  H51  1  0.67430000  0.06003000  0.88611000  1.0
  H  H52  1  0.71168000  0.55977000  0.88614000  1.0
  H  H53  1  0.17432000  0.82664000  0.88629000  1.0
  H  H54  1  0.78818000  0.67318000  0.11376000  1.0
  H  H55  1  0.32570000  0.93997000  0.11389000  1.0
  C  C56  1  0.47584000  0.31838000  0.05462000  1.0
  C  C57  1  0.57883000  0.23598000  0.05454000  1.0
  C  C58  1  0.02420000  0.26417000  0.94538000  1.0
  C  C59  1  0.92112000  0.18187000  0.94535000  1.0
  C  C60  1  0.52416000  0.68162000  0.94538000  1.0
  C  C61  1  0.42117000  0.76401000  0.94545000  1.0
  C  C62  1  0.97581000  0.73583000  0.05462000  1.0
  C  C63  1  0.07888000  0.81812000  0.05465000  1.0
  C  C64  1  0.48996000  0.41513000  0.17083000  1.0
  C  C65  1  0.68096000  0.25533000  0.17068000  1.0
  C  C66  1  0.01017000  0.24478000  0.82922000  1.0
  C  C67  1  0.81904000  0.08509000  0.82918000  1.0
  C  C68  1  0.51004000  0.58487000  0.82917000  1.0
  C  C69  1  0.31904000  0.74466000  0.82931000  1.0
  C  C70  1  0.98984000  0.75522000  0.17079000  1.0
  C  C71  1  0.18097000  0.91491000  0.17082000  1.0
  C  C72  1  0.58884000  0.43117000  0.28512000  1.0
  C  C73  1  0.69642000  0.35352000  0.28503000  1.0
  C  C74  1  0.91126000  0.14656000  0.71487000  1.0
  C  C75  1  0.80361000  0.06893000  0.71484000  1.0
  C  C76  1  0.41116000  0.56883000  0.71488000  1.0
  C  C77  1  0.30358000  0.64647000  0.71496000  1.0
  C  C78  1  0.08874000  0.85343000  0.28513000  1.0
  C  C79  1  0.19640000  0.93107000  0.28516000  1.0
  C  C80  1  0.42035000  0.60801000  0.21242000  1.0
  C  C81  1  0.79223000  0.10411000  0.21229000  1.0
  C  C82  1  0.07987000  0.39588000  0.78742000  1.0
  C  C83  1  0.70782000  0.89225000  0.78764000  1.0
  C  C84  1  0.57965000  0.39199000  0.78758000  1.0
  C  C85  1  0.20777000  0.89589000  0.78771000  1.0
  C  C86  1  0.92013000  0.60412000  0.21258000  1.0
  C  C87  1  0.29218000  0.10775000  0.21236000  1.0
  C  C88  1  0.29643000  0.66224000  0.18897000  1.0
  C  C89  1  0.89277000  0.02647000  0.18889000  1.0
  C  C90  1  0.20383000  0.47357000  0.81092000  1.0
  C  C91  1  0.60723000  0.83802000  0.81099000  1.0
  C  C92  1  0.70356000  0.33775000  0.81103000  1.0
  C  C93  1  0.10723000  0.97353000  0.81111000  1.0
  C  C94  1  0.79616000  0.52643000  0.18908000  1.0
  C  C95  1  0.39277000  0.16198000  0.18901000  1.0
  N  N96  1  0.39076000  0.48663000  0.16667000  1.0
  N  N97  1  0.77600000  0.17967000  0.16645000  1.0
  N  N98  1  0.10942000  0.32044000  0.83341000  1.0
  N  N99  1  0.72399000  0.01362000  0.83337000  1.0
  N  N100  1  0.60924000  0.51337000  0.83333000  1.0
  N  N101  1  0.22400000  0.82032000  0.83354000  1.0
  N  N102  1  0.89058000  0.67956000  0.16659000  1.0
  N  N103  1  0.27602000  0.98638000  0.16664000  1.0
  O  O104  1  0.59559000  0.50753000  0.39180000  1.0
  O  O105  1  0.79637000  0.38379000  0.39167000  1.0
  O  O106  1  0.90456000  0.11624000  0.60821000  1.0
  O  O107  1  0.70371000  0.99252000  0.60817000  1.0
  O  O108  1  0.40441000  0.49246000  0.60820000  1.0
  O  O109  1  0.20363000  0.61622000  0.60833000  1.0
  O  O110  1  0.09544000  0.88376000  0.39179000  1.0
  O  O111  1  0.29629000  0.00748000  0.39183000  1.0
  O  O112  1  0.54061000  0.67189000  0.26988000  1.0
  O  O113  1  0.72940000  0.09771000  0.26972000  1.0
  O  O114  1  0.95962000  0.40214000  0.72974000  1.0
  O  O115  1  0.77070000  0.82838000  0.73025000  1.0
  O  O116  1  0.45939000  0.32811000  0.73012000  1.0
  O  O117  1  0.27060000  0.90229000  0.73028000  1.0
  O  O118  1  0.04038000  0.59786000  0.27026000  1.0
  O  O119  1  0.22930000  0.17162000  0.26975000  1.0
  O  O120  1  0.38083000  0.29366000  0.94982000  1.0
  O  O121  1  0.56887000  0.15596000  0.94965000  1.0
  O  O122  1  0.11919000  0.34419000  0.05023000  1.0
  O  O123  1  0.93094000  0.20665000  0.05017000  1.0
  O  O124  1  0.61917000  0.70634000  0.05019000  1.0
  O  O125  1  0.43112000  0.84403000  0.05034000  1.0
  O  O126  1  0.88081000  0.65580000  0.94977000  1.0
  O  O127  1  0.06906000  0.79335000  0.94983000  1.0
  O  O128  1  0.93344000  0.62598000  0.55993000  1.0
  O  O129  1  0.62642000  0.43395000  0.56009000  1.0
  O  O130  1  0.56615000  0.06606000  0.43976000  1.0
  O  O131  1  0.87343000  0.87410000  0.43998000  1.0
  O  O132  1  0.06656000  0.37403000  0.44008000  1.0
  O  O133  1  0.37357000  0.56604000  0.43990000  1.0
  O  O134  1  0.43386000  0.93394000  0.56024000  1.0
  O  O135  1  0.12657000  0.12590000  0.56002000  1.0
