# generated using pymatgen
data_ZnH5C6O2F7
_symmetry_space_group_name_H-M   'P 1'
_cell_length_a   10.00110000
_cell_length_b   10.44590000
_cell_length_c   10.94915692
_cell_angle_alpha   61.50941539
_cell_angle_beta   78.66879798
_cell_angle_gamma   89.99470000
_symmetry_Int_Tables_number   1
_chemical_formula_structural   ZnH5C6O2F7
_chemical_formula_sum   'Zn4 H20 C24 O8 F28'
_cell_volume   979.90492930
_cell_formula_units_Z   4
loop_
 _symmetry_equiv_pos_site_id
 _symmetry_equiv_pos_as_xyz
  1  'x, y, z'
loop_
 _atom_site_type_symbol
 _atom_site_label
 _atom_site_symmetry_multiplicity
 _atom_site_fract_x
 _atom_site_fract_y
 _atom_site_fract_z
 _atom_site_occupancy
  Zn  Zn0  1  0.91303000  0.15365000  0.93676000  1.0
  Zn  Zn1  1  0.58697000  0.09040000  0.06318000  1.0
  Zn  Zn2  1  0.08697000  0.84635000  0.06324000  1.0
  Zn  Zn3  1  0.41303000  0.90960000  0.93682000  1.0
  H  H4  1  0.92183000  0.41237000  0.89206000  1.0
  H  H5  1  0.57819000  0.30439000  0.10782000  1.0
  H  H6  1  0.07817000  0.58763000  0.10794000  1.0
  H  H7  1  0.42181000  0.69561000  0.89218000  1.0
  H  H8  1  0.84189000  0.29149000  0.07111000  1.0
  H  H9  1  0.65813000  0.36259000  0.92877000  1.0
  H  H10  1  0.15811000  0.70851000  0.92889000  1.0
  H  H11  1  0.34187000  0.63741000  0.07123000  1.0
  H  H12  1  0.07577000  0.21039000  0.12254000  1.0
  H  H13  1  0.42416000  0.33297000  0.87739000  1.0
  H  H14  1  0.92423000  0.78961000  0.87746000  1.0
  H  H15  1  0.57584000  0.66703000  0.12261000  1.0
  H  H16  1  0.07369000  0.40107000  0.05771000  1.0
  H  H17  1  0.42633000  0.45880000  0.94224000  1.0
  H  H18  1  0.92631000  0.59894000  0.94228000  1.0
  H  H19  1  0.57367000  0.54120000  0.05776000  1.0
  H  H20  1  0.15445000  0.33623000  0.94287000  1.0
  H  H21  1  0.34558000  0.27913000  0.05709000  1.0
  H  H22  1  0.84555000  0.66377000  0.05713000  1.0
  H  H23  1  0.65442000  0.72087000  0.94291000  1.0
  C  C24  1  0.93020000  0.30850000  0.98569000  1.0
  C  C25  1  0.56982000  0.29420000  0.01419000  1.0
  C  C26  1  0.06980000  0.69150000  0.01431000  1.0
  C  C27  1  0.43018000  0.70580000  0.98582000  1.0
  C  C28  1  0.06527000  0.31387000  0.02950000  1.0
  C  C29  1  0.43474000  0.34339000  0.97042000  1.0
  C  C30  1  0.93473000  0.68613000  0.97050000  1.0
  C  C31  1  0.56526000  0.65661000  0.02958000  1.0
  C  C32  1  0.77580000  0.86683000  0.20027000  1.0
  C  C33  1  0.72414000  0.06708000  0.79974000  1.0
  C  C34  1  0.22420000  0.13317000  0.79973000  1.0
  C  C35  1  0.27586000  0.93292000  0.20026000  1.0
  C  C36  1  0.78001000  0.72318000  0.34044000  1.0
  C  C37  1  0.71993000  0.06352000  0.65961000  1.0
  C  C38  1  0.21999000  0.27682000  0.65956000  1.0
  C  C39  1  0.28007000  0.93648000  0.34039000  1.0
  C  C40  1  0.77666000  0.75370000  0.46766000  1.0
  C  C41  1  0.72323000  0.22127000  0.53238000  1.0
  C  C42  1  0.22334000  0.24630000  0.53234000  1.0
  C  C43  1  0.27677000  0.77873000  0.46762000  1.0
  C  C44  1  0.77279000  0.61642000  0.61577000  1.0
  C  C45  1  0.72728000  0.23217000  0.38420000  1.0
  C  C46  1  0.22722000  0.38358000  0.38423000  1.0
  C  C47  1  0.27272000  0.76782000  0.61581000  1.0
  O  O48  1  0.88772000  0.92746000  0.10912000  1.0
  O  O49  1  0.61224000  0.03651000  0.89092000  1.0
  O  O50  1  0.11228000  0.07254000  0.89088000  1.0
  O  O51  1  0.38776000  0.96349000  0.10908000  1.0
  O  O52  1  0.65856000  0.90892000  0.19444000  1.0
  O  O53  1  0.84136000  0.10340000  0.80556000  1.0
  O  O54  1  0.34144000  0.09108000  0.80556000  1.0
  O  O55  1  0.15864000  0.89660000  0.19444000  1.0
  F  F56  1  0.67033000  0.62566000  0.37319000  1.0
  F  F57  1  0.82967000  0.99883000  0.62684000  1.0
  F  F58  1  0.32967000  0.37434000  0.62681000  1.0
  F  F59  1  0.17033000  0.00117000  0.37316000  1.0
  F  F60  1  0.89735000  0.66012000  0.32244000  1.0
  F  F61  1  0.60265000  0.98241000  0.67764000  1.0
  F  F62  1  0.10265000  0.33988000  0.67756000  1.0
  F  F63  1  0.39735000  0.01759000  0.32236000  1.0
  F  F64  1  0.89086000  0.84630000  0.43343000  1.0
  F  F65  1  0.60898000  0.27964000  0.56653000  1.0
  F  F66  1  0.10914000  0.15370000  0.56657000  1.0
  F  F67  1  0.39102000  0.72037000  0.43347000  1.0
  F  F68  1  0.66329000  0.82187000  0.48381000  1.0
  F  F69  1  0.83655000  0.30558000  0.51633000  1.0
  F  F70  1  0.33671000  0.17813000  0.51619000  1.0
  F  F71  1  0.16345000  0.69441000  0.48368000  1.0
  F  F72  1  0.65680000  0.52549000  0.65861000  1.0
  F  F73  1  0.84323000  0.18387000  0.34154000  1.0
  F  F74  1  0.34320000  0.47451000  0.34139000  1.0
  F  F75  1  0.15677000  0.81613000  0.65846000  1.0
  F  F76  1  0.77456000  0.66116000  0.71300000  1.0
  F  F77  1  0.72579000  0.37417000  0.28698000  1.0
  F  F78  1  0.22545000  0.33885000  0.28700000  1.0
  F  F79  1  0.27421000  0.62582000  0.71302000  1.0
  F  F80  1  0.88218000  0.54166000  0.61101000  1.0
  F  F81  1  0.61786000  0.15290000  0.38870000  1.0
  F  F82  1  0.11782000  0.45834000  0.38899000  1.0
  F  F83  1  0.38214000  0.84710000  0.61130000  1.0
