# generated using pymatgen
data_TbPH17C9N3O11
_symmetry_space_group_name_H-M   'P 1'
_cell_length_a   6.85620000
_cell_length_b   8.60938000
_cell_length_c   14.20180000
_cell_angle_alpha   89.99990000
_cell_angle_beta   87.13700000
_cell_angle_gamma   89.99990000
_symmetry_Int_Tables_number   1
_chemical_formula_structural   TbPH17C9N3O11
_chemical_formula_sum   'Tb2 P2 H34 C18 N6 O22'
_cell_volume   837.25226495
_cell_formula_units_Z   2
loop_
 _symmetry_equiv_pos_site_id
 _symmetry_equiv_pos_as_xyz
  1  'x, y, z'
loop_
 _atom_site_type_symbol
 _atom_site_label
 _atom_site_symmetry_multiplicity
 _atom_site_fract_x
 _atom_site_fract_y
 _atom_site_fract_z
 _atom_site_occupancy
  Tb  Tb0  1  0.74668000  0.18920000  0.97023000  1.0
  Tb  Tb1  1  0.25332000  0.68920000  0.02977000  1.0
  P  P2  1  0.23703000  0.11682000  0.05869000  1.0
  P  P3  1  0.76296000  0.61682000  0.94131000  1.0
  H  H4  1  0.65377000  0.91460000  0.09582000  1.0
  H  H5  1  0.34623000  0.41461000  0.90418000  1.0
  H  H6  1  0.84132000  0.87020000  0.03343000  1.0
  H  H7  1  0.15868000  0.37020000  0.96657000  1.0
  H  H8  1  0.85871000  0.36311000  0.13756000  1.0
  H  H9  1  0.14129000  0.86311000  0.86244000  1.0
  H  H10  1  0.63071000  0.34896000  0.14675000  1.0
  H  H11  1  0.36929000  0.84896000  0.85325000  1.0
  H  H12  1  0.02365000  0.94189000  0.21432000  1.0
  H  H13  1  0.97635000  0.44189000  0.78568000  1.0
  H  H14  1  0.89882000  0.09172000  0.17563000  1.0
  H  H15  1  0.10118000  0.59172000  0.82437000  1.0
  H  H16  1  0.31459000  0.08246000  0.22277000  1.0
  H  H17  1  0.68541000  0.58246000  0.77723000  1.0
  H  H18  1  0.18659000  0.26108000  0.20527000  1.0
  H  H19  1  0.81341000  0.76108000  0.79473000  1.0
  H  H20  1  0.92559000  0.23120000  0.31936000  1.0
  H  H21  1  0.07441000  0.73120000  0.68064000  1.0
  H  H22  1  0.74063000  0.90455000  0.33076000  1.0
  H  H23  1  0.25937000  0.40455000  0.66924000  1.0
  H  H24  1  0.63420000  0.07579000  0.28544000  1.0
  H  H25  1  0.36580000  0.57579000  0.71456000  1.0
  H  H26  1  0.67610000  0.06155000  0.40745000  1.0
  H  H27  1  0.32390000  0.56155000  0.59255000  1.0
  H  H28  1  0.08723000  0.81102000  0.34879000  1.0
  H  H29  1  0.91277000  0.31102000  0.65121000  1.0
  H  H30  1  0.32036000  0.73315000  0.46534000  1.0
  H  H31  1  0.67964000  0.23316000  0.53466000  1.0
  H  H32  1  0.44330000  0.92736000  0.57944000  1.0
  H  H33  1  0.55670000  0.42737000  0.42056000  1.0
  H  H34  1  0.33513000  0.20188000  0.57076000  1.0
  H  H35  1  0.66486000  0.70188000  0.42924000  1.0
  H  H36  1  0.11133000  0.28470000  0.44746000  1.0
  H  H37  1  0.88867000  0.78470000  0.55254000  1.0
  C  C38  1  0.19484000  0.13751000  0.18681000  1.0
  C  C39  1  0.80517000  0.63751000  0.81319000  1.0
  C  C40  1  0.93698000  0.10382000  0.31968000  1.0
  C  C41  1  0.06302000  0.60382000  0.68032000  1.0
  C  C42  1  0.73529000  0.03160000  0.33675000  1.0
  C  C43  1  0.26471000  0.53160000  0.66325000  1.0
  C  C44  1  0.08359000  0.05430000  0.38978000  1.0
  C  C45  1  0.91640000  0.55431000  0.61022000  1.0
  C  C46  1  0.14286000  0.89890000  0.39576000  1.0
  C  C47  1  0.85714000  0.39891000  0.60424000  1.0
  C  C48  1  0.27445000  0.85420000  0.46248000  1.0
  C  C49  1  0.72555000  0.35421000  0.53752000  1.0
  C  C50  1  0.34389000  0.96279000  0.52576000  1.0
  C  C51  1  0.65611000  0.46280000  0.47424000  1.0
  C  C52  1  0.28397000  0.11752000  0.52053000  1.0
  C  C53  1  0.71603000  0.61752000  0.47947000  1.0
  C  C54  1  0.15708000  0.16360000  0.45187000  1.0
  C  C55  1  0.84292000  0.66361000  0.54813000  1.0
  N  N56  1  0.00833000  0.06144000  0.22021000  1.0
  N  N57  1  0.99167000  0.56144000  0.77979000  1.0
  N  N58  1  0.46665000  0.15650000  0.81571000  1.0
  N  N59  1  0.53335000  0.65650000  0.18429000  1.0
  N  N60  1  0.94440000  0.08165000  0.79027000  1.0
  N  N61  1  0.05561000  0.58165000  0.20973000  1.0
  O  O62  1  0.07406000  0.20888000  0.01211000  1.0
  O  O63  1  0.92594000  0.70888000  0.98788000  1.0
  O  O64  1  0.43878000  0.18623000  0.03806000  1.0
  O  O65  1  0.56122000  0.68624000  0.96194000  1.0
  O  O66  1  0.22117000  0.94383000  0.03891000  1.0
  O  O67  1  0.77883000  0.44383000  0.96108000  1.0
  O  O68  1  0.54375000  0.03701000  0.85391000  1.0
  O  O69  1  0.45626000  0.53701000  0.14609000  1.0
  O  O70  1  0.52007000  0.28923000  0.84717000  1.0
  O  O71  1  0.47993000  0.78923000  0.15283000  1.0
  O  O72  1  0.35035000  0.14405000  0.75265000  1.0
  O  O73  1  0.64965000  0.64405000  0.24735000  1.0
  O  O74  1  0.94496000  0.99134000  0.86264000  1.0
  O  O75  1  0.05504000  0.49134000  0.13736000  1.0
  O  O76  1  0.90472000  0.22480000  0.80930000  1.0
  O  O77  1  0.09529000  0.72480000  0.19070000  1.0
  O  O78  1  0.97379000  0.03392000  0.70913000  1.0
  O  O79  1  0.02621000  0.53393000  0.29088000  1.0
  O  O80  1  0.77002000  0.96190000  0.06345000  1.0
  O  O81  1  0.22998000  0.46190000  0.93655000  1.0
  O  O82  1  0.75029000  0.28647000  0.13678000  1.0
  O  O83  1  0.24970000  0.78647000  0.86322000  1.0
