# generated using pymatgen
data_ZnH42C24(NO)4
_symmetry_space_group_name_H-M   'P 1'
_cell_length_a   9.51932000
_cell_length_b   9.53236000
_cell_length_c   15.08070000
_cell_angle_alpha   84.65740000
_cell_angle_beta   81.39930000
_cell_angle_gamma   83.54830000
_symmetry_Int_Tables_number   1
_chemical_formula_structural   ZnH42C24(NO)4
_chemical_formula_sum   'Zn2 H84 C48 N8 O8'
_cell_volume   1340.42764053
_cell_formula_units_Z   2
loop_
 _symmetry_equiv_pos_site_id
 _symmetry_equiv_pos_as_xyz
  1  'x, y, z'
loop_
 _atom_site_type_symbol
 _atom_site_label
 _atom_site_symmetry_multiplicity
 _atom_site_fract_x
 _atom_site_fract_y
 _atom_site_fract_z
 _atom_site_occupancy
  Zn  Zn0  1  0.50593000  0.74277000  0.24758000  1.0
  Zn  Zn1  1  0.49406000  0.25724000  0.75242000  1.0
  H  H2  1  0.42322000  0.89220000  0.11762000  1.0
  H  H3  1  0.57677000  0.10780000  0.88237000  1.0
  H  H4  1  0.24664000  0.83567000  0.30868000  1.0
  H  H5  1  0.75335000  0.16433000  0.69132000  1.0
  H  H6  1  0.58243000  0.60080000  0.38104000  1.0
  H  H7  1  0.41757000  0.39920000  0.61896000  1.0
  H  H8  1  0.76810000  0.66126000  0.18252000  1.0
  H  H9  1  0.23189000  0.33874000  0.81748000  1.0
  H  H10  1  0.38248000  0.59884000  0.09172000  1.0
  H  H11  1  0.61753000  0.40116000  0.90828000  1.0
  H  H12  1  0.18327000  0.85314000  0.15864000  1.0
  H  H13  1  0.81672000  0.14685000  0.84136000  1.0
  H  H14  1  0.12383000  0.70141000  0.12372000  1.0
  H  H15  1  0.87617000  0.29858000  0.87628000  1.0
  H  H16  1  0.09591000  0.65658000  0.27913000  1.0
  H  H17  1  0.90408000  0.34342000  0.72087000  1.0
  H  H18  1  0.25835000  0.55311000  0.24341000  1.0
  H  H19  1  0.74165000  0.44690000  0.75659000  1.0
  H  H20  1  0.41270000  0.75034000  0.94154000  1.0
  H  H21  1  0.58730000  0.24965000  0.05846000  1.0
  H  H22  1  0.27313000  0.87310000  0.98826000  1.0
  H  H23  1  0.72686000  0.12690000  0.01173000  1.0
  H  H24  1  0.23844000  0.69878000  0.97173000  1.0
  H  H25  1  0.76156000  0.30122000  0.02827000  1.0
  H  H26  1  0.32904000  0.54944000  0.38545000  1.0
  H  H27  1  0.67096000  0.45056000  0.61455000  1.0
  H  H28  1  0.06825000  0.62500000  0.42623000  1.0
  H  H29  1  0.93175000  0.37501000  0.57377000  1.0
  H  H30  1  0.16129000  0.60411000  0.52022000  1.0
  H  H31  1  0.83871000  0.39589000  0.47978000  1.0
  H  H32  1  0.07912000  0.89050000  0.41960000  1.0
  H  H33  1  0.92088000  0.10951000  0.58040000  1.0
  H  H34  1  0.99621000  0.82568000  0.52534000  1.0
  H  H35  1  0.00379000  0.17433000  0.47467000  1.0
  H  H36  1  0.22134000  0.81717000  0.58989000  1.0
  H  H37  1  0.77867000  0.18284000  0.41011000  1.0
  H  H38  1  0.17692000  0.99056000  0.54188000  1.0
  H  H39  1  0.82308000  0.00944000  0.45812000  1.0
  H  H40  1  0.43540000  0.90947000  0.50402000  1.0
  H  H41  1  0.56460000  0.09054000  0.49598000  1.0
  H  H42  1  0.35537000  0.94491000  0.40546000  1.0
  H  H43  1  0.64463000  0.05509000  0.59454000  1.0
  H  H44  1  0.41197000  0.65475000  0.50593000  1.0
  H  H45  1  0.58803000  0.34525000  0.49407000  1.0
  H  H46  1  0.62713000  0.89420000  0.40456000  1.0
  H  H47  1  0.37287000  0.10580000  0.59544000  1.0
  H  H48  1  0.82481000  0.64006000  0.33579000  1.0
  H  H49  1  0.17519000  0.35994000  0.66420000  1.0
  H  H50  1  0.88505000  0.79077000  0.37143000  1.0
  H  H51  1  0.11495000  0.20922000  0.62857000  1.0
  H  H52  1  0.74786000  0.94085000  0.25296000  1.0
  H  H53  1  0.25215000  0.05915000  0.74704000  1.0
  H  H54  1  0.91213000  0.84063000  0.21678000  1.0
  H  H55  1  0.08787000  0.15936000  0.78322000  1.0
  H  H56  1  0.59679000  0.74093000  0.55410000  1.0
  H  H57  1  0.40322000  0.25908000  0.44590000  1.0
  H  H58  1  0.77194000  0.79067000  0.52412000  1.0
  H  H59  1  0.22807000  0.20934000  0.47588000  1.0
  H  H60  1  0.73511000  0.61771000  0.50632000  1.0
  H  H61  1  0.26490000  0.38230000  0.49368000  1.0
  H  H62  1  0.67396000  0.94852000  0.11333000  1.0
  H  H63  1  0.32605000  0.05149000  0.88667000  1.0
  H  H64  1  0.93596000  0.88172000  0.06847000  1.0
  H  H65  1  0.06404000  0.11828000  0.93154000  1.0
  H  H66  1  0.83948000  0.90619000  0.97592000  1.0
  H  H67  1  0.16053000  0.09380000  0.02408000  1.0
  H  H68  1  0.01040000  0.68982000  0.96269000  1.0
  H  H69  1  0.98960000  0.31016000  0.03732000  1.0
  H  H70  1  0.93480000  0.61693000  0.06824000  1.0
  H  H71  1  0.06520000  0.38306000  0.93177000  1.0
  H  H72  1  0.83476000  0.51864000  0.94676000  1.0
  H  H73  1  0.16524000  0.48136000  0.05324000  1.0
  H  H74  1  0.78234000  0.69249000  0.90240000  1.0
  H  H75  1  0.21767000  0.30751000  0.09760000  1.0
  H  H76  1  0.66070000  0.55462000  0.08698000  1.0
  H  H77  1  0.33929000  0.44538000  0.91302000  1.0
  H  H78  1  0.57530000  0.58898000  0.99065000  1.0
  H  H79  1  0.42470000  0.41103000  0.00935000  1.0
  H  H80  1  0.59272000  0.84592000  0.99036000  1.0
  H  H81  1  0.40728000  0.15408000  0.00964000  1.0
  H  H82  1  0.61054000  0.17733000  0.31014000  1.0
  H  H83  1  0.38946000  0.82265000  0.68985000  1.0
  H  H84  1  0.39225000  0.31436000  0.18909000  1.0
  H  H85  1  0.60772000  0.68564000  0.81092000  1.0
  C  C86  1  0.34764000  0.71297000  0.08712000  1.0
  C  C87  1  0.65237000  0.28703000  0.91288000  1.0
  C  C88  1  0.21008000  0.73808000  0.15388000  1.0
  C  C89  1  0.78992000  0.26191000  0.84612000  1.0
  C  C90  1  0.20792000  0.66235000  0.24791000  1.0
  C  C91  1  0.79208000  0.33765000  0.75209000  1.0
  C  C92  1  0.31694000  0.76135000  0.99167000  1.0
  C  C93  1  0.68306000  0.23865000  0.00833000  1.0
  C  C94  1  0.29287000  0.66111000  0.39643000  1.0
  C  C95  1  0.70713000  0.33889000  0.60357000  1.0
  C  C96  1  0.14839000  0.67027000  0.45751000  1.0
  C  C97  1  0.85161000  0.32974000  0.54249000  1.0
  C  C98  1  0.09896000  0.82237000  0.48084000  1.0
  C  C99  1  0.90104000  0.17763000  0.51916000  1.0
  C  C100  1  0.21122000  0.88072000  0.52588000  1.0
  C  C101  1  0.78879000  0.11929000  0.47412000  1.0
  C  C102  1  0.35710000  0.87301000  0.46695000  1.0
  C  C103  1  0.64290000  0.12700000  0.53305000  1.0
  C  C104  1  0.40574000  0.72100000  0.44233000  1.0
  C  C105  1  0.59426000  0.27901000  0.55767000  1.0
  C  C106  1  0.66136000  0.77997000  0.40857000  1.0
  C  C107  1  0.33864000  0.22003000  0.59143000  1.0
  C  C108  1  0.79836000  0.75505000  0.34125000  1.0
  C  C109  1  0.20164000  0.24495000  0.65875000  1.0
  C  C110  1  0.80025000  0.83249000  0.24761000  1.0
  C  C111  1  0.19976000  0.16750000  0.75239000  1.0
  C  C112  1  0.69240000  0.72978000  0.50379000  1.0
  C  C113  1  0.30761000  0.27023000  0.49621000  1.0
  C  C114  1  0.71325000  0.83858000  0.09939000  1.0
  C  C115  1  0.28675000  0.16141000  0.90061000  1.0
  C  C116  1  0.85622000  0.83660000  0.03675000  1.0
  C  C117  1  0.14379000  0.16339000  0.96325000  1.0
  C  C118  1  0.90968000  0.68740000  0.00901000  1.0
  C  C119  1  0.09032000  0.31259000  0.99100000  1.0
  C  C120  1  0.79745000  0.62692000  0.96503000  1.0
  C  C121  1  0.20255000  0.37308000  0.03498000  1.0
  C  C122  1  0.65388000  0.62784000  0.02639000  1.0
  C  C123  1  0.34612000  0.37217000  0.97361000  1.0
  C  C124  1  0.60134000  0.77798000  0.05308000  1.0
  C  C125  1  0.39866000  0.22202000  0.94692000  1.0
  C  C126  1  0.57881000  0.41047000  0.28467000  1.0
  C  C127  1  0.42119000  0.58952000  0.71533000  1.0
  C  C128  1  0.55044000  0.26223000  0.27365000  1.0
  C  C129  1  0.44956000  0.73776000  0.72634000  1.0
  C  C130  1  0.42566000  0.08098000  0.21433000  1.0
  C  C131  1  0.57432000  0.91903000  0.78567000  1.0
  C  C132  1  0.45268000  0.22968000  0.22553000  1.0
  C  C133  1  0.54731000  0.77031000  0.77447000  1.0
  N  N134  1  0.46274000  0.78623000  0.11332000  1.0
  N  N135  1  0.53726000  0.21378000  0.88668000  1.0
  N  N136  1  0.28754000  0.73203000  0.30507000  1.0
  N  N137  1  0.71246000  0.26798000  0.69493000  1.0
  N  N138  1  0.54518000  0.70772000  0.38290000  1.0
  N  N139  1  0.45482000  0.29228000  0.61710000  1.0
  N  N140  1  0.72266000  0.76294000  0.18917000  1.0
  N  N141  1  0.27734000  0.23706000  0.81083000  1.0
  O  O142  1  0.52437000  0.51037000  0.23348000  1.0
  O  O143  1  0.47563000  0.48964000  0.76653000  1.0
  O  O144  1  0.65276000  0.42633000  0.34601000  1.0
  O  O145  1  0.34724000  0.57365000  0.65399000  1.0
  O  O146  1  0.48656000  0.98116000  0.26225000  1.0
  O  O147  1  0.51344000  0.01884000  0.73775000  1.0
  O  O148  1  0.34667000  0.06482000  0.15567000  1.0
  O  O149  1  0.65332000  0.93520000  0.84433000  1.0
