# generated using pymatgen
data_Co3H16C16(OF)18
_symmetry_space_group_name_H-M   'P 1'
_cell_length_a   8.97707000
_cell_length_b   9.31208000
_cell_length_c   12.36190000
_cell_angle_alpha   105.05700000
_cell_angle_beta   93.20700000
_cell_angle_gamma   102.47000000
_symmetry_Int_Tables_number   1
_chemical_formula_structural   Co3H16C16(OF)18
_chemical_formula_sum   'Co3 H16 C16 O18 F18'
_cell_volume   967.47201331
_cell_formula_units_Z   1
loop_
 _symmetry_equiv_pos_site_id
 _symmetry_equiv_pos_as_xyz
  1  'x, y, z'
loop_
 _atom_site_type_symbol
 _atom_site_label
 _atom_site_symmetry_multiplicity
 _atom_site_fract_x
 _atom_site_fract_y
 _atom_site_fract_z
 _atom_site_occupancy
  Co  Co0  1  0.99944000  0.50055000  0.49938000  1.0
  Co  Co1  1  0.15711000  0.51086000  0.24801000  1.0
  Co  Co2  1  0.84110000  0.48863000  0.75290000  1.0
  H  H3  1  0.17755000  0.64017000  0.96967000  1.0
  H  H4  1  0.82283000  0.35910000  0.03043000  1.0
  H  H5  1  0.16161000  0.73897000  0.11248000  1.0
  H  H6  1  0.83905000  0.26065000  0.88757000  1.0
  H  H7  1  0.06497000  0.27113000  0.02554000  1.0
  H  H8  1  0.93547000  0.72845000  0.97477000  1.0
  H  H9  1  0.12103000  0.36346000  0.91847000  1.0
  H  H10  1  0.87956000  0.63616000  0.08189000  1.0
  H  H11  1  0.28866000  0.58654000  0.46059000  1.0
  H  H12  1  0.71773000  0.41481000  0.54035000  1.0
  H  H13  1  0.24353000  0.39745000  0.39776000  1.0
  H  H14  1  0.76236000  0.60457000  0.60454000  1.0
  H  H15  1  0.46070000  0.67953000  0.24587000  1.0
  H  H16  1  0.53792000  0.32046000  0.75565000  1.0
  H  H17  1  0.35424000  0.79299000  0.27825000  1.0
  H  H18  1  0.64394000  0.20679000  0.72243000  1.0
  C  C19  1  0.96158000  0.71265000  0.36710000  1.0
  C  C20  1  0.03730000  0.28756000  0.63237000  1.0
  C  C21  1  0.86743000  0.83038000  0.35381000  1.0
  C  C22  1  0.13173000  0.16972000  0.64525000  1.0
  C  C23  1  0.85278000  0.30394000  0.28423000  1.0
  C  C24  1  0.14585000  0.69670000  0.71499000  1.0
  C  C25  1  0.70120000  0.18814000  0.22246000  1.0
  C  C26  1  0.29739000  0.81225000  0.77721000  1.0
  C  C27  1  0.26312000  0.23113000  0.24071000  1.0
  C  C28  1  0.73708000  0.76793000  0.75963000  1.0
  C  C29  1  0.25380000  0.06825000  0.16276000  1.0
  C  C30  1  0.74621000  0.93132000  0.83651000  1.0
  C  C31  1  0.11164000  0.63863000  0.04174000  1.0
  C  C32  1  0.88884000  0.36090000  0.95846000  1.0
  C  C33  1  0.05511000  0.36614000  0.99116000  1.0
  C  C34  1  0.94535000  0.63342000  0.00914000  1.0
  O  O35  1  0.92595000  0.65144000  0.44508000  1.0
  O  O36  1  0.07269000  0.34916000  0.55456000  1.0
  O  O37  1  0.05518000  0.68973000  0.29612000  1.0
  O  O38  1  0.94403000  0.30992000  0.70374000  1.0
  O  O39  1  0.85658000  0.34004000  0.39090000  1.0
  O  O40  1  0.14210000  0.66160000  0.60833000  1.0
  O  O41  1  0.94931000  0.34664000  0.22274000  1.0
  O  O42  1  0.04959000  0.65345000  0.77648000  1.0
  O  O43  1  0.25618000  0.32944000  0.18762000  1.0
  O  O44  1  0.74138000  0.66982000  0.81323000  1.0
  O  O45  1  0.26844000  0.24555000  0.34486000  1.0
  O  O46  1  0.73504000  0.75291000  0.65536000  1.0
  O  O47  1  0.12423000  0.50607000  0.07914000  1.0
  O  O48  1  0.87615000  0.49350000  0.92125000  1.0
  O  O49  1  0.36713000  0.69210000  0.27949000  1.0
  O  O50  1  0.63097000  0.30769000  0.72132000  1.0
  O  O51  1  0.21038000  0.50216000  0.41082000  1.0
  O  O52  1  0.79569000  0.49860000  0.59119000  1.0
  F  F53  1  0.81549000  0.89664000  0.45004000  1.0
  F  F54  1  0.18418000  0.10433000  0.54900000  1.0
  F  F55  1  0.94869000  0.94169000  0.31433000  1.0
  F  F56  1  0.05057000  0.05758000  0.68406000  1.0
  F  F57  1  0.73990000  0.75327000  0.27526000  1.0
  F  F58  1  0.25896000  0.24646000  0.72416000  1.0
  F  F59  1  0.58343000  0.19975000  0.28630000  1.0
  F  F60  1  0.41440000  0.80582000  0.71207000  1.0
  F  F61  1  0.71601000  0.04123000  0.19947000  1.0
  F  F62  1  0.28067000  0.95870000  0.80482000  1.0
  F  F63  1  0.65997000  0.21427000  0.12315000  1.0
  F  F64  1  0.34124000  0.78127000  0.87411000  1.0
  F  F65  1  0.33994000  0.06808000  0.07651000  1.0
  F  F66  1  0.65930000  0.93250000  0.92238000  1.0
  F  F67  1  0.10453000  0.00176000  0.11669000  1.0
  F  F68  1  0.89537000  0.99745000  0.88299000  1.0
  F  F69  1  0.29826000  0.97433000  0.22074000  1.0
  F  F70  1  0.70290000  0.02473000  0.77761000  1.0
