# generated using pymatgen
data_CdH8C8S2(N3O)2
_symmetry_space_group_name_H-M   'P 1'
_cell_length_a   6.77217000
_cell_length_b   8.35148000
_cell_length_c   12.79360000
_cell_angle_alpha   79.30200000
_cell_angle_beta   89.99730000
_cell_angle_gamma   89.99650000
_symmetry_Int_Tables_number   1
_chemical_formula_structural   CdH8C8S2(N3O)2
_chemical_formula_sum   'Cd2 H16 C16 S4 N12 O4'
_cell_volume   710.99957937
_cell_formula_units_Z   2
loop_
 _symmetry_equiv_pos_site_id
 _symmetry_equiv_pos_as_xyz
  1  'x, y, z'
loop_
 _atom_site_type_symbol
 _atom_site_label
 _atom_site_symmetry_multiplicity
 _atom_site_fract_x
 _atom_site_fract_y
 _atom_site_fract_z
 _atom_site_occupancy
  Cd  Cd0  1  0.99999000  0.50000000  0.00000000  1.0
  Cd  Cd1  1  0.50000000  0.00000000  0.50000000  1.0
  H  H2  1  0.93283000  0.54238000  0.77257000  1.0
  H  H3  1  0.43282000  0.95762000  0.72743000  1.0
  H  H4  1  0.06717000  0.45762000  0.22743000  1.0
  H  H5  1  0.56717000  0.04237000  0.27256000  1.0
  H  H6  1  0.76549000  0.63380000  0.82631000  1.0
  H  H7  1  0.26549000  0.86621000  0.67369000  1.0
  H  H8  1  0.23450000  0.36620000  0.17368000  1.0
  H  H9  1  0.73450000  0.13380000  0.32630000  1.0
  H  H10  1  0.10753000  0.08442000  0.79424000  1.0
  H  H11  1  0.60753000  0.41563000  0.70577000  1.0
  H  H12  1  0.89248000  0.91559000  0.20576000  1.0
  H  H13  1  0.39249000  0.58436000  0.29423000  1.0
  H  H14  1  0.13681000  0.29572000  0.77124000  1.0
  H  H15  1  0.63681000  0.20429000  0.72876000  1.0
  H  H16  1  0.86321000  0.70428000  0.22876000  1.0
  H  H17  1  0.36320000  0.79571000  0.27124000  1.0
  C  C18  1  0.19946000  0.88160000  0.96155000  1.0
  C  C19  1  0.69946000  0.61842000  0.53845000  1.0
  C  C20  1  0.80053000  0.11840000  0.03845000  1.0
  C  C21  1  0.30055000  0.38159000  0.46154000  1.0
  C  C22  1  0.32091000  0.02870000  0.09247000  1.0
  C  C23  1  0.82090000  0.47129000  0.40752000  1.0
  C  C24  1  0.67908000  0.97130000  0.90753000  1.0
  C  C25  1  0.17910000  0.52872000  0.59247000  1.0
  C  C26  1  0.24914000  0.03086000  0.98959000  1.0
  C  C27  1  0.74914000  0.46914000  0.51041000  1.0
  C  C28  1  0.75085000  0.96913000  0.01041000  1.0
  C  C29  1  0.25087000  0.53086000  0.48958000  1.0
  C  C30  1  0.22675000  0.18211000  0.91766000  1.0
  C  C31  1  0.72674000  0.31789000  0.58235000  1.0
  C  C32  1  0.77325000  0.81789000  0.08235000  1.0
  C  C33  1  0.27327000  0.68211000  0.41764000  1.0
  S  S34  1  0.31784000  0.35769000  0.95190000  1.0
  S  S35  1  0.81785000  0.14229000  0.54811000  1.0
  S  S36  1  0.68215000  0.64231000  0.04811000  1.0
  S  S37  1  0.18216000  0.85771000  0.45189000  1.0
  N  N38  1  0.15713000  0.75923000  0.93464000  1.0
  N  N39  1  0.65712000  0.74080000  0.56536000  1.0
  N  N40  1  0.84286000  0.24078000  0.06536000  1.0
  N  N41  1  0.34288000  0.25919000  0.43464000  1.0
  N  N42  1  0.37740000  0.01972000  0.18011000  1.0
  N  N43  1  0.87739000  0.48028000  0.31989000  1.0
  N  N44  1  0.62259000  0.98027000  0.81990000  1.0
  N  N45  1  0.12261000  0.51973000  0.68011000  1.0
  N  N46  1  0.14117000  0.18688000  0.82308000  1.0
  N  N47  1  0.64116000  0.31315000  0.67694000  1.0
  N  N48  1  0.85883000  0.81313000  0.17693000  1.0
  N  N49  1  0.35885000  0.68685000  0.32306000  1.0
  O  O50  1  0.82923000  0.52828000  0.82887000  1.0
  O  O51  1  0.32923000  0.97172000  0.67113000  1.0
  O  O52  1  0.17077000  0.47172000  0.17112000  1.0
  O  O53  1  0.67077000  0.02828000  0.32887000  1.0
