# generated using pymatgen
data_BaH18C7(BrO4)2
_symmetry_space_group_name_H-M   'P 1'
_cell_length_a   7.37756000
_cell_length_b   8.40676966
_cell_length_c   13.48360000
_cell_angle_alpha   89.99998772
_cell_angle_beta   89.99990000
_cell_angle_gamma   115.99642136
_symmetry_Int_Tables_number   1
_chemical_formula_structural   BaH18C7(BrO4)2
_chemical_formula_sum   'Ba2 H36 C14 Br4 O16'
_cell_volume   751.65954139
_cell_formula_units_Z   2
loop_
 _symmetry_equiv_pos_site_id
 _symmetry_equiv_pos_as_xyz
  1  'x, y, z'
loop_
 _atom_site_type_symbol
 _atom_site_label
 _atom_site_symmetry_multiplicity
 _atom_site_fract_x
 _atom_site_fract_y
 _atom_site_fract_z
 _atom_site_occupancy
  Ba  Ba0  1  0.12436000  0.24861000  0.25003000  1.0
  Ba  Ba1  1  0.87564000  0.75139000  0.75003000  1.0
  H  H2  1  0.29411000  0.94878000  0.32401000  1.0
  H  H3  1  0.70589000  0.05122000  0.82401000  1.0
  H  H4  1  0.65493000  0.94888000  0.17599000  1.0
  H  H5  1  0.34507000  0.05111000  0.67600000  1.0
  H  H6  1  0.48518000  0.79501000  0.02764000  1.0
  H  H7  1  0.51482000  0.20499000  0.52764000  1.0
  H  H8  1  0.30994000  0.79501000  0.47231000  1.0
  H  H9  1  0.69005000  0.20499000  0.97231000  1.0
  H  H10  1  0.99514000  0.75113000  0.21951000  1.0
  H  H11  1  0.00486000  0.24887000  0.71951000  1.0
  H  H12  1  0.75664000  0.75120000  0.28042000  1.0
  H  H13  1  0.24336000  0.24880000  0.78042000  1.0
  H  H14  1  0.23099000  0.74385000  0.20947000  1.0
  H  H15  1  0.76901000  0.25615000  0.70947000  1.0
  H  H16  1  0.51344000  0.74381000  0.29043000  1.0
  H  H17  1  0.48656000  0.25619000  0.79043000  1.0
  H  H18  1  0.07996000  0.76992000  0.04802000  1.0
  H  H19  1  0.92004000  0.23008000  0.54802000  1.0
  H  H20  1  0.69022000  0.76970000  0.45193000  1.0
  H  H21  1  0.30978000  0.23030000  0.95193000  1.0
  H  H22  1  0.46313000  0.10589000  0.09666000  1.0
  H  H23  1  0.53687000  0.89411000  0.59666000  1.0
  H  H24  1  0.64273000  0.10570000  0.40329000  1.0
  H  H25  1  0.35728000  0.89431000  0.90329000  1.0
  H  H26  1  0.82820000  0.87992000  0.00112000  1.0
  H  H27  1  0.17180000  0.12008000  0.50113000  1.0
  H  H28  1  0.05186000  0.87984000  0.49905000  1.0
  H  H29  1  0.94814000  0.12016000  0.99905000  1.0
  H  H30  1  0.85302000  0.43906000  0.36242000  1.0
  H  H31  1  0.14698000  0.56094000  0.86242000  1.0
  H  H32  1  0.58606000  0.43886000  0.13766000  1.0
  H  H33  1  0.41395000  0.56114000  0.63766000  1.0
  H  H34  1  0.03886000  0.49736000  0.43193000  1.0
  H  H35  1  0.96114000  0.50264000  0.93193000  1.0
  H  H36  1  0.45851000  0.49719000  0.06813000  1.0
  H  H37  1  0.54149000  0.50281000  0.56813000  1.0
  C  C38  1  0.15516000  0.82997000  0.20043000  1.0
  C  C39  1  0.84484000  0.17003000  0.70043000  1.0
  C  C40  1  0.67525000  0.82996000  0.29952000  1.0
  C  C41  1  0.32475000  0.17004000  0.79952000  1.0
  C  C42  1  0.17002000  0.88741000  0.09319000  1.0
  C  C43  1  0.82997000  0.11258000  0.59319000  1.0
  C  C44  1  0.71761000  0.88725000  0.40680000  1.0
  C  C45  1  0.28239000  0.11275000  0.90680000  1.0
  C  C46  1  0.38871000  0.98019000  0.05567000  1.0
  C  C47  1  0.61129000  0.01981000  0.55566000  1.0
  C  C48  1  0.59150000  0.98002000  0.44428000  1.0
  C  C49  1  0.40850000  0.01998000  0.94428000  1.0
  C  C50  1  0.97243000  0.00004000  0.00006000  1.0
  C  C51  1  0.02757000  0.99996000  0.50006000  1.0
  Br  Br52  1  0.87687000  0.39338000  0.09212000  1.0
  Br  Br53  1  0.12313000  0.60661000  0.59212000  1.0
  Br  Br54  1  0.51668000  0.39364000  0.40787000  1.0
  Br  Br55  1  0.48332000  0.60636000  0.90787000  1.0
  O  O56  1  0.24600000  0.98338000  0.26228000  1.0
  O  O57  1  0.75400000  0.01662000  0.76228000  1.0
  O  O58  1  0.73763000  0.98342000  0.23772000  1.0
  O  O59  1  0.26238000  0.01658000  0.73772000  1.0
  O  O60  1  0.08723000  0.01511000  0.08664000  1.0
  O  O61  1  0.91276000  0.98488000  0.58664000  1.0
  O  O62  1  0.92793000  0.01496000  0.41342000  1.0
  O  O63  1  0.07206000  0.98504000  0.91342000  1.0
  O  O64  1  0.49576000  0.87927000  0.08151000  1.0
  O  O65  1  0.50424000  0.12073000  0.58151000  1.0
  O  O66  1  0.38370000  0.87907000  0.41838000  1.0
  O  O67  1  0.61631000  0.12094000  0.91838000  1.0
  O  O68  1  0.99201000  0.45091000  0.36461000  1.0
  O  O69  1  0.00799000  0.54909000  0.86461000  1.0
  O  O70  1  0.45891000  0.45071000  0.13545000  1.0
  O  O71  1  0.54109000  0.54929000  0.63545000  1.0
