# generated using pymatgen
data_V4NiH32C12(NO2)6
_symmetry_space_group_name_H-M   'P 1'
_cell_length_a   9.34840000
_cell_length_b   9.69615000
_cell_length_c   13.66700000
_cell_angle_alpha   103.28900000
_cell_angle_beta   90.00000000
_cell_angle_gamma   89.99990000
_symmetry_Int_Tables_number   1
_chemical_formula_structural   V4NiH32C12(NO2)6
_chemical_formula_sum   'V8 Ni2 H64 C24 N12 O24'
_cell_volume   1205.65258057
_cell_formula_units_Z   2
loop_
 _symmetry_equiv_pos_site_id
 _symmetry_equiv_pos_as_xyz
  1  'x, y, z'
loop_
 _atom_site_type_symbol
 _atom_site_label
 _atom_site_symmetry_multiplicity
 _atom_site_fract_x
 _atom_site_fract_y
 _atom_site_fract_z
 _atom_site_occupancy
  V  V0  1  0.10750000  0.13538000  0.27685000  1.0
  V  V1  1  0.60750000  0.36463000  0.22316000  1.0
  V  V2  1  0.89249000  0.86462000  0.72316000  1.0
  V  V3  1  0.39250000  0.63536000  0.77684000  1.0
  V  V4  1  0.95984000  0.43926000  0.28517000  1.0
  V  V5  1  0.45984000  0.06075000  0.21483000  1.0
  V  V6  1  0.04016000  0.56074000  0.71483000  1.0
  V  V7  1  0.54016000  0.93925000  0.78517000  1.0
  Ni  Ni8  1  0.00000000  0.00000000  0.00000000  1.0
  Ni  Ni9  1  0.50000000  0.50000000  0.50000000  1.0
  H  H10  1  0.17839000  0.82269000  0.91395000  1.0
  H  H11  1  0.67839000  0.67732000  0.58605000  1.0
  H  H12  1  0.82161000  0.17731000  0.08605000  1.0
  H  H13  1  0.32161000  0.32268000  0.41395000  1.0
  H  H14  1  0.26550000  0.91921000  0.01255000  1.0
  H  H15  1  0.76550000  0.58080000  0.48746000  1.0
  H  H16  1  0.73451000  0.08079000  0.98745000  1.0
  H  H17  1  0.23451000  0.41921000  0.51254000  1.0
  H  H18  1  0.57703000  0.62535000  0.13458000  1.0
  H  H19  1  0.07703000  0.87465000  0.36542000  1.0
  H  H20  1  0.42297000  0.37465000  0.86542000  1.0
  H  H21  1  0.92297000  0.12535000  0.63458000  1.0
  H  H22  1  0.54845000  0.79567000  0.11861000  1.0
  H  H23  1  0.04845000  0.70434000  0.38139000  1.0
  H  H24  1  0.45155000  0.20433000  0.88139000  1.0
  H  H25  1  0.95155000  0.29566000  0.61861000  1.0
  H  H26  1  0.77572000  0.96811000  0.15388000  1.0
  H  H27  1  0.27572000  0.53190000  0.34611000  1.0
  H  H28  1  0.22428000  0.03189000  0.84612000  1.0
  H  H29  1  0.72428000  0.46811000  0.65388000  1.0
  H  H30  1  0.93197000  0.89732000  0.19416000  1.0
  H  H31  1  0.43197000  0.60268000  0.30584000  1.0
  H  H32  1  0.06803000  0.10268000  0.80584000  1.0
  H  H33  1  0.56803000  0.39732000  0.69416000  1.0
  H  H34  1  0.21932000  0.68131000  0.03279000  1.0
  H  H35  1  0.71932000  0.81869000  0.46721000  1.0
  H  H36  1  0.78068000  0.31869000  0.96721000  1.0
  H  H37  1  0.28068000  0.18131000  0.53279000  1.0
  H  H38  1  0.14900000  0.82105000  0.12758000  1.0
  H  H39  1  0.64900000  0.67896000  0.37242000  1.0
  H  H40  1  0.85100000  0.17896000  0.87242000  1.0
  H  H41  1  0.35100000  0.32105000  0.62758000  1.0
  H  H42  1  0.57733000  0.63914000  0.95780000  1.0
  H  H43  1  0.07734000  0.86087000  0.54220000  1.0
  H  H44  1  0.42267000  0.36086000  0.04220000  1.0
  H  H45  1  0.92267000  0.13913000  0.45780000  1.0
  H  H46  1  0.73579000  0.56956000  0.99894000  1.0
  H  H47  1  0.23579000  0.93044000  0.50106000  1.0
  H  H48  1  0.26421000  0.43044000  0.00106000  1.0
  H  H49  1  0.76421000  0.06956000  0.49894000  1.0
  H  H50  1  0.79070000  0.74703000  0.89659000  1.0
  H  H51  1  0.29069000  0.75297000  0.60341000  1.0
  H  H52  1  0.20930000  0.25297000  0.10341000  1.0
  H  H53  1  0.70931000  0.24703000  0.39659000  1.0
  H  H54  1  0.68685000  0.87571000  0.98041000  1.0
  H  H55  1  0.18684000  0.62430000  0.51959000  1.0
  H  H56  1  0.31316000  0.12430000  0.01959000  1.0
  H  H57  1  0.81316000  0.37570000  0.48041000  1.0
  H  H58  1  0.81226000  0.66388000  0.18212000  1.0
  H  H59  1  0.31226000  0.83613000  0.31788000  1.0
  H  H60  1  0.18774000  0.33612000  0.81788000  1.0
  H  H61  1  0.68774000  0.16388000  0.68213000  1.0
  H  H62  1  0.70927000  0.80603000  0.25539000  1.0
  H  H63  1  0.20927000  0.69397000  0.24461000  1.0
  H  H64  1  0.29073000  0.19396000  0.74461000  1.0
  H  H65  1  0.79073000  0.30604000  0.75539000  1.0
  H  H66  1  0.98572000  0.65264000  0.94286000  1.0
  H  H67  1  0.48571000  0.84736000  0.55714000  1.0
  H  H68  1  0.01428000  0.34736000  0.05714000  1.0
  H  H69  1  0.51429000  0.15264000  0.44286000  1.0
  H  H70  1  0.96622000  0.63159000  0.06795000  1.0
  H  H71  1  0.46622000  0.86841000  0.43205000  1.0
  H  H72  1  0.03378000  0.36841000  0.93205000  1.0
  H  H73  1  0.53378000  0.13160000  0.56795000  1.0
  C  C74  1  0.83875000  0.87054000  0.14501000  1.0
  C  C75  1  0.33875000  0.62947000  0.35499000  1.0
  C  C76  1  0.16125000  0.12946000  0.85499000  1.0
  C  C77  1  0.66125000  0.37054000  0.64501000  1.0
  C  C78  1  0.13961000  0.76721000  0.04798000  1.0
  C  C79  1  0.63961000  0.73279000  0.45203000  1.0
  C  C80  1  0.86039000  0.23279000  0.95203000  1.0
  C  C81  1  0.36039000  0.26721000  0.54797000  1.0
  C  C82  1  0.67194000  0.66641000  0.00578000  1.0
  C  C83  1  0.17194000  0.83360000  0.49422000  1.0
  C  C84  1  0.32806000  0.33359000  0.99422000  1.0
  C  C85  1  0.82806000  0.16640000  0.50578000  1.0
  C  C86  1  0.75651000  0.78304000  0.97479000  1.0
  C  C87  1  0.25651000  0.71696000  0.52521000  1.0
  C  C88  1  0.24349000  0.21696000  0.02521000  1.0
  C  C89  1  0.74349000  0.28303000  0.47479000  1.0
  C  C90  1  0.75013000  0.75932000  0.17998000  1.0
  C  C91  1  0.25013000  0.74068000  0.32002000  1.0
  C  C92  1  0.24987000  0.24068000  0.82002000  1.0
  C  C93  1  0.74987000  0.25932000  0.67998000  1.0
  C  C94  1  0.99143000  0.70851000  0.02247000  1.0
  C  C95  1  0.49143000  0.79149000  0.47753000  1.0
  C  C96  1  0.00857000  0.29149000  0.97753000  1.0
  C  C97  1  0.50857000  0.20851000  0.52247000  1.0
  N  N98  1  0.88535000  0.82709000  0.03830000  1.0
  N  N99  1  0.38535000  0.67291000  0.46170000  1.0
  N  N100  1  0.11465000  0.17291000  0.96170000  1.0
  N  N101  1  0.61465000  0.32709000  0.53830000  1.0
  N  N102  1  0.16861000  0.87336000  0.98852000  1.0
  N  N103  1  0.66861000  0.62665000  0.51148000  1.0
  N  N104  1  0.83140000  0.12664000  0.01148000  1.0
  N  N105  1  0.33140000  0.37335000  0.48852000  1.0
  N  N106  1  0.62541000  0.71339000  0.11237000  1.0
  N  N107  1  0.12541000  0.78662000  0.38763000  1.0
  N  N108  1  0.37459000  0.28661000  0.88763000  1.0
  N  N109  1  0.87459000  0.21338000  0.61237000  1.0
  O  O110  1  0.05036000  0.09849000  0.15913000  1.0
  O  O111  1  0.55037000  0.40152000  0.34087000  1.0
  O  O112  1  0.94964000  0.90150000  0.84087000  1.0
  O  O113  1  0.44962000  0.59847000  0.65912000  1.0
  O  O114  1  0.04034000  0.01484000  0.33426000  1.0
  O  O115  1  0.54034000  0.48518000  0.16575000  1.0
  O  O116  1  0.95966000  0.98516000  0.66574000  1.0
  O  O117  1  0.45966000  0.51482000  0.83425000  1.0
  O  O118  1  0.92387000  0.57939000  0.37870000  1.0
  O  O119  1  0.42387000  0.92063000  0.12129000  1.0
  O  O120  1  0.07613000  0.42061000  0.62129000  1.0
  O  O121  1  0.57612000  0.07937000  0.87872000  1.0
  O  O122  1  0.04712000  0.30839000  0.34109000  1.0
  O  O123  1  0.54712000  0.19164000  0.15892000  1.0
  O  O124  1  0.95286000  0.69161000  0.65891000  1.0
  O  O125  1  0.45288000  0.80836000  0.84108000  1.0
  O  O126  1  0.30015000  0.13373000  0.28241000  1.0
  O  O127  1  0.80016000  0.36628000  0.21759000  1.0
  O  O128  1  0.69985000  0.86628000  0.71759000  1.0
  O  O129  1  0.19983000  0.63371000  0.78241000  1.0
  O  O130  1  0.06738000  0.49075000  0.20520000  1.0
  O  O131  1  0.56737000  0.00926000  0.29479000  1.0
  O  O132  1  0.93262000  0.50924000  0.79479000  1.0
  O  O133  1  0.43263000  0.99075000  0.70521000  1.0
