# generated using pymatgen
data_CuH8C12(SN2)2
_symmetry_space_group_name_H-M   'P 1'
_cell_length_a   7.94595000
_cell_length_b   8.64682000
_cell_length_c   10.35460000
_cell_angle_alpha   88.22850000
_cell_angle_beta   86.16290000
_cell_angle_gamma   62.66110000
_symmetry_Int_Tables_number   1
_chemical_formula_structural   CuH8C12(SN2)2
_chemical_formula_sum   'Cu2 H16 C24 S4 N8'
_cell_volume   630.55554684
_cell_formula_units_Z   2
loop_
 _symmetry_equiv_pos_site_id
 _symmetry_equiv_pos_as_xyz
  1  'x, y, z'
loop_
 _atom_site_type_symbol
 _atom_site_label
 _atom_site_symmetry_multiplicity
 _atom_site_fract_x
 _atom_site_fract_y
 _atom_site_fract_z
 _atom_site_occupancy
  Cu  Cu0  1  0.10139000  0.79690000  0.24985000  1.0
  Cu  Cu1  1  0.89861000  0.20310000  0.75016000  1.0
  H  H2  1  0.29835000  0.15812000  0.29857000  1.0
  H  H3  1  0.54301000  0.15812000  0.20141000  1.0
  H  H4  1  0.70166000  0.84188000  0.70143000  1.0
  H  H5  1  0.45699000  0.84188000  0.79858000  1.0
  H  H6  1  0.99116000  0.18720000  0.39314000  1.0
  H  H7  1  0.82133000  0.18717000  0.10715000  1.0
  H  H8  1  0.00884000  0.81280000  0.60685000  1.0
  H  H9  1  0.17867000  0.81283000  0.89284000  1.0
  H  H10  1  0.71793000  0.48581000  0.42954000  1.0
  H  H11  1  0.79605000  0.48587000  0.07088000  1.0
  H  H12  1  0.28207000  0.51419000  0.57045000  1.0
  H  H13  1  0.20394000  0.51413000  0.92911000  1.0
  H  H14  1  0.76840000  0.74588000  0.36822000  1.0
  H  H15  1  0.48562000  0.74588000  0.13208000  1.0
  H  H16  1  0.23160000  0.25412000  0.63178000  1.0
  H  H17  1  0.51438000  0.25412000  0.86792000  1.0
  C  C18  1  0.19522000  0.43687000  0.27980000  1.0
  C  C19  1  0.36757000  0.43685000  0.22022000  1.0
  C  C20  1  0.80479000  0.56314000  0.72021000  1.0
  C  C21  1  0.63242000  0.56315000  0.77978000  1.0
  C  C22  1  0.17875000  0.28669000  0.31357000  1.0
  C  C23  1  0.53414000  0.28667000  0.18646000  1.0
  C  C24  1  0.82126000  0.71331000  0.68643000  1.0
  C  C25  1  0.46586000  0.71333000  0.81353000  1.0
  C  C26  1  0.00641000  0.30309000  0.36758000  1.0
  C  C27  1  0.69018000  0.30312000  0.13266000  1.0
  C  C28  1  0.99359000  0.69691000  0.63242000  1.0
  C  C29  1  0.30981000  0.69688000  0.86733000  1.0
  C  C30  1  0.85469000  0.46864000  0.38727000  1.0
  C  C31  1  0.67643000  0.46867000  0.11305000  1.0
  C  C32  1  0.14531000  0.53136000  0.61273000  1.0
  C  C33  1  0.32357000  0.53133000  0.88695000  1.0
  C  C34  1  0.88097000  0.61340000  0.35352000  1.0
  C  C35  1  0.50540000  0.61343000  0.14669000  1.0
  C  C36  1  0.11903000  0.38661000  0.64647000  1.0
  C  C37  1  0.49459000  0.38657000  0.85331000  1.0
  C  C38  1  0.83372000  0.94143000  0.93222000  1.0
  C  C39  1  0.22511000  0.94151000  0.56813000  1.0
  C  C40  1  0.16629000  0.05856000  0.06779000  1.0
  C  C41  1  0.77489000  0.05849000  0.43187000  1.0
  S  S42  1  0.81855000  0.80911000  0.04023000  1.0
  S  S43  1  0.37306000  0.80936000  0.46028000  1.0
  S  S44  1  0.18147000  0.19087000  0.95978000  1.0
  S  S45  1  0.62694000  0.19065000  0.53972000  1.0
  N  N46  1  0.04741000  0.59712000  0.30123000  1.0
  N  N47  1  0.35520000  0.59710000  0.19881000  1.0
  N  N48  1  0.95259000  0.40288000  0.69877000  1.0
  N  N49  1  0.64480000  0.40290000  0.80119000  1.0
  N  N50  1  0.84580000  0.03767000  0.85212000  1.0
  N  N51  1  0.11638000  0.03774000  0.64803000  1.0
  N  N52  1  0.15421000  0.96232000  0.14790000  1.0
  N  N53  1  0.88362000  0.96227000  0.35198000  1.0
