# generated using pymatgen
data_NiH12C20(NO2)2
_symmetry_space_group_name_H-M   'P 1'
_cell_length_a   15.45390000
_cell_length_b   16.92060000
_cell_length_c   16.92060000
_cell_angle_alpha   90.00000000
_cell_angle_beta   90.00000000
_cell_angle_gamma   90.00000000
_symmetry_Int_Tables_number   1
_chemical_formula_structural   NiH12C20(NO2)2
_chemical_formula_sum   'Ni8 H96 C160 N16 O32'
_cell_volume   4424.55517851
_cell_formula_units_Z   8
loop_
 _symmetry_equiv_pos_site_id
 _symmetry_equiv_pos_as_xyz
  1  'x, y, z'
loop_
 _atom_site_type_symbol
 _atom_site_label
 _atom_site_symmetry_multiplicity
 _atom_site_fract_x
 _atom_site_fract_y
 _atom_site_fract_z
 _atom_site_occupancy
  Ni  Ni0  1  0.01880000  0.73414000  0.26517000  1.0
  Ni  Ni1  1  0.51880000  0.26586000  0.73483000  1.0
  Ni  Ni2  1  0.76880000  0.23483000  0.23414000  1.0
  Ni  Ni3  1  0.26880000  0.76517000  0.76586000  1.0
  Ni  Ni4  1  0.73120000  0.76586000  0.76517000  1.0
  Ni  Ni5  1  0.23120000  0.23414000  0.23483000  1.0
  Ni  Ni6  1  0.98120000  0.26517000  0.73414000  1.0
  Ni  Ni7  1  0.48120000  0.73483000  0.26586000  1.0
  H  H8  1  0.10850000  0.79724000  0.71774000  1.0
  H  H9  1  0.60850000  0.20276000  0.28226000  1.0
  H  H10  1  0.85850000  0.78226000  0.29724000  1.0
  H  H11  1  0.35850000  0.21774000  0.70276000  1.0
  H  H12  1  0.64150000  0.70276000  0.21774000  1.0
  H  H13  1  0.14150000  0.29724000  0.78226000  1.0
  H  H14  1  0.89150000  0.71774000  0.79724000  1.0
  H  H15  1  0.39150000  0.28226000  0.20276000  1.0
  H  H16  1  0.22602000  0.70298000  0.42216000  1.0
  H  H17  1  0.72602000  0.29702000  0.57784000  1.0
  H  H18  1  0.97602000  0.07784000  0.20298000  1.0
  H  H19  1  0.47602000  0.92216000  0.79702000  1.0
  H  H20  1  0.52398000  0.79702000  0.92216000  1.0
  H  H21  1  0.02398000  0.20298000  0.07784000  1.0
  H  H22  1  0.77398000  0.42216000  0.70298000  1.0
  H  H23  1  0.27398000  0.57784000  0.29702000  1.0
  H  H24  1  0.65727000  0.51825000  0.30722000  1.0
  H  H25  1  0.15727000  0.48175000  0.69278000  1.0
  H  H26  1  0.40727000  0.19278000  0.01825000  1.0
  H  H27  1  0.90727000  0.80722000  0.98175000  1.0
  H  H28  1  0.09273000  0.98175000  0.80722000  1.0
  H  H29  1  0.59273000  0.01825000  0.19278000  1.0
  H  H30  1  0.34273000  0.30722000  0.51825000  1.0
  H  H31  1  0.84273000  0.69278000  0.48175000  1.0
  H  H32  1  0.69555000  0.37854000  0.27325000  1.0
  H  H33  1  0.19555000  0.62146000  0.72675000  1.0
  H  H34  1  0.44555000  0.22675000  0.87854000  1.0
  H  H35  1  0.94555000  0.77325000  0.12146000  1.0
  H  H36  1  0.05445000  0.12146000  0.77325000  1.0
  H  H37  1  0.55445000  0.87854000  0.22675000  1.0
  H  H38  1  0.30445000  0.27325000  0.37854000  1.0
  H  H39  1  0.80445000  0.72675000  0.62146000  1.0
  H  H40  1  0.01907000  0.49440000  0.18742000  1.0
  H  H41  1  0.51907000  0.50560000  0.81258000  1.0
  H  H42  1  0.76907000  0.31258000  0.99440000  1.0
  H  H43  1  0.26907000  0.68742000  0.00560000  1.0
  H  H44  1  0.73093000  0.00560000  0.68741000  1.0
  H  H45  1  0.23093000  0.99440000  0.31258000  1.0
  H  H46  1  0.98093000  0.18742000  0.49440000  1.0
  H  H47  1  0.48093000  0.81258000  0.50560000  1.0
  H  H48  1  0.04695000  0.35268000  0.14676000  1.0
  H  H49  1  0.54695000  0.64732000  0.85324000  1.0
  H  H50  1  0.79695000  0.35324000  0.85268000  1.0
  H  H51  1  0.29695000  0.64676000  0.14732000  1.0
  H  H52  1  0.70305000  0.14732000  0.64676000  1.0
  H  H53  1  0.20305000  0.85268000  0.35324000  1.0
  H  H54  1  0.95305000  0.14676000  0.35268000  1.0
  H  H55  1  0.45305000  0.85324000  0.64732000  1.0
  H  H56  1  0.76698000  0.62430000  0.29196000  1.0
  H  H57  1  0.26698000  0.37570000  0.70804000  1.0
  H  H58  1  0.51698000  0.20804000  0.12430000  1.0
  H  H59  1  0.01698000  0.79196000  0.87570000  1.0
  H  H60  1  0.98302000  0.87570000  0.79196000  1.0
  H  H61  1  0.48302000  0.12430000  0.20804000  1.0
  H  H62  1  0.23302000  0.29196000  0.62430000  1.0
  H  H63  1  0.73302000  0.70804000  0.37570000  1.0
  H  H64  1  0.94513000  0.78927000  0.51154000  1.0
  H  H65  1  0.44513000  0.21073000  0.48846000  1.0
  H  H66  1  0.69513000  0.98846000  0.28927000  1.0
  H  H67  1  0.19513000  0.01154000  0.71073000  1.0
  H  H68  1  0.80487000  0.71073000  0.01154000  1.0
  H  H69  1  0.30487000  0.28927000  0.98846000  1.0
  H  H70  1  0.05487000  0.51154000  0.78927000  1.0
  H  H71  1  0.55487000  0.48846000  0.21073000  1.0
  H  H72  1  0.36901000  0.68773000  0.49157000  1.0
  H  H73  1  0.86901000  0.31227000  0.50843000  1.0
  H  H74  1  0.11901000  0.00843000  0.18773000  1.0
  H  H75  1  0.61901000  0.99157000  0.81227000  1.0
  H  H76  1  0.38099000  0.81227000  0.99157000  1.0
  H  H77  1  0.88099000  0.18773000  0.00843000  1.0
  H  H78  1  0.63099000  0.49157000  0.68773000  1.0
  H  H79  1  0.13099000  0.50843000  0.31227000  1.0
  H  H80  1  0.96336000  0.81388000  0.65576000  1.0
  H  H81  1  0.46336000  0.18612000  0.34424000  1.0
  H  H82  1  0.71336000  0.84424000  0.31388000  1.0
  H  H83  1  0.21336000  0.15576000  0.68612000  1.0
  H  H84  1  0.78664000  0.68612000  0.15576000  1.0
  H  H85  1  0.28664000  0.31388000  0.84424000  1.0
  H  H86  1  0.03664000  0.65576000  0.81388000  1.0
  H  H87  1  0.53664000  0.34424000  0.18612000  1.0
  H  H88  1  0.93347000  0.25220000  0.17284000  1.0
  H  H89  1  0.43347000  0.74780000  0.82716000  1.0
  H  H90  1  0.68347000  0.32716000  0.75220000  1.0
  H  H91  1  0.18347000  0.67284000  0.24780000  1.0
  H  H92  1  0.81653000  0.24780000  0.67284000  1.0
  H  H93  1  0.31653000  0.75220000  0.32716000  1.0
  H  H94  1  0.06653000  0.17284000  0.25220000  1.0
  H  H95  1  0.56653000  0.82716000  0.74780000  1.0
  H  H96  1  0.37661000  0.71668000  0.63623000  1.0
  H  H97  1  0.87661000  0.28332000  0.36377000  1.0
  H  H98  1  0.12661000  0.86377000  0.21668000  1.0
  H  H99  1  0.62661000  0.13623000  0.78332000  1.0
  H  H100  1  0.37339000  0.78332000  0.13624000  1.0
  H  H101  1  0.87339000  0.21668000  0.86377000  1.0
  H  H102  1  0.62339000  0.63623000  0.71668000  1.0
  H  H103  1  0.12339000  0.36377000  0.28332000  1.0
  C  C104  1  0.15976000  0.74390000  0.52676000  1.0
  C  C105  1  0.65976000  0.25610000  0.47324000  1.0
  C  C106  1  0.90976000  0.97324000  0.24390000  1.0
  C  C107  1  0.40976000  0.02676000  0.75610000  1.0
  C  C108  1  0.59024000  0.75610000  0.02676000  1.0
  C  C109  1  0.09024000  0.24390000  0.97324000  1.0
  C  C110  1  0.84024000  0.52676000  0.74390000  1.0
  C  C111  1  0.34024000  0.47324000  0.25610000  1.0
  C  C112  1  0.05655000  0.74537000  0.40622000  1.0
  C  C113  1  0.55655000  0.25463000  0.59378000  1.0
  C  C114  1  0.80656000  0.09378000  0.24537000  1.0
  C  C115  1  0.30655000  0.90622000  0.75463000  1.0
  C  C116  1  0.69344000  0.75463000  0.90622000  1.0
  C  C117  1  0.19344000  0.24537000  0.09378000  1.0
  C  C118  1  0.94345000  0.40622000  0.74537000  1.0
  C  C119  1  0.44345000  0.59378000  0.25463000  1.0
  C  C120  1  0.09877000  0.78567000  0.65523000  1.0
  C  C121  1  0.59877000  0.21433000  0.34477000  1.0
  C  C122  1  0.84877000  0.84477000  0.28567000  1.0
  C  C123  1  0.34877000  0.15523000  0.71433000  1.0
  C  C124  1  0.65123000  0.71433000  0.15523000  1.0
  C  C125  1  0.15123000  0.28567000  0.84477000  1.0
  C  C126  1  0.90123000  0.65523000  0.78567000  1.0
  C  C127  1  0.40123000  0.34477000  0.21433000  1.0
  C  C128  1  0.82615000  0.40740000  0.23842000  1.0
  C  C129  1  0.32615000  0.59260000  0.76158000  1.0
  C  C130  1  0.57615000  0.26158000  0.90740000  1.0
  C  C131  1  0.07615000  0.73842000  0.09260000  1.0
  C  C132  1  0.92385000  0.09260000  0.73842000  1.0
  C  C133  1  0.42385000  0.90740000  0.26158000  1.0
  C  C134  1  0.17385000  0.23842000  0.40740000  1.0
  C  C135  1  0.67385000  0.76158000  0.59260000  1.0
  C  C136  1  0.23305000  0.71621000  0.48471000  1.0
  C  C137  1  0.73305000  0.28379000  0.51529000  1.0
  C  C138  1  0.98305000  0.01529000  0.21621000  1.0
  C  C139  1  0.48305000  0.98471000  0.78379000  1.0
  C  C140  1  0.51695000  0.78379000  0.98471000  1.0
  C  C141  1  0.01695000  0.21621000  0.01529000  1.0
  C  C142  1  0.76695000  0.48471000  0.71621000  1.0
  C  C143  1  0.26695000  0.51529000  0.28379000  1.0
  C  C144  1  0.88952000  0.46869000  0.22917000  1.0
  C  C145  1  0.38952000  0.53131000  0.77083000  1.0
  C  C146  1  0.63952000  0.27083000  0.96869000  1.0
  C  C147  1  0.13952000  0.72917000  0.03131000  1.0
  C  C148  1  0.86048000  0.03131000  0.72917000  1.0
  C  C149  1  0.36048000  0.96869000  0.27083000  1.0
  C  C150  1  0.11048000  0.22917000  0.46869000  1.0
  C  C151  1  0.61048000  0.77083000  0.53131000  1.0
  C  C152  1  0.72186000  0.50306000  0.28619000  1.0
  C  C153  1  0.22186000  0.49694000  0.71382000  1.0
  C  C154  1  0.47186000  0.21382000  0.00306000  1.0
  C  C155  1  0.97186000  0.78618000  0.99694000  1.0
  C  C156  1  0.02814000  0.99694000  0.78618000  1.0
  C  C157  1  0.52814000  0.00306000  0.21382000  1.0
  C  C158  1  0.27814000  0.28619000  0.50306000  1.0
  C  C159  1  0.77814000  0.71382000  0.49694000  1.0
  C  C160  1  0.93091000  0.61332000  0.24932000  1.0
  C  C161  1  0.43091000  0.38668000  0.75068000  1.0
  C  C162  1  0.68091000  0.25067000  0.11332000  1.0
  C  C163  1  0.18091000  0.74933000  0.88668000  1.0
  C  C164  1  0.81909000  0.88668000  0.74933000  1.0
  C  C165  1  0.31909000  0.11332000  0.25067000  1.0
  C  C166  1  0.06909000  0.24932000  0.61332000  1.0
  C  C167  1  0.56909000  0.75068000  0.38668000  1.0
  C  C168  1  0.74267000  0.42596000  0.26769000  1.0
  C  C169  1  0.24267000  0.57404000  0.73231000  1.0
  C  C170  1  0.49267000  0.23231000  0.92596000  1.0
  C  C171  1  0.99267000  0.76769000  0.07404000  1.0
  C  C172  1  0.00733000  0.07404000  0.76769000  1.0
  C  C173  1  0.50733000  0.92596000  0.23231000  1.0
  C  C174  1  0.25733000  0.26769000  0.42596000  1.0
  C  C175  1  0.75733000  0.73231000  0.57404000  1.0
  C  C176  1  0.97034000  0.44857000  0.19524000  1.0
  C  C177  1  0.47034000  0.55143000  0.80476000  1.0
  C  C178  1  0.72034000  0.30476000  0.94857000  1.0
  C  C179  1  0.22034000  0.69524000  0.05143000  1.0
  C  C180  1  0.77966000  0.05143000  0.69523000  1.0
  C  C181  1  0.27966000  0.94857000  0.30476000  1.0
  C  C182  1  0.02966000  0.19524000  0.44857000  1.0
  C  C183  1  0.52966000  0.80476000  0.55143000  1.0
  C  C184  1  0.86680000  0.54739000  0.25118000  1.0
  C  C185  1  0.36680000  0.45261000  0.74882000  1.0
  C  C186  1  0.61680000  0.24882000  0.04739000  1.0
  C  C187  1  0.11680000  0.75118000  0.95261000  1.0
  C  C188  1  0.88320000  0.95260000  0.75118000  1.0
  C  C189  1  0.38320000  0.04739000  0.24882000  1.0
  C  C190  1  0.13320000  0.25118000  0.54739000  1.0
  C  C191  1  0.63320000  0.74882000  0.45261000  1.0
  C  C192  1  0.98606000  0.37153000  0.17311000  1.0
  C  C193  1  0.48606000  0.62847000  0.82689000  1.0
  C  C194  1  0.73606000  0.32689000  0.87153000  1.0
  C  C195  1  0.23606000  0.67311000  0.12847000  1.0
  C  C196  1  0.76394000  0.12847000  0.67311000  1.0
  C  C197  1  0.26394000  0.87153000  0.32689000  1.0
  C  C198  1  0.01394000  0.17311000  0.37153000  1.0
  C  C199  1  0.51394000  0.82689000  0.62847000  1.0
  C  C200  1  0.07613000  0.75590000  0.49202000  1.0
  C  C201  1  0.57613000  0.24410000  0.50798000  1.0
  C  C202  1  0.82613000  0.00798000  0.25590000  1.0
  C  C203  1  0.32613000  0.99202000  0.74410000  1.0
  C  C204  1  0.67387000  0.74410000  0.99202000  1.0
  C  C205  1  0.17387000  0.25590000  0.00798000  1.0
  C  C206  1  0.92387000  0.49202000  0.75590000  1.0
  C  C207  1  0.42387000  0.50798000  0.24410000  1.0
  C  C208  1  0.78382000  0.56355000  0.27740000  1.0
  C  C209  1  0.28382000  0.43645000  0.72260000  1.0
  C  C210  1  0.53382000  0.22260000  0.06355000  1.0
  C  C211  1  0.03382000  0.77740000  0.93645000  1.0
  C  C212  1  0.96618000  0.93645000  0.77740000  1.0
  C  C213  1  0.46618000  0.06355000  0.22260000  1.0
  C  C214  1  0.21618000  0.27740000  0.56355000  1.0
  C  C215  1  0.71618000  0.72260000  0.43645000  1.0
  C  C216  1  0.00797000  0.78059000  0.53930000  1.0
  C  C217  1  0.50797000  0.21941000  0.46070000  1.0
  C  C218  1  0.75797000  0.96070000  0.28059000  1.0
  C  C219  1  0.25797000  0.03930000  0.71941000  1.0
  C  C220  1  0.74203000  0.71941000  0.03930000  1.0
  C  C221  1  0.24203000  0.28059000  0.96070000  1.0
  C  C222  1  0.99203000  0.53930000  0.78059000  1.0
  C  C223  1  0.49203000  0.46070000  0.21941000  1.0
  C  C224  1  0.17015000  0.75949000  0.60987000  1.0
  C  C225  1  0.67015000  0.24051000  0.39013000  1.0
  C  C226  1  0.92015000  0.89013000  0.25949000  1.0
  C  C227  1  0.42015000  0.10987000  0.74051000  1.0
  C  C228  1  0.57985000  0.74051000  0.10987000  1.0
  C  C229  1  0.07985000  0.25949000  0.89013000  1.0
  C  C230  1  0.82985000  0.60987000  0.75949000  1.0
  C  C231  1  0.32985000  0.39013000  0.24051000  1.0
  C  C232  1  0.31118000  0.70717000  0.52302000  1.0
  C  C233  1  0.81118000  0.29283000  0.47697000  1.0
  C  C234  1  0.06118000  0.97697000  0.20717000  1.0
  C  C235  1  0.56118000  0.02303000  0.79283000  1.0
  C  C236  1  0.43882000  0.79283000  0.02303000  1.0
  C  C237  1  0.93882000  0.20717000  0.97697000  1.0
  C  C238  1  0.68882000  0.52303000  0.70717000  1.0
  C  C239  1  0.18882000  0.47698000  0.29283000  1.0
  C  C240  1  0.01883000  0.79532000  0.62049000  1.0
  C  C241  1  0.51883000  0.20468000  0.37951000  1.0
  C  C242  1  0.76883000  0.87951000  0.29532000  1.0
  C  C243  1  0.26883000  0.12049000  0.70468000  1.0
  C  C244  1  0.73117000  0.70468000  0.12049000  1.0
  C  C245  1  0.23117000  0.29532000  0.87951000  1.0
  C  C246  1  0.98117000  0.62049000  0.79532000  1.0
  C  C247  1  0.48117000  0.37951000  0.20468000  1.0
  C  C248  1  0.92220000  0.31412000  0.18719000  1.0
  C  C249  1  0.42220000  0.68588000  0.81281000  1.0
  C  C250  1  0.67220000  0.31281000  0.81412000  1.0
  C  C251  1  0.17220000  0.68719000  0.18588000  1.0
  C  C252  1  0.82780000  0.18588000  0.68720000  1.0
  C  C253  1  0.32780000  0.81412000  0.31281000  1.0
  C  C254  1  0.07780000  0.18719000  0.31412000  1.0
  C  C255  1  0.57780000  0.81281000  0.68588000  1.0
  C  C256  1  0.31592000  0.72406000  0.60427000  1.0
  C  C257  1  0.81592000  0.27594000  0.39573000  1.0
  C  C258  1  0.06592000  0.89573000  0.22406000  1.0
  C  C259  1  0.56592000  0.10427000  0.77594000  1.0
  C  C260  1  0.43408000  0.77594000  0.10427000  1.0
  C  C261  1  0.93408000  0.22406000  0.89573000  1.0
  C  C262  1  0.68408000  0.60427000  0.72406000  1.0
  C  C263  1  0.18408000  0.39573000  0.27594000  1.0
  N  N264  1  0.24873000  0.74860000  0.64688000  1.0
  N  N265  1  0.74873000  0.25140000  0.35312000  1.0
  N  N266  1  0.99873000  0.85312000  0.24860000  1.0
  N  N267  1  0.49873000  0.14688000  0.75140000  1.0
  N  N268  1  0.50127000  0.75140000  0.14688000  1.0
  N  N269  1  0.00127000  0.24860000  0.85312000  1.0
  N  N270  1  0.75127000  0.64688000  0.74860000  1.0
  N  N271  1  0.25127000  0.35312000  0.25140000  1.0
  N  N272  1  0.84542000  0.33048000  0.21877000  1.0
  N  N273  1  0.34542000  0.66952000  0.78123000  1.0
  N  N274  1  0.59542000  0.28123000  0.83048000  1.0
  N  N275  1  0.09542000  0.71877000  0.16952000  1.0
  N  N276  1  0.90458000  0.16952000  0.71877000  1.0
  N  N277  1  0.40458000  0.83048000  0.28123000  1.0
  N  N278  1  0.15458000  0.21877000  0.33048000  1.0
  N  N279  1  0.65458000  0.78123000  0.66952000  1.0
  O  O280  1  0.11635000  0.74679000  0.35326000  1.0
  O  O281  1  0.61635000  0.25321000  0.64674000  1.0
  O  O282  1  0.86635000  0.14674000  0.24679000  1.0
  O  O283  1  0.36635000  0.85326000  0.75321000  1.0
  O  O284  1  0.63365000  0.75321000  0.85326000  1.0
  O  O285  1  0.13365000  0.24679000  0.14674000  1.0
  O  O286  1  0.88365000  0.35326000  0.74679000  1.0
  O  O287  1  0.38365000  0.64674000  0.25321000  1.0
  O  O288  1  0.97785000  0.73776000  0.38466000  1.0
  O  O289  1  0.47785000  0.26224000  0.61534000  1.0
  O  O290  1  0.72785000  0.11534000  0.23776000  1.0
  O  O291  1  0.22785000  0.88466000  0.76224000  1.0
  O  O292  1  0.77215000  0.76224000  0.88466000  1.0
  O  O293  1  0.27215000  0.23776000  0.11534000  1.0
  O  O294  1  0.02215000  0.38466000  0.73776000  1.0
  O  O295  1  0.52215000  0.61534000  0.26224000  1.0
  O  O296  1  0.00776000  0.60383000  0.27445000  1.0
  O  O297  1  0.50776000  0.39617000  0.72555000  1.0
  O  O298  1  0.75776000  0.22555000  0.10383000  1.0
  O  O299  1  0.25776000  0.77445000  0.89617000  1.0
  O  O300  1  0.74224000  0.89617000  0.77445000  1.0
  O  O301  1  0.24224000  0.10383000  0.22555000  1.0
  O  O302  1  0.99224000  0.27445000  0.60383000  1.0
  O  O303  1  0.49224000  0.72555000  0.39617000  1.0
  O  O304  1  0.90515000  0.68146000  0.22543000  1.0
  O  O305  1  0.40515000  0.31854000  0.77457000  1.0
  O  O306  1  0.65515000  0.27457000  0.18146000  1.0
  O  O307  1  0.15515000  0.72543000  0.81854000  1.0
  O  O308  1  0.84485000  0.81854000  0.72543000  1.0
  O  O309  1  0.34485000  0.18146000  0.27457000  1.0
  O  O310  1  0.09485000  0.22543000  0.68146000  1.0
  O  O311  1  0.59485000  0.77457000  0.31854000  1.0
