# generated using pymatgen
data_CdH8C2(BrN)2
_symmetry_space_group_name_H-M   'P 1'
_cell_length_a   4.30199000
_cell_length_b   7.86644000
_cell_length_c   10.10480000
_cell_angle_alpha   90.00000000
_cell_angle_beta   90.00120000
_cell_angle_gamma   89.99990000
_symmetry_Int_Tables_number   1
_chemical_formula_structural   CdH8C2(BrN)2
_chemical_formula_sum   'Cd2 H16 C4 Br4 N4'
_cell_volume   341.96003516
_cell_formula_units_Z   2
loop_
 _symmetry_equiv_pos_site_id
 _symmetry_equiv_pos_as_xyz
  1  'x, y, z'
loop_
 _atom_site_type_symbol
 _atom_site_label
 _atom_site_symmetry_multiplicity
 _atom_site_fract_x
 _atom_site_fract_y
 _atom_site_fract_z
 _atom_site_occupancy
  Cd  Cd0  1  0.00000000  0.00000000  0.50000000  1.0
  Cd  Cd1  1  0.99999000  0.50000000  0.00000000  1.0
  H  H2  1  0.18912000  0.29033000  0.36555000  1.0
  H  H3  1  0.18911000  0.70967000  0.63445000  1.0
  H  H4  1  0.81087000  0.79034000  0.13445000  1.0
  H  H5  1  0.81088000  0.20966000  0.86555000  1.0
  H  H6  1  0.81087000  0.70966000  0.63445000  1.0
  H  H7  1  0.81088000  0.29034000  0.36555000  1.0
  H  H8  1  0.18912000  0.20966000  0.86555000  1.0
  H  H9  1  0.18911000  0.79033000  0.13445000  1.0
  H  H10  1  0.20466000  0.39149000  0.59277000  1.0
  H  H11  1  0.20464000  0.60851000  0.40723000  1.0
  H  H12  1  0.79537000  0.89150000  0.90723000  1.0
  H  H13  1  0.79536000  0.10850000  0.09277000  1.0
  H  H14  1  0.79537000  0.60850000  0.40723000  1.0
  H  H15  1  0.79538000  0.39149000  0.59277000  1.0
  H  H16  1  0.20464000  0.10850000  0.09277000  1.0
  H  H17  1  0.20464000  0.89150000  0.90723000  1.0
  C  C18  1  0.00002000  0.41037000  0.52928000  1.0
  C  C19  1  0.00000000  0.58963000  0.47072000  1.0
  C  C20  1  0.99999000  0.91037000  0.97072000  1.0
  C  C21  1  0.00001000  0.08963000  0.02928000  1.0
  Br  Br22  1  0.50000000  0.92661000  0.31989000  1.0
  Br  Br23  1  0.50001000  0.07339000  0.68011000  1.0
  Br  Br24  1  0.50000000  0.42661000  0.18011000  1.0
  Br  Br25  1  0.50000000  0.57339000  0.81989000  1.0
  N  N26  1  0.99999000  0.27632000  0.42697000  1.0
  N  N27  1  0.00001000  0.72368000  0.57303000  1.0
  N  N28  1  0.00001000  0.77632000  0.07303000  1.0
  N  N29  1  0.99998000  0.22368000  0.92697000  1.0
