# generated using pymatgen
data_ZnH16C24N2(O2F3)2
_symmetry_space_group_name_H-M   'P 1'
_cell_length_a   7.16136000
_cell_length_b   8.88966000
_cell_length_c   10.98630000
_cell_angle_alpha   92.07350000
_cell_angle_beta   106.62700000
_cell_angle_gamma   112.98600000
_symmetry_Int_Tables_number   1
_chemical_formula_structural   ZnH16C24N2(O2F3)2
_chemical_formula_sum   'Zn1 H16 C24 N2 O4 F6'
_cell_volume   608.21929832
_cell_formula_units_Z   1
loop_
 _symmetry_equiv_pos_site_id
 _symmetry_equiv_pos_as_xyz
  1  'x, y, z'
loop_
 _atom_site_type_symbol
 _atom_site_label
 _atom_site_symmetry_multiplicity
 _atom_site_fract_x
 _atom_site_fract_y
 _atom_site_fract_z
 _atom_site_occupancy
  Zn  Zn0  1  0.00000000  0.50000000  0.00000000  1.0
  H  H1  1  0.34674000  0.78067000  0.39912000  1.0
  H  H2  1  0.65326000  0.21933000  0.60088000  1.0
  H  H3  1  0.42882000  0.66517000  0.54152000  1.0
  H  H4  1  0.57119000  0.33483000  0.45848000  1.0
  H  H5  1  0.43487000  0.52150000  0.72802000  1.0
  H  H6  1  0.56513000  0.47851000  0.27198000  1.0
  H  H7  1  0.17316000  0.22757000  0.70331000  1.0
  H  H8  1  0.82684000  0.77243000  0.29669000  1.0
  H  H9  1  0.90469000  0.08111000  0.48795000  1.0
  H  H10  1  0.09531000  0.91890000  0.51205000  1.0
  H  H11  1  0.90615000  0.22588000  0.29779000  1.0
  H  H12  1  0.09385000  0.77413000  0.70221000  1.0
  H  H13  1  0.43942000  0.75102000  0.98833000  1.0
  H  H14  1  0.56058000  0.24898000  0.01167000  1.0
  H  H15  1  0.20539000  0.24997000  0.01230000  1.0
  H  H16  1  0.79461000  0.75003000  0.98770000  1.0
  C  C17  1  0.36372000  0.99016000  0.23683000  1.0
  C  C18  1  0.63629000  0.00984000  0.76316000  1.0
  C  C19  1  0.25096000  0.79977000  0.20205000  1.0
  C  C20  1  0.74905000  0.20023000  0.79795000  1.0
  C  C21  1  0.26115000  0.70991000  0.30257000  1.0
  C  C22  1  0.73885000  0.29009000  0.69743000  1.0
  C  C23  1  0.15596000  0.53398000  0.28908000  1.0
  C  C24  1  0.84404000  0.46603000  0.71092000  1.0
  C  C25  1  0.16489000  0.45486000  0.40639000  1.0
  C  C26  1  0.83511000  0.54515000  0.59361000  1.0
  C  C27  1  0.31222000  0.53772000  0.52857000  1.0
  C  C28  1  0.68777000  0.46228000  0.47143000  1.0
  C  C29  1  0.31630000  0.45594000  0.63449000  1.0
  C  C30  1  0.68371000  0.54407000  0.36552000  1.0
  C  C31  1  0.17091000  0.29144000  0.62035000  1.0
  C  C32  1  0.82909000  0.70857000  0.37966000  1.0
  C  C33  1  0.02134000  0.20852000  0.49924000  1.0
  C  C34  1  0.97866000  0.79148000  0.50076000  1.0
  C  C35  1  0.02001000  0.28891000  0.39297000  1.0
  C  C36  1  0.97999000  0.71109000  0.60703000  1.0
  C  C37  1  0.46777000  0.63922000  0.99354000  1.0
  C  C38  1  0.53223000  0.36078000  0.00646000  1.0
  C  C39  1  0.33803000  0.36128000  0.00673000  1.0
  C  C40  1  0.66197000  0.63872000  0.99327000  1.0
  N  N41  1  0.30700000  0.50050000  0.00026000  1.0
  N  N42  1  0.69300000  0.49949000  0.99974000  1.0
  O  O43  1  0.15839000  0.75134000  0.08057000  1.0
  O  O44  1  0.84160000  0.24866000  0.91943000  1.0
  O  O45  1  0.04911000  0.43691000  0.18133000  1.0
  O  O46  1  0.95089000  0.56309000  0.81867000  1.0
  F  F47  1  0.47022000  0.04881000  0.36521000  1.0
  F  F48  1  0.52979000  0.95119000  0.63478000  1.0
  F  F49  1  0.51121000  0.05326000  0.17452000  1.0
  F  F50  1  0.48878000  0.94674000  0.82547000  1.0
  F  F51  1  0.21997000  0.05896000  0.19909000  1.0
  F  F52  1  0.78003000  0.94104000  0.80091000  1.0
