# generated using pymatgen
data_FeH20Pt(C7N4)4
_symmetry_space_group_name_H-M   'P 1'
_cell_length_a   8.42568000
_cell_length_b   8.94354000
_cell_length_c   9.93320000
_cell_angle_alpha   84.43250000
_cell_angle_beta   64.99820000
_cell_angle_gamma   89.21530000
_symmetry_Int_Tables_number   1
_chemical_formula_structural   FeH20Pt(C7N4)4
_chemical_formula_sum   'Fe1 H20 Pt1 C28 N16'
_cell_volume   674.87014853
_cell_formula_units_Z   1
loop_
 _symmetry_equiv_pos_site_id
 _symmetry_equiv_pos_as_xyz
  1  'x, y, z'
loop_
 _atom_site_type_symbol
 _atom_site_label
 _atom_site_symmetry_multiplicity
 _atom_site_fract_x
 _atom_site_fract_y
 _atom_site_fract_z
 _atom_site_occupancy
  Fe  Fe0  1  0.00000000  0.00000000  0.00000000  1.0
  H  H1  1  0.21216000  0.90830000  0.17912000  1.0
  H  H2  1  0.78784000  0.09170000  0.82087000  1.0
  H  H3  1  0.44812000  0.03333000  0.22104000  1.0
  H  H4  1  0.55189000  0.96667000  0.77896000  1.0
  H  H5  1  0.56294000  0.29038000  0.09072000  1.0
  H  H6  1  0.43706000  0.70962000  0.90928000  1.0
  H  H7  1  0.42227000  0.41707000  0.93123000  1.0
  H  H8  1  0.57774000  0.58293000  0.06877000  1.0
  H  H9  1  0.74149000  0.39446000  0.69427000  1.0
  H  H10  1  0.25851000  0.60554000  0.30573000  1.0
  H  H11  1  0.67271000  0.59487000  0.53656000  1.0
  H  H12  1  0.32728000  0.40513000  0.46344000  1.0
  H  H13  1  0.84091000  0.84187000  0.46564000  1.0
  H  H14  1  0.15908000  0.15813000  0.53436000  1.0
  H  H15  1  0.06817000  0.87843000  0.56248000  1.0
  H  H16  1  0.93182000  0.12157000  0.43752000  1.0
  H  H17  1  0.22069000  0.62538000  0.73279000  1.0
  H  H18  1  0.77932000  0.37462000  0.26721000  1.0
  H  H19  1  0.37720000  0.49517000  0.70113000  1.0
  H  H20  1  0.62280000  0.50483000  0.29887000  1.0
  Pt  Pt21  1  0.50000000  0.00000000  0.50000000  1.0
  C  C22  1  0.70721000  0.03257000  0.30646000  1.0
  C  C23  1  0.29279000  0.96743000  0.69354000  1.0
  C  C24  1  0.25994000  0.02207000  0.12937000  1.0
  C  C25  1  0.74006000  0.97793000  0.87063000  1.0
  C  C26  1  0.39331000  0.09226000  0.15005000  1.0
  C  C27  1  0.60670000  0.90774000  0.84995000  1.0
  C  C28  1  0.51861000  0.20392000  0.55628000  1.0
  C  C29  1  0.48139000  0.79608000  0.44372000  1.0
  C  C30  1  0.45616000  0.23504000  0.07816000  1.0
  C  C31  1  0.54384000  0.76496000  0.92183000  1.0
  C  C32  1  0.38051000  0.30515000  0.98903000  1.0
  C  C33  1  0.61949000  0.69485000  0.01097000  1.0
  C  C34  1  0.24416000  0.23016000  0.97627000  1.0
  C  C35  1  0.75584000  0.76984000  0.02373000  1.0
  C  C36  1  0.13801000  0.28976000  0.90335000  1.0
  C  C37  1  0.86199000  0.71024000  0.09665000  1.0
  C  C38  1  0.99106000  0.41747000  0.79698000  1.0
  C  C39  1  0.00894000  0.58253000  0.20302000  1.0
  C  C40  1  0.94011000  0.53393000  0.71131000  1.0
  C  C41  1  0.05988000  0.46607000  0.28869000  1.0
  C  C42  1  0.80921000  0.50374000  0.66475000  1.0
  C  C43  1  0.19079000  0.49626000  0.33525000  1.0
  C  C44  1  0.77227000  0.61552000  0.57590000  1.0
  C  C45  1  0.22772000  0.38448000  0.42410000  1.0
  C  C46  1  0.86627000  0.75247000  0.53601000  1.0
  C  C47  1  0.13372000  0.24753000  0.46399000  1.0
  C  C48  1  0.99242000  0.77290000  0.58934000  1.0
  C  C49  1  0.00758000  0.22710000  0.41066000  1.0
  N  N50  1  0.82546000  0.03526000  0.18865000  1.0
  N  N51  1  0.17453000  0.96474000  0.81136000  1.0
  N  N52  1  0.18594000  0.08807000  0.04364000  1.0
  N  N53  1  0.81406000  0.91193000  0.95636000  1.0
  N  N54  1  0.00040000  0.20566000  0.91698000  1.0
  N  N55  1  0.99960000  0.79435000  0.08302000  1.0
  N  N56  1  0.51976000  0.32383000  0.59471000  1.0
  N  N57  1  0.48024000  0.67618000  0.40529000  1.0
  N  N58  1  0.90738000  0.28434000  0.85401000  1.0
  N  N59  1  0.09262000  0.71566000  0.14599000  1.0
  N  N60  1  0.13706000  0.42383000  0.82620000  1.0
  N  N61  1  0.86294000  0.57617000  0.17380000  1.0
  N  N62  1  0.26645000  0.53781000  0.78167000  1.0
  N  N63  1  0.73355000  0.46219000  0.21833000  1.0
  N  N64  1  0.02889000  0.66703000  0.67607000  1.0
  N  N65  1  0.97111000  0.33297000  0.32393000  1.0
