# generated using pymatgen
data_CdH16C24SN10
_symmetry_space_group_name_H-M   'P 1'
_cell_length_a   9.66780000
_cell_length_b   12.10870000
_cell_length_c   12.54980000
_cell_angle_alpha   116.05800000
_cell_angle_beta   94.90390000
_cell_angle_gamma   106.39900000
_symmetry_Int_Tables_number   1
_chemical_formula_structural   CdH16C24SN10
_chemical_formula_sum   'Cd2 H32 C48 S2 N20'
_cell_volume   1228.12552015
_cell_formula_units_Z   2
loop_
 _symmetry_equiv_pos_site_id
 _symmetry_equiv_pos_as_xyz
  1  'x, y, z'
loop_
 _atom_site_type_symbol
 _atom_site_label
 _atom_site_symmetry_multiplicity
 _atom_site_fract_x
 _atom_site_fract_y
 _atom_site_fract_z
 _atom_site_occupancy
  Cd  Cd0  1  0.22794000  0.23255000  0.57059000  1.0
  Cd  Cd1  1  0.77206000  0.76745000  0.42941000  1.0
  H  H2  1  0.63628000  0.04261000  0.66885000  1.0
  H  H3  1  0.36372000  0.95739000  0.33115000  1.0
  H  H4  1  0.47892000  0.10320000  0.55291000  1.0
  H  H5  1  0.52109000  0.89680000  0.44709000  1.0
  H  H6  1  0.34396000  0.31587000  0.85931000  1.0
  H  H7  1  0.65604000  0.68413000  0.14068000  1.0
  H  H8  1  0.49417000  0.26538000  0.98857000  1.0
  H  H9  1  0.50582000  0.73461000  0.01144000  1.0
  H  H10  1  0.84244000  0.39280000  0.01860000  1.0
  H  H11  1  0.15755000  0.60719000  0.98139000  1.0
  H  H12  1  0.86032000  0.61689000  0.17167000  1.0
  H  H13  1  0.13968000  0.38311000  0.82832000  1.0
  H  H14  1  0.66061000  0.48041000  0.39118000  1.0
  H  H15  1  0.33939000  0.51959000  0.60882000  1.0
  H  H16  1  0.64689000  0.25267000  0.25544000  1.0
  H  H17  1  0.35311000  0.74733000  0.74456000  1.0
  H  H18  1  0.04193000  0.28153000  0.18709000  1.0
  H  H19  1  0.95807000  0.71847000  0.81291000  1.0
  H  H20  1  0.19931000  0.34373000  0.38741000  1.0
  H  H21  1  0.80069000  0.65627000  0.61259000  1.0
  H  H22  1  0.86015000  0.09305000  0.44538000  1.0
  H  H23  1  0.13984000  0.90695000  0.55462000  1.0
  H  H24  1  0.69850000  0.00960000  0.24244000  1.0
  H  H25  1  0.30150000  0.99041000  0.75756000  1.0
  H  H26  1  0.97919000  0.96177000  0.11936000  1.0
  H  H27  1  0.02081000  0.03824000  0.88064000  1.0
  H  H28  1  0.02380000  0.76614000  0.10490000  1.0
  H  H29  1  0.97620000  0.23386000  0.89510000  1.0
  H  H30  1  0.66332000  0.51275000  0.80717000  1.0
  H  H31  1  0.33668000  0.48725000  0.19283000  1.0
  H  H32  1  0.60184000  0.69809000  0.80857000  1.0
  H  H33  1  0.39816000  0.30191000  0.19143000  1.0
  C  C34  1  0.65577000  0.10249000  0.90919000  1.0
  C  C35  1  0.34423000  0.89751000  0.09080000  1.0
  C  C36  1  0.72279000  0.16569000  0.03393000  1.0
  C  C37  1  0.27721000  0.83431000  0.96607000  1.0
  C  C38  1  0.77520000  0.08446000  0.06890000  1.0
  C  C39  1  0.22480000  0.91554000  0.93110000  1.0
  C  C40  1  0.74738000  0.95994000  0.97037000  1.0
  C  C41  1  0.25262000  0.04006000  0.02963000  1.0
  C  C42  1  0.57788000  0.14698000  0.83999000  1.0
  C  C43  1  0.42212000  0.85302000  0.16001000  1.0
  C  C44  1  0.57245000  0.10271000  0.71519000  1.0
  C  C45  1  0.42755000  0.89729000  0.28481000  1.0
  C  C46  1  0.48532000  0.13706000  0.64983000  1.0
  C  C47  1  0.51469000  0.86294000  0.35017000  1.0
  C  C48  1  0.41211000  0.25726000  0.82065000  1.0
  C  C49  1  0.58789000  0.74274000  0.17935000  1.0
  C  C50  1  0.49702000  0.22883000  0.89306000  1.0
  C  C51  1  0.50297000  0.77118000  0.10694000  1.0
  C  C52  1  0.73924000  0.30144000  0.12178000  1.0
  C  C53  1  0.26076000  0.69856000  0.87822000  1.0
  C  C54  1  0.80121000  0.40692000  0.09996000  1.0
  C  C55  1  0.19879000  0.59308000  0.90004000  1.0
  C  C56  1  0.81039000  0.53225000  0.18446000  1.0
  C  C57  1  0.18961000  0.46775000  0.81554000  1.0
  C  C58  1  0.70233000  0.45659000  0.30871000  1.0
  C  C59  1  0.29768000  0.54341000  0.69129000  1.0
  C  C60  1  0.69263000  0.32887000  0.23068000  1.0
  C  C61  1  0.30737000  0.67113000  0.76933000  1.0
  C  C62  1  0.99947000  0.23523000  0.24055000  1.0
  C  C63  1  0.00053000  0.76477000  0.75945000  1.0
  C  C64  1  0.08589000  0.27256000  0.35325000  1.0
  C  C65  1  0.91411000  0.72744000  0.64676000  1.0
  C  C66  1  0.89949000  0.13025000  0.38459000  1.0
  C  C67  1  0.10051000  0.86975000  0.61541000  1.0
  C  C68  1  0.80831000  0.08389000  0.27074000  1.0
  C  C69  1  0.19169000  0.91611000  0.72926000  1.0
  C  C70  1  0.85993000  0.13406000  0.19466000  1.0
  C  C71  1  0.14007000  0.86594000  0.80534000  1.0
  C  C72  1  0.78348000  0.84875000  0.96619000  1.0
  C  C73  1  0.21652000  0.15125000  0.03381000  1.0
  C  C74  1  0.90447000  0.86471000  0.04908000  1.0
  C  C75  1  0.09553000  0.13530000  0.95092000  1.0
  C  C76  1  0.92997000  0.75364000  0.04024000  1.0
  C  C77  1  0.07003000  0.24637000  0.95976000  1.0
  C  C78  1  0.73114000  0.61387000  0.87607000  1.0
  C  C79  1  0.26887000  0.38614000  0.12394000  1.0
  C  C80  1  0.69688000  0.71839000  0.87668000  1.0
  C  C81  1  0.30312000  0.28161000  0.12333000  1.0
  S  S82  1  0.65925000  0.94510000  0.83641000  1.0
  S  S83  1  0.34075000  0.05489000  0.16359000  1.0
  N  N84  1  0.40398000  0.21127000  0.70033000  1.0
  N  N85  1  0.59602000  0.78873000  0.29967000  1.0
  N  N86  1  0.75942000  0.55668000  0.28587000  1.0
  N  N87  1  0.24058000  0.44332000  0.71412000  1.0
  N  N88  1  0.03828000  0.21944000  0.42387000  1.0
  N  N89  1  0.96172000  0.78056000  0.57613000  1.0
  N  N90  1  0.84571000  0.62918000  0.95674000  1.0
  N  N91  1  0.15430000  0.37082000  0.04326000  1.0
  N  N92  1  0.40995000  0.32405000  0.49565000  1.0
  N  N93  1  0.59005000  0.67595000  0.50434000  1.0
  N  N94  1  0.50185000  0.27581000  0.46334000  1.0
  N  N95  1  0.49815000  0.72418000  0.53665000  1.0
  N  N96  1  0.59301000  0.23049000  0.43051000  1.0
  N  N97  1  0.40699000  0.76950000  0.56948000  1.0
  N  N98  1  0.05210000  0.15254000  0.66873000  1.0
  N  N99  1  0.94790000  0.84747000  0.33127000  1.0
  N  N100  1  0.93275000  0.06922000  0.62297000  1.0
  N  N101  1  0.06725000  0.93078000  0.37703000  1.0
  N  N102  1  0.81171000  0.98727000  0.58015000  1.0
  N  N103  1  0.18830000  0.01273000  0.41985000  1.0
