# generated using pymatgen
data_FeH6(C3O)4
_symmetry_space_group_name_H-M   'P 1'
_cell_length_a   4.63410000
_cell_length_b   11.22890000
_cell_length_c   12.02156954
_cell_angle_alpha   117.82716511
_cell_angle_beta   91.47687670
_cell_angle_gamma   90.00100000
_symmetry_Int_Tables_number   1
_chemical_formula_structural   FeH6(C3O)4
_chemical_formula_sum   'Fe2 H12 C24 O8'
_cell_volume   552.97834896
_cell_formula_units_Z   2
loop_
 _symmetry_equiv_pos_site_id
 _symmetry_equiv_pos_as_xyz
  1  'x, y, z'
loop_
 _atom_site_type_symbol
 _atom_site_label
 _atom_site_symmetry_multiplicity
 _atom_site_fract_x
 _atom_site_fract_y
 _atom_site_fract_z
 _atom_site_occupancy
  Fe  Fe0  1  0.74997000  0.43182000  0.00003000  1.0
  Fe  Fe1  1  0.25002000  0.56823000  0.99998000  1.0
  H  H2  1  0.49822000  0.27608000  0.27220000  1.0
  H  H3  1  0.00156000  0.00393000  0.72783000  1.0
  H  H4  1  0.50176000  0.72390000  0.72780000  1.0
  H  H5  1  0.99845000  0.99606000  0.27216000  1.0
  H  H6  1  0.36083000  0.29159000  0.47766000  1.0
  H  H7  1  0.13893000  0.81404000  0.52242000  1.0
  H  H8  1  0.63919000  0.70839000  0.52233000  1.0
  H  H9  1  0.86105000  0.18596000  0.47759000  1.0
  H  H10  1  0.91201000  0.59394000  0.32460000  1.0
  H  H11  1  0.58819000  0.26925000  0.67535000  1.0
  H  H12  1  0.08798000  0.40603000  0.67540000  1.0
  H  H13  1  0.41183000  0.73073000  0.32465000  1.0
  C  C14  1  0.30340000  0.43238000  0.16879000  1.0
  C  C15  1  0.19654000  0.26364000  0.83117000  1.0
  C  C16  1  0.69657000  0.56761000  0.83120000  1.0
  C  C17  1  0.80348000  0.73636000  0.16883000  1.0
  C  C18  1  0.21144000  0.43506000  0.28741000  1.0
  C  C19  1  0.28852000  0.14768000  0.71258000  1.0
  C  C20  1  0.78861000  0.56492000  0.71259000  1.0
  C  C21  1  0.71143000  0.85231000  0.28742000  1.0
  C  C22  1  0.33945000  0.34851000  0.33042000  1.0
  C  C23  1  0.16038000  0.01818000  0.66963000  1.0
  C  C24  1  0.66055000  0.65147000  0.66957000  1.0
  C  C25  1  0.83963000  0.98182000  0.33038000  1.0
  C  C26  1  0.26449000  0.35811000  0.44423000  1.0
  C  C27  1  0.23535000  0.91397000  0.55584000  1.0
  C  C28  1  0.73552000  0.64187000  0.55576000  1.0
  C  C29  1  0.76466000  0.08602000  0.44417000  1.0
  C  C30  1  0.06460000  0.45610000  0.52156000  1.0
  C  C31  1  0.43525000  0.93459000  0.47845000  1.0
  C  C32  1  0.93542000  0.54387000  0.47843000  1.0
  C  C33  1  0.56475000  0.06540000  0.52157000  1.0
  C  C34  1  0.01088000  0.52951000  0.35980000  1.0
  C  C35  1  0.48927000  0.16964000  0.64017000  1.0
  C  C36  1  0.98915000  0.47046000  0.64019000  1.0
  C  C37  1  0.51072000  0.83034000  0.35985000  1.0
  O  O38  1  0.13904000  0.49379000  0.12382000  1.0
  O  O39  1  0.36100000  0.36996000  0.87611000  1.0
  O  O40  1  0.86106000  0.50627000  0.87618000  1.0
  O  O41  1  0.63888000  0.63010000  0.12389000  1.0
  O  O42  1  0.54036000  0.37839000  0.12126000  1.0
  O  O43  1  0.95959000  0.25722000  0.87874000  1.0
  O  O44  1  0.45962000  0.62166000  0.87873000  1.0
  O  O45  1  0.04042000  0.74283000  0.12126000  1.0
