# generated using pymatgen
data_UAg2H6C14(NO5)2
_symmetry_space_group_name_H-M   'P 1'
_cell_length_a   8.58467000
_cell_length_b   9.44017000
_cell_length_c   11.96098289
_cell_angle_alpha   91.77135207
_cell_angle_beta   109.67552773
_cell_angle_gamma   114.25480000
_symmetry_Int_Tables_number   1
_chemical_formula_structural   UAg2H6C14(NO5)2
_chemical_formula_sum   'U2 Ag4 H12 C28 N4 O20'
_cell_volume   815.83639010
_cell_formula_units_Z   2
loop_
 _symmetry_equiv_pos_site_id
 _symmetry_equiv_pos_as_xyz
  1  'x, y, z'
loop_
 _atom_site_type_symbol
 _atom_site_label
 _atom_site_symmetry_multiplicity
 _atom_site_fract_x
 _atom_site_fract_y
 _atom_site_fract_z
 _atom_site_occupancy
  U  U0  1  0.55486000  0.27559000  0.17530000  1.0
  U  U1  1  0.44513000  0.72442000  0.82470000  1.0
  Ag  Ag2  1  0.77677000  0.12074000  0.73584000  1.0
  Ag  Ag3  1  0.22323000  0.87927000  0.26416000  1.0
  Ag  Ag4  1  0.02884000  0.40062000  0.91787000  1.0
  Ag  Ag5  1  0.97115000  0.59939000  0.08212000  1.0
  H  H6  1  0.90672000  0.67017000  0.72810000  1.0
  H  H7  1  0.09329000  0.32983000  0.27190000  1.0
  H  H8  1  0.05732000  0.77541000  0.57945000  1.0
  H  H9  1  0.94270000  0.22458000  0.42056000  1.0
  H  H10  1  0.35824000  0.21346000  0.66842000  1.0
  H  H11  1  0.64176000  0.78653000  0.33158000  1.0
  H  H12  1  0.62360000  0.40961000  0.65827000  1.0
  H  H13  1  0.37641000  0.59039000  0.34173000  1.0
  H  H14  1  0.01874000  0.02898000  0.60959000  1.0
  H  H15  1  0.98127000  0.97101000  0.39041000  1.0
  H  H16  1  0.91645000  0.89749000  0.76893000  1.0
  H  H17  1  0.08354000  0.10251000  0.23107000  1.0
  C  C18  1  0.84765000  0.60651000  0.63504000  1.0
  C  C19  1  0.15236000  0.39349000  0.36496000  1.0
  C  C20  1  0.93148000  0.66470000  0.55375000  1.0
  C  C21  1  0.06854000  0.33529000  0.44626000  1.0
  C  C22  1  0.15002000  0.93562000  0.00454000  1.0
  C  C23  1  0.84997000  0.06439000  0.99546000  1.0
  C  C24  1  0.45951000  0.21920000  0.43074000  1.0
  C  C25  1  0.54050000  0.78080000  0.56926000  1.0
  C  C26  1  0.30314000  0.16506000  0.73590000  1.0
  C  C27  1  0.69685000  0.83494000  0.26409000  1.0
  C  C28  1  0.62184000  0.37962000  0.47853000  1.0
  C  C29  1  0.37818000  0.62038000  0.52148000  1.0
  C  C30  1  0.68947000  0.46192000  0.59658000  1.0
  C  C31  1  0.31054000  0.53808000  0.40342000  1.0
  C  C32  1  0.85448000  0.57473000  0.43726000  1.0
  C  C33  1  0.14554000  0.42526000  0.56275000  1.0
  C  C34  1  0.93785000  0.62350000  0.34526000  1.0
  C  C35  1  0.06216000  0.37650000  0.65474000  1.0
  C  C36  1  0.62011000  0.31753000  0.90693000  1.0
  C  C37  1  0.37989000  0.68247000  0.09307000  1.0
  C  C38  1  0.11718000  0.05902000  0.70283000  1.0
  C  C39  1  0.88282000  0.94098000  0.29717000  1.0
  C  C40  1  0.05774000  0.98712000  0.79067000  1.0
  C  C41  1  0.94225000  0.01288000  0.20933000  1.0
  C  C42  1  0.41895000  0.20557000  0.85824000  1.0
  C  C43  1  0.58105000  0.79443000  0.14176000  1.0
  C  C44  1  0.18642000  0.02688000  0.90919000  1.0
  C  C45  1  0.81357000  0.97312000  0.09081000  1.0
  N  N46  1  0.70195000  0.43491000  0.39986000  1.0
  N  N47  1  0.29807000  0.56508000  0.60015000  1.0
  N  N48  1  0.36048000  0.14111000  0.94375000  1.0
  N  N49  1  0.63951000  0.85889000  0.05625000  1.0
  O  O50  1  0.70708000  0.35367000  0.83818000  1.0
  O  O51  1  0.29292000  0.64633000  0.16182000  1.0
  O  O52  1  0.28281000  0.99489000  0.11020000  1.0
  O  O53  1  0.71717000  0.00512000  0.88980000  1.0
  O  O54  1  0.84402000  0.53526000  0.23919000  1.0
  O  O55  1  0.15599000  0.46475000  0.76081000  1.0
  O  O56  1  0.00419000  0.80914000  0.97682000  1.0
  O  O57  1  0.99581000  0.19086000  0.02318000  1.0
  O  O58  1  0.42331000  0.16175000  0.31924000  1.0
  O  O59  1  0.57669000  0.83826000  0.68076000  1.0
  O  O60  1  0.69324000  0.36677000  0.02299000  1.0
  O  O61  1  0.30675000  0.63323000  0.97701000  1.0
  O  O62  1  0.69838000  0.17458000  0.21351000  1.0
  O  O63  1  0.30159000  0.82540000  0.78648000  1.0
  O  O64  1  0.41929000  0.38357000  0.14129000  1.0
  O  O65  1  0.58072000  0.61645000  0.85871000  1.0
  O  O66  1  0.09151000  0.74490000  0.37837000  1.0
  O  O67  1  0.90850000  0.25509000  0.62163000  1.0
  O  O68  1  0.37262000  0.15029000  0.49277000  1.0
  O  O69  1  0.62739000  0.84970000  0.50724000  1.0
