# generated using pymatgen
data_ZnH27C24SN3O8
_symmetry_space_group_name_H-M   'P 1'
_cell_length_a   5.13266000
_cell_length_b   10.02900000
_cell_length_c   12.46140000
_cell_angle_alpha   77.07310000
_cell_angle_beta   82.37420000
_cell_angle_gamma   82.11390000
_symmetry_Int_Tables_number   1
_chemical_formula_structural   ZnH27C24SN3O8
_chemical_formula_sum   'Zn1 H27 C24 S1 N3 O8'
_cell_volume   615.81997302
_cell_formula_units_Z   1
loop_
 _symmetry_equiv_pos_site_id
 _symmetry_equiv_pos_as_xyz
  1  'x, y, z'
loop_
 _atom_site_type_symbol
 _atom_site_label
 _atom_site_symmetry_multiplicity
 _atom_site_fract_x
 _atom_site_fract_y
 _atom_site_fract_z
 _atom_site_occupancy
  Zn  Zn0  1  0.24600000  0.47553000  0.16822000  1.0
  H  H1  1  0.05405000  0.77910000  0.00829000  1.0
  H  H2  1  0.13276000  0.93756000  0.82800000  1.0
  H  H3  1  0.57470000  0.73800000  0.70328000  1.0
  H  H4  1  0.51854000  0.58602000  0.89113000  1.0
  H  H5  1  0.76866000  0.92855000  0.57936000  1.0
  H  H6  1  0.22259000  0.03541000  0.66443000  1.0
  H  H7  1  0.40937000  0.22202000  0.55478000  1.0
  H  H8  1  0.46308000  0.39464000  0.37712000  1.0
  H  H9  1  0.93339000  0.22244000  0.23783000  1.0
  H  H10  1  0.85728000  0.04507000  0.40782000  1.0
  H  H11  1  0.17322000  0.22628000  0.86715000  1.0
  H  H12  1  0.13954000  0.03876000  0.02680000  1.0
  H  H13  1  0.42363000  0.01269000  0.93423000  1.0
  H  H14  1  0.41227000  0.09163000  0.15967000  1.0
  H  H15  1  0.69805000  0.08626000  0.06602000  1.0
  H  H16  1  0.18448000  0.46465000  0.76042000  1.0
  H  H17  1  0.03968000  0.66605000  0.61951000  1.0
  H  H18  1  0.76185000  0.60219000  0.40961000  1.0
  H  H19  1  0.90883000  0.39784000  0.55111000  1.0
  H  H20  1  0.10982000  0.76067000  0.39197000  1.0
  H  H21  1  0.44454000  0.79096000  0.34763000  1.0
  H  H22  1  0.26401000  0.86447000  0.45639000  1.0
  H  H23  1  0.68104000  0.29000000  0.92894000  1.0
  H  H24  1  0.73305000  0.41323000  0.10783000  1.0
  H  H25  1  0.69110000  0.57460000  0.07940000  1.0
  H  H26  1  0.93554000  0.70586000  0.21042000  1.0
  H  H27  1  0.25017000  0.71203000  0.18371000  1.0
  C  C28  1  0.95206000  0.77167000  0.93869000  1.0
  C  C29  1  0.99629000  0.86070000  0.83699000  1.0
  C  C30  1  0.86319000  0.85069000  0.74783000  1.0
  C  C31  1  0.68553000  0.75055000  0.76863000  1.0
  C  C32  1  0.65396000  0.66520000  0.87313000  1.0
  C  C33  1  0.90439000  0.93715000  0.63758000  1.0
  C  C34  1  0.09096000  0.02509000  0.60549000  1.0
  C  C35  1  0.12543000  0.11912000  0.49871000  1.0
  C  C36  1  0.30155000  0.21903000  0.48592000  1.0
  C  C37  1  0.33118000  0.31517000  0.38763000  1.0
  C  C38  1  0.03341000  0.21951000  0.31039000  1.0
  C  C39  1  0.99230000  0.12048000  0.40639000  1.0
  C  C40  1  0.14364000  0.31723000  0.00705000  1.0
  C  C41  1  0.29667000  0.22414000  0.93309000  1.0
  C  C42  1  0.33499000  0.07314000  0.99602000  1.0
  C  C43  1  0.50820000  0.04339000  0.09095000  1.0
  C  C44  1  0.56203000  0.88919000  0.13899000  1.0
  C  C45  1  0.55535000  0.41810000  0.66366000  1.0
  C  C46  1  0.31164000  0.49426000  0.68397000  1.0
  C  C47  1  0.23106000  0.60807000  0.60419000  1.0
  C  C48  1  0.38894000  0.64898000  0.50420000  1.0
  C  C49  1  0.63422000  0.57184000  0.48627000  1.0
  C  C50  1  0.71759000  0.45679000  0.56510000  1.0
  C  C51  1  0.29785000  0.77265000  0.42009000  1.0
  S  S52  1  0.65480000  0.26159000  0.75502000  1.0
  N  N53  1  0.78478000  0.67453000  0.95717000  1.0
  N  N54  1  0.19816000  0.31704000  0.30069000  1.0
  N  N55  1  0.54410000  0.27704000  0.87972000  1.0
  O  O56  1  0.90546000  0.29797000  0.04080000  1.0
  O  O57  1  0.26891000  0.40642000  0.03164000  1.0
  O  O58  1  0.74720000  0.84920000  0.20114000  1.0
  O  O59  1  0.41487000  0.81170000  0.11299000  1.0
  O  O60  1  0.52455000  0.15612000  0.72724000  1.0
  O  O61  1  0.94117000  0.24861000  0.74565000  1.0
  O  O62  1  0.64539000  0.49227000  0.14231000  1.0
  O  O63  1  0.11091000  0.64400000  0.21795000  1.0
