# generated using pymatgen
data_CdH14C18N2O7
_symmetry_space_group_name_H-M   'P 1'
_cell_length_a   8.94013000
_cell_length_b   11.03230000
_cell_length_c   11.03230000
_cell_angle_alpha   99.36240000
_cell_angle_beta   113.56900000
_cell_angle_gamma   113.56900000
_symmetry_Int_Tables_number   1
_chemical_formula_structural   CdH14C18N2O7
_chemical_formula_sum   'Cd2 H28 C36 N4 O14'
_cell_volume   844.08195255
_cell_formula_units_Z   2
loop_
 _symmetry_equiv_pos_site_id
 _symmetry_equiv_pos_as_xyz
  1  'x, y, z'
loop_
 _atom_site_type_symbol
 _atom_site_label
 _atom_site_symmetry_multiplicity
 _atom_site_fract_x
 _atom_site_fract_y
 _atom_site_fract_z
 _atom_site_occupancy
  Cd  Cd0  1  0.75000000  0.88007000  0.11993000  1.0
  Cd  Cd1  1  0.25000000  0.11993000  0.88007000  1.0
  H  H2  1  0.72458000  0.43966000  0.03466000  1.0
  H  H3  1  0.77542000  0.96534000  0.56034000  1.0
  H  H4  1  0.27542000  0.56034000  0.96534000  1.0
  H  H5  1  0.22458000  0.03466000  0.43966000  1.0
  H  H6  1  0.21024000  0.74870000  0.03439000  1.0
  H  H7  1  0.28976000  0.96561000  0.25129000  1.0
  H  H8  1  0.78976000  0.25130000  0.96561000  1.0
  H  H9  1  0.71024000  0.03439000  0.74871000  1.0
  H  H10  1  0.46765000  0.46499000  0.84998000  1.0
  H  H11  1  0.03235000  0.15002000  0.53501000  1.0
  H  H12  1  0.53235000  0.53501000  0.15002000  1.0
  H  H13  1  0.96765000  0.84998000  0.46499000  1.0
  H  H14  1  0.48435000  0.35847000  0.64428000  1.0
  H  H15  1  0.01565000  0.35572000  0.64153000  1.0
  H  H16  1  0.51565000  0.64153000  0.35571000  1.0
  H  H17  1  0.98435000  0.64428000  0.35847000  1.0
  H  H18  1  0.49967000  0.71886000  0.52612000  1.0
  H  H19  1  0.00033000  0.47388000  0.28114000  1.0
  H  H20  1  0.50033000  0.28114000  0.47388000  1.0
  H  H21  1  0.99967000  0.52612000  0.71886000  1.0
  H  H22  1  0.48139000  0.80814000  0.73836000  1.0
  H  H23  1  0.01861000  0.26164000  0.19186000  1.0
  H  H24  1  0.51861000  0.19186000  0.26164000  1.0
  H  H25  1  0.98139000  0.73836000  0.80814000  1.0
  H  H26  1  0.86177000  0.07521000  0.97945000  1.0
  H  H27  1  0.63823000  0.02055000  0.92479000  1.0
  H  H28  1  0.13823000  0.92479000  0.02055000  1.0
  H  H29  1  0.36177000  0.97945000  0.07521000  1.0
  C  C30  1  0.91241000  0.71727000  0.07518000  1.0
  C  C31  1  0.58759000  0.92482000  0.28273000  1.0
  C  C32  1  0.08758000  0.28273000  0.92483000  1.0
  C  C33  1  0.41241000  0.07517000  0.71727000  1.0
  C  C34  1  0.96175000  0.60724000  0.03866000  1.0
  C  C35  1  0.53825000  0.96135000  0.39276000  1.0
  C  C36  1  0.03825000  0.39276000  0.96135000  1.0
  C  C37  1  0.46175000  0.03865000  0.60724000  1.0
  C  C38  1  0.84494000  0.46617000  0.01884000  1.0
  C  C39  1  0.65506000  0.98117000  0.53384000  1.0
  C  C40  1  0.15506000  0.53384000  0.98117000  1.0
  C  C41  1  0.34494000  0.01883000  0.46617000  1.0
  C  C42  1  0.11725000  0.64011000  0.01950000  1.0
  C  C43  1  0.38276000  0.98050000  0.35989000  1.0
  C  C44  1  0.88275000  0.35989000  0.98050000  1.0
  C  C45  1  0.61725000  0.01950000  0.64012000  1.0
  C  C46  1  0.48021000  0.51636000  0.77564000  1.0
  C  C47  1  0.01979000  0.22436000  0.48364000  1.0
  C  C48  1  0.51979000  0.48364000  0.22436000  1.0
  C  C49  1  0.98021000  0.77564000  0.51636000  1.0
  C  C50  1  0.48875000  0.46010000  0.65892000  1.0
  C  C51  1  0.01125000  0.34108000  0.53990000  1.0
  C  C52  1  0.51124000  0.53990000  0.34107000  1.0
  C  C53  1  0.98875000  0.65892000  0.46010000  1.0
  C  C54  1  0.49648000  0.52919000  0.56296000  1.0
  C  C55  1  0.00352000  0.43703000  0.47081000  1.0
  C  C56  1  0.50352000  0.47081000  0.43703000  1.0
  C  C57  1  0.99648000  0.56296000  0.52919000  1.0
  C  C58  1  0.49437000  0.65729000  0.59350000  1.0
  C  C59  1  0.00564000  0.40650000  0.34271000  1.0
  C  C60  1  0.50564000  0.34271000  0.40650000  1.0
  C  C61  1  0.99436000  0.59350000  0.65729000  1.0
  C  C62  1  0.48524000  0.71081000  0.71055000  1.0
  C  C63  1  0.01476000  0.28945000  0.28918000  1.0
  C  C64  1  0.51476000  0.28918000  0.28945000  1.0
  C  C65  1  0.98524000  0.71055000  0.71081000  1.0
  N  N66  1  0.47920000  0.64116000  0.80150000  1.0
  N  N67  1  0.02080000  0.19850000  0.35884000  1.0
  N  N68  1  0.52080000  0.35884000  0.19850000  1.0
  N  N69  1  0.97919000  0.80150000  0.64116000  1.0
  O  O70  1  0.82238000  0.69937000  0.14219000  1.0
  O  O71  1  0.67762000  0.85781000  0.30063000  1.0
  O  O72  1  0.17762000  0.30063000  0.85781000  1.0
  O  O73  1  0.32238000  0.14219000  0.69937000  1.0
  O  O74  1  0.95401000  0.82212000  0.03457000  1.0
  O  O75  1  0.54598000  0.96543000  0.17788000  1.0
  O  O76  1  0.04599000  0.17788000  0.96543000  1.0
  O  O77  1  0.45401000  0.03457000  0.82212000  1.0
  O  O78  1  0.46714000  0.69226000  0.91126000  1.0
  O  O79  1  0.03286000  0.08874000  0.30774000  1.0
  O  O80  1  0.53286000  0.30773000  0.08874000  1.0
  O  O81  1  0.96714000  0.91126000  0.69227000  1.0
  O  O82  1  0.75000000  0.01400000  0.98599000  1.0
  O  O83  1  0.25000000  0.98600000  0.01401000  1.0
