# generated using pymatgen
data_ErH5C4SN2O7
_symmetry_space_group_name_H-M   'P 1'
_cell_length_a   6.41928000
_cell_length_b   11.15580000
_cell_length_c   12.06880000
_cell_angle_alpha   108.31800000
_cell_angle_beta   90.00000000
_cell_angle_gamma   89.99980000
_symmetry_Int_Tables_number   1
_chemical_formula_structural   ErH5C4SN2O7
_chemical_formula_sum   'Er4 H20 C16 S4 N8 O28'
_cell_volume   820.47785730
_cell_formula_units_Z   4
loop_
 _symmetry_equiv_pos_site_id
 _symmetry_equiv_pos_as_xyz
  1  'x, y, z'
loop_
 _atom_site_type_symbol
 _atom_site_label
 _atom_site_symmetry_multiplicity
 _atom_site_fract_x
 _atom_site_fract_y
 _atom_site_fract_z
 _atom_site_occupancy
  Er  Er0  1  0.86296000  0.15894000  0.60663000  1.0
  Er  Er1  1  0.36296000  0.84106000  0.89337000  1.0
  Er  Er2  1  0.13704000  0.84106000  0.39337000  1.0
  Er  Er3  1  0.63703000  0.15894000  0.10663000  1.0
  H  H4  1  0.72269000  0.56402000  0.44372000  1.0
  H  H5  1  0.22269000  0.43598000  0.05628000  1.0
  H  H6  1  0.27731000  0.43598000  0.55628000  1.0
  H  H7  1  0.77731000  0.56402000  0.94372000  1.0
  H  H8  1  0.77720000  0.51009000  0.77274000  1.0
  H  H9  1  0.27721000  0.48991000  0.72726000  1.0
  H  H10  1  0.22280000  0.48991000  0.22726000  1.0
  H  H11  1  0.72279000  0.51009000  0.27274000  1.0
  H  H12  1  0.72532000  0.66784000  0.66011000  1.0
  H  H13  1  0.22532000  0.33216000  0.83989000  1.0
  H  H14  1  0.27468000  0.33216000  0.33989000  1.0
  H  H15  1  0.77468000  0.66784000  0.16011000  1.0
  H  H16  1  0.04279000  0.08879000  0.80297000  1.0
  H  H17  1  0.54279000  0.91121000  0.69703000  1.0
  H  H18  1  0.95721000  0.91121000  0.19703000  1.0
  H  H19  1  0.45721000  0.08879000  0.30297000  1.0
  H  H20  1  0.06975000  0.96760000  0.68640000  1.0
  H  H21  1  0.56975000  0.03240000  0.81359000  1.0
  H  H22  1  0.93026000  0.03240000  0.31360000  1.0
  H  H23  1  0.43026000  0.96760000  0.18640000  1.0
  C  C24  1  0.73977000  0.51176000  0.50490000  1.0
  C  C25  1  0.23977000  0.48824000  0.99511000  1.0
  C  C26  1  0.26022000  0.48824000  0.49510000  1.0
  C  C27  1  0.76023000  0.51176000  0.00489000  1.0
  C  C28  1  0.77131000  0.48637000  0.67902000  1.0
  C  C29  1  0.27132000  0.51363000  0.82098000  1.0
  C  C30  1  0.22869000  0.51363000  0.32098000  1.0
  C  C31  1  0.72868000  0.48637000  0.17902000  1.0
  C  C32  1  0.76723000  0.38551000  0.49303000  1.0
  C  C33  1  0.26723000  0.61449000  0.00697000  1.0
  C  C34  1  0.23276000  0.61449000  0.50697000  1.0
  C  C35  1  0.73277000  0.38551000  0.99303000  1.0
  C  C36  1  0.77879000  0.27077000  0.39165000  1.0
  C  C37  1  0.27879000  0.72923000  0.10835000  1.0
  C  C38  1  0.22122000  0.72923000  0.60835000  1.0
  C  C39  1  0.72121000  0.27077000  0.89165000  1.0
  S  S40  1  0.32169000  0.16363000  0.54001000  1.0
  S  S41  1  0.82169000  0.83637000  0.95999000  1.0
  S  S42  1  0.67831000  0.83637000  0.45999000  1.0
  S  S43  1  0.17831000  0.16363000  0.04001000  1.0
  N  N44  1  0.74411000  0.57303000  0.62243000  1.0
  N  N45  1  0.24411000  0.42697000  0.87757000  1.0
  N  N46  1  0.25589000  0.42697000  0.37757000  1.0
  N  N47  1  0.75589000  0.57303000  0.12243000  1.0
  N  N48  1  0.78707000  0.37172000  0.60267000  1.0
  N  N49  1  0.28707000  0.62828000  0.89733000  1.0
  N  N50  1  0.21293000  0.62828000  0.39733000  1.0
  N  N51  1  0.71293000  0.37172000  0.10267000  1.0
  O  O52  1  0.72520000  0.27542000  0.29196000  1.0
  O  O53  1  0.22521000  0.72458000  0.20804000  1.0
  O  O54  1  0.27480000  0.72458000  0.70804000  1.0
  O  O55  1  0.77479000  0.27542000  0.79196000  1.0
  O  O56  1  0.84356000  0.17161000  0.41368000  1.0
  O  O57  1  0.34356000  0.82839000  0.08632000  1.0
  O  O58  1  0.15644000  0.82839000  0.58632000  1.0
  O  O59  1  0.65644000  0.17161000  0.91368000  1.0
  O  O60  1  0.51111000  0.13630000  0.59737000  1.0
  O  O61  1  0.01111000  0.86370000  0.90263000  1.0
  O  O62  1  0.48889000  0.86370000  0.40263000  1.0
  O  O63  1  0.98889000  0.13630000  0.09737000  1.0
  O  O64  1  0.37173000  0.20051000  0.43678000  1.0
  O  O65  1  0.87173000  0.79949000  0.06323000  1.0
  O  O66  1  0.62827000  0.79949000  0.56322000  1.0
  O  O67  1  0.12827000  0.20051000  0.93677000  1.0
  O  O68  1  0.19234000  0.26191000  0.62609000  1.0
  O  O69  1  0.69234000  0.73809000  0.87391000  1.0
  O  O70  1  0.80767000  0.73809000  0.37391000  1.0
  O  O71  1  0.30767000  0.26191000  0.12609000  1.0
  O  O72  1  0.18024000  0.04969000  0.50696000  1.0
  O  O73  1  0.68024000  0.95032000  0.99304000  1.0
  O  O74  1  0.81976000  0.95032000  0.49304000  1.0
  O  O75  1  0.31976000  0.04968000  0.00696000  1.0
  O  O76  1  0.99095000  0.04730000  0.72292000  1.0
  O  O77  1  0.49095000  0.95270000  0.77708000  1.0
  O  O78  1  0.00905000  0.95270000  0.27708000  1.0
  O  O79  1  0.50905000  0.04730000  0.22292000  1.0
