# generated using pymatgen
data_CdH22C26N2O7
_symmetry_space_group_name_H-M   'P 1'
_cell_length_a   5.71525000
_cell_length_b   8.13621000
_cell_length_c   13.78550000
_cell_angle_alpha   76.28240000
_cell_angle_beta   79.62690000
_cell_angle_gamma   72.07820000
_symmetry_Int_Tables_number   1
_chemical_formula_structural   CdH22C26N2O7
_chemical_formula_sum   'Cd1 H22 C26 N2 O7'
_cell_volume   588.54056437
_cell_formula_units_Z   1
loop_
 _symmetry_equiv_pos_site_id
 _symmetry_equiv_pos_as_xyz
  1  'x, y, z'
loop_
 _atom_site_type_symbol
 _atom_site_label
 _atom_site_symmetry_multiplicity
 _atom_site_fract_x
 _atom_site_fract_y
 _atom_site_fract_z
 _atom_site_occupancy
  Cd  Cd0  1  0.91985000  0.49585000  0.49972000  1.0
  H  H1  1  0.45180000  0.89910000  0.25912000  1.0
  H  H2  1  0.62635000  0.07983000  0.75110000  1.0
  H  H3  1  0.64266000  0.90567000  0.40481000  1.0
  H  H4  1  0.96601000  0.07541000  0.61006000  1.0
  H  H5  1  0.43208000  0.13899000  0.50858000  1.0
  H  H6  1  0.05649000  0.84645000  0.50202000  1.0
  H  H7  1  0.84662000  0.33578000  0.33651000  1.0
  H  H8  1  0.47682000  0.65238000  0.66022000  1.0
  H  H9  1  0.05128000  0.01912000  0.16753000  1.0
  H  H10  1  0.22719000  0.98027000  0.82274000  1.0
  H  H11  1  0.83260000  0.22058000  0.19302000  1.0
  H  H12  1  0.21050000  0.77702000  0.79857000  1.0
  H  H13  1  0.44995000  0.38483000  0.97773000  1.0
  H  H14  1  0.70908000  0.60895000  0.04183000  1.0
  H  H15  1  0.42693000  0.44429000  0.79276000  1.0
  H  H16  1  0.53125000  0.57170000  0.22272000  1.0
  H  H17  1  0.80266000  0.23360000  0.84789000  1.0
  H  H18  1  0.79995000  0.79597000  0.13285000  1.0
  H  H19  1  0.82715000  0.16876000  0.03155000  1.0
  H  H20  1  0.97393000  0.84696000  0.95381000  1.0
  H  H21  1  0.43350000  0.44827000  0.54477000  1.0
  H  H22  1  0.46745000  0.52115000  0.42766000  1.0
  C  C23  1  0.35971000  0.99749000  0.30545000  1.0
  C  C24  1  0.66635000  0.98406000  0.70252000  1.0
  C  C25  1  0.46759000  0.00087000  0.38755000  1.0
  C  C26  1  0.85730000  0.98170000  0.62365000  1.0
  C  C27  1  0.34876000  0.12750000  0.44616000  1.0
  C  C28  1  0.90536000  0.85722000  0.56330000  1.0
  C  C29  1  0.02373000  0.23857000  0.34924000  1.0
  C  C30  1  0.58322000  0.74688000  0.65234000  1.0
  C  C31  1  0.13499000  0.12164000  0.28429000  1.0
  C  C32  1  0.52713000  0.86341000  0.71852000  1.0
  C  C33  1  0.02980000  0.14568000  0.18841000  1.0
  C  C34  1  0.33645000  0.84926000  0.80832000  1.0
  C  C35  1  0.14214000  0.27302000  0.01560000  1.0
  C  C36  1  0.35524000  0.73388000  0.98706000  1.0
  C  C37  1  0.31002000  0.35172000  0.94794000  1.0
  C  C38  1  0.51015000  0.65218000  0.06339000  1.0
  C  C39  1  0.29478000  0.38593000  0.84570000  1.0
  C  C40  1  0.41013000  0.62905000  0.16349000  1.0
  C  C41  1  0.11155000  0.34398000  0.80831000  1.0
  C  C42  1  0.15270000  0.68114000  0.18981000  1.0
  C  C43  1  0.94513000  0.26593000  0.87662000  1.0
  C  C44  1  0.99983000  0.75732000  0.11273000  1.0
  C  C45  1  0.95812000  0.23003000  0.97991000  1.0
  C  C46  1  0.09770000  0.78590000  0.01184000  1.0
  C  C47  1  0.09643000  0.38555000  0.69792000  1.0
  C  C48  1  0.04321000  0.65091000  0.29717000  1.0
  N  N49  1  0.12776000  0.24301000  0.42823000  1.0
  N  N50  1  0.76896000  0.74335000  0.57682000  1.0
  O  O51  1  0.17520000  0.24433000  0.11415000  1.0
  O  O52  1  0.47625000  0.75371000  0.89195000  1.0
  O  O53  1  0.23679000  0.47405000  0.64189000  1.0
  O  O54  1  0.18395000  0.61935000  0.36683000  1.0
  O  O55  1  0.93976000  0.33527000  0.66460000  1.0
  O  O56  1  0.81732000  0.65236000  0.31723000  1.0
  O  O57  1  0.55835000  0.44280000  0.48345000  1.0
