# generated using pymatgen
data_ZnH38C31(N2O)4
_symmetry_space_group_name_H-M   'P 1'
_cell_length_a   16.83660000
_cell_length_b   17.05810000
_cell_length_c   17.72280000
_cell_angle_alpha   92.70500000
_cell_angle_beta   90.31920000
_cell_angle_gamma   95.50660000
_symmetry_Int_Tables_number   1
_chemical_formula_structural   ZnH38C31(N2O)4
_chemical_formula_sum   'Zn2 H76 C62 N16 O8'
_cell_volume   5060.59939733
_cell_formula_units_Z   2
loop_
 _symmetry_equiv_pos_site_id
 _symmetry_equiv_pos_as_xyz
  1  'x, y, z'
loop_
 _atom_site_type_symbol
 _atom_site_label
 _atom_site_symmetry_multiplicity
 _atom_site_fract_x
 _atom_site_fract_y
 _atom_site_fract_z
 _atom_site_occupancy
  Zn  Zn0  1  0.59075000  0.49871000  0.49640000  1.0
  Zn  Zn1  1  0.41092000  0.50952000  0.50333000  1.0
  H  H2  1  0.60077000  0.88802000  0.64904000  1.0
  H  H3  1  0.39295000  0.08631000  0.48537000  1.0
  H  H4  1  0.55617000  0.15956000  0.66863000  1.0
  H  H5  1  0.47906000  0.91130000  0.43836000  1.0
  H  H6  1  0.60186000  0.42419000  0.26221000  1.0
  H  H7  1  0.37597000  0.50135000  0.72973000  1.0
  H  H8  1  0.44851000  0.79528000  0.35862000  1.0
  H  H9  1  0.44757000  0.70141000  0.39172000  1.0
  H  H10  1  0.56535000  0.36885000  0.63244000  1.0
  H  H11  1  0.58300000  0.29996000  0.69575000  1.0
  H  H12  1  0.92740000  0.75556000  0.65760000  1.0
  H  H13  1  0.01890000  0.71797000  0.63353000  1.0
  H  H14  1  0.98355000  0.79391000  0.58095000  1.0
  H  H15  1  0.95663000  0.66607000  0.50604000  1.0
  H  H16  1  0.86625000  0.70116000  0.53399000  1.0
  H  H17  1  0.86496000  0.61101000  0.64654000  1.0
  H  H18  1  0.95032000  0.57265000  0.61046000  1.0
  H  H19  1  0.06474000  0.30105000  0.24983000  1.0
  H  H20  1  0.05497000  0.22649000  0.31665000  1.0
  H  H21  1  0.96942000  0.27050000  0.28657000  1.0
  H  H22  1  0.01447000  0.32580000  0.41560000  1.0
  H  H23  1  0.02346000  0.40009000  0.34831000  1.0
  H  H24  1  0.16876000  0.37156000  0.33219000  1.0
  H  H25  1  0.15611000  0.30703000  0.40565000  1.0
  H  H26  1  0.76281000  0.64462000  0.60663000  1.0
  H  H27  1  0.67333000  0.61683000  0.56413000  1.0
  H  H28  1  0.27938000  0.34148000  0.39436000  1.0
  H  H29  1  0.35395000  0.41743000  0.39473000  1.0
  H  H30  1  0.56882000  0.26153000  0.37246000  1.0
  H  H31  1  0.65340000  0.23454000  0.32130000  1.0
  H  H32  1  0.61861000  0.18010000  0.39968000  1.0
  H  H33  1  0.73885000  0.27031000  0.43949000  1.0
  H  H34  1  0.65383000  0.29873000  0.48718000  1.0
  H  H35  1  0.63540000  0.40044000  0.39379000  1.0
  H  H36  1  0.72064000  0.37584000  0.34475000  1.0
  H  H37  1  0.28806000  0.76877000  0.65251000  1.0
  H  H38  1  0.38479000  0.75508000  0.61738000  1.0
  H  H39  1  0.32707000  0.82319000  0.57573000  1.0
  H  H40  1  0.32495000  0.69918000  0.49399000  1.0
  H  H41  1  0.22837000  0.71340000  0.52652000  1.0
  H  H42  1  0.25329000  0.62066000  0.63368000  1.0
  H  H43  1  0.34525000  0.60538000  0.59255000  1.0
  H  H44  1  0.82747000  0.32860000  0.38472000  1.0
  H  H45  1  0.91965000  0.37167000  0.40803000  1.0
  H  H46  1  0.05683000  0.59034000  0.55707000  1.0
  H  H47  1  0.14131000  0.64682000  0.58453000  1.0
  H  H48  1  0.37062000  0.18335000  0.39825000  1.0
  H  H49  1  0.40071000  0.27933000  0.41180000  1.0
  H  H50  1  0.60486000  0.75884000  0.69067000  1.0
  H  H51  1  0.58308000  0.67561000  0.63538000  1.0
  H  H52  1  0.28514000  0.96098000  0.72554000  1.0
  H  H53  1  0.35319000  0.89191000  0.74725000  1.0
  H  H54  1  0.33967000  0.97202000  0.81212000  1.0
  H  H55  1  0.46807000  0.99768000  0.74038000  1.0
  H  H56  1  0.40121000  0.06781000  0.72082000  1.0
  H  H57  1  0.35747000  0.99156000  0.60182000  1.0
  H  H58  1  0.42262000  0.91925000  0.62133000  1.0
  H  H59  1  0.76153000  0.07259000  0.45494000  1.0
  H  H60  1  0.74345000  0.15529000  0.51474000  1.0
  H  H61  1  0.81484000  0.09136000  0.54176000  1.0
  H  H62  1  0.68570000  0.06572000  0.61307000  1.0
  H  H63  1  0.70629000  0.98209000  0.55686000  1.0
  H  H64  1  0.61387000  0.01823000  0.45639000  1.0
  H  H65  1  0.59483000  0.10427000  0.51088000  1.0
  H  H66  1  0.60201000  0.39156000  0.05581000  1.0
  H  H67  1  0.65663000  0.38629000  0.13627000  1.0
  H  H68  1  0.34156000  0.43975000  0.92073000  1.0
  H  H69  1  0.29819000  0.46362000  0.84031000  1.0
  H  H70  1  0.37176000  0.54723000  0.32338000  1.0
  H  H71  1  0.33021000  0.57197000  0.24205000  1.0
  H  H72  1  0.68642000  0.46092000  0.76439000  1.0
  H  H73  1  0.65129000  0.50089000  0.68679000  1.0
  H  H74  1  0.31986000  0.54563000  0.13241000  1.0
  H  H75  1  0.37364000  0.52998000  0.05394000  1.0
  H  H76  1  0.68204000  0.51101000  0.87621000  1.0
  H  H77  1  0.62545000  0.48278000  0.95026000  1.0
  C  C78  1  0.50510000  0.50862000  0.64718000  1.0
  C  C79  1  0.50485000  0.49579000  0.35272000  1.0
  C  C80  1  0.51807000  0.65663000  0.50559000  1.0
  C  C81  1  0.47551000  0.35532000  0.51717000  1.0
  C  C82  1  0.52778000  0.74331000  0.51865000  1.0
  C  C83  1  0.47212000  0.27206000  0.54083000  1.0
  C  C84  1  0.49491000  0.79179000  0.46563000  1.0
  C  C85  1  0.51910000  0.25364000  0.60283000  1.0
  C  C86  1  0.50454000  0.87397000  0.47863000  1.0
  C  C87  1  0.51801000  0.17442000  0.62249000  1.0
  C  C88  1  0.54134000  0.90856000  0.54447000  1.0
  C  C89  1  0.47365000  0.11466000  0.57991000  1.0
  C  C90  1  0.57274000  0.86131000  0.59716000  1.0
  C  C91  1  0.42584000  0.13357000  0.51972000  1.0
  C  C92  1  0.56743000  0.77892000  0.58440000  1.0
  C  C93  1  0.42531000  0.21183000  0.49947000  1.0
  C  C94  1  0.54243000  0.99604000  0.55426000  1.0
  C  C95  1  0.48151000  0.02916000  0.58881000  1.0
  C  C96  1  0.55029000  0.43458000  0.15175000  1.0
  C  C97  1  0.41954000  0.48047000  0.84106000  1.0
  C  C98  1  0.55469000  0.44711000  0.22986000  1.0
  C  C99  1  0.42803000  0.49546000  0.76510000  1.0
  C  C100  1  0.49764000  0.48764000  0.26885000  1.0
  C  C101  1  0.50329000  0.50038000  0.73033000  1.0
  C  C102  1  0.43455000  0.51863000  0.23082000  1.0
  C  C103  1  0.57315000  0.49228000  0.77286000  1.0
  C  C104  1  0.43132000  0.50928000  0.15127000  1.0
  C  C105  1  0.56537000  0.48098000  0.85101000  1.0
  C  C106  1  0.48870000  0.46743000  0.11205000  1.0
  C  C107  1  0.48946000  0.47391000  0.88499000  1.0
  C  C108  1  0.48648000  0.46255000  0.03258000  1.0
  C  C109  1  0.48481000  0.46484000  0.96345000  1.0
  C  C110  1  0.84559000  0.54127000  0.54294000  1.0
  C  C111  1  0.16487000  0.42939000  0.43927000  1.0
  C  C112  1  0.76206000  0.54434000  0.53948000  1.0
  C  C113  1  0.24917000  0.44500000  0.44316000  1.0
  C  C114  1  0.74629000  0.43649000  0.45047000  1.0
  C  C115  1  0.24281000  0.55302000  0.52976000  1.0
  C  C116  1  0.82904000  0.43201000  0.44825000  1.0
  C  C117  1  0.15908000  0.54282000  0.52803000  1.0
  C  C118  1  0.87945000  0.48510000  0.49579000  1.0
  C  C119  1  0.11901000  0.47910000  0.48276000  1.0
  C  C120  1  0.96313000  0.48107000  0.49289000  1.0
  C  C121  1  0.03439000  0.47374000  0.48437000  1.0
  C  C122  1  0.89640000  0.59935000  0.59337000  1.0
  C  C123  1  0.92018000  0.67789000  0.55602000  1.0
  C  C124  1  0.96503000  0.73966000  0.60978000  1.0
  C  C125  1  0.13534000  0.36194000  0.38498000  1.0
  C  C126  1  0.04709000  0.34555000  0.36514000  1.0
  C  C127  1  0.03313000  0.28235000  0.30110000  1.0
  C  C128  1  0.69376000  0.37862000  0.40144000  1.0
  C  C129  1  0.68129000  0.29491000  0.43122000  1.0
  C  C130  1  0.62776000  0.23956000  0.37816000  1.0
  C  C131  1  0.28443000  0.61858000  0.57905000  1.0
  C  C132  1  0.28824000  0.70029000  0.54501000  1.0
  C  C133  1  0.32378000  0.76541000  0.60080000  1.0
  C  C134  1  0.41515000  0.98240000  0.62852000  1.0
  C  C135  1  0.41027000  0.00487000  0.71327000  1.0
  C  C136  1  0.34351000  0.95484000  0.75180000  1.0
  C  C137  1  0.60908000  0.04304000  0.51470000  1.0
  C  C138  1  0.69066000  0.04313000  0.55415000  1.0
  C  C139  1  0.75637000  0.09325000  0.51435000  1.0
  N  N140  1  0.71411000  0.49194000  0.49524000  1.0
  N  N141  1  0.28656000  0.50410000  0.48830000  1.0
  N  N142  1  0.45276000  0.76051000  0.40276000  1.0
  N  N143  1  0.56895000  0.31092000  0.64192000  1.0
  N  N144  1  0.72633000  0.59943000  0.58307000  1.0
  N  N145  1  0.29411000  0.40063000  0.39626000  1.0
  N  N146  1  0.86169000  0.37963000  0.39776000  1.0
  N  N147  1  0.11512000  0.59160000  0.57266000  1.0
  N  N148  1  0.37954000  0.22930000  0.43694000  1.0
  N  N149  1  0.60125000  0.73414000  0.63745000  1.0
  N  N150  1  0.60191000  0.38849000  0.11286000  1.0
  N  N151  1  0.34522000  0.47580000  0.87649000  1.0
  N  N152  1  0.38149000  0.56411000  0.26960000  1.0
  N  N153  1  0.65071000  0.50034000  0.74437000  1.0
  N  N154  1  0.37527000  0.54514000  0.11022000  1.0
  N  N155  1  0.63437000  0.47520000  0.89367000  1.0
  O  O156  1  0.56757000  0.48924000  0.61218000  1.0
  O  O157  1  0.43983000  0.48645000  0.39014000  1.0
  O  O158  1  0.44441000  0.53229000  0.61495000  1.0
  O  O159  1  0.57378000  0.50987000  0.38247000  1.0
  O  O160  1  0.57707000  0.61743000  0.52080000  1.0
  O  O161  1  0.41292000  0.39125000  0.52383000  1.0
  O  O162  1  0.45106000  0.62442000  0.47988000  1.0
  O  O163  1  0.54217000  0.38428000  0.49159000  1.0
