# generated using pymatgen
data_ErCuH16C22S2N2O11
_symmetry_space_group_name_H-M   'P 1'
_cell_length_a   9.45464000
_cell_length_b   11.30680000
_cell_length_c   12.28200000
_cell_angle_alpha   99.13430000
_cell_angle_beta   100.35600000
_cell_angle_gamma   113.88500000
_symmetry_Int_Tables_number   1
_chemical_formula_structural   ErCuH16C22S2N2O11
_chemical_formula_sum   'Er2 Cu2 H32 C44 S4 N4 O22'
_cell_volume   1141.17014701
_cell_formula_units_Z   2
loop_
 _symmetry_equiv_pos_site_id
 _symmetry_equiv_pos_as_xyz
  1  'x, y, z'
loop_
 _atom_site_type_symbol
 _atom_site_label
 _atom_site_symmetry_multiplicity
 _atom_site_fract_x
 _atom_site_fract_y
 _atom_site_fract_z
 _atom_site_occupancy
  Er  Er0  1  0.30666000  0.46487000  0.09570000  1.0
  Er  Er1  1  0.69334000  0.53513000  0.90430000  1.0
  Cu  Cu2  1  0.25212000  0.97477000  0.59533000  1.0
  Cu  Cu3  1  0.74788000  0.02523000  0.40467000  1.0
  H  H4  1  0.74202000  0.55091000  0.41533000  1.0
  H  H5  1  0.25798000  0.44909000  0.58467000  1.0
  H  H6  1  0.90696000  0.67590000  0.29851000  1.0
  H  H7  1  0.09304000  0.32410000  0.70149000  1.0
  H  H8  1  0.28617000  0.57750000  0.43528000  1.0
  H  H9  1  0.71384000  0.42250000  0.56472000  1.0
  H  H10  1  0.45074000  0.25190000  0.23585000  1.0
  H  H11  1  0.54926000  0.74810000  0.76415000  1.0
  H  H12  1  0.50612000  0.10930000  0.35784000  1.0
  H  H13  1  0.49388000  0.89070000  0.64216000  1.0
  H  H14  1  0.93868000  0.18956000  0.27720000  1.0
  H  H15  1  0.06132000  0.81044000  0.72280000  1.0
  H  H16  1  0.90094000  0.33470000  0.15640000  1.0
  H  H17  1  0.09906000  0.66530000  0.84360000  1.0
  H  H18  1  0.57380000  0.17819000  0.86266000  1.0
  H  H19  1  0.42620000  0.82180000  0.13734000  1.0
  H  H20  1  0.76217000  0.08028000  0.90717000  1.0
  H  H21  1  0.23783000  0.91972000  0.09283000  1.0
  H  H22  1  0.16130000  0.07297000  0.99784000  1.0
  H  H23  1  0.83870000  0.92703000  0.00216000  1.0
  H  H24  1  0.40983000  0.25566000  0.62625000  1.0
  H  H25  1  0.59017000  0.74433000  0.37376000  1.0
  H  H26  1  0.43398000  0.40781000  0.49861000  1.0
  H  H27  1  0.56602000  0.59219000  0.50139000  1.0
  H  H28  1  0.08409000  0.06654000  0.22506000  1.0
  H  H29  1  0.91591000  0.93346000  0.77494000  1.0
  H  H30  1  0.07661000  0.92531000  0.36134000  1.0
  H  H31  1  0.92338000  0.07469000  0.63865000  1.0
  H  H32  1  0.97751000  0.31820000  0.92914000  1.0
  H  H33  1  0.02249000  0.68180000  0.07086000  1.0
  H  H34  1  0.94930000  0.41166000  0.02367000  1.0
  H  H35  1  0.05069000  0.58834000  0.97633000  1.0
  C  C36  1  0.86222000  0.55908000  0.42204000  1.0
  C  C37  1  0.13778000  0.44093000  0.57797000  1.0
  C  C38  1  0.95257000  0.62772000  0.35611000  1.0
  C  C39  1  0.04743000  0.37228000  0.64389000  1.0
  C  C40  1  0.10601000  0.63354000  0.36195000  1.0
  C  C41  1  0.89400000  0.36647000  0.63805000  1.0
  C  C42  1  0.16873000  0.57376000  0.43358000  1.0
  C  C43  1  0.83127000  0.42625000  0.56642000  1.0
  C  C44  1  0.92149000  0.49605000  0.49697000  1.0
  C  C45  1  0.07852000  0.50395000  0.50304000  1.0
  C  C46  1  0.56133000  0.24232000  0.24580000  1.0
  C  C47  1  0.43867000  0.75768000  0.75420000  1.0
  C  C48  1  0.59081000  0.16273000  0.31272000  1.0
  C  C49  1  0.40919000  0.83728000  0.68728000  1.0
  C  C50  1  0.83312000  0.20751000  0.26771000  1.0
  C  C51  1  0.16688000  0.79249000  0.73229000  1.0
  C  C52  1  0.81090000  0.28897000  0.20016000  1.0
  C  C53  1  0.18910000  0.71103000  0.79984000  1.0
  C  C54  1  0.50154000  0.12132000  0.91290000  1.0
  C  C55  1  0.49846000  0.87868000  0.08710000  1.0
  C  C56  1  0.54879000  0.03679000  0.96714000  1.0
  C  C57  1  0.45121000  0.96321000  0.03285000  1.0
  C  C58  1  0.68992000  0.02388000  0.95805000  1.0
  C  C59  1  0.31008000  0.97611000  0.04195000  1.0
  C  C60  1  0.26677000  0.05959000  0.98875000  1.0
  C  C61  1  0.73323000  0.94040000  0.01125000  1.0
  C  C62  1  0.36470000  0.13233000  0.92468000  1.0
  C  C63  1  0.63530000  0.86767000  0.07532000  1.0
  C  C64  1  0.34017000  0.21797000  0.53709000  1.0
  C  C65  1  0.65982000  0.78202000  0.46291000  1.0
  C  C66  1  0.35186000  0.30202000  0.46495000  1.0
  C  C67  1  0.64813000  0.69798000  0.53505000  1.0
  C  C68  1  0.25935000  0.24933000  0.35111000  1.0
  C  C69  1  0.74065000  0.75067000  0.64889000  1.0
  C  C70  1  0.15755000  0.11192000  0.31324000  1.0
  C  C71  1  0.84245000  0.88808000  0.68676000  1.0
  C  C72  1  0.15295000  0.03255000  0.38912000  1.0
  C  C73  1  0.84705000  0.96745000  0.61088000  1.0
  C  C74  1  0.67152000  0.30669000  0.18756000  1.0
  C  C75  1  0.32848000  0.69331000  0.81244000  1.0
  C  C76  1  0.63553000  0.38705000  0.10989000  1.0
  C  C77  1  0.36447000  0.61296000  0.89011000  1.0
  C  C78  1  0.27358000  0.33578000  0.26901000  1.0
  C  C79  1  0.72642000  0.66422000  0.73099000  1.0
  S  S80  1  0.30825000  0.23702000  0.85259000  1.0
  S  S81  1  0.69175000  0.76298000  0.14741000  1.0
  S  S82  1  0.21832000  0.71450000  0.27081000  1.0
  S  S83  1  0.78168000  0.28550000  0.72919000  1.0
  N  N84  1  0.24340000  0.08461000  0.49923000  1.0
  N  N85  1  0.75659000  0.91539000  0.50077000  1.0
  N  N86  1  0.72475000  0.14399000  0.32290000  1.0
  N  N87  1  0.27525000  0.85600000  0.67710000  1.0
  O  O88  1  0.18270000  0.28058000  0.16644000  1.0
  O  O89  1  0.81730000  0.71942000  0.83356000  1.0
  O  O90  1  0.37760000  0.45784000  0.29989000  1.0
  O  O91  1  0.62240000  0.54217000  0.70012000  1.0
  O  O92  1  0.22165000  0.60292000  0.18988000  1.0
  O  O93  1  0.77835000  0.39708000  0.81011000  1.0
  O  O94  1  0.23779000  0.29987000  0.92726000  1.0
  O  O95  1  0.76222000  0.70013000  0.07274000  1.0
  O  O96  1  0.12497000  0.77207000  0.20879000  1.0
  O  O97  1  0.87503000  0.22793000  0.79122000  1.0
  O  O98  1  0.37671000  0.81288000  0.34218000  1.0
  O  O99  1  0.62329000  0.18713000  0.65781000  1.0
  O  O100  1  0.51255000  0.40663000  0.10915000  1.0
  O  O101  1  0.48745000  0.59338000  0.89085000  1.0
  O  O102  1  0.45788000  0.33545000  0.83586000  1.0
  O  O103  1  0.54212000  0.66455000  0.16414000  1.0
  O  O104  1  0.19192000  0.15083000  0.74424000  1.0
  O  O105  1  0.80807000  0.84917000  0.25576000  1.0
  O  O106  1  0.72919000  0.42809000  0.04714000  1.0
  O  O107  1  0.27082000  0.57192000  0.95286000  1.0
  O  O108  1  0.02316000  0.37396000  0.00997000  1.0
  O  O109  1  0.97684000  0.62604000  0.99003000  1.0
