# generated using pymatgen
data_CoH28C30(N4O3)2
_symmetry_space_group_name_H-M   'P 1'
_cell_length_a   7.52203000
_cell_length_b   8.68017000
_cell_length_c   11.14970000
_cell_angle_alpha   89.91150000
_cell_angle_beta   79.58400000
_cell_angle_gamma   80.45350000
_symmetry_Int_Tables_number   1
_chemical_formula_structural   CoH28C30(N4O3)2
_chemical_formula_sum   'Co1 H28 C30 N8 O6'
_cell_volume   705.77602703
_cell_formula_units_Z   1
loop_
 _symmetry_equiv_pos_site_id
 _symmetry_equiv_pos_as_xyz
  1  'x, y, z'
loop_
 _atom_site_type_symbol
 _atom_site_label
 _atom_site_symmetry_multiplicity
 _atom_site_fract_x
 _atom_site_fract_y
 _atom_site_fract_z
 _atom_site_occupancy
  Co  Co0  1  0.99999000  0.50000000  0.00000000  1.0
  H  H1  1  0.33537000  0.24381000  0.26120000  1.0
  H  H2  1  0.66463000  0.75617000  0.73881000  1.0
  H  H3  1  0.67678000  0.63991000  0.96217000  1.0
  H  H4  1  0.32321000  0.36010000  0.03783000  1.0
  H  H5  1  0.59796000  0.70778000  0.09893000  1.0
  H  H6  1  0.40205000  0.29221000  0.90107000  1.0
  H  H7  1  0.96086000  0.78905000  0.17482000  1.0
  H  H8  1  0.03915000  0.21097000  0.82518000  1.0
  H  H9  1  0.31494000  0.65754000  0.83877000  1.0
  H  H10  1  0.68506000  0.34245000  0.16122000  1.0
  H  H11  1  0.38294000  0.94209000  0.92381000  1.0
  H  H12  1  0.61708000  0.05788000  0.07619000  1.0
  H  H13  1  0.03878000  0.05040000  0.21809000  1.0
  H  H14  1  0.96123000  0.94960000  0.78190000  1.0
  H  H15  1  0.17564000  0.13919000  0.09915000  1.0
  H  H16  1  0.82439000  0.86080000  0.90085000  1.0
  H  H17  1  0.72898000  0.68009000  0.31880000  1.0
  H  H18  1  0.27103000  0.31991000  0.68121000  1.0
  H  H19  1  0.92137000  0.79910000  0.44062000  1.0
  H  H20  1  0.07864000  0.20091000  0.55939000  1.0
  H  H21  1  0.86057000  0.08412000  0.48934000  1.0
  H  H22  1  0.13944000  0.91589000  0.51065000  1.0
  H  H23  1  0.59976000  0.25787000  0.42173000  1.0
  H  H24  1  0.40024000  0.74213000  0.57827000  1.0
  H  H25  1  0.78851000  0.40902000  0.37946000  1.0
  H  H26  1  0.21149000  0.59098000  0.62054000  1.0
  H  H27  1  0.30053000  0.55826000  0.39231000  1.0
  H  H28  1  0.69947000  0.44173000  0.60769000  1.0
  C  C29  1  0.06720000  0.78844000  0.09507000  1.0
  C  C30  1  0.93281000  0.21156000  0.90494000  1.0
  C  C31  1  0.25211000  0.72704000  0.92058000  1.0
  C  C32  1  0.74789000  0.27295000  0.07941000  1.0
  C  C33  1  0.28814000  0.86590000  0.96133000  1.0
  C  C34  1  0.71186000  0.13410000  0.03867000  1.0
  C  C35  1  0.16963000  0.03276000  0.15275000  1.0
  C  C36  1  0.83039000  0.96723000  0.84724000  1.0
  C  C37  1  0.32800000  0.00432000  0.21956000  1.0
  C  C38  1  0.67201000  0.99568000  0.78044000  1.0
  C  C39  1  0.55798000  0.90247000  0.30074000  1.0
  C  C40  1  0.44203000  0.09753000  0.69926000  1.0
  C  C41  1  0.70126000  0.80484000  0.34110000  1.0
  C  C42  1  0.29875000  0.19516000  0.65890000  1.0
  C  C43  1  0.80915000  0.87313000  0.40800000  1.0
  C  C44  1  0.19085000  0.12688000  0.59201000  1.0
  C  C45  1  0.77526000  0.03506000  0.43532000  1.0
  C  C46  1  0.22474000  0.96496000  0.56469000  1.0
  C  C47  1  0.63128000  0.13371000  0.39732000  1.0
  C  C48  1  0.36872000  0.86630000  0.60268000  1.0
  C  C49  1  0.52536000  0.06521000  0.32925000  1.0
  C  C50  1  0.47463000  0.93479000  0.67075000  1.0
  C  C51  1  0.10509000  0.46125000  0.23631000  1.0
  C  C52  1  0.89490000  0.53877000  0.76369000  1.0
  C  C53  1  0.88016000  0.44896000  0.43325000  1.0
  C  C54  1  0.11983000  0.55102000  0.56675000  1.0
  C  C55  1  0.04975000  0.48034000  0.37266000  1.0
  C  C56  1  0.95023000  0.51965000  0.62735000  1.0
  C  C57  1  0.16991000  0.53157000  0.44043000  1.0
  C  C58  1  0.83006000  0.46842000  0.55956000  1.0
  N  N59  1  0.11371000  0.68036000  0.00490000  1.0
  N  N60  1  0.88628000  0.31965000  0.99511000  1.0
  N  N61  1  0.17029000  0.90269000  0.07125000  1.0
  N  N62  1  0.82972000  0.09730000  0.92875000  1.0
  N  N63  1  0.43176000  0.86763000  0.23186000  1.0
  N  N64  1  0.56825000  0.13237000  0.76814000  1.0
  N  N65  1  0.37739000  0.12634000  0.27665000  1.0
  N  N66  1  0.62263000  0.87365000  0.72335000  1.0
  O  O67  1  0.97428000  0.48899000  0.17568000  1.0
  O  O68  1  0.02571000  0.51101000  0.82433000  1.0
  O  O69  1  0.27415000  0.41930000  0.19269000  1.0
  O  O70  1  0.72584000  0.58071000  0.80730000  1.0
  O  O71  1  0.70965000  0.68118000  0.03658000  1.0
  O  O72  1  0.29035000  0.31882000  0.96342000  1.0
