# generated using pymatgen
data_Zn4H36C36O13
_symmetry_space_group_name_H-M   'P 1'
_cell_length_a   18.20720000
_cell_length_b   18.21060000
_cell_length_c   18.26469521
_cell_angle_alpha   60.45399473
_cell_angle_beta   60.62239746
_cell_angle_gamma   60.47520000
_symmetry_Int_Tables_number   1
_chemical_formula_structural   Zn4H36C36O13
_chemical_formula_sum   'Zn8 H72 C72 O26'
_cell_volume   4332.20450997
_cell_formula_units_Z   2
loop_
 _symmetry_equiv_pos_site_id
 _symmetry_equiv_pos_as_xyz
  1  'x, y, z'
loop_
 _atom_site_type_symbol
 _atom_site_label
 _atom_site_symmetry_multiplicity
 _atom_site_fract_x
 _atom_site_fract_y
 _atom_site_fract_z
 _atom_site_occupancy
  Zn  Zn0  1  0.85247000  0.05577000  0.04563000  1.0
  Zn  Zn1  1  0.02356000  0.05692000  0.05351000  1.0
  Zn  Zn2  1  0.02916000  0.05685000  0.87530000  1.0
  Zn  Zn3  1  0.02724000  0.88133000  0.04688000  1.0
  Zn  Zn4  1  0.61397000  0.46778000  0.46065000  1.0
  Zn  Zn5  1  0.43642000  0.46699000  0.46526000  1.0
  Zn  Zn6  1  0.44023000  0.64394000  0.46091000  1.0
  Zn  Zn7  1  0.44203000  0.47214000  0.63612000  1.0
  H  H8  1  0.78791000  0.03423000  0.30192000  1.0
  H  H9  1  0.77277000  0.03814000  0.40339000  1.0
  H  H10  1  0.87280000  0.04584000  0.31294000  1.0
  H  H11  1  0.60716000  0.21277000  0.48208000  1.0
  H  H12  1  0.69516000  0.11058000  0.47760000  1.0
  H  H13  1  0.71409000  0.19919000  0.47358000  1.0
  H  H14  1  0.66663000  0.48724000  0.21255000  1.0
  H  H15  1  0.68827000  0.48334000  0.10891000  1.0
  H  H16  1  0.58398000  0.47980000  0.19419000  1.0
  H  H17  1  0.83551000  0.35286000  0.03110000  1.0
  H  H18  1  0.72093000  0.40464000  0.04040000  1.0
  H  H19  1  0.77805000  0.29523000  0.03485000  1.0
  H  H20  1  0.78049000  0.34506000  0.85805000  1.0
  H  H21  1  0.82325000  0.40484000  0.74363000  1.0
  H  H22  1  0.88702000  0.29423000  0.79069000  1.0
  H  H23  1  0.62475000  0.49111000  0.68939000  1.0
  H  H24  1  0.71663000  0.48419000  0.70493000  1.0
  H  H25  1  0.72985000  0.47990000  0.60397000  1.0
  H  H26  1  0.67724000  0.21197000  0.63429000  1.0
  H  H27  1  0.68155000  0.11607000  0.73068000  1.0
  H  H28  1  0.58669000  0.21402000  0.73513000  1.0
  H  H29  1  0.85038000  0.03469000  0.80445000  1.0
  H  H30  1  0.74557000  0.04369000  0.81227000  1.0
  H  H31  1  0.75643000  0.04895000  0.90046000  1.0
  H  H32  1  0.78787000  0.87154000  0.02258000  1.0
  H  H33  1  0.79787000  0.76576000  0.03179000  1.0
  H  H34  1  0.88532000  0.77860000  0.03682000  1.0
  H  H35  1  0.62046000  0.70598000  0.18944000  1.0
  H  H36  1  0.72631000  0.69142000  0.10539000  1.0
  H  H37  1  0.71150000  0.60732000  0.21107000  1.0
  H  H38  1  0.65615000  0.65598000  0.47788000  1.0
  H  H39  1  0.69829000  0.73016000  0.46918000  1.0
  H  H40  1  0.59038000  0.77028000  0.46234000  1.0
  H  H41  1  0.83145000  0.79940000  0.34666000  1.0
  H  H42  1  0.71596000  0.85967000  0.38467000  1.0
  H  H43  1  0.78355000  0.90636000  0.27701000  1.0
  H  H44  1  0.29794000  0.03292000  0.87169000  1.0
  H  H45  1  0.37756000  0.04472000  0.76298000  1.0
  H  H46  1  0.26995000  0.05037000  0.78286000  1.0
  H  H47  1  0.46114000  0.22335000  0.67773000  1.0
  H  H48  1  0.45419000  0.11545000  0.72084000  1.0
  H  H49  1  0.44215000  0.18879000  0.61508000  1.0
  H  H50  1  0.17137000  0.49208000  0.65544000  1.0
  H  H51  1  0.08837000  0.48297000  0.76198000  1.0
  H  H52  1  0.19505000  0.47610000  0.74646000  1.0
  H  H53  1  0.00417000  0.31407000  0.83554000  1.0
  H  H54  1  0.01317000  0.41213000  0.82325000  1.0
  H  H55  1  0.02318000  0.31716000  0.92007000  1.0
  H  H56  1  0.00025000  0.86445000  0.31896000  1.0
  H  H57  1  0.01116000  0.75694000  0.40086000  1.0
  H  H58  1  0.01932000  0.77299000  0.29367000  1.0
  H  H59  1  0.16144000  0.69781000  0.48844000  1.0
  H  H60  1  0.08451000  0.67879000  0.47277000  1.0
  H  H61  1  0.19290000  0.59950000  0.46718000  1.0
  H  H62  1  0.45915000  0.65895000  0.18998000  1.0
  H  H63  1  0.44596000  0.77101000  0.11794000  1.0
  H  H64  1  0.44110000  0.74126000  0.22774000  1.0
  H  H65  1  0.29823000  0.82104000  0.02957000  1.0
  H  H66  1  0.37423000  0.84248000  0.04412000  1.0
  H  H67  1  0.26550000  0.92079000  0.04895000  1.0
  H  H68  1  0.29225000  0.88678000  0.80558000  1.0
  H  H69  1  0.38296000  0.78501000  0.81201000  1.0
  H  H70  1  0.28073000  0.79083000  0.90117000  1.0
  H  H71  1  0.46318000  0.70789000  0.63536000  1.0
  H  H72  1  0.45792000  0.72781000  0.72341000  1.0
  H  H73  1  0.45374000  0.62458000  0.74197000  1.0
  H  H74  1  0.17544000  0.64656000  0.70460000  1.0
  H  H75  1  0.09085000  0.75207000  0.68769000  1.0
  H  H76  1  0.19663000  0.73553000  0.60389000  1.0
  H  H77  1  0.01000000  0.80602000  0.86768000  1.0
  H  H78  1  0.01669000  0.82644000  0.75967000  1.0
  H  H79  1  0.01743000  0.90951000  0.78290000  1.0
  C  C80  1  0.83867000  0.15161000  0.14505000  1.0
  C  C81  1  0.77894000  0.20919000  0.20324000  1.0
  C  C82  1  0.75968000  0.16663000  0.29586000  1.0
  C  C83  1  0.79991000  0.06616000  0.33094000  1.0
  C  C84  1  0.70485000  0.22025000  0.35076000  1.0
  C  C85  1  0.67927000  0.18323000  0.45103000  1.0
  C  C86  1  0.67365000  0.31341000  0.30969000  1.0
  C  C87  1  0.61714000  0.37091000  0.36803000  1.0
  C  C88  1  0.69329000  0.35587000  0.21725000  1.0
  C  C89  1  0.65640000  0.45660000  0.18081000  1.0
  C  C90  1  0.74672000  0.30209000  0.16238000  1.0
  C  C91  1  0.77132000  0.34093000  0.06218000  1.0
  C  C92  1  0.84875000  0.15203000  0.86166000  1.0
  C  C93  1  0.79195000  0.21038000  0.80255000  1.0
  C  C94  1  0.77653000  0.30275000  0.76845000  1.0
  C  C95  1  0.81875000  0.33897000  0.79111000  1.0
  C  C96  1  0.72058000  0.35787000  0.71556000  1.0
  C  C97  1  0.69718000  0.45829000  0.67670000  1.0
  C  C98  1  0.68539000  0.31685000  0.69837000  1.0
  C  C99  1  0.62626000  0.37535000  0.64159000  1.0
  C  C100  1  0.70195000  0.22418000  0.73134000  1.0
  C  C101  1  0.66001000  0.18915000  0.70702000  1.0
  C  C102  1  0.75621000  0.16929000  0.78587000  1.0
  C  C103  1  0.77791000  0.06912000  0.82751000  1.0
  C  C104  1  0.84462000  0.87274000  0.13876000  1.0
  C  C105  1  0.78648000  0.81491000  0.19701000  1.0
  C  C106  1  0.77070000  0.77766000  0.15659000  1.0
  C  C107  1  0.81225000  0.79906000  0.05692000  1.0
  C  C108  1  0.71657000  0.72308000  0.21135000  1.0
  C  C109  1  0.69293000  0.68006000  0.17686000  1.0
  C  C110  1  0.68215000  0.70810000  0.30350000  1.0
  C  C111  1  0.62379000  0.65052000  0.36191000  1.0
  C  C112  1  0.69851000  0.74466000  0.34369000  1.0
  C  C113  1  0.65907000  0.72432000  0.44326000  1.0
  C  C114  1  0.75140000  0.80055000  0.28870000  1.0
  C  C115  1  0.77149000  0.84356000  0.32633000  1.0
  C  C116  1  0.12126000  0.15323000  0.87411000  1.0
  C  C117  1  0.17985000  0.21065000  0.81753000  1.0
  C  C118  1  0.27159000  0.16906000  0.78058000  1.0
  C  C119  1  0.30673000  0.06918000  0.80027000  1.0
  C  C120  1  0.32649000  0.22300000  0.72612000  1.0
  C  C121  1  0.42596000  0.18542000  0.68298000  1.0
  C  C122  1  0.28613000  0.31540000  0.71107000  1.0
  C  C123  1  0.34415000  0.37326000  0.65084000  1.0
  C  C124  1  0.19429000  0.35706000  0.74848000  1.0
  C  C125  1  0.15980000  0.45711000  0.72741000  1.0
  C  C126  1  0.13951000  0.30305000  0.80331000  1.0
  C  C127  1  0.03999000  0.33905000  0.84749000  1.0
  C  C128  1  0.11961000  0.87295000  0.14693000  1.0
  C  C129  1  0.17707000  0.81433000  0.20560000  1.0
  C  C130  1  0.13615000  0.77386000  0.29643000  1.0
  C  C131  1  0.03673000  0.79252000  0.32982000  1.0
  C  C132  1  0.19025000  0.71851000  0.35120000  1.0
  C  C133  1  0.15489000  0.67145000  0.44987000  1.0
  C  C134  1  0.28182000  0.70761000  0.31190000  1.0
  C  C135  1  0.33943000  0.64973000  0.37042000  1.0
  C  C136  1  0.32277000  0.74799000  0.22099000  1.0
  C  C137  1  0.42223000  0.72931000  0.18688000  1.0
  C  C138  1  0.26873000  0.80278000  0.16614000  1.0
  C  C139  1  0.30405000  0.84895000  0.06725000  1.0
  C  C140  1  0.12435000  0.87559000  0.86394000  1.0
  C  C141  1  0.18302000  0.81886000  0.80494000  1.0
  C  C142  1  0.27567000  0.78816000  0.78691000  1.0
  C  C143  1  0.31035000  0.81366000  0.82811000  1.0
  C  C144  1  0.33101000  0.73485000  0.73166000  1.0
  C  C145  1  0.43151000  0.69718000  0.70720000  1.0
  C  C146  1  0.29014000  0.71526000  0.69829000  1.0
  C  C147  1  0.34870000  0.65639000  0.64142000  1.0
  C  C148  1  0.19745000  0.74613000  0.71616000  1.0
  C  C149  1  0.16269000  0.71923000  0.67628000  1.0
  C  C150  1  0.14210000  0.79976000  0.77115000  1.0
  C  C151  1  0.04155000  0.83706000  0.79618000  1.0
  O  O152  1  0.98336000  0.01257000  0.00575000  1.0
  O  O153  1  0.92204000  0.13836000  0.11739000  1.0
  O  O154  1  0.80113000  0.12050000  0.12870000  1.0
  O  O155  1  0.53287000  0.38978000  0.39437000  1.0
  O  O156  1  0.65878000  0.39593000  0.38609000  1.0
  O  O157  1  0.93256000  0.12091000  0.82402000  1.0
  O  O158  1  0.80794000  0.13861000  0.94481000  1.0
  O  O159  1  0.54270000  0.40308000  0.68213000  1.0
  O  O160  1  0.66471000  0.39219000  0.55783000  1.0
  O  O161  1  0.92810000  0.83331000  0.12652000  1.0
  O  O162  1  0.80560000  0.95625000  0.10667000  1.0
  O  O163  1  0.53980000  0.69098000  0.38014000  1.0
  O  O164  1  0.66312000  0.56633000  0.38837000  1.0
  O  O165  1  0.09271000  0.13882000  0.83273000  1.0
  O  O166  1  0.10514000  0.12380000  0.95797000  1.0
  O  O167  1  0.37117000  0.39424000  0.68816000  1.0
  O  O168  1  0.36132000  0.39646000  0.56744000  1.0
  O  O169  1  0.10867000  0.83416000  0.11272000  1.0
  O  O170  1  0.08691000  0.95625000  0.13629000  1.0
  O  O171  1  0.35694000  0.68999000  0.39748000  1.0
  O  O172  1  0.36603000  0.56552000  0.38794000  1.0
  O  O173  1  0.09158000  0.83550000  0.94654000  1.0
  O  O174  1  0.11253000  0.95915000  0.82633000  1.0
  O  O175  1  0.37565000  0.69490000  0.55749000  1.0
  O  O176  1  0.36625000  0.57243000  0.68239000  1.0
  O  O177  1  0.48299000  0.51263000  0.50553000  1.0
