# generated using pymatgen
data_Gd4Ni3H42C30(NO7)6
_symmetry_space_group_name_H-M   'P 1'
_cell_length_a   7.13775000
_cell_length_b   12.64080000
_cell_length_c   14.61590000
_cell_angle_alpha   74.77400000
_cell_angle_beta   89.87920000
_cell_angle_gamma   87.82650000
_symmetry_Int_Tables_number   1
_chemical_formula_structural   Gd4Ni3H42C30(NO7)6
_chemical_formula_sum   'Gd4 Ni3 H42 C30 N6 O42'
_cell_volume   1271.49787768
_cell_formula_units_Z   1
loop_
 _symmetry_equiv_pos_site_id
 _symmetry_equiv_pos_as_xyz
  1  'x, y, z'
loop_
 _atom_site_type_symbol
 _atom_site_label
 _atom_site_symmetry_multiplicity
 _atom_site_fract_x
 _atom_site_fract_y
 _atom_site_fract_z
 _atom_site_occupancy
  Gd  Gd0  1  0.25376000  0.12649000  0.32587000  1.0
  Gd  Gd1  1  0.74624000  0.87351000  0.67413000  1.0
  Gd  Gd2  1  0.68054000  0.54032000  0.25529000  1.0
  Gd  Gd3  1  0.31946000  0.45968000  0.74471000  1.0
  Ni  Ni4  1  0.00000000  0.50000000  0.00000000  1.0
  Ni  Ni5  1  0.96558000  0.82674000  0.30016000  1.0
  Ni  Ni6  1  0.03441000  0.17326000  0.69984000  1.0
  H  H7  1  0.53665000  0.95021000  0.17227000  1.0
  H  H8  1  0.46335000  0.04980000  0.82773000  1.0
  H  H9  1  0.67611000  0.06274000  0.16965000  1.0
  H  H10  1  0.32389000  0.93726000  0.83036000  1.0
  H  H11  1  0.79077000  0.85371000  0.14356000  1.0
  H  H12  1  0.20923000  0.14629000  0.85644000  1.0
  H  H13  1  0.91982000  0.05242000  0.07020000  1.0
  H  H14  1  0.08019000  0.94758000  0.92980000  1.0
  H  H15  1  0.06523000  0.93120000  0.08840000  1.0
  H  H16  1  0.93477000  0.06880000  0.91159000  1.0
  H  H17  1  0.30620000  0.68624000  0.08368000  1.0
  H  H18  1  0.69380000  0.31376000  0.91632000  1.0
  H  H19  1  0.42546000  0.65162000  0.98898000  1.0
  H  H20  1  0.57454000  0.34838000  0.01101000  1.0
  H  H21  1  0.15958000  0.68006000  0.90837000  1.0
  H  H22  1  0.84042000  0.31994000  0.09162000  1.0
  H  H23  1  0.90166000  0.76625000  0.94385000  1.0
  H  H24  1  0.09834000  0.23375000  0.05615000  1.0
  H  H25  1  0.05479000  0.78773000  0.03230000  1.0
  H  H26  1  0.94520000  0.21227000  0.96770000  1.0
  H  H27  1  0.27057000  0.59498000  0.42095000  1.0
  H  H28  1  0.72943000  0.40502000  0.57905000  1.0
  H  H29  1  0.39870000  0.71077000  0.42323000  1.0
  H  H30  1  0.60130000  0.28923000  0.57677000  1.0
  H  H31  1  0.14034000  0.78742000  0.46261000  1.0
  H  H32  1  0.85967000  0.21258000  0.53739000  1.0
  H  H33  1  0.87779000  0.70358000  0.51489000  1.0
  H  H34  1  0.12222000  0.29642000  0.48511000  1.0
  H  H35  1  0.02875000  0.58811000  0.52060000  1.0
  H  H36  1  0.97125000  0.41189000  0.47940000  1.0
  H  H37  1  0.55499000  0.11480000  0.47634000  1.0
  H  H38  1  0.44500000  0.88520000  0.52366000  1.0
  H  H39  1  0.36334000  0.13890000  0.52059000  1.0
  H  H40  1  0.63666000  0.86110000  0.47942000  1.0
  H  H41  1  0.56244000  0.28064000  0.22177000  1.0
  H  H42  1  0.43756000  0.71936000  0.77823000  1.0
  H  H43  1  0.36938000  0.30850000  0.16876000  1.0
  H  H44  1  0.63063000  0.69150000  0.83124000  1.0
  H  H45  1  0.38021000  0.38302000  0.35631000  1.0
  H  H46  1  0.61980000  0.61698000  0.64369000  1.0
  H  H47  1  0.47187000  0.44043000  0.42939000  1.0
  H  H48  1  0.52814000  0.55957000  0.57061000  1.0
  C  C49  1  0.66655000  0.97389000  0.20068000  1.0
  C  C50  1  0.33345000  0.02611000  0.79932000  1.0
  C  C51  1  0.63912000  0.95608000  0.30705000  1.0
  C  C52  1  0.36087000  0.04392000  0.69295000  1.0
  C  C53  1  0.97674000  0.98051000  0.12429000  1.0
  C  C54  1  0.02326000  0.01949000  0.87571000  1.0
  C  C55  1  0.10416000  0.02074000  0.19037000  1.0
  C  C56  1  0.89584000  0.97927000  0.80963000  1.0
  C  C57  1  0.30335000  0.63230000  0.03558000  1.0
  C  C58  1  0.69666000  0.36770000  0.96442000  1.0
  C  C59  1  0.33568000  0.51514000  0.09588000  1.0
  C  C60  1  0.66432000  0.48486000  0.90412000  1.0
  C  C61  1  0.98857000  0.72416000  0.00569000  1.0
  C  C62  1  0.01143000  0.27584000  0.99430000  1.0
  C  C63  1  0.86163000  0.66297000  0.08292000  1.0
  C  C64  1  0.13838000  0.33703000  0.91708000  1.0
  C  C65  1  0.27350000  0.68447000  0.39282000  1.0
  C  C66  1  0.72650000  0.31553000  0.60718000  1.0
  C  C67  1  0.30023000  0.71008000  0.28582000  1.0
  C  C68  1  0.69976000  0.28992000  0.71418000  1.0
  C  C69  1  0.96376000  0.66156000  0.47190000  1.0
  C  C70  1  0.03624000  0.33844000  0.52810000  1.0
  C  C71  1  0.83495000  0.62678000  0.40446000  1.0
  C  C72  1  0.16505000  0.37322000  0.59554000  1.0
  C  C73  1  0.04910000  0.37122000  0.30132000  1.0
  C  C74  1  0.95090000  0.62878000  0.69868000  1.0
  C  C75  1  0.91508000  0.30884000  0.25395000  1.0
  C  C76  1  0.08492000  0.69115000  0.74605000  1.0
  C  C77  1  0.06700000  0.94890000  0.51149000  1.0
  C  C78  1  0.93300000  0.05110000  0.48851000  1.0
  N  N79  1  0.83010000  0.91232000  0.17655000  1.0
  N  N80  1  0.16989000  0.08769000  0.82345000  1.0
  N  N81  1  0.12895000  0.65018000  0.97851000  1.0
  N  N82  1  0.87105000  0.34982000  0.02148000  1.0
  N  N83  1  0.10332000  0.73772000  0.42116000  1.0
  N  N84  1  0.89668000  0.26228000  0.57884000  1.0
  O  O85  1  0.51385000  0.01404000  0.33383000  1.0
  O  O86  1  0.48615000  0.98596000  0.66617000  1.0
  O  O87  1  0.73964000  0.88285000  0.36513000  1.0
  O  O88  1  0.26036000  0.11715000  0.63487000  1.0
  O  O89  1  0.22497000  0.09027000  0.15895000  1.0
  O  O90  1  0.77502000  0.90973000  0.84104000  1.0
  O  O91  1  0.08101000  0.98145000  0.28069000  1.0
  O  O92  1  0.91900000  0.01855000  0.71931000  1.0
  O  O93  1  0.22820000  0.43993000  0.08699000  1.0
  O  O94  1  0.77180000  0.56007000  0.91301000  1.0
  O  O95  1  0.47438000  0.49630000  0.15198000  1.0
  O  O96  1  0.52562000  0.50371000  0.84801000  1.0
  O  O97  1  0.74806000  0.71372000  0.12402000  1.0
  O  O98  1  0.25196000  0.28628000  0.87599000  1.0
  O  O99  1  0.87349000  0.55724000  0.10678000  1.0
  O  O100  1  0.12650000  0.44276000  0.89321000  1.0
  O  O101  1  0.43960000  0.66412000  0.25645000  1.0
  O  O102  1  0.56039000  0.33588000  0.74355000  1.0
  O  O103  1  0.18540000  0.77645000  0.23085000  1.0
  O  O104  1  0.81459000  0.22354000  0.76915000  1.0
  O  O105  1  0.84276000  0.67757000  0.31580000  1.0
  O  O106  1  0.15723000  0.32243000  0.68420000  1.0
  O  O107  1  0.72464000  0.54929000  0.43304000  1.0
  O  O108  1  0.27536000  0.45071000  0.56697000  1.0
  O  O109  1  0.99600000  0.46477000  0.30865000  1.0
  O  O110  1  0.00400000  0.53523000  0.69134000  1.0
  O  O111  1  0.20376000  0.32021000  0.33086000  1.0
  O  O112  1  0.79624000  0.67979000  0.66914000  1.0
  O  O113  1  0.75029000  0.35117000  0.23737000  1.0
  O  O114  1  0.24971000  0.64884000  0.76264000  1.0
  O  O115  1  0.97844000  0.22360000  0.23311000  1.0
  O  O116  1  0.02155000  0.77640000  0.76689000  1.0
  O  O117  1  0.22105000  0.95630000  0.46754000  1.0
  O  O118  1  0.77895000  0.04370000  0.53246000  1.0
  O  O119  1  0.01087000  0.86452000  0.57154000  1.0
  O  O120  1  0.98914000  0.13548000  0.42846000  1.0
  O  O121  1  0.43210000  0.15404000  0.45931000  1.0
  O  O122  1  0.56790000  0.84595000  0.54069000  1.0
  O  O123  1  0.44614000  0.24616000  0.20735000  1.0
  O  O124  1  0.55386000  0.75384000  0.79266000  1.0
  O  O125  1  0.49341000  0.42188000  0.36955000  1.0
  O  O126  1  0.50659000  0.57812000  0.63045000  1.0
