# generated using pymatgen
data_Na2SiH50C40(N2O)2
_symmetry_space_group_name_H-M   'P 1'
_cell_length_a   10.70470000
_cell_length_b   15.42640000
_cell_length_c   15.42660000
_cell_angle_alpha   84.39810000
_cell_angle_beta   74.02190000
_cell_angle_gamma   74.02200000
_symmetry_Int_Tables_number   1
_chemical_formula_structural   Na2SiH50C40(N2O)2
_chemical_formula_sum   'Na4 Si2 H100 C80 N8 O4'
_cell_volume   2353.78400817
_cell_formula_units_Z   2
loop_
 _symmetry_equiv_pos_site_id
 _symmetry_equiv_pos_as_xyz
  1  'x, y, z'
loop_
 _atom_site_type_symbol
 _atom_site_label
 _atom_site_symmetry_multiplicity
 _atom_site_fract_x
 _atom_site_fract_y
 _atom_site_fract_z
 _atom_site_occupancy
  Na  Na0  1  0.78844000  0.64767000  0.09178000  1.0
  Na  Na1  1  0.28844000  0.09179000  0.64766000  1.0
  Na  Na2  1  0.85092000  0.27679000  0.95275000  1.0
  Na  Na3  1  0.35091000  0.95275000  0.27679000  1.0
  Si  Si4  1  0.55702000  0.65408000  0.00678000  1.0
  Si  Si5  1  0.05702000  0.00678000  0.65408000  1.0
  H  H6  1  0.94575000  0.47373000  0.25886000  1.0
  H  H7  1  0.44576000  0.25887000  0.47372000  1.0
  H  H8  1  0.16780000  0.49517000  0.16779000  1.0
  H  H9  1  0.66781000  0.16780000  0.49516000  1.0
  H  H10  1  0.22964000  0.48291000  0.00121000  1.0
  H  H11  1  0.72964000  0.00122000  0.48291000  1.0
  H  H12  1  0.72777000  0.37757000  0.18217000  1.0
  H  H13  1  0.22779000  0.18218000  0.37756000  1.0
  H  H14  1  0.66674000  0.49558000  0.18348000  1.0
  H  H15  1  0.16674000  0.18348000  0.49556000  1.0
  H  H16  1  0.73945000  0.43870000  0.27130000  1.0
  H  H17  1  0.23946000  0.27131000  0.43869000  1.0
  H  H18  1  0.18137000  0.45984000  0.86586000  1.0
  H  H19  1  0.68138000  0.86586000  0.45984000  1.0
  H  H20  1  0.00705000  0.49258000  0.86763000  1.0
  H  H21  1  0.50705000  0.86763000  0.49258000  1.0
  H  H22  1  0.08944000  0.37789000  0.87620000  1.0
  H  H23  1  0.58945000  0.87620000  0.37789000  1.0
  H  H24  1  0.73376000  0.49639000  0.81251000  1.0
  H  H25  1  0.23377000  0.81251000  0.49640000  1.0
  H  H26  1  0.59174000  0.44358000  0.73659000  1.0
  H  H27  1  0.09175000  0.73659000  0.44358000  1.0
  H  H28  1  0.42217000  0.36403000  0.82613000  1.0
  H  H29  1  0.92218000  0.82612000  0.36403000  1.0
  H  H30  1  0.39996000  0.33460000  0.99021000  1.0
  H  H31  1  0.89997000  0.99020000  0.33461000  1.0
  H  H32  1  0.54411000  0.38619000  0.06571000  1.0
  H  H33  1  0.04412000  0.06571000  0.38619000  1.0
  H  H34  1  0.47894000  0.75030000  0.88039000  1.0
  H  H35  1  0.97894000  0.88039000  0.75029000  1.0
  H  H36  1  0.58174000  0.64245000  0.84214000  1.0
  H  H37  1  0.08173000  0.84214000  0.64245000  1.0
  H  H38  1  0.65675000  0.72592000  0.86138000  1.0
  H  H39  1  0.15675000  0.86137000  0.72591000  1.0
  H  H40  1  0.37832000  0.57873000  0.00223000  1.0
  H  H41  1  0.87832000  0.00224000  0.57873000  1.0
  H  H42  1  0.30775000  0.68160000  0.06184000  1.0
  H  H43  1  0.80775000  0.06184000  0.68160000  1.0
  H  H44  1  0.38978000  0.58303000  0.11442000  1.0
  H  H45  1  0.88979000  0.11443000  0.58304000  1.0
  H  H46  1  0.46365000  0.86957000  0.96144000  1.0
  H  H47  1  0.96366000  0.96143000  0.86957000  1.0
  H  H48  1  0.25886000  0.94983000  0.91182000  1.0
  H  H49  1  0.75887000  0.91181000  0.94983000  1.0
  H  H50  1  0.03288000  0.97564000  0.02132000  1.0
  H  H51  1  0.53289000  0.02131000  0.97564000  1.0
  H  H52  1  0.01496000  0.92026000  0.18117000  1.0
  H  H53  1  0.51498000  0.18116000  0.92026000  1.0
  H  H54  1  0.21941000  0.83721000  0.22891000  1.0
  H  H55  1  0.71942000  0.22890000  0.83721000  1.0
  H  H56  1  0.92850000  0.78751000  0.22020000  1.0
  H  H57  1  0.42850000  0.22020000  0.78751000  1.0
  H  H58  1  0.91791000  0.65196000  0.32091000  1.0
  H  H59  1  0.41793000  0.32091000  0.65196000  1.0
  H  H60  1  0.70809000  0.59943000  0.36454000  1.0
  H  H61  1  0.20810000  0.36454000  0.59943000  1.0
  H  H62  1  0.65970000  0.95525000  0.18155000  1.0
  H  H63  1  0.15970000  0.18155000  0.95525000  1.0
  H  H64  1  0.70022000  0.88768000  0.08709000  1.0
  H  H65  1  0.20023000  0.08709000  0.88768000  1.0
  H  H66  1  0.83172000  0.90500000  0.12762000  1.0
  H  H67  1  0.33172000  0.12762000  0.90501000  1.0
  H  H68  1  0.48410000  0.61314000  0.35926000  1.0
  H  H69  1  0.98411000  0.35926000  0.61314000  1.0
  H  H70  1  0.45926000  0.64974000  0.25032000  1.0
  H  H71  1  0.95927000  0.25032000  0.64975000  1.0
  H  H72  1  0.38732000  0.72459000  0.34076000  1.0
  H  H73  1  0.88734000  0.34076000  0.72459000  1.0
  H  H74  1  0.11009000  0.65767000  0.02930000  1.0
  H  H75  1  0.61009000  0.02931000  0.65768000  1.0
  H  H76  1  0.04948000  0.77684000  0.04526000  1.0
  H  H77  1  0.54948000  0.04527000  0.77684000  1.0
  H  H78  1  0.12769000  0.80940000  0.88622000  1.0
  H  H79  1  0.62768000  0.88623000  0.80941000  1.0
  H  H80  1  0.25468000  0.70952000  0.89612000  1.0
  H  H81  1  0.75467000  0.89612000  0.70953000  1.0
  H  H82  1  0.13352000  0.61596000  0.84942000  1.0
  H  H83  1  0.63351000  0.84943000  0.61597000  1.0
  H  H84  1  0.10580000  0.71280000  0.77703000  1.0
  H  H85  1  0.60578000  0.77703000  0.71281000  1.0
  H  H86  1  0.88417000  0.77633000  0.87271000  1.0
  H  H87  1  0.38416000  0.87272000  0.77634000  1.0
  H  H88  1  0.88971000  0.65924000  0.89305000  1.0
  H  H89  1  0.38970000  0.89305000  0.65925000  1.0
  H  H90  1  0.66093000  0.13756000  0.09903000  1.0
  H  H91  1  0.16092000  0.09903000  0.13757000  1.0
  H  H92  1  0.82404000  0.06611000  0.09640000  1.0
  H  H93  1  0.32403000  0.09641000  0.06612000  1.0
  H  H94  1  0.62681000  0.17808000  0.25544000  1.0
  H  H95  1  0.12680000  0.25545000  0.17809000  1.0
  H  H96  1  0.72687000  0.06643000  0.25941000  1.0
  H  H97  1  0.22685000  0.25942000  0.06644000  1.0
  H  H98  1  0.79880000  0.22880000  0.28170000  1.0
  H  H99  1  0.29880000  0.28170000  0.22880000  1.0
  H  H100  1  0.91510000  0.12150000  0.26254000  1.0
  H  H101  1  0.41510000  0.26255000  0.12150000  1.0
  H  H102  1  0.99487000  0.15108000  0.10800000  1.0
  H  H103  1  0.49486000  0.10800000  0.15108000  1.0
  H  H104  1  0.92142000  0.26811000  0.13310000  1.0
  H  H105  1  0.42142000  0.13310000  0.26811000  1.0
  C  C106  1  0.92030000  0.44074000  0.04891000  1.0
  C  C107  1  0.42031000  0.04892000  0.44074000  1.0
  C  C108  1  0.88356000  0.44891000  0.14411000  1.0
  C  C109  1  0.38356000  0.14412000  0.44890000  1.0
  C  C110  1  0.97441000  0.46753000  0.18564000  1.0
  C  C111  1  0.47441000  0.18565000  0.46753000  1.0
  C  C112  1  0.09873000  0.47951000  0.13497000  1.0
  C  C113  1  0.59873000  0.13497000  0.47951000  1.0
  C  C114  1  0.13353000  0.47237000  0.04133000  1.0
  C  C115  1  0.63353000  0.04133000  0.47237000  1.0
  C  C116  1  0.04669000  0.45254000  0.99747000  1.0
  C  C117  1  0.54669000  0.99748000  0.45254000  1.0
  C  C118  1  0.74762000  0.43947000  0.19872000  1.0
  C  C119  1  0.24763000  0.19872000  0.43946000  1.0
  C  C120  1  0.08357000  0.44551000  0.89671000  1.0
  C  C121  1  0.58357000  0.89671000  0.44551000  1.0
  C  C122  1  0.73038000  0.48105000  0.99018000  1.0
  C  C123  1  0.23039000  0.99018000  0.48105000  1.0
  C  C124  1  0.64688000  0.44613000  0.94432000  1.0
  C  C125  1  0.14689000  0.94432000  0.44613000  1.0
  C  C126  1  0.66018000  0.46102000  0.85132000  1.0
  C  C127  1  0.16019000  0.85132000  0.46102000  1.0
  C  C128  1  0.58028000  0.43139000  0.80889000  1.0
  C  C129  1  0.08028000  0.80889000  0.43139000  1.0
  C  C130  1  0.48589000  0.38621000  0.85878000  1.0
  C  C131  1  0.98589000  0.85878000  0.38622000  1.0
  C  C132  1  0.47377000  0.36957000  0.95101000  1.0
  C  C133  1  0.97378000  0.95101000  0.36957000  1.0
  C  C134  1  0.55398000  0.39880000  0.99354000  1.0
  C  C135  1  0.05399000  0.99353000  0.39881000  1.0
  C  C136  1  0.56931000  0.69756000  0.88648000  1.0
  C  C137  1  0.06931000  0.88648000  0.69754000  1.0
  C  C138  1  0.39286000  0.62107000  0.05004000  1.0
  C  C139  1  0.89286000  0.05005000  0.62107000  1.0
  C  C140  1  0.48198000  0.79724000  0.12536000  1.0
  C  C141  1  0.98198000  0.12536000  0.79724000  1.0
  C  C142  1  0.35615000  0.84847000  0.09829000  1.0
  C  C143  1  0.85617000  0.09828000  0.84847000  1.0
  C  C144  1  0.36474000  0.88086000  0.00918000  1.0
  C  C145  1  0.86475000  0.00916000  0.88086000  1.0
  C  C146  1  0.24958000  0.92594000  0.98161000  1.0
  C  C147  1  0.74959000  0.98160000  0.92594000  1.0
  C  C148  1  0.12293000  0.94067000  0.04319000  1.0
  C  C149  1  0.62294000  0.04318000  0.94067000  1.0
  C  C150  1  0.11300000  0.90948000  0.13235000  1.0
  C  C151  1  0.61301000  0.13234000  0.90948000  1.0
  C  C152  1  0.22852000  0.86347000  0.15968000  1.0
  C  C153  1  0.72853000  0.15967000  0.86347000  1.0
  C  C154  1  0.60784000  0.78095000  0.23086000  1.0
  C  C155  1  0.10785000  0.23086000  0.78095000  1.0
  C  C156  1  0.72571000  0.81221000  0.20815000  1.0
  C  C157  1  0.22572000  0.20815000  0.81221000  1.0
  C  C158  1  0.83641000  0.76472000  0.24039000  1.0
  C  C159  1  0.33641000  0.24039000  0.76472000  1.0
  C  C160  1  0.83083000  0.68847000  0.29659000  1.0
  C  C161  1  0.33084000  0.29659000  0.68846000  1.0
  C  C162  1  0.71329000  0.65897000  0.32055000  1.0
  C  C163  1  0.21331000  0.32054000  0.65897000  1.0
  C  C164  1  0.60176000  0.70356000  0.28797000  1.0
  C  C165  1  0.10177000  0.28797000  0.70356000  1.0
  C  C166  1  0.73039000  0.89426000  0.14795000  1.0
  C  C167  1  0.23039000  0.14795000  0.89426000  1.0
  C  C168  1  0.47667000  0.67060000  0.31130000  1.0
  C  C169  1  0.97668000  0.31131000  0.67061000  1.0
  C  C170  1  0.06437000  0.72247000  0.99959000  1.0
  C  C171  1  0.56437000  0.99960000  0.72247000  1.0
  C  C172  1  0.14618000  0.73703000  0.90412000  1.0
  C  C173  1  0.64618000  0.90413000  0.73703000  1.0
  C  C174  1  0.08894000  0.68908000  0.84763000  1.0
  C  C175  1  0.58893000  0.84764000  0.68909000  1.0
  C  C176  1  0.93994000  0.71151000  0.89710000  1.0
  C  C177  1  0.43993000  0.89711000  0.71151000  1.0
  C  C178  1  0.75026000  0.12920000  0.12359000  1.0
  C  C179  1  0.25026000  0.12359000  0.12921000  1.0
  C  C180  1  0.72537000  0.13263000  0.22583000  1.0
  C  C181  1  0.22536000  0.22583000  0.13263000  1.0
  C  C182  1  0.83930000  0.17181000  0.23590000  1.0
  C  C183  1  0.33930000  0.23590000  0.17181000  1.0
  C  C184  1  0.90150000  0.20148000  0.13920000  1.0
  C  C185  1  0.40150000  0.13920000  0.20148000  1.0
  N  N186  1  0.83614000  0.41727000  0.00494000  1.0
  N  N187  1  0.33614000  0.00495000  0.41727000  1.0
  N  N188  1  0.69769000  0.56678000  0.01062000  1.0
  N  N189  1  0.19770000  0.01062000  0.56678000  1.0
  N  N190  1  0.56890000  0.72948000  0.07759000  1.0
  N  N191  1  0.06890000  0.07759000  0.72948000  1.0
  N  N192  1  0.49615000  0.82842000  0.19928000  1.0
  N  N193  1  0.99616000  0.19928000  0.82842000  1.0
  O  O194  1  0.93320000  0.72009000  0.99142000  1.0
  O  O195  1  0.43320000  0.99142000  0.72010000  1.0
  O  O196  1  0.80470000  0.20480000  0.08907000  1.0
  O  O197  1  0.30469000  0.08908000  0.20481000  1.0
