# generated using pymatgen
data_FeH10(C2O3)4
_symmetry_space_group_name_H-M   'P 1'
_cell_length_a   5.12457000
_cell_length_b   7.38769000
_cell_length_c   8.77148000
_cell_angle_alpha   66.91640000
_cell_angle_beta   77.14370000
_cell_angle_gamma   75.20330000
_symmetry_Int_Tables_number   1
_chemical_formula_structural   FeH10(C2O3)4
_chemical_formula_sum   'Fe1 H10 C8 O12'
_cell_volume   292.54936272
_cell_formula_units_Z   1
loop_
 _symmetry_equiv_pos_site_id
 _symmetry_equiv_pos_as_xyz
  1  'x, y, z'
loop_
 _atom_site_type_symbol
 _atom_site_label
 _atom_site_symmetry_multiplicity
 _atom_site_fract_x
 _atom_site_fract_y
 _atom_site_fract_z
 _atom_site_occupancy
  Fe  Fe0  1  0.00213000  0.99851000  0.00075000  1.0
  H  H1  1  0.98446000  0.01164000  0.50092000  1.0
  H  H2  1  0.98024000  0.50814000  0.49719000  1.0
  H  H3  1  0.24135000  0.83887000  0.27978000  1.0
  H  H4  1  0.76275000  0.15983000  0.72295000  1.0
  H  H5  1  0.47093000  0.79253000  0.13370000  1.0
  H  H6  1  0.53148000  0.20713000  0.86729000  1.0
  H  H7  1  0.81693000  0.69911000  0.96641000  1.0
  H  H8  1  0.18452000  0.29947000  0.03298000  1.0
  H  H9  1  0.90544000  0.62264000  0.14505000  1.0
  H  H10  1  0.09733000  0.37590000  0.85400000  1.0
  C  C11  1  0.60640000  0.18214000  0.27445000  1.0
  C  C12  1  0.39411000  0.81559000  0.72547000  1.0
  C  C13  1  0.63524000  0.20201000  0.42891000  1.0
  C  C14  1  0.36662000  0.79697000  0.56803000  1.0
  C  C15  1  0.37257000  0.33270000  0.43363000  1.0
  C  C16  1  0.63026000  0.66722000  0.56815000  1.0
  C  C17  1  0.33485000  0.31865000  0.27548000  1.0
  C  C18  1  0.66666667  0.67997000  0.72478000  1.0
  O  O19  1  0.74113000  0.08427000  0.18537000  1.0
  O  O20  1  0.25672000  0.91221000  0.81463000  1.0
  O  O21  1  0.81560000  0.12545000  0.53152000  1.0
  O  O22  1  0.18962000  0.87296000  0.46701000  1.0
  O  O23  1  0.23187000  0.41411000  0.53570000  1.0
  O  O24  1  0.77411000  0.58520000  0.46359000  1.0
  O  O25  1  0.14961000  0.38433000  0.18543000  1.0
  O  O26  1  0.85157000  0.61406000  0.81568000  1.0
  O  O27  1  0.26953000  0.82278000  0.16953000  1.0
  O  O28  1  0.73330000  0.17695000  0.83212000  1.0
  O  O29  1  0.80160000  0.74084000  0.06546000  1.0
  O  O30  1  0.20100000  0.25785000  0.93404000  1.0
