# generated using pymatgen
data_CuH7C6N7
_symmetry_space_group_name_H-M   'P 1'
_cell_length_a   8.20746000
_cell_length_b   8.95288000
_cell_length_c   13.06950000
_cell_angle_alpha   89.99170000
_cell_angle_beta   89.92610000
_cell_angle_gamma   67.96000000
_symmetry_Int_Tables_number   1
_chemical_formula_structural   CuH7C6N7
_chemical_formula_sum   'Cu4 H28 C24 N28'
_cell_volume   890.17083202
_cell_formula_units_Z   4
loop_
 _symmetry_equiv_pos_site_id
 _symmetry_equiv_pos_as_xyz
  1  'x, y, z'
loop_
 _atom_site_type_symbol
 _atom_site_label
 _atom_site_symmetry_multiplicity
 _atom_site_fract_x
 _atom_site_fract_y
 _atom_site_fract_z
 _atom_site_occupancy
  Cu  Cu0  1  0.09087000  0.91233000  0.10640000  1.0
  Cu  Cu1  1  0.40948000  0.08723000  0.60272000  1.0
  Cu  Cu2  1  0.90913000  0.08768000  0.89359000  1.0
  Cu  Cu3  1  0.59052000  0.91278000  0.39728000  1.0
  H  H4  1  0.73030000  0.54347000  0.09581000  1.0
  H  H5  1  0.76980000  0.45674000  0.59563000  1.0
  H  H6  1  0.26970000  0.45652000  0.90419000  1.0
  H  H7  1  0.23020000  0.54326000  0.40437000  1.0
  H  H8  1  0.68075000  0.29957000  0.16145000  1.0
  H  H9  1  0.81945000  0.70048000  0.66127000  1.0
  H  H10  1  0.31925000  0.70043000  0.83855000  1.0
  H  H11  1  0.18055000  0.29952000  0.33873000  1.0
  H  H12  1  0.37220000  0.32030000  0.19423000  1.0
  H  H13  1  0.12809000  0.67925000  0.69386000  1.0
  H  H14  1  0.62780000  0.67970000  0.80578000  1.0
  H  H15  1  0.87191000  0.32075000  0.30614000  1.0
  H  H16  1  0.12555000  0.58628000  0.16395000  1.0
  H  H17  1  0.37453000  0.41291000  0.66412000  1.0
  H  H18  1  0.87445000  0.41372000  0.83605000  1.0
  H  H19  1  0.62547000  0.58709000  0.33589000  1.0
  H  H20  1  0.44248000  0.93452000  0.11245000  1.0
  H  H21  1  0.05737000  0.06514000  0.61239000  1.0
  H  H22  1  0.55752000  0.06548000  0.88754000  1.0
  H  H23  1  0.94263000  0.93486000  0.38761000  1.0
  H  H24  1  0.38867000  0.88644000  0.98874000  1.0
  H  H25  1  0.11123000  0.11364000  0.48867000  1.0
  H  H26  1  0.61133000  0.11356000  0.01126000  1.0
  H  H27  1  0.88877000  0.88636000  0.51132000  1.0
  H  H28  1  0.61273000  0.81087000  0.02991000  1.0
  H  H29  1  0.88729000  0.18905000  0.53010000  1.0
  H  H30  1  0.38728000  0.18913000  0.97009000  1.0
  H  H31  1  0.11271000  0.81095000  0.46990000  1.0
  C  C32  1  0.45510000  0.69164000  0.09587000  1.0
  C  C33  1  0.04470000  0.30816000  0.59604000  1.0
  C  C34  1  0.54490000  0.30836000  0.90413000  1.0
  C  C35  1  0.95530000  0.69184000  0.40396000  1.0
  C  C36  1  0.59843000  0.54775000  0.11231000  1.0
  C  C37  1  0.90156000  0.45220000  0.61235000  1.0
  C  C38  1  0.40157000  0.45225000  0.88769000  1.0
  C  C39  1  0.09844000  0.54780000  0.38765000  1.0
  C  C40  1  0.57058000  0.41301000  0.14892000  1.0
  C  C41  1  0.92955000  0.58688000  0.64886000  1.0
  C  C42  1  0.42942000  0.58699000  0.85108000  1.0
  C  C43  1  0.07045000  0.41312000  0.35114000  1.0
  C  C44  1  0.39936000  0.42383000  0.16756000  1.0
  C  C45  1  0.10075000  0.57573000  0.66757000  1.0
  C  C46  1  0.60063000  0.57617000  0.83244000  1.0
  C  C47  1  0.89925000  0.42428000  0.33243000  1.0
  C  C48  1  0.26205000  0.57040000  0.15086000  1.0
  C  C49  1  0.23800000  0.42896000  0.65108000  1.0
  C  C50  1  0.73794000  0.42961000  0.84914000  1.0
  C  C51  1  0.76200000  0.57104000  0.34892000  1.0
  C  C52  1  0.47674000  0.83865000  0.05431000  1.0
  C  C53  1  0.02319000  0.16117000  0.55441000  1.0
  C  C54  1  0.52326000  0.16135000  0.94569000  1.0
  C  C55  1  0.97681000  0.83883000  0.44559000  1.0
  N  N56  1  0.04631000  0.86577000  0.95252000  1.0
  N  N57  1  0.45046000  0.13747000  0.45176000  1.0
  N  N58  1  0.95369000  0.13424000  0.04748000  1.0
  N  N59  1  0.54954000  0.86253000  0.54824000  1.0
  N  N60  1  0.99318000  0.75792000  0.93496000  1.0
  N  N61  1  0.50688000  0.24311000  0.43505000  1.0
  N  N62  1  0.00683000  0.24209000  0.06505000  1.0
  N  N63  1  0.49312000  0.75689000  0.56495000  1.0
  N  N64  1  0.94269000  0.65545000  0.91870000  1.0
  N  N65  1  0.55835000  0.34491000  0.41847000  1.0
  N  N66  1  0.05732000  0.34455000  0.08132000  1.0
  N  N67  1  0.44165000  0.65510000  0.58154000  1.0
  N  N68  1  0.86887000  0.84834000  0.15555000  1.0
  N  N69  1  0.63100000  0.15162000  0.65496000  1.0
  N  N70  1  0.13113000  0.15164000  0.84445000  1.0
  N  N71  1  0.36901000  0.84836000  0.34505000  1.0
  N  N72  1  0.75706000  0.92542000  0.21198000  1.0
  N  N73  1  0.74264000  0.07341000  0.71093000  1.0
  N  N74  1  0.24292000  0.07458000  0.78803000  1.0
  N  N75  1  0.25736000  0.92658000  0.28906000  1.0
  N  N76  1  0.64167000  0.00609000  0.26758000  1.0
  N  N77  1  0.85803000  0.99151000  0.76599000  1.0
  N  N78  1  0.35834000  0.99391000  0.73242000  1.0
  N  N79  1  0.14198000  0.00847000  0.23400000  1.0
  N  N80  1  0.28969000  0.70086000  0.11687000  1.0
  N  N81  1  0.20996000  0.29870000  0.61724000  1.0
  N  N82  1  0.71030000  0.29915000  0.88313000  1.0
  N  N83  1  0.79004000  0.70130000  0.38276000  1.0
