# generated using pymatgen
data_AgH8C8S2N(OF)3
_symmetry_space_group_name_H-M   'P 1'
_cell_length_a   5.54354000
_cell_length_b   9.83584000
_cell_length_c   11.18510000
_cell_angle_alpha   93.57300000
_cell_angle_beta   96.08670000
_cell_angle_gamma   104.59900000
_symmetry_Int_Tables_number   1
_chemical_formula_structural   AgH8C8S2N(OF)3
_chemical_formula_sum   'Ag2 H16 C16 S4 N2 O6 F6'
_cell_volume   584.33592523
_cell_formula_units_Z   2
loop_
 _symmetry_equiv_pos_site_id
 _symmetry_equiv_pos_as_xyz
  1  'x, y, z'
loop_
 _atom_site_type_symbol
 _atom_site_label
 _atom_site_symmetry_multiplicity
 _atom_site_fract_x
 _atom_site_fract_y
 _atom_site_fract_z
 _atom_site_occupancy
  Ag  Ag0  1  0.89242000  0.07108000  0.08422000  1.0
  Ag  Ag1  1  0.10757000  0.92891000  0.91577000  1.0
  H  H2  1  0.31419000  0.00830000  0.68460000  1.0
  H  H3  1  0.68580000  0.99170000  0.31540000  1.0
  H  H4  1  0.24898000  0.14085000  0.50606000  1.0
  H  H5  1  0.75107000  0.85919000  0.49396000  1.0
  H  H6  1  0.92435000  0.27936000  0.50340000  1.0
  H  H7  1  0.07571000  0.72067000  0.49662000  1.0
  H  H8  1  0.68964000  0.28465000  0.68095000  1.0
  H  H9  1  0.31037000  0.71536000  0.31904000  1.0
  H  H10  1  0.59264000  0.33356000  0.00052000  1.0
  H  H11  1  0.40735000  0.66644000  0.99948000  1.0
  H  H12  1  0.66591000  0.37506000  0.85428000  1.0
  H  H13  1  0.33408000  0.62495000  0.14573000  1.0
  H  H14  1  0.04240000  0.38324000  0.07946000  1.0
  H  H15  1  0.95758000  0.61676000  0.92055000  1.0
  H  H16  1  0.13290000  0.40423000  0.93336000  1.0
  H  H17  1  0.86710000  0.59577000  0.06665000  1.0
  C  C18  1  0.18138000  0.07331000  0.68172000  1.0
  C  C19  1  0.81862000  0.92669000  0.31829000  1.0
  C  C20  1  0.14312000  0.14630000  0.58211000  1.0
  C  C21  1  0.85692000  0.85372000  0.41789000  1.0
  C  C22  1  0.96391000  0.22368000  0.58122000  1.0
  C  C23  1  0.03612000  0.77634000  0.41879000  1.0
  C  C24  1  0.83321000  0.22694000  0.68045000  1.0
  C  C25  1  0.16679000  0.77306000  0.31955000  1.0
  C  C26  1  0.88752000  0.15330000  0.77858000  1.0
  C  C27  1  0.11247000  0.84671000  0.22141000  1.0
  C  C28  1  0.73248000  0.33539000  0.93758000  1.0
  C  C29  1  0.26752000  0.66462000  0.06242000  1.0
  C  C30  1  0.99400000  0.42124000  0.99201000  1.0
  C  C31  1  0.00599000  0.57877000  0.00800000  1.0
  C  C32  1  0.54786000  0.42057000  0.31530000  1.0
  C  C33  1  0.45210000  0.57940000  0.68471000  1.0
  S  S34  1  0.70962000  0.14870000  0.90280000  1.0
  S  S35  1  0.29037000  0.85131000  0.09719000  1.0
  S  S36  1  0.52608000  0.23772000  0.25078000  1.0
  S  S37  1  0.47395000  0.76228000  0.74919000  1.0
  N  N38  1  0.05753000  0.07702000  0.77904000  1.0
  N  N39  1  0.94246000  0.92297000  0.22095000  1.0
  O  O40  1  0.35725000  0.22300000  0.13797000  1.0
  O  O41  1  0.64275000  0.77700000  0.86200000  1.0
  O  O42  1  0.42848000  0.14905000  0.34311000  1.0
  O  O43  1  0.57158000  0.85091000  0.65685000  1.0
  O  O44  1  0.78746000  0.24486000  0.23377000  1.0
  O  O45  1  0.21257000  0.75517000  0.76617000  1.0
  F  F46  1  0.65028000  0.51674000  0.23971000  1.0
  F  F47  1  0.34968000  0.48328000  0.76034000  1.0
  F  F48  1  0.31816000  0.43810000  0.33136000  1.0
  F  F49  1  0.68177000  0.56183000  0.66865000  1.0
  F  F50  1  0.69530000  0.45120000  0.42340000  1.0
  F  F51  1  0.30462000  0.54874000  0.57662000  1.0
