# generated using pymatgen
data_AlH9C21Br3(NO2)3
_symmetry_space_group_name_H-M   'P 1'
_cell_length_a   4.01235000
_cell_length_b   27.94130000
_cell_length_c   27.94120000
_cell_angle_alpha   60.00035517
_cell_angle_beta   89.99890000
_cell_angle_gamma   89.99890000
_symmetry_Int_Tables_number   1
_chemical_formula_structural   AlH9C21Br3(NO2)3
_chemical_formula_sum   'Al2 H18 C42 Br6 N6 O12'
_cell_volume   2712.83049022
_cell_formula_units_Z   2
loop_
 _symmetry_equiv_pos_site_id
 _symmetry_equiv_pos_as_xyz
  1  'x, y, z'
loop_
 _atom_site_type_symbol
 _atom_site_label
 _atom_site_symmetry_multiplicity
 _atom_site_fract_x
 _atom_site_fract_y
 _atom_site_fract_z
 _atom_site_occupancy
  Al  Al0  1  0.98795000  0.50000000  0.00000000  1.0
  Al  Al1  1  0.98795000  0.16667000  0.66666000  1.0
  H  H2  1  0.52375000  0.31089000  0.51142000  1.0
  H  H3  1  0.51050000  0.36030000  0.40757000  1.0
  H  H4  1  0.49647000  0.20360000  0.41359000  1.0
  H  H5  1  0.49645000  0.46306000  0.25309000  1.0
  H  H6  1  0.51046000  0.30637000  0.25909000  1.0
  H  H7  1  0.52371000  0.35577000  0.15526000  1.0
  H  H8  1  0.52371000  0.17769000  0.81090000  1.0
  H  H9  1  0.51046000  0.23213000  0.86030000  1.0
  H  H10  1  0.49644000  0.38281000  0.70361000  1.0
  H  H11  1  0.49652000  0.28385000  0.96307000  1.0
  H  H12  1  0.51049000  0.43454000  0.80636000  1.0
  H  H13  1  0.52372000  0.48897000  0.85578000  1.0
  H  H14  1  0.52376000  0.01141000  0.67769000  1.0
  H  H15  1  0.51050000  0.90757000  0.73213000  1.0
  H  H16  1  0.49646000  0.91358000  0.88281000  1.0
  H  H17  1  0.49647000  0.75308000  0.78386000  1.0
  H  H18  1  0.51052000  0.75910000  0.93453000  1.0
  H  H19  1  0.52375000  0.65526000  0.98897000  1.0
  C  C20  1  0.49147000  0.58440000  0.95240000  1.0
  C  C21  1  0.49146000  0.46321000  0.08440000  1.0
  C  C22  1  0.49148000  0.45239000  0.96321000  1.0
  C  C23  1  0.49148000  0.20346000  0.58226000  1.0
  C  C24  1  0.49146000  0.21428000  0.70346000  1.0
  C  C25  1  0.49148000  0.08226000  0.71428000  1.0
  C  C26  1  0.50054000  0.22980000  0.52078000  1.0
  C  C27  1  0.51299000  0.28791000  0.48935000  1.0
  C  C28  1  0.50674000  0.31537000  0.43213000  1.0
  C  C29  1  0.49725000  0.28446000  0.40498000  1.0
  C  C30  1  0.49536000  0.22657000  0.43562000  1.0
  C  C31  1  0.49411000  0.19955000  0.49310000  1.0
  C  C32  1  0.49535000  0.44009000  0.23105000  1.0
  C  C33  1  0.49723000  0.38221000  0.26169000  1.0
  C  C34  1  0.50672000  0.35129000  0.23454000  1.0
  C  C35  1  0.51297000  0.37876000  0.17732000  1.0
  C  C36  1  0.50052000  0.43686000  0.14590000  1.0
  C  C37  1  0.49410000  0.46712000  0.17357000  1.0
  C  C38  1  0.50050000  0.24942000  0.72981000  1.0
  C  C39  1  0.51296000  0.22274000  0.78791000  1.0
  C  C40  1  0.50672000  0.25250000  0.81538000  1.0
  C  C41  1  0.49722000  0.31056000  0.78446000  1.0
  C  C42  1  0.49531000  0.33781000  0.72657000  1.0
  C  C43  1  0.49407000  0.30735000  0.69955000  1.0
  C  C44  1  0.49539000  0.32886000  0.94010000  1.0
  C  C45  1  0.49727000  0.35611000  0.88221000  1.0
  C  C46  1  0.50675000  0.41417000  0.85129000  1.0
  C  C47  1  0.51298000  0.44392000  0.87876000  1.0
  C  C48  1  0.50054000  0.41724000  0.93687000  1.0
  C  C49  1  0.49413000  0.35932000  0.96712000  1.0
  C  C50  1  0.50054000  0.02077000  0.74942000  1.0
  C  C51  1  0.51298000  0.98935000  0.72274000  1.0
  C  C52  1  0.50674000  0.93212000  0.75250000  1.0
  C  C53  1  0.49725000  0.90498000  0.81056000  1.0
  C  C54  1  0.49536000  0.93562000  0.83781000  1.0
  C  C55  1  0.49411000  0.99310000  0.80735000  1.0
  C  C56  1  0.49536000  0.73104000  0.82886000  1.0
  C  C57  1  0.49725000  0.76168000  0.85611000  1.0
  C  C58  1  0.50675000  0.73454000  0.91417000  1.0
  C  C59  1  0.51299000  0.67732000  0.94392000  1.0
  C  C60  1  0.50052000  0.64589000  0.91725000  1.0
  C  C61  1  0.49409000  0.67356000  0.85932000  1.0
  Br  Br62  1  0.50674000  0.12103000  0.53220000  1.0
  Br  Br63  1  0.50676000  0.54563000  0.13448000  1.0
  Br  Br64  1  0.50673000  0.34677000  0.62104000  1.0
  Br  Br65  1  0.50679000  0.31990000  0.04563000  1.0
  Br  Br66  1  0.50680000  0.03219000  0.84678000  1.0
  Br  Br67  1  0.50674000  0.63447000  0.81990000  1.0
  N  N68  1  0.49522000  0.30716000  0.34704000  1.0
  N  N69  1  0.49519000  0.35950000  0.31964000  1.0
  N  N70  1  0.49520000  0.34580000  0.80717000  1.0
  N  N71  1  0.49524000  0.32086000  0.85951000  1.0
  N  N72  1  0.49520000  0.84703000  0.84581000  1.0
  N  N73  1  0.49524000  0.81963000  0.82086000  1.0
  O  O74  1  0.25082000  0.44515000  0.99572000  1.0
  O  O75  1  0.25082000  0.55913000  0.94515000  1.0
  O  O76  1  0.25082000  0.49572000  0.05913000  1.0
  O  O77  1  0.72205000  0.48823000  0.94984000  1.0
  O  O78  1  0.72206000  0.44985000  0.06193000  1.0
  O  O79  1  0.72205000  0.56193000  0.98823000  1.0
  O  O80  1  0.25082000  0.10754000  0.72152000  1.0
  O  O81  1  0.25082000  0.17094000  0.60754000  1.0
  O  O82  1  0.25081000  0.22152000  0.67094000  1.0
  O  O83  1  0.72206000  0.10474000  0.67844000  1.0
  O  O84  1  0.72205000  0.17844000  0.71682000  1.0
  O  O85  1  0.72205000  0.21682000  0.60474000  1.0
