# generated using pymatgen
data_Al2H12C20O11
_symmetry_space_group_name_H-M   'P 1'
_cell_length_a   6.65384000
_cell_length_b   11.12764592
_cell_length_c   12.99208623
_cell_angle_alpha   71.35482843
_cell_angle_beta   78.69654149
_cell_angle_gamma   72.67646665
_symmetry_Int_Tables_number   1
_chemical_formula_structural   Al2H12C20O11
_chemical_formula_sum   'Al2 H12 C20 O11'
_cell_volume   864.70197612
_cell_formula_units_Z   1
loop_
 _symmetry_equiv_pos_site_id
 _symmetry_equiv_pos_as_xyz
  1  'x, y, z'
loop_
 _atom_site_type_symbol
 _atom_site_label
 _atom_site_symmetry_multiplicity
 _atom_site_fract_x
 _atom_site_fract_y
 _atom_site_fract_z
 _atom_site_occupancy
  Al  Al0  1  0.50015000  0.49865000  0.49946000  1.0
  Al  Al1  1  0.99837000  0.50396000  0.49800000  1.0
  H  H2  1  0.24818000  0.39413000  0.63083000  1.0
  H  H3  1  0.69380000  0.66394000  0.41777000  1.0
  H  H4  1  0.73359000  0.87509000  0.53253000  1.0
  H  H5  1  0.38660000  0.89289000  0.46369000  1.0
  H  H6  1  0.62386000  0.10893000  0.53530000  1.0
  H  H7  1  0.31322000  0.55291000  0.81089000  1.0
  H  H8  1  0.98130000  0.39183000  0.83300000  1.0
  H  H9  1  0.92933000  0.39024000  0.02851000  1.0
  H  H10  1  0.68876000  0.44398000  0.19005000  1.0
  H  H11  1  0.02045000  0.60300000  0.16847000  1.0
  H  H12  1  0.07285000  0.60567000  0.97215000  1.0
  H  H13  1  0.23936000  0.22557000  0.46600000  1.0
  C  C14  1  0.68247000  0.47356000  0.69412000  1.0
  C  C15  1  0.86990000  0.27126000  0.50249000  1.0
  C  C16  1  0.31912000  0.52242000  0.30652000  1.0
  C  C17  1  0.13225000  0.73088000  0.49451000  1.0
  C  C18  1  0.94105000  0.13279000  0.50148000  1.0
  C  C19  1  0.06671000  0.87020000  0.49787000  1.0
  C  C20  1  0.15927000  0.07132000  0.48065000  1.0
  C  C21  1  0.85063000  0.93072000  0.51860000  1.0
  C  C22  1  0.21937000  0.93975000  0.47957000  1.0
  C  C23  1  0.79028000  0.06027000  0.52057000  1.0
  C  C24  1  0.44669000  0.51804000  0.85914000  1.0
  C  C25  1  0.82427000  0.42710000  0.87273000  1.0
  C  C26  1  0.79509000  0.42692000  0.98055000  1.0
  C  C27  1  0.59008000  0.47474000  0.03155000  1.0
  C  C28  1  0.55565000  0.47824000  0.14162000  1.0
  C  C29  1  0.17747000  0.56873000  0.12811000  1.0
  C  C30  1  0.20701000  0.56918000  0.02019000  1.0
  C  C31  1  0.41224000  0.52158000  0.96919000  1.0
  C  C32  1  0.64867000  0.47243000  0.81114000  1.0
  C  C33  1  0.35349000  0.52359000  0.18945000  1.0
  O  O34  1  0.51947000  0.49086000  0.64806000  1.0
  O  O35  1  0.01507667  0.33333333  0.48494000  1.0
  O  O36  1  0.12799000  0.54427000  0.35091000  1.0
  O  O37  1  0.32982000  0.67800000  0.47822000  1.0
  O  O38  1  0.48155000  0.49943000  0.35459000  1.0
  O  O39  1  0.98393000  0.67447000  0.50757000  1.0
  O  O40  1  0.87311000  0.45711000  0.64815000  1.0
  O  O41  1  0.67380000  0.32271000  0.52092000  1.0
  O  O42  1  0.26140000  0.43287000  0.55233000  1.0
  O  O43  1  0.73342000  0.56956000  0.44811000  1.0
  O  O44  1  0.31323000  0.13452000  0.46099000  1.0
