# generated using pymatgen
data_CoH28C30(N5O4)2
_symmetry_space_group_name_H-M   'P 1'
_cell_length_a   8.37655000
_cell_length_b   8.70713000
_cell_length_c   10.96860000
_cell_angle_alpha   78.04210000
_cell_angle_beta   75.06060000
_cell_angle_gamma   68.13740000
_symmetry_Int_Tables_number   1
_chemical_formula_structural   CoH28C30(N5O4)2
_chemical_formula_sum   'Co1 H28 C30 N10 O8'
_cell_volume   711.83329558
_cell_formula_units_Z   1
loop_
 _symmetry_equiv_pos_site_id
 _symmetry_equiv_pos_as_xyz
  1  'x, y, z'
loop_
 _atom_site_type_symbol
 _atom_site_label
 _atom_site_symmetry_multiplicity
 _atom_site_fract_x
 _atom_site_fract_y
 _atom_site_fract_z
 _atom_site_occupancy
  Co  Co0  1  0.50000000  0.00000000  0.00000000  1.0
  H  H1  1  0.91519000  0.85311000  0.95116000  1.0
  H  H2  1  0.08481000  0.14690000  0.04884000  1.0
  H  H3  1  0.25489000  0.80815000  0.17977000  1.0
  H  H4  1  0.74511000  0.19185000  0.82023000  1.0
  H  H5  1  0.56262000  0.22977000  0.51478000  1.0
  H  H6  1  0.43738000  0.77022000  0.48522000  1.0
  H  H7  1  0.16781000  0.44565000  0.06293000  1.0
  H  H8  1  0.83219000  0.55435000  0.93707000  1.0
  H  H9  1  0.51738000  0.78640000  0.80736000  1.0
  H  H10  1  0.48261000  0.21360000  0.19264000  1.0
  H  H11  1  0.03165000  0.35101000  0.45738000  1.0
  H  H12  1  0.96835000  0.64899000  0.54263000  1.0
  H  H13  1  0.03177000  0.97033000  0.26165000  1.0
  H  H14  1  0.96823000  0.02967000  0.73835000  1.0
  H  H15  1  0.56927000  0.04021000  0.37109000  1.0
  H  H16  1  0.43073000  0.95979000  0.62891000  1.0
  H  H17  1  0.16446000  0.50884000  0.20552000  1.0
  H  H18  1  0.83554000  0.49116000  0.79448000  1.0
  H  H19  1  0.35347000  0.58356000  0.83751000  1.0
  H  H20  1  0.64654000  0.41644000  0.16249000  1.0
  H  H21  1  0.76257000  0.92116000  0.28914000  1.0
  H  H22  1  0.23743000  0.07884000  0.71086000  1.0
  H  H23  1  0.53095000  0.73484000  0.23082000  1.0
  H  H24  1  0.46905000  0.26515000  0.76918000  1.0
  H  H25  1  0.80706000  0.53096000  0.29790000  1.0
  H  H26  1  0.19294000  0.46904000  0.70210000  1.0
  H  H27  1  0.71130000  0.65311000  0.60173000  1.0
  H  H28  1  0.28870000  0.34689000  0.39827000  1.0
  C  C29  1  0.78871000  0.30328000  0.49191000  1.0
  C  C30  1  0.21129000  0.69671000  0.50809000  1.0
  C  C31  1  0.85928000  0.78875000  0.03731000  1.0
  C  C32  1  0.14072000  0.21126000  0.96269000  1.0
  C  C33  1  0.25217000  0.65431000  0.03817000  1.0
  C  C34  1  0.74783000  0.34569000  0.96183000  1.0
  C  C35  1  0.05428000  0.15442000  0.35385000  1.0
  C  C36  1  0.94573000  0.84557000  0.64616000  1.0
  C  C37  1  0.13591000  0.55658000  0.10976000  1.0
  C  C38  1  0.86409000  0.44342000  0.89024000  1.0
  C  C39  1  0.94321000  0.65371000  0.12108000  1.0
  C  C40  1  0.05678000  0.34629000  0.87892000  1.0
  C  C41  1  0.69254000  0.43886000  0.57424000  1.0
  C  C42  1  0.30746000  0.56114000  0.42576000  1.0
  C  C43  1  0.29431000  0.76919000  0.08593000  1.0
  C  C44  1  0.70569000  0.23081000  0.91407000  1.0
  C  C45  1  0.24315000  0.12541000  0.28898000  1.0
  C  C46  1  0.75685000  0.87459000  0.71102000  1.0
  C  C47  1  0.70014000  0.20725000  0.46955000  1.0
  C  C48  1  0.29986000  0.79275000  0.53045000  1.0
  C  C49  1  0.78676000  0.08526000  0.38593000  1.0
  C  C50  1  0.21325000  0.91474000  0.61407000  1.0
  C  C51  1  0.96379000  0.06220000  0.32823000  1.0
  C  C52  1  0.03621000  0.93779000  0.67177000  1.0
  C  C53  1  0.34173000  0.65384000  0.91212000  1.0
  C  C54  1  0.65827000  0.34616000  0.08788000  1.0
  C  C55  1  0.80665000  0.62170000  0.21375000  1.0
  C  C56  1  0.19335000  0.37830000  0.78625000  1.0
  C  C57  1  0.96581000  0.27645000  0.43614000  1.0
  C  C58  1  0.03419000  0.72355000  0.56386000  1.0
  N  N59  1  0.68352000  0.83406000  0.07617000  1.0
  N  N60  1  0.31648000  0.16594000  0.92383000  1.0
  N  N61  1  0.42951000  0.76245000  0.89016000  1.0
  N  N62  1  0.57049000  0.23756000  0.10984000  1.0
  N  N63  1  0.40254000  0.83366000  0.99526000  1.0
  N  N64  1  0.59746000  0.16635000  0.00474000  1.0
  N  N65  1  0.65453000  0.73159000  0.18361000  1.0
  N  N66  1  0.34547000  0.26841000  0.81639000  1.0
  N  N67  1  0.70193000  0.98811000  0.36370000  1.0
  N  N68  1  0.29808000  0.01189000  0.63630000  1.0
  O  O69  1  0.32944000  0.20265000  0.32018000  1.0
  O  O70  1  0.67056000  0.79736000  0.67981000  1.0
  O  O71  1  0.31069000  0.02812000  0.20442000  1.0
  O  O72  1  0.68931000  0.97188000  0.79558000  1.0
  O  O73  1  0.75856000  0.56247000  0.54182000  1.0
  O  O74  1  0.24144000  0.43753000  0.45817000  1.0
  O  O75  1  0.56522000  0.43749000  0.66155000  1.0
  O  O76  1  0.43477000  0.56250000  0.33844000  1.0
