# generated using pymatgen
data_Cu2H20C33N4O7
_symmetry_space_group_name_H-M   'P 1'
_cell_length_a   9.86897000
_cell_length_b   10.24860000
_cell_length_c   18.43730000
_cell_angle_alpha   83.36970000
_cell_angle_beta   76.12020000
_cell_angle_gamma   61.22060000
_symmetry_Int_Tables_number   1
_chemical_formula_structural   Cu2H20C33N4O7
_chemical_formula_sum   'Cu4 H40 C66 N8 O14'
_cell_volume   1586.74043071
_cell_formula_units_Z   2
loop_
 _symmetry_equiv_pos_site_id
 _symmetry_equiv_pos_as_xyz
  1  'x, y, z'
loop_
 _atom_site_type_symbol
 _atom_site_label
 _atom_site_symmetry_multiplicity
 _atom_site_fract_x
 _atom_site_fract_y
 _atom_site_fract_z
 _atom_site_occupancy
  Cu  Cu0  1  0.17470000  0.92067000  0.67179000  1.0
  Cu  Cu1  1  0.90462000  0.92069000  0.82821000  1.0
  Cu  Cu2  1  0.82529000  0.07931000  0.32820000  1.0
  Cu  Cu3  1  0.09541000  0.07929000  0.17179000  1.0
  H  H4  1  0.83241000  0.97065000  0.67475000  1.0
  H  H5  1  0.19695000  0.97064000  0.82526000  1.0
  H  H6  1  0.16757000  0.02935000  0.32526000  1.0
  H  H7  1  0.80308000  0.02935000  0.17474000  1.0
  H  H8  1  0.71208000  0.92739000  0.58025000  1.0
  H  H9  1  0.36056000  0.92737000  0.91974000  1.0
  H  H10  1  0.28791000  0.07260000  0.41975000  1.0
  H  H11  1  0.63948000  0.07259000  0.08024000  1.0
  H  H12  1  0.88715000  0.80579000  0.45656000  1.0
  H  H13  1  0.30706000  0.80578000  0.04343000  1.0
  H  H14  1  0.11282000  0.19421000  0.54344000  1.0
  H  H15  1  0.69297000  0.19420000  0.95656000  1.0
  H  H16  1  0.16457000  0.68277000  0.37683000  1.0
  H  H17  1  0.15264000  0.68278000  0.12316000  1.0
  H  H18  1  0.83538000  0.31726000  0.62316000  1.0
  H  H19  1  0.84738000  0.31724000  0.87685000  1.0
  H  H20  1  0.45086000  0.60450000  0.36102000  1.0
  H  H21  1  0.94462000  0.60451000  0.13896000  1.0
  H  H22  1  0.54909000  0.39552000  0.63897000  1.0
  H  H23  1  0.05541000  0.39551000  0.86104000  1.0
  H  H24  1  0.67461000  0.59463000  0.41452000  1.0
  H  H25  1  0.73072000  0.59465000  0.08546000  1.0
  H  H26  1  0.32536000  0.40536000  0.58547000  1.0
  H  H27  1  0.26930000  0.40535000  0.91455000  1.0
  H  H28  1  0.74997000  0.66300000  0.51894000  1.0
  H  H29  1  0.58698000  0.66302000  0.98105000  1.0
  H  H30  1  0.24999000  0.33699000  0.48104000  1.0
  H  H31  1  0.41304000  0.33698000  0.01897000  1.0
  H  H32  1  0.53605000  0.80852000  0.62877000  1.0
  H  H33  1  0.65545000  0.80851000  0.87123000  1.0
  H  H34  1  0.46395000  0.19149000  0.37122000  1.0
  H  H35  1  0.34457000  0.19147000  0.12877000  1.0
  H  H36  1  0.08799000  0.46025000  0.70466000  1.0
  H  H37  1  0.45176000  0.46029000  0.79536000  1.0
  H  H38  1  0.91204000  0.53973000  0.29534000  1.0
  H  H39  1  0.54825000  0.53969000  0.20464000  1.0
  H  H40  1  0.47720000  0.04560000  0.75003000  1.0
  H  H41  1  0.52281000  0.95439000  0.24998000  1.0
  H  H42  1  0.93720000  0.12564000  0.75001000  1.0
  H  H43  1  0.06281000  0.87436000  0.25000000  1.0
  C  C44  1  0.90356000  0.91878000  0.62087000  1.0
  C  C45  1  0.17767000  0.91876000  0.87914000  1.0
  C  C46  1  0.09642000  0.08122000  0.37914000  1.0
  C  C47  1  0.82235000  0.08122000  0.12086000  1.0
  C  C48  1  0.83863000  0.89166000  0.56772000  1.0
  C  C49  1  0.26972000  0.89165000  0.93228000  1.0
  C  C50  1  0.16136000  0.10833000  0.43229000  1.0
  C  C51  1  0.73031000  0.10832000  0.06771000  1.0
  C  C52  1  0.93391000  0.82393000  0.50033000  1.0
  C  C53  1  0.24216000  0.82391000  0.99967000  1.0
  C  C54  1  0.06605000  0.17609000  0.49967000  1.0
  C  C55  1  0.75786000  0.17608000  0.00033000  1.0
  C  C56  1  0.09755000  0.77944000  0.48666000  1.0
  C  C57  1  0.12299000  0.77943000  0.01334000  1.0
  C  C58  1  0.90240000  0.22058000  0.51333000  1.0
  C  C59  1  0.87703000  0.22056000  0.98667000  1.0
  C  C60  1  0.20930000  0.70506000  0.42007000  1.0
  C  C61  1  0.08562000  0.70506000  0.07992000  1.0
  C  C62  1  0.79067000  0.29495000  0.57992000  1.0
  C  C63  1  0.91439000  0.29494000  0.92009000  1.0
  C  C64  1  0.36677000  0.66303000  0.41130000  1.0
  C  C65  1  0.97018000  0.66304000  0.08868000  1.0
  C  C66  1  0.63320000  0.33698000  0.58869000  1.0
  C  C67  1  0.02984000  0.33696000  0.91131000  1.0
  C  C68  1  0.42512000  0.69524000  0.46742000  1.0
  C  C69  1  0.87963000  0.69524000  0.03256000  1.0
  C  C70  1  0.57486000  0.30477000  0.53257000  1.0
  C  C71  1  0.12037000  0.30476000  0.96744000  1.0
  C  C72  1  0.58540000  0.65514000  0.46313000  1.0
  C  C73  1  0.75945000  0.65515000  0.03685000  1.0
  C  C74  1  0.41458000  0.34489000  0.53685000  1.0
  C  C75  1  0.24054000  0.34487000  0.96316000  1.0
  C  C76  1  0.62715000  0.69368000  0.52076000  1.0
  C  C77  1  0.67915000  0.69369000  0.97922000  1.0
  C  C78  1  0.37282000  0.30632000  0.47922000  1.0
  C  C79  1  0.32088000  0.30632000  0.02078000  1.0
  C  C80  1  0.50957000  0.77420000  0.58232000  1.0
  C  C81  1  0.71623000  0.77421000  0.91767000  1.0
  C  C82  1  0.49041000  0.22580000  0.41767000  1.0
  C  C83  1  0.28380000  0.22579000  0.08233000  1.0
  C  C84  1  0.31575000  0.77313000  0.53231000  1.0
  C  C85  1  0.91112000  0.77313000  0.96768000  1.0
  C  C86  1  0.68422000  0.22689000  0.46767000  1.0
  C  C87  1  0.08890000  0.22687000  0.03233000  1.0
  C  C88  1  0.15216000  0.81262000  0.54273000  1.0
  C  C89  1  0.03521000  0.81261000  0.95727000  1.0
  C  C90  1  0.84781000  0.18737000  0.45726000  1.0
  C  C91  1  0.96482000  0.18737000  0.04275000  1.0
  C  C92  1  0.21114000  0.16269000  0.69228000  1.0
  C  C93  1  0.62616000  0.16274000  0.80775000  1.0
  C  C94  1  0.78884000  0.83732000  0.30773000  1.0
  C  C95  1  0.37384000  0.83727000  0.19225000  1.0
  C  C96  1  0.27793000  0.24424000  0.72245000  1.0
  C  C97  1  0.47781000  0.24427000  0.77760000  1.0
  C  C98  1  0.72207000  0.75576000  0.27756000  1.0
  C  C99  1  0.52219000  0.75573000  0.22240000  1.0
  C  C100  1  0.19864000  0.39998000  0.72402000  1.0
  C  C101  1  0.40141000  0.39999000  0.77601000  1.0
  C  C102  1  0.80139000  0.60002000  0.27598000  1.0
  C  C103  1  0.59860000  0.60000000  0.22400000  1.0
  C  C104  1  0.26092000  0.47819000  0.75001000  1.0
  C  C105  1  0.73910000  0.52181000  0.24999000  1.0
  C  C106  1  0.17711000  0.64580000  0.75001000  1.0
  C  C107  1  0.82291000  0.35419000  0.25000000  1.0
  C  C108  1  0.41664000  0.16673000  0.75002000  1.0
  C  C109  1  0.58336000  0.83326000  0.24999000  1.0
  N  N110  1  0.05621000  0.88236000  0.60771000  1.0
  N  N111  1  0.06144000  0.88235000  0.89230000  1.0
  N  N112  1  0.94377000  0.11766000  0.39228000  1.0
  N  N113  1  0.93857000  0.11765000  0.10772000  1.0
  N  N114  1  0.35815000  0.81312000  0.58736000  1.0
  N  N115  1  0.82874000  0.81313000  0.91262000  1.0
  N  N116  1  0.64182000  0.18690000  0.41262000  1.0
  N  N117  1  0.17127000  0.18689000  0.08738000  1.0
  O  O118  1  0.28189000  0.01944000  0.70173000  1.0
  O  O119  1  0.69868000  0.01948000  0.79829000  1.0
  O  O120  1  0.71812000  0.98057000  0.29828000  1.0
  O  O121  1  0.30132000  0.98053000  0.20170000  1.0
  O  O122  1  0.09522000  0.23352000  0.66155000  1.0
  O  O123  1  0.67126000  0.23358000  0.83847000  1.0
  O  O124  1  0.90478000  0.76648000  0.33845000  1.0
  O  O125  1  0.32872000  0.76642000  0.16156000  1.0
  O  O126  1  0.02674000  0.70853000  0.76353000  1.0
  O  O127  1  0.26472000  0.70854000  0.73648000  1.0
  O  O128  1  0.97327000  0.29144000  0.23648000  1.0
  O  O129  1  0.73529000  0.29144000  0.26352000  1.0
  O  O130  1  0.99147000  0.01710000  0.75001000  1.0
  O  O131  1  0.00854000  0.98289000  0.24999000  1.0
