# generated using pymatgen
data_SnH13(C3N)3
_symmetry_space_group_name_H-M   'P 1'
_cell_length_a   7.19158000
_cell_length_b   10.74730000
_cell_length_c   14.81680000
_cell_angle_alpha   90.00000000
_cell_angle_beta   90.00000000
_cell_angle_gamma   90.00000000
_symmetry_Int_Tables_number   1
_chemical_formula_structural   SnH13(C3N)3
_chemical_formula_sum   'Sn4 H52 C36 N12'
_cell_volume   1145.19147560
_cell_formula_units_Z   4
loop_
 _symmetry_equiv_pos_site_id
 _symmetry_equiv_pos_as_xyz
  1  'x, y, z'
loop_
 _atom_site_type_symbol
 _atom_site_label
 _atom_site_symmetry_multiplicity
 _atom_site_fract_x
 _atom_site_fract_y
 _atom_site_fract_z
 _atom_site_occupancy
  Sn  Sn0  1  0.62063000  0.84407000  0.74931000  1.0
  Sn  Sn1  1  0.12063000  0.15594000  0.25069000  1.0
  Sn  Sn2  1  0.62063000  0.65593000  0.24931000  1.0
  Sn  Sn3  1  0.12063000  0.34407000  0.75069000  1.0
  H  H4  1  0.22099000  0.61650000  0.09597000  1.0
  H  H5  1  0.72100000  0.38350000  0.90404000  1.0
  H  H6  1  0.22099000  0.88350000  0.59597000  1.0
  H  H7  1  0.72099000  0.11650000  0.40403000  1.0
  H  H8  1  0.20885000  0.46522000  0.96960000  1.0
  H  H9  1  0.70887000  0.53478000  0.03041000  1.0
  H  H10  1  0.20885000  0.03478000  0.46960000  1.0
  H  H11  1  0.70885000  0.96522000  0.53040000  1.0
  H  H12  1  0.56463000  0.78098000  0.57299000  1.0
  H  H13  1  0.06463000  0.21902000  0.42701000  1.0
  H  H14  1  0.56463000  0.71902000  0.07299000  1.0
  H  H15  1  0.06463000  0.28098000  0.92701000  1.0
  H  H16  1  0.40755000  0.69536000  0.64218000  1.0
  H  H17  1  0.90755000  0.30464000  0.35782000  1.0
  H  H18  1  0.40755000  0.80464000  0.14218000  1.0
  H  H19  1  0.90755000  0.19536000  0.85782000  1.0
  H  H20  1  0.64521000  0.64801000  0.63519000  1.0
  H  H21  1  0.14520000  0.35199000  0.36481000  1.0
  H  H22  1  0.64521000  0.85199000  0.13519000  1.0
  H  H23  1  0.14521000  0.14801000  0.86481000  1.0
  H  H24  1  0.40665000  0.74779000  0.88335000  1.0
  H  H25  1  0.90665000  0.25222000  0.11665000  1.0
  H  H26  1  0.40665000  0.75222000  0.38335000  1.0
  H  H27  1  0.90665000  0.24779000  0.61665000  1.0
  H  H28  1  0.30878000  0.89343000  0.84724000  1.0
  H  H29  1  0.80878000  0.10657000  0.15276000  1.0
  H  H30  1  0.30878000  0.60657000  0.34724000  1.0
  H  H31  1  0.80878000  0.39343000  0.65276000  1.0
  H  H32  1  0.50349000  0.89102000  0.92176000  1.0
  H  H33  1  0.00349000  0.10898000  0.07824000  1.0
  H  H34  1  0.50349000  0.60898000  0.42176000  1.0
  H  H35  1  0.00349000  0.39102000  0.57824000  1.0
  H  H36  1  0.94170000  0.94320000  0.68340000  1.0
  H  H37  1  0.44170000  0.05680000  0.31660000  1.0
  H  H38  1  0.94170000  0.55681000  0.18339000  1.0
  H  H39  1  0.44171000  0.44319000  0.81661000  1.0
  H  H40  1  0.95737000  0.93868000  0.80340000  1.0
  H  H41  1  0.45737000  0.06132000  0.19659000  1.0
  H  H42  1  0.95737000  0.56132000  0.30340000  1.0
  H  H43  1  0.45737000  0.43868000  0.69660000  1.0
  H  H44  1  0.82367000  0.05747000  0.74887000  1.0
  H  H45  1  0.32367000  0.94253000  0.25113000  1.0
  H  H46  1  0.82367000  0.44253000  0.24887000  1.0
  H  H47  1  0.32367000  0.55747000  0.75113000  1.0
  H  H48  1  0.82431000  0.85925000  0.96527000  1.0
  H  H49  1  0.32430000  0.14075000  0.03472000  1.0
  H  H50  1  0.82431000  0.64075000  0.46527000  1.0
  H  H51  1  0.32431000  0.35925000  0.53472000  1.0
  H  H52  1  0.03188000  0.80919000  0.09456000  1.0
  H  H53  1  0.53189000  0.19081000  0.90544000  1.0
  H  H54  1  0.03189000  0.69081000  0.59456000  1.0
  H  H55  1  0.53189000  0.30919000  0.40544000  1.0
  C  C56  1  0.13061000  0.63478000  0.03853000  1.0
  C  C57  1  0.63061000  0.36522000  0.96147000  1.0
  C  C58  1  0.13060000  0.86522000  0.53853000  1.0
  C  C59  1  0.63061000  0.13478000  0.46147000  1.0
  C  C60  1  0.12427000  0.54935000  0.96839000  1.0
  C  C61  1  0.62428000  0.45065000  0.03162000  1.0
  C  C62  1  0.12427000  0.95066000  0.46839000  1.0
  C  C63  1  0.62427000  0.04934000  0.53161000  1.0
  C  C64  1  0.00576000  0.57738000  0.89575000  1.0
  C  C65  1  0.50576000  0.42262000  0.10425000  1.0
  C  C66  1  0.00575000  0.92263000  0.39575000  1.0
  C  C67  1  0.50576000  0.07738000  0.60424000  1.0
  C  C68  1  0.55119000  0.72816000  0.63582000  1.0
  C  C69  1  0.05118000  0.27184000  0.36418000  1.0
  C  C70  1  0.55119000  0.77184000  0.13582000  1.0
  C  C71  1  0.05119000  0.22816000  0.86418000  1.0
  C  C72  1  0.89907000  0.68817000  0.89436000  1.0
  C  C73  1  0.39906000  0.31183000  0.10564000  1.0
  C  C74  1  0.89907000  0.81184000  0.39436000  1.0
  C  C75  1  0.39906000  0.18817000  0.60564000  1.0
  C  C76  1  0.43749000  0.84422000  0.86425000  1.0
  C  C77  1  0.93750000  0.15578000  0.13575000  1.0
  C  C78  1  0.43750000  0.65578000  0.36425000  1.0
  C  C79  1  0.93750000  0.34422000  0.63575000  1.0
  C  C80  1  0.86561000  0.95961000  0.74637000  1.0
  C  C81  1  0.36561000  0.04039000  0.25362000  1.0
  C  C82  1  0.86561000  0.54040000  0.24637000  1.0
  C  C83  1  0.36562000  0.45960000  0.75363000  1.0
  C  C84  1  0.90670000  0.77419000  0.96578000  1.0
  C  C85  1  0.40669000  0.22581000  0.03422000  1.0
  C  C86  1  0.90670000  0.72581000  0.46578000  1.0
  C  C87  1  0.40670000  0.27419000  0.53422000  1.0
  C  C88  1  0.02323000  0.74538000  0.03743000  1.0
  C  C89  1  0.52323000  0.25461000  0.96257000  1.0
  C  C90  1  0.02323000  0.75462000  0.53743000  1.0
  C  C91  1  0.52323000  0.24538000  0.46257000  1.0
  N  N92  1  0.96599000  0.51577000  0.81680000  1.0
  N  N93  1  0.46599000  0.48422000  0.18320000  1.0
  N  N94  1  0.96599000  0.98423000  0.31680000  1.0
  N  N95  1  0.46599000  0.01577000  0.68320000  1.0
  N  N96  1  0.80241000  0.68694000  0.81443000  1.0
  N  N97  1  0.30240000  0.31306000  0.18557000  1.0
  N  N98  1  0.80241000  0.81306000  0.31443000  1.0
  N  N99  1  0.30241000  0.18694000  0.68556000  1.0
  N  N100  1  0.84584000  0.58373000  0.76944000  1.0
  N  N101  1  0.34584000  0.41627000  0.23056000  1.0
  N  N102  1  0.84584000  0.91627000  0.26944000  1.0
  N  N103  1  0.34584000  0.08373000  0.73056000  1.0
