# generated using pymatgen
data_H10PbC12N4Cl2O
_symmetry_space_group_name_H-M   'P 1'
_cell_length_a   8.12908000
_cell_length_b   9.32798000
_cell_length_c   10.88760000
_cell_angle_alpha   81.57920000
_cell_angle_beta   73.91700000
_cell_angle_gamma   85.60560000
_symmetry_Int_Tables_number   1
_chemical_formula_structural   H10PbC12N4Cl2O
_chemical_formula_sum   'H20 Pb2 C24 N8 Cl4 O2'
_cell_volume   784.15483078
_cell_formula_units_Z   2
loop_
 _symmetry_equiv_pos_site_id
 _symmetry_equiv_pos_as_xyz
  1  'x, y, z'
loop_
 _atom_site_type_symbol
 _atom_site_label
 _atom_site_symmetry_multiplicity
 _atom_site_fract_x
 _atom_site_fract_y
 _atom_site_fract_z
 _atom_site_occupancy
  H  H0  1  0.06553000  0.47589000  0.19482000  1.0
  H  H1  1  0.93449000  0.52416000  0.80515000  1.0
  H  H2  1  0.18401000  0.34474000  0.03266000  1.0
  H  H3  1  0.81602000  0.65530000  0.96730000  1.0
  H  H4  1  0.12161000  0.58836000  0.32489000  1.0
  H  H5  1  0.87840000  0.41166000  0.67516000  1.0
  H  H6  1  0.13368000  0.76062000  0.47400000  1.0
  H  H7  1  0.86626000  0.23942000  0.52606000  1.0
  H  H8  1  0.85727000  0.84801000  0.62103000  1.0
  H  H9  1  0.14262000  0.15199000  0.37900000  1.0
  H  H10  1  0.56847000  0.61675000  0.46554000  1.0
  H  H11  1  0.43153000  0.38320000  0.53445000  1.0
  H  H12  1  0.75705000  0.24159000  0.99171000  1.0
  H  H13  1  0.24297000  0.75843000  0.00829000  1.0
  H  H14  1  0.74120000  0.07476000  0.83433000  1.0
  H  H15  1  0.25880000  0.92526000  0.16569000  1.0
  H  H16  1  0.01320000  0.96139000  0.71007000  1.0
  H  H17  1  0.98679000  0.03863000  0.28992000  1.0
  H  H18  1  0.30798000  0.16462000  0.88377000  1.0
  H  H19  1  0.69204000  0.83541000  0.11619000  1.0
  Pb  Pb20  1  0.57733000  0.14778000  0.31181000  1.0
  Pb  Pb21  1  0.42264000  0.85219000  0.68817000  1.0
  C  C22  1  0.80890000  0.48157000  0.30296000  1.0
  C  C23  1  0.19115000  0.51840000  0.69706000  1.0
  C  C24  1  0.05462000  0.30975000  0.04099000  1.0
  C  C25  1  0.94541000  0.69027000  0.95899000  1.0
  C  C26  1  0.84157000  0.58722000  0.38300000  1.0
  C  C27  1  0.15844000  0.41277000  0.61702000  1.0
  C  C28  1  0.00199000  0.62925000  0.38588000  1.0
  C  C29  1  0.99800000  0.37076000  0.61416000  1.0
  C  C30  1  0.01050000  0.72398000  0.47159000  1.0
  C  C31  1  0.98944000  0.27604000  0.52845000  1.0
  C  C32  1  0.85888000  0.77397000  0.55181000  1.0
  C  C33  1  0.14104000  0.22603000  0.44822000  1.0
  C  C34  1  0.69557000  0.64513000  0.46634000  1.0
  C  C35  1  0.30442000  0.35484000  0.53366000  1.0
  C  C36  1  0.03480000  0.21677000  0.94992000  1.0
  C  C37  1  0.96523000  0.78325000  0.05005000  1.0
  C  C38  1  0.87335000  0.19060000  0.93524000  1.0
  C  C39  1  0.12667000  0.80942000  0.06476000  1.0
  C  C40  1  0.86341000  0.09849000  0.84847000  1.0
  C  C41  1  0.13659000  0.90154000  0.15154000  1.0
  C  C42  1  0.01523000  0.03482000  0.77911000  1.0
  C  C43  1  0.98476000  0.96521000  0.22088000  1.0
  C  C44  1  0.18020000  0.14860000  0.87457000  1.0
  C  C45  1  0.81982000  0.85143000  0.12539000  1.0
  N  N46  1  0.70439000  0.73531000  0.54858000  1.0
  N  N47  1  0.29555000  0.26466000  0.45144000  1.0
  N  N48  1  0.94676000  0.43605000  0.20971000  1.0
  N  N49  1  0.05329000  0.56395000  0.79029000  1.0
  N  N50  1  0.92213000  0.34497000  0.13042000  1.0
  N  N51  1  0.07792000  0.65502000  0.86959000  1.0
  N  N52  1  0.17007000  0.05863000  0.79180000  1.0
  N  N53  1  0.82993000  0.94139000  0.20817000  1.0
  Cl  Cl54  1  0.38877000  0.90295000  0.39711000  1.0
  Cl  Cl55  1  0.61124000  0.09699000  0.60283000  1.0
  Cl  Cl56  1  0.42852000  0.21554000  0.11853000  1.0
  Cl  Cl57  1  0.57150000  0.78439000  0.88142000  1.0
  O  O58  1  0.66311000  0.43677000  0.32104000  1.0
  O  O59  1  0.33694000  0.56316000  0.67900000  1.0
