# generated using pymatgen
data_CdH40C52N6(O5F4)2
_symmetry_space_group_name_H-M   'P 1'
_cell_length_a   13.04280000
_cell_length_b   13.04280000
_cell_length_c   16.65080000
_cell_angle_alpha   109.83500000
_cell_angle_beta   109.83500000
_cell_angle_gamma   93.40890000
_symmetry_Int_Tables_number   1
_chemical_formula_structural   CdH40C52N6(O5F4)2
_chemical_formula_sum   'Cd2 H80 C104 N12 O20 F16'
_cell_volume   2457.15097767
_cell_formula_units_Z   2
loop_
 _symmetry_equiv_pos_site_id
 _symmetry_equiv_pos_as_xyz
  1  'x, y, z'
loop_
 _atom_site_type_symbol
 _atom_site_label
 _atom_site_symmetry_multiplicity
 _atom_site_fract_x
 _atom_site_fract_y
 _atom_site_fract_z
 _atom_site_occupancy
  Cd  Cd0  1  0.87920000  0.12080000  0.25000000  1.0
  Cd  Cd1  1  0.12080000  0.87920000  0.75000000  1.0
  H  H2  1  0.83437000  0.35287000  0.23008000  1.0
  H  H3  1  0.64712000  0.16563000  0.26992000  1.0
  H  H4  1  0.16563000  0.64713000  0.76992000  1.0
  H  H5  1  0.35286000  0.83437000  0.73008000  1.0
  H  H6  1  0.70197000  0.02921000  0.04013000  1.0
  H  H7  1  0.97078000  0.29802000  0.45987000  1.0
  H  H8  1  0.29803000  0.97078000  0.95987000  1.0
  H  H9  1  0.02921000  0.70197000  0.54012000  1.0
  H  H10  1  0.73970000  0.43146000  0.11547000  1.0
  H  H11  1  0.56854000  0.26031000  0.38453000  1.0
  H  H12  1  0.26030000  0.56854000  0.88453000  1.0
  H  H13  1  0.43146000  0.73969000  0.61547000  1.0
  H  H14  1  0.59367000  0.09447000  0.91753000  1.0
  H  H15  1  0.90553000  0.40634000  0.58246000  1.0
  H  H16  1  0.40633000  0.90552000  0.08246000  1.0
  H  H17  1  0.09447000  0.59366000  0.41753000  1.0
  H  H18  1  0.65350000  0.33089000  0.90095000  1.0
  H  H19  1  0.66912000  0.34651000  0.59905000  1.0
  H  H20  1  0.34650000  0.66911000  0.09905000  1.0
  H  H21  1  0.33088000  0.65350000  0.40095000  1.0
  H  H22  1  0.53036000  0.23892000  0.87454000  1.0
  H  H23  1  0.76107000  0.46965000  0.62546000  1.0
  H  H24  1  0.46965000  0.76107000  0.12546000  1.0
  H  H25  1  0.23893000  0.53035000  0.37454000  1.0
  H  H26  1  0.13828000  0.22574000  0.38305000  1.0
  H  H27  1  0.77426000  0.86172000  0.11695000  1.0
  H  H28  1  0.86172000  0.77426000  0.61695000  1.0
  H  H29  1  0.22574000  0.13828000  0.88305000  1.0
  H  H30  1  0.93203000  0.95183000  0.35604000  1.0
  H  H31  1  0.04817000  0.06797000  0.14395000  1.0
  H  H32  1  0.06796000  0.04817000  0.64395000  1.0
  H  H33  1  0.95183000  0.93204000  0.85605000  1.0
  H  H34  1  0.30256000  0.18907000  0.49093000  1.0
  H  H35  1  0.81093000  0.69744000  0.00907000  1.0
  H  H36  1  0.69744000  0.81093000  0.50908000  1.0
  H  H37  1  0.18907000  0.30256000  0.99093000  1.0
  H  H38  1  0.08799000  0.90259000  0.46304000  1.0
  H  H39  1  0.09741000  0.91201000  0.03695000  1.0
  H  H40  1  0.91200000  0.09741000  0.53695000  1.0
  H  H41  1  0.90259000  0.08800000  0.96305000  1.0
  H  H42  1  0.33083000  0.08028000  0.62365000  1.0
  H  H43  1  0.91972000  0.66916000  0.87635000  1.0
  H  H44  1  0.66916000  0.91972000  0.37635000  1.0
  H  H45  1  0.08029000  0.33084000  0.12365000  1.0
  H  H46  1  0.28014000  0.93755000  0.55760000  1.0
  H  H47  1  0.06245000  0.71986000  0.94241000  1.0
  H  H48  1  0.71985000  0.06245000  0.44241000  1.0
  H  H49  1  0.93756000  0.28015000  0.05760000  1.0
  H  H50  1  0.46396000  0.09529000  0.12242000  1.0
  H  H51  1  0.90472000  0.53604000  0.37759000  1.0
  H  H52  1  0.53603000  0.90471000  0.87759000  1.0
  H  H53  1  0.09529000  0.46397000  0.62242000  1.0
  H  H54  1  0.53127000  0.27567000  0.11796000  1.0
  H  H55  1  0.72433000  0.46873000  0.38204000  1.0
  H  H56  1  0.46873000  0.72433000  0.88204000  1.0
  H  H57  1  0.27568000  0.53127000  0.61796000  1.0
  H  H58  1  0.45009000  0.44033000  0.17367000  1.0
  H  H59  1  0.55968000  0.54991000  0.32633000  1.0
  H  H60  1  0.54990000  0.55967000  0.82633000  1.0
  H  H61  1  0.44033000  0.45009000  0.67367000  1.0
  H  H62  1  0.30276000  0.42562000  0.23586000  1.0
  H  H63  1  0.57439000  0.69724000  0.26414000  1.0
  H  H64  1  0.69724000  0.57438000  0.76414000  1.0
  H  H65  1  0.42562000  0.30275000  0.73586000  1.0
  H  H66  1  0.23315000  0.24483000  0.23739000  1.0
  H  H67  1  0.75517000  0.76685000  0.26261000  1.0
  H  H68  1  0.76685000  0.75517000  0.76261000  1.0
  H  H69  1  0.24483000  0.23315000  0.73739000  1.0
  H  H70  1  0.31305000  0.90313000  0.29706000  1.0
  H  H71  1  0.09687000  0.68696000  0.20295000  1.0
  H  H72  1  0.68695000  0.09687000  0.70294000  1.0
  H  H73  1  0.90314000  0.31305000  0.79706000  1.0
  H  H74  1  0.30140000  0.85976000  0.17989000  1.0
  H  H75  1  0.14025000  0.69861000  0.32011000  1.0
  H  H76  1  0.69861000  0.14024000  0.82011000  1.0
  H  H77  1  0.85976000  0.30139000  0.67989000  1.0
  H  H78  1  0.19346000  0.91513000  0.21008000  1.0
  H  H79  1  0.08488000  0.80655000  0.28993000  1.0
  H  H80  1  0.80655000  0.08487000  0.78992000  1.0
  H  H81  1  0.91513000  0.19345000  0.71008000  1.0
  C  C82  1  0.78207000  0.29802000  0.15942000  1.0
  C  C83  1  0.70197000  0.21793000  0.34058000  1.0
  C  C84  1  0.21793000  0.70197000  0.84058000  1.0
  C  C85  1  0.29802000  0.78207000  0.65942000  1.0
  C  C86  1  0.70831000  0.11759000  0.05356000  1.0
  C  C87  1  0.88241000  0.29169000  0.44644000  1.0
  C  C88  1  0.29169000  0.88241000  0.94644000  1.0
  C  C89  1  0.11758000  0.70830000  0.55356000  1.0
  C  C90  1  0.72724000  0.34141000  0.09460000  1.0
  C  C91  1  0.65858000  0.27276000  0.40540000  1.0
  C  C92  1  0.27275000  0.65858000  0.90540000  1.0
  C  C93  1  0.34141000  0.72725000  0.59460000  1.0
  C  C94  1  0.64909000  0.15425000  0.98531000  1.0
  C  C95  1  0.84575000  0.35091000  0.51469000  1.0
  C  C96  1  0.35091000  0.84575000  0.01469000  1.0
  C  C97  1  0.15424000  0.64909000  0.48531000  1.0
  C  C98  1  0.65862000  0.26837000  0.00501000  1.0
  C  C99  1  0.73162000  0.34138000  0.49498000  1.0
  C  C100  1  0.34138000  0.73162000  0.99499000  1.0
  C  C101  1  0.26838000  0.65862000  0.50501000  1.0
  C  C102  1  0.59592000  0.30802000  0.93009000  1.0
  C  C103  1  0.69198000  0.40409000  0.56991000  1.0
  C  C104  1  0.40409000  0.69198000  0.06991000  1.0
  C  C105  1  0.30802000  0.59591000  0.43008000  1.0
  C  C106  1  0.54623000  0.40641000  0.96470000  1.0
  C  C107  1  0.59358000  0.45378000  0.53529000  1.0
  C  C108  1  0.45377000  0.59358000  0.03530000  1.0
  C  C109  1  0.40642000  0.54623000  0.46470000  1.0
  C  C110  1  0.44191000  0.39359000  0.96966000  1.0
  C  C111  1  0.60640000  0.55809000  0.53034000  1.0
  C  C112  1  0.55809000  0.60640000  0.03034000  1.0
  C  C113  1  0.39360000  0.44192000  0.46965000  1.0
  C  C114  1  0.39707000  0.48475000  0.00411000  1.0
  C  C115  1  0.51525000  0.60293000  0.49588000  1.0
  C  C116  1  0.60292000  0.51525000  0.99588000  1.0
  C  C117  1  0.48475000  0.39707000  0.50411000  1.0
  C  C118  1  0.13066000  0.15524000  0.40288000  1.0
  C  C119  1  0.84476000  0.86934000  0.09712000  1.0
  C  C120  1  0.86934000  0.84476000  0.59712000  1.0
  C  C121  1  0.15524000  0.13066000  0.90288000  1.0
  C  C122  1  0.01557000  0.00245000  0.38771000  1.0
  C  C123  1  0.99755000  0.98444000  0.11229000  1.0
  C  C124  1  0.98443000  0.99755000  0.61229000  1.0
  C  C125  1  0.00245000  0.01557000  0.88772000  1.0
  C  C126  1  0.22223000  0.13398000  0.46336000  1.0
  C  C127  1  0.86602000  0.77777000  0.03664000  1.0
  C  C128  1  0.77776000  0.86602000  0.53664000  1.0
  C  C129  1  0.13398000  0.22224000  0.96336000  1.0
  C  C130  1  0.10327000  0.97585000  0.44797000  1.0
  C  C131  1  0.02415000  0.89673000  0.05203000  1.0
  C  C132  1  0.89673000  0.02415000  0.55203000  1.0
  C  C133  1  0.97585000  0.10327000  0.94797000  1.0
  C  C134  1  0.20969000  0.04216000  0.48721000  1.0
  C  C135  1  0.95784000  0.79031000  0.01280000  1.0
  C  C136  1  0.79031000  0.95784000  0.51279000  1.0
  C  C137  1  0.04215000  0.20969000  0.98720000  1.0
  C  C138  1  0.30645000  0.01667000  0.55370000  1.0
  C  C139  1  0.98333000  0.69355000  0.94630000  1.0
  C  C140  1  0.69355000  0.98333000  0.44630000  1.0
  C  C141  1  0.01667000  0.30645000  0.05370000  1.0
  C  C142  1  0.40631000  0.01013000  0.52737000  1.0
  C  C143  1  0.98988000  0.59370000  0.97263000  1.0
  C  C144  1  0.59369000  0.98987000  0.47262000  1.0
  C  C145  1  0.01013000  0.40632000  0.02738000  1.0
  C  C146  1  0.40940000  0.91628000  0.45704000  1.0
  C  C147  1  0.08372000  0.59061000  0.04296000  1.0
  C  C148  1  0.59060000  0.08372000  0.54296000  1.0
  C  C149  1  0.91629000  0.40941000  0.95705000  1.0
  C  C150  1  0.49931000  0.90569000  0.42997000  1.0
  C  C151  1  0.09432000  0.50069000  0.07003000  1.0
  C  C152  1  0.50068000  0.09431000  0.57003000  1.0
  C  C153  1  0.90569000  0.49932000  0.92998000  1.0
  C  C154  1  0.34471000  0.16140000  0.17936000  1.0
  C  C155  1  0.83861000  0.65529000  0.32064000  1.0
  C  C156  1  0.65528000  0.83860000  0.82064000  1.0
  C  C157  1  0.16140000  0.34471000  0.67936000  1.0
  C  C158  1  0.42841000  0.16790000  0.14598000  1.0
  C  C159  1  0.83210000  0.57160000  0.35402000  1.0
  C  C160  1  0.57159000  0.83210000  0.85402000  1.0
  C  C161  1  0.16790000  0.42841000  0.64598000  1.0
  C  C162  1  0.46622000  0.26931000  0.14431000  1.0
  C  C163  1  0.73070000  0.53378000  0.35569000  1.0
  C  C164  1  0.53377000  0.73069000  0.85569000  1.0
  C  C165  1  0.26931000  0.46622000  0.64431000  1.0
  C  C166  1  0.42086000  0.36184000  0.17606000  1.0
  C  C167  1  0.63816000  0.57914000  0.32394000  1.0
  C  C168  1  0.57914000  0.63816000  0.82394000  1.0
  C  C169  1  0.36185000  0.42086000  0.67606000  1.0
  C  C170  1  0.33850000  0.35387000  0.21094000  1.0
  C  C171  1  0.64614000  0.66150000  0.28906000  1.0
  C  C172  1  0.66149000  0.64613000  0.78905000  1.0
  C  C173  1  0.35387000  0.33850000  0.71094000  1.0
  C  C174  1  0.29926000  0.25288000  0.21242000  1.0
  C  C175  1  0.74712000  0.70074000  0.28758000  1.0
  C  C176  1  0.70073000  0.74712000  0.78758000  1.0
  C  C177  1  0.25288000  0.29926000  0.71242000  1.0
  C  C178  1  0.34053000  0.03518000  0.25391000  1.0
  C  C179  1  0.96483000  0.65948000  0.24609000  1.0
  C  C180  1  0.65948000  0.96482000  0.74609000  1.0
  C  C181  1  0.03518000  0.34052000  0.75391000  1.0
  C  C182  1  0.28391000  0.92142000  0.23492000  1.0
  C  C183  1  0.07859000  0.71610000  0.26509000  1.0
  C  C184  1  0.71609000  0.07858000  0.76509000  1.0
  C  C185  1  0.92142000  0.28391000  0.73492000  1.0
  N  N186  1  0.77378000  0.18802000  0.13969000  1.0
  N  N187  1  0.81198000  0.22622000  0.36031000  1.0
  N  N188  1  0.22622000  0.81198000  0.86031000  1.0
  N  N189  1  0.18802000  0.77377000  0.63968000  1.0
  N  N190  1  0.02844000  0.09068000  0.36484000  1.0
  N  N191  1  0.90932000  0.97156000  0.13515000  1.0
  N  N192  1  0.97156000  0.90932000  0.63516000  1.0
  N  N193  1  0.09068000  0.02845000  0.86485000  1.0
  N  N194  1  0.04606000  0.34188000  0.28650000  1.0
  N  N195  1  0.65812000  0.95394000  0.21350000  1.0
  N  N196  1  0.95393000  0.65811000  0.71350000  1.0
  N  N197  1  0.34189000  0.04606000  0.78650000  1.0
  O  O198  1  0.03425000  0.23783000  0.23782000  1.0
  O  O199  1  0.76216000  0.96575000  0.26218000  1.0
  O  O200  1  0.96574000  0.76216000  0.76218000  1.0
  O  O201  1  0.23784000  0.03425000  0.73782000  1.0
  O  O202  1  0.00687000  0.36898000  0.34886000  1.0
  O  O203  1  0.63102000  0.99311000  0.15113000  1.0
  O  O204  1  0.99313000  0.63102000  0.65115000  1.0
  O  O205  1  0.36898000  0.00687000  0.84886000  1.0
  O  O206  1  0.09563000  0.41376000  0.27057000  1.0
  O  O207  1  0.58624000  0.90438000  0.22944000  1.0
  O  O208  1  0.90438000  0.58623000  0.72944000  1.0
  O  O209  1  0.41377000  0.09562000  0.77057000  1.0
  O  O210  1  0.30079000  0.05742000  0.17470000  1.0
  O  O211  1  0.94258000  0.69921000  0.32530000  1.0
  O  O212  1  0.69921000  0.94258000  0.82530000  1.0
  O  O213  1  0.05742000  0.30079000  0.67470000  1.0
  O  O214  1  0.41107000  0.10024000  0.32623000  1.0
  O  O215  1  0.89977000  0.58893000  0.17377000  1.0
  O  O216  1  0.58894000  0.89976000  0.67377000  1.0
  O  O217  1  0.10024000  0.41106000  0.82623000  1.0
  F  F218  1  0.38230000  0.28983000  0.94021000  1.0
  F  F219  1  0.71016000  0.61770000  0.55978000  1.0
  F  F220  1  0.61770000  0.71017000  0.05979000  1.0
  F  F221  1  0.28983000  0.38231000  0.44021000  1.0
  F  F222  1  0.29532000  0.46704000  0.00755000  1.0
  F  F223  1  0.53295000  0.70467000  0.49243000  1.0
  F  F224  1  0.70467000  0.53295000  0.99244000  1.0
  F  F225  1  0.46705000  0.29533000  0.50755000  1.0
  F  F226  1  0.31917000  0.83106000  0.41145000  1.0
  F  F227  1  0.16895000  0.68083000  0.08855000  1.0
  F  F228  1  0.68081000  0.16895000  0.58854000  1.0
  F  F229  1  0.83106000  0.31919000  0.91146000  1.0
  F  F230  1  0.49222000  0.81128000  0.35911000  1.0
  F  F231  1  0.18872000  0.50777000  0.14089000  1.0
  F  F232  1  0.50777000  0.18872000  0.64088000  1.0
  F  F233  1  0.81129000  0.49223000  0.85912000  1.0
