# generated using pymatgen
data_NdH19C19(SO4)2
_symmetry_space_group_name_H-M   'P 1'
_cell_length_a   13.51380000
_cell_length_b   13.60330000
_cell_length_c   14.21621268
_cell_angle_alpha   61.41664592
_cell_angle_beta   81.71998183
_cell_angle_gamma   89.99900000
_symmetry_Int_Tables_number   1
_chemical_formula_structural   NdH19C19(SO4)2
_chemical_formula_sum   'Nd4 H76 C76 S8 O32'
_cell_volume   2263.81503159
_cell_formula_units_Z   4
loop_
 _symmetry_equiv_pos_site_id
 _symmetry_equiv_pos_as_xyz
  1  'x, y, z'
loop_
 _atom_site_type_symbol
 _atom_site_label
 _atom_site_symmetry_multiplicity
 _atom_site_fract_x
 _atom_site_fract_y
 _atom_site_fract_z
 _atom_site_occupancy
  Nd  Nd0  1  0.46214000  0.38504000  0.66192000  1.0
  Nd  Nd1  1  0.03786000  0.04696000  0.33808000  1.0
  Nd  Nd2  1  0.53786000  0.61495000  0.33808000  1.0
  Nd  Nd3  1  0.96214000  0.95304000  0.66192000  1.0
  H  H4  1  0.58315000  0.15676000  0.01298000  1.0
  H  H5  1  0.91685000  0.16973000  0.98702000  1.0
  H  H6  1  0.41685000  0.84325000  0.98702000  1.0
  H  H7  1  0.08315000  0.83026000  0.01299000  1.0
  H  H8  1  0.62615000  0.12058000  0.19131000  1.0
  H  H9  1  0.87384000  0.31190000  0.80869000  1.0
  H  H10  1  0.37384000  0.87941000  0.80870000  1.0
  H  H11  1  0.12616000  0.68811000  0.19131000  1.0
  H  H12  1  0.61893000  0.47225000  0.09351000  1.0
  H  H13  1  0.88108000  0.56577000  0.90649000  1.0
  H  H14  1  0.38109000  0.52774000  0.90649000  1.0
  H  H15  1  0.11893000  0.43425000  0.09350000  1.0
  H  H16  1  0.57812000  0.50699000  0.91355000  1.0
  H  H17  1  0.92190000  0.42053000  0.08645000  1.0
  H  H18  1  0.42189000  0.49301000  0.08645000  1.0
  H  H19  1  0.07811000  0.57947000  0.91355000  1.0
  H  H20  1  0.76035000  0.15300000  0.26293000  1.0
  H  H21  1  0.73964000  0.41593000  0.73707000  1.0
  H  H22  1  0.23965000  0.84701000  0.73707000  1.0
  H  H23  1  0.26036000  0.58408000  0.26292000  1.0
  H  H24  1  0.67625000  0.15329000  0.56517000  1.0
  H  H25  1  0.82375000  0.71846000  0.43483000  1.0
  H  H26  1  0.32375000  0.84670000  0.43484000  1.0
  H  H27  1  0.17624000  0.28154000  0.56516000  1.0
  H  H28  1  0.54632000  0.37951667  0.28715000  1.0
  H  H29  1  0.95367000  0.66663000  0.71286000  1.0
  H  H30  1  0.45368000  0.62047333  0.71286000  1.0
  H  H31  1  0.04633000  0.33337000  0.28713000  1.0
  H  H32  1  0.17050000  0.31725000  0.95841000  1.0
  H  H33  1  0.32949000  0.27564000  0.04156000  1.0
  H  H34  1  0.82951000  0.68274000  0.04159000  1.0
  H  H35  1  0.67051000  0.72436000  0.95844000  1.0
  H  H36  1  0.07314000  0.40167000  0.89554000  1.0
  H  H37  1  0.42685000  0.29721000  0.10441000  1.0
  H  H38  1  0.92687000  0.59833000  0.10446000  1.0
  H  H39  1  0.57315000  0.70279000  0.89559000  1.0
  H  H40  1  0.18911000  0.46813000  0.89597000  1.0
  H  H41  1  0.31088000  0.36411000  0.10397000  1.0
  H  H42  1  0.81090000  0.53187000  0.10403000  1.0
  H  H43  1  0.68912000  0.63589000  0.89603000  1.0
  H  H44  1  0.19713000  0.55299000  0.59359000  1.0
  H  H45  1  0.30287000  0.14661000  0.40638000  1.0
  H  H46  1  0.80288000  0.44701000  0.40641000  1.0
  H  H47  1  0.69713000  0.85339000  0.59362000  1.0
  H  H48  1  0.18018000  0.59995000  0.69355000  1.0
  H  H49  1  0.31982000  0.29353000  0.30641000  1.0
  H  H50  1  0.81983000  0.40005000  0.30644000  1.0
  H  H51  1  0.68018000  0.70647000  0.69359000  1.0
  H  H52  1  0.07953000  0.51877000  0.68406000  1.0
  H  H53  1  0.42047000  0.20286000  0.31589000  1.0
  H  H54  1  0.92048000  0.48123000  0.31593000  1.0
  H  H55  1  0.57953000  0.79714000  0.68411000  1.0
  H  H56  1  0.34488000  0.18636000  0.57007000  1.0
  H  H57  1  0.15512000  0.75642000  0.42991000  1.0
  H  H58  1  0.65512000  0.81364000  0.42994000  1.0
  H  H59  1  0.84488000  0.24358000  0.57009000  1.0
  H  H60  1  0.25868000  0.06225000  0.64034000  1.0
  H  H61  1  0.24134000  0.70259000  0.35963000  1.0
  H  H62  1  0.74132000  0.93776000  0.35966000  1.0
  H  H63  1  0.75866000  0.29741000  0.64038000  1.0
  H  H64  1  0.38058000  0.06389000  0.68137000  1.0
  H  H65  1  0.11944000  0.74525000  0.31859000  1.0
  H  H66  1  0.61943000  0.93613000  0.31862000  1.0
  H  H67  1  0.88056000  0.25474000  0.68141000  1.0
  H  H68  1  0.28294000  0.98048000  0.87941000  1.0
  H  H69  1  0.21707000  0.85991000  0.12055000  1.0
  H  H70  1  0.71705000  0.01951000  0.12059000  1.0
  H  H71  1  0.78293000  0.14009000  0.87944000  1.0
  H  H72  1  0.16036000  0.99107000  0.83771000  1.0
  H  H73  1  0.33965000  0.82880000  0.16225000  1.0
  H  H74  1  0.83964000  0.00894000  0.16228000  1.0
  H  H75  1  0.66035000  0.17119000  0.83775000  1.0
  H  H76  1  0.18792000  0.05164000  0.91987000  1.0
  H  H77  1  0.31208000  0.97153000  0.08011000  1.0
  H  H78  1  0.81208000  0.94834000  0.08014000  1.0
  H  H79  1  0.68792000  0.02847000  0.91989000  1.0
  C  C80  1  0.54509000  0.35561000  0.84933000  1.0
  C  C81  1  0.95491000  0.20494000  0.15067000  1.0
  C  C82  1  0.45491000  0.64439000  0.15067000  1.0
  C  C83  1  0.04509000  0.79506000  0.84933000  1.0
  C  C84  1  0.58015000  0.33491000  0.95195000  1.0
  C  C85  1  0.91985000  0.28686000  0.04805000  1.0
  C  C86  1  0.41985000  0.66508000  0.04806000  1.0
  C  C87  1  0.08015000  0.71314000  0.95195000  1.0
  C  C88  1  0.59443000  0.22562000  0.03004000  1.0
  C  C89  1  0.90557000  0.25566000  0.96997000  1.0
  C  C90  1  0.40558000  0.77437000  0.96997000  1.0
  C  C91  1  0.09442000  0.74433000  0.03004000  1.0
  C  C92  1  0.61800000  0.20597000  0.12923000  1.0
  C  C93  1  0.88199000  0.33520000  0.87077000  1.0
  C  C94  1  0.38200000  0.79403000  0.87077000  1.0
  C  C95  1  0.11800000  0.66481000  0.12923000  1.0
  C  C96  1  0.62720000  0.29393000  0.15387000  1.0
  C  C97  1  0.87280000  0.44780000  0.84613000  1.0
  C  C98  1  0.37281000  0.70608000  0.84613000  1.0
  C  C99  1  0.12720000  0.55221000  0.15387000  1.0
  C  C100  1  0.61339000  0.40347000  0.07496000  1.0
  C  C101  1  0.88662000  0.47843000  0.92504000  1.0
  C  C102  1  0.38662000  0.59653000  0.92504000  1.0
  C  C103  1  0.11338000  0.52158000  0.07496000  1.0
  C  C104  1  0.59103000  0.42318000  0.97498000  1.0
  C  C105  1  0.90897000  0.39816000  0.02502000  1.0
  C  C106  1  0.40897000  0.57682000  0.02502000  1.0
  C  C107  1  0.09102000  0.60185000  0.97498000  1.0
  C  C108  1  0.64745000  0.26610000  0.26296000  1.0
  C  C109  1  0.85255000  0.52906000  0.73704000  1.0
  C  C110  1  0.35255000  0.73390000  0.73704000  1.0
  C  C111  1  0.14745000  0.47095000  0.26295000  1.0
  C  C112  1  0.71555000  0.18576000  0.31016000  1.0
  C  C113  1  0.78445000  0.49592000  0.68984000  1.0
  C  C114  1  0.28446000  0.81424000  0.68984000  1.0
  C  C115  1  0.21555000  0.50407000  0.31016000  1.0
  C  C116  1  0.72899000  0.14724000  0.41762000  1.0
  C  C117  1  0.77101000  0.56487000  0.58238000  1.0
  C  C118  1  0.27101000  0.85276000  0.58238000  1.0
  C  C119  1  0.22899000  0.43513000  0.41761000  1.0
  C  C120  1  0.67098000  0.18702000  0.47975000  1.0
  C  C121  1  0.82902000  0.66677000  0.52026000  1.0
  C  C122  1  0.32902000  0.81297000  0.52026000  1.0
  C  C123  1  0.17098000  0.33323000  0.47974000  1.0
  C  C124  1  0.60677000  0.27149000  0.43224000  1.0
  C  C125  1  0.89322000  0.70373000  0.56777000  1.0
  C  C126  1  0.39322000  0.72851000  0.56776000  1.0
  C  C127  1  0.10677000  0.29627000  0.43223000  1.0
  C  C128  1  0.59633000  0.31318000  0.32329000  1.0
  C  C129  1  0.90366000  0.63646000  0.67671000  1.0
  C  C130  1  0.40367000  0.68683000  0.67671000  1.0
  C  C131  1  0.09634000  0.36354000  0.32328000  1.0
  C  C132  1  0.80702000  0.06643000  0.46353000  1.0
  C  C133  1  0.69297000  0.52995000  0.53648000  1.0
  C  C134  1  0.19298000  0.93358000  0.53647000  1.0
  C  C135  1  0.30702000  0.47003000  0.46352000  1.0
  C  C136  1  0.55023000  0.31384000  0.50192000  1.0
  C  C137  1  0.94976000  0.81576000  0.49809000  1.0
  C  C138  1  0.44976000  0.68614000  0.49809000  1.0
  C  C139  1  0.05023000  0.18424000  0.50191000  1.0
  C  C140  1  0.15445000  0.39752000  0.89213000  1.0
  C  C141  1  0.34553000  0.28965000  0.10783000  1.0
  C  C142  1  0.84555000  0.60247000  0.10787000  1.0
  C  C143  1  0.65447000  0.71035000  0.89217000  1.0
  C  C144  1  0.16108000  0.53306000  0.67546000  1.0
  C  C145  1  0.33892000  0.20855000  0.32450000  1.0
  C  C146  1  0.83893000  0.46695000  0.32453000  1.0
  C  C147  1  0.66108000  0.79146000  0.67550000  1.0
  C  C148  1  0.31739000  0.11242000  0.64847000  1.0
  C  C149  1  0.18262000  0.76088000  0.35150000  1.0
  C  C150  1  0.68260000  0.88759000  0.35153000  1.0
  C  C151  1  0.81738000  0.23912000  0.64850000  1.0
  C  C152  1  0.21951000  0.03238000  0.85557000  1.0
  C  C153  1  0.28050000  0.88797000  0.14440000  1.0
  C  C154  1  0.78049000  0.96760000  0.14444000  1.0
  C  C155  1  0.71950000  0.11203000  0.85559000  1.0
  S  S156  1  0.20926000  0.40414000  0.76644000  1.0
  S  S157  1  0.29074000  0.17059000  0.23353000  1.0
  S  S158  1  0.79074000  0.59586000  0.23355000  1.0
  S  S159  1  0.70927000  0.82941000  0.76647000  1.0
  S  S160  1  0.26201000  0.16457000  0.73737000  1.0
  S  S161  1  0.23799000  0.90194000  0.26261000  1.0
  S  S162  1  0.73799000  0.83543000  0.26264000  1.0
  S  S163  1  0.76201000  0.09806000  0.73738000  1.0
  O  O164  1  0.52498000  0.45426000  0.78322000  1.0
  O  O165  1  0.97501000  0.23747000  0.21679000  1.0
  O  O166  1  0.47502000  0.54573000  0.21678000  1.0
  O  O167  1  0.02499000  0.76253000  0.78321000  1.0
  O  O168  1  0.53357000  0.27226000  0.83211000  1.0
  O  O169  1  0.96643000  0.10436000  0.16789000  1.0
  O  O170  1  0.46643000  0.72773000  0.16790000  1.0
  O  O171  1  0.03357000  0.89563000  0.83211000  1.0
  O  O172  1  0.52027000  0.41348000  0.45825000  1.0
  O  O173  1  0.97972000  0.87172000  0.54176000  1.0
  O  O174  1  0.47972000  0.58651000  0.54176000  1.0
  O  O175  1  0.02027000  0.12828000  0.45824000  1.0
  O  O176  1  0.53346000  0.24994000  0.60390000  1.0
  O  O177  1  0.96652000  0.85384000  0.39611000  1.0
  O  O178  1  0.46652000  0.75004000  0.39611000  1.0
  O  O179  1  0.03347000  0.14616000  0.60389000  1.0
  O  O180  1  0.81907000  0.03571000  0.56086000  1.0
  O  O181  1  0.68094000  0.59657000  0.43913000  1.0
  O  O182  1  0.18093000  0.96431000  0.43913000  1.0
  O  O183  1  0.31906000  0.40343000  0.56086000  1.0
  O  O184  1  0.85653000  0.03463000  0.40117000  1.0
  O  O185  1  0.64347000  0.43581000  0.59883000  1.0
  O  O186  1  0.14348000  0.96537000  0.59883000  1.0
  O  O187  1  0.35653000  0.56418000  0.40117000  1.0
  O  O188  1  0.32023000  0.43353000  0.75768000  1.0
  O  O189  1  0.17976000  0.19122000  0.24230000  1.0
  O  O190  1  0.67977000  0.56646000  0.24232000  1.0
  O  O191  1  0.82024000  0.80879000  0.75769000  1.0
  O  O192  1  0.34864000  0.20959000  0.76765000  1.0
  O  O193  1  0.15135000  0.97723000  0.23235000  1.0
  O  O194  1  0.65136000  0.79040000  0.23237000  1.0
  O  O195  1  0.84864000  0.02277000  0.76765000  1.0
