# generated using pymatgen
data_AgH8C3N7
_symmetry_space_group_name_H-M   'P 1'
_cell_length_a   4.49476000
_cell_length_b   11.14550000
_cell_length_c   14.35580000
_cell_angle_alpha   90.00000000
_cell_angle_beta   93.64380000
_cell_angle_gamma   90.00000000
_symmetry_Int_Tables_number   1
_chemical_formula_structural   AgH8C3N7
_chemical_formula_sum   'Ag4 H32 C12 N28'
_cell_volume   717.71929229
_cell_formula_units_Z   4
loop_
 _symmetry_equiv_pos_site_id
 _symmetry_equiv_pos_as_xyz
  1  'x, y, z'
loop_
 _atom_site_type_symbol
 _atom_site_label
 _atom_site_symmetry_multiplicity
 _atom_site_fract_x
 _atom_site_fract_y
 _atom_site_fract_z
 _atom_site_occupancy
  Ag  Ag0  1  0.50304000  0.40961000  0.31584000  1.0
  Ag  Ag1  1  0.49696000  0.90962000  0.18416000  1.0
  Ag  Ag2  1  0.49696000  0.59038000  0.68416000  1.0
  Ag  Ag3  1  0.50304000  0.09038000  0.81584000  1.0
  H  H4  1  0.11574000  0.53184000  0.05817000  1.0
  H  H5  1  0.88426000  0.03183000  0.44183000  1.0
  H  H6  1  0.88426000  0.46817000  0.94183000  1.0
  H  H7  1  0.11574000  0.96816000  0.55817000  1.0
  H  H8  1  0.45086000  0.45044000  0.08445000  1.0
  H  H9  1  0.54914000  0.95044000  0.41555000  1.0
  H  H10  1  0.54914000  0.54957000  0.91555000  1.0
  H  H11  1  0.45086000  0.04956000  0.58445000  1.0
  H  H12  1  0.63339000  0.61813000  0.19031000  1.0
  H  H13  1  0.36661000  0.11813000  0.30969000  1.0
  H  H14  1  0.36661000  0.38187000  0.80969000  1.0
  H  H15  1  0.63339000  0.88187000  0.69031000  1.0
  H  H16  1  0.56746000  0.66218000  0.07213000  1.0
  H  H17  1  0.43254000  0.16218000  0.42787000  1.0
  H  H18  1  0.43254000  0.33782000  0.92787000  1.0
  H  H19  1  0.56746000  0.83782000  0.57213000  1.0
  H  H20  1  0.05295000  0.38667000  0.17490000  1.0
  H  H21  1  0.94705000  0.88667000  0.32510000  1.0
  H  H22  1  0.94705000  0.61333000  0.82510000  1.0
  H  H23  1  0.05295000  0.11333000  0.67490000  1.0
  H  H24  1  0.16682000  0.70786000  0.22442000  1.0
  H  H25  1  0.83318000  0.20786000  0.27558000  1.0
  H  H26  1  0.83318000  0.29214000  0.77558000  1.0
  H  H27  1  0.16682000  0.79214000  0.72442000  1.0
  H  H28  1  0.10217000  0.74759000  0.11220000  1.0
  H  H29  1  0.89783000  0.24759000  0.38780000  1.0
  H  H30  1  0.89783000  0.25241000  0.88780000  1.0
  H  H31  1  0.10217000  0.75241000  0.61220000  1.0
  H  H32  1  0.03201000  0.51860000  0.22581000  1.0
  H  H33  1  0.96799000  0.01860000  0.27419000  1.0
  H  H34  1  0.96799000  0.48140000  0.77419000  1.0
  H  H35  1  0.03201000  0.98140000  0.72581000  1.0
  C  C36  1  0.74830000  0.60560000  0.46070000  1.0
  C  C37  1  0.25170000  0.10560000  0.03930000  1.0
  C  C38  1  0.25170000  0.39440000  0.53930000  1.0
  C  C39  1  0.74830000  0.89440000  0.96070000  1.0
  C  C40  1  0.29550000  0.51531000  0.11272000  1.0
  C  C41  1  0.70450000  0.01531000  0.38728000  1.0
  C  C42  1  0.70450000  0.48469000  0.88728000  1.0
  C  C43  1  0.29550000  0.98469000  0.61272000  1.0
  C  C44  1  0.45828000  0.63271000  0.13453000  1.0
  C  C45  1  0.54172000  0.13271000  0.36547000  1.0
  C  C46  1  0.54172000  0.36729000  0.86547000  1.0
  C  C47  1  0.45828000  0.86729000  0.63453000  1.0
  N  N48  1  0.17538000  0.46053000  0.19630000  1.0
  N  N49  1  0.82462000  0.96052000  0.30370000  1.0
  N  N50  1  0.82462000  0.53948000  0.80370000  1.0
  N  N51  1  0.17538000  0.03947000  0.69630000  1.0
  N  N52  1  0.26610000  0.73081000  0.16419000  1.0
  N  N53  1  0.73390000  0.23081000  0.33581000  1.0
  N  N54  1  0.73390000  0.26919000  0.83581000  1.0
  N  N55  1  0.26610000  0.76919000  0.66419000  1.0
  N  N56  1  0.78791000  0.57868000  0.37046000  1.0
  N  N57  1  0.21209000  0.07868000  0.12954000  1.0
  N  N58  1  0.21209000  0.42132000  0.62954000  1.0
  N  N59  1  0.78791000  0.92132000  0.87046000  1.0
  N  N60  1  0.97512000  0.66193000  0.34250000  1.0
  N  N61  1  0.02488000  0.16193000  0.15750000  1.0
  N  N62  1  0.02488000  0.33807000  0.65750000  1.0
  N  N63  1  0.97512000  0.83807000  0.84250000  1.0
  N  N64  1  0.04672000  0.73752000  0.41327000  1.0
  N  N65  1  0.95328000  0.23752000  0.08673000  1.0
  N  N66  1  0.95328000  0.26248000  0.58673000  1.0
  N  N67  1  0.04672000  0.76248000  0.91327000  1.0
  N  N68  1  0.90751000  0.70354000  0.48828000  1.0
  N  N69  1  0.09249000  0.20354000  0.01172000  1.0
  N  N70  1  0.09249000  0.29646000  0.51172000  1.0
  N  N71  1  0.90751000  0.79646000  0.98828000  1.0
  N  N72  1  0.57852000  0.54190000  0.52017000  1.0
  N  N73  1  0.42148000  0.04190000  0.97983000  1.0
  N  N74  1  0.42148000  0.45810000  0.47983000  1.0
  N  N75  1  0.57852000  0.95810000  0.02017000  1.0
