# generated using pymatgen
data_H18RuC22NO6
_symmetry_space_group_name_H-M   'P 1'
_cell_length_a   9.31692000
_cell_length_b   10.19320000
_cell_length_c   10.63060000
_cell_angle_alpha   93.03150000
_cell_angle_beta   95.80010000
_cell_angle_gamma   102.32000000
_symmetry_Int_Tables_number   1
_chemical_formula_structural   H18RuC22NO6
_chemical_formula_sum   'H36 Ru2 C44 N2 O12'
_cell_volume   978.39822814
_cell_formula_units_Z   2
loop_
 _symmetry_equiv_pos_site_id
 _symmetry_equiv_pos_as_xyz
  1  'x, y, z'
loop_
 _atom_site_type_symbol
 _atom_site_label
 _atom_site_symmetry_multiplicity
 _atom_site_fract_x
 _atom_site_fract_y
 _atom_site_fract_z
 _atom_site_occupancy
  H  H0  1  0.07747000  0.72184000  0.90464000  1.0
  H  H1  1  0.92256000  0.27792000  0.09500000  1.0
  H  H2  1  0.18848000  0.88728000  0.94992000  1.0
  H  H3  1  0.81148000  0.11242000  0.04991000  1.0
  H  H4  1  0.01408000  0.86760000  0.85454000  1.0
  H  H5  1  0.98561000  0.13228000  0.14581000  1.0
  H  H6  1  0.83075000  0.67682000  0.86106000  1.0
  H  H7  1  0.16915000  0.32325000  0.13910000  1.0
  H  H8  1  0.56745000  0.58549000  0.86708000  1.0
  H  H9  1  0.43243000  0.41501000  0.13298000  1.0
  H  H10  1  0.44235000  0.64073000  0.05474000  1.0
  H  H11  1  0.55777000  0.35946000  0.94562000  1.0
  H  H12  1  0.59332000  0.78809000  0.23760000  1.0
  H  H13  1  0.40715000  0.21155000  0.76296000  1.0
  H  H14  1  0.28116000  0.54291000  0.71639000  1.0
  H  H15  1  0.71889000  0.45660000  0.28355000  1.0
  H  H16  1  0.14507000  0.39448000  0.65595000  1.0
  H  H17  1  0.85508000  0.60498000  0.34405000  1.0
  H  H18  1  0.14895000  0.46244000  0.81586000  1.0
  H  H19  1  0.85092000  0.53732000  0.18401000  1.0
  H  H20  1  0.92198000  0.33263000  0.72522000  1.0
  H  H21  1  0.07773000  0.66702000  0.27432000  1.0
  H  H22  1  0.65270000  0.26735000  0.70955000  1.0
  H  H23  1  0.34703000  0.73283000  0.29041000  1.0
  H  H24  1  0.49643000  0.42775000  0.63870000  1.0
  H  H25  1  0.50355000  0.57254000  0.36105000  1.0
  H  H26  1  0.62019000  0.65692000  0.58556000  1.0
  H  H27  1  0.38017000  0.34325000  0.41401000  1.0
  H  H28  1  0.76533000  0.05671000  0.76150000  1.0
  H  H29  1  0.23422000  0.94406000  0.23864000  1.0
  H  H30  1  0.63629000  0.93328000  0.92694000  1.0
  H  H31  1  0.36357000  0.06642000  0.07278000  1.0
  H  H32  1  0.38051000  0.79525000  0.87393000  1.0
  H  H33  1  0.61944000  0.20432000  0.12562000  1.0
  H  H34  1  0.24546000  0.79634000  0.65984000  1.0
  H  H35  1  0.75424000  0.20411000  0.33998000  1.0
  Ru  Ru36  1  0.88990000  0.03078000  0.52188000  1.0
  Ru  Ru37  1  0.11037000  0.96916000  0.47836000  1.0
  C  C38  1  0.87706000  0.88601000  0.27377000  1.0
  C  C39  1  0.12303000  0.11368000  0.72673000  1.0
  C  C40  1  0.79678000  0.81096000  0.15593000  1.0
  C  C41  1  0.20350000  0.18881000  0.84447000  1.0
  C  C42  1  0.86590000  0.78210000  0.04795000  1.0
  C  C43  1  0.13435000  0.21761000  0.95242000  1.0
  C  C44  1  0.07528000  0.82708000  0.93171000  1.0
  C  C45  1  0.92470000  0.17259000  0.06830000  1.0
  C  C46  1  0.78090000  0.69970000  0.94530000  1.0
  C  C47  1  0.21913000  0.30030000  0.05498000  1.0
  C  C48  1  0.63033000  0.64849000  0.94865000  1.0
  C  C49  1  0.36964000  0.35172000  0.05155000  1.0
  C  C50  1  0.56043000  0.67952000  0.05290000  1.0
  C  C51  1  0.43972000  0.32050000  0.94746000  1.0
  C  C52  1  0.64390000  0.76110000  0.15482000  1.0
  C  C53  1  0.35638000  0.23867000  0.84561000  1.0
  C  C54  1  0.90263000  0.76016000  0.58339000  1.0
  C  C55  1  0.09757000  0.23980000  0.41651000  1.0
  C  C56  1  0.83998000  0.62427000  0.62129000  1.0
  C  C57  1  0.16022000  0.37570000  0.37853000  1.0
  C  C58  1  0.92742000  0.53295000  0.66282000  1.0
  C  C59  1  0.07266000  0.46685000  0.33681000  1.0
  C  C60  1  0.16698000  0.48763000  0.71840000  1.0
  C  C61  1  0.83303000  0.51195000  0.28144000  1.0
  C  C62  1  0.85762000  0.40511000  0.69498000  1.0
  C  C63  1  0.14227000  0.59475000  0.30467000  1.0
  C  C64  1  0.70388000  0.36799000  0.68570000  1.0
  C  C65  1  0.29598000  0.63210000  0.31408000  1.0
  C  C66  1  0.61666000  0.45718000  0.64591000  1.0
  C  C67  1  0.38334000  0.54300000  0.35384000  1.0
  C  C68  1  0.68516000  0.58448000  0.61510000  1.0
  C  C69  1  0.31503000  0.41563000  0.38462000  1.0
  C  C70  1  0.57896000  0.99858000  0.61555000  1.0
  C  C71  1  0.42070000  0.00216000  0.38445000  1.0
  C  C72  1  0.65127000  0.00069000  0.74011000  1.0
  C  C73  1  0.34834000  0.99989000  0.25991000  1.0
  C  C74  1  0.57946000  0.93143000  0.83186000  1.0
  C  C75  1  0.42027000  0.06856000  0.16792000  1.0
  C  C76  1  0.43370000  0.85413000  0.80208000  1.0
  C  C77  1  0.56609000  0.14578000  0.19764000  1.0
  C  C78  1  0.35847000  0.85393000  0.68353000  1.0
  C  C79  1  0.64128000  0.14641000  0.31629000  1.0
  C  C80  1  0.57361000  0.07027000  0.41089000  1.0
  C  C81  1  0.42609000  0.93039000  0.58916000  1.0
  N  N82  1  0.65496000  0.06197000  0.52381000  1.0
  N  N83  1  0.34456000  0.93894000  0.47630000  1.0
  O  O84  1  0.80187000  0.94268000  0.34544000  1.0
  O  O85  1  0.19803000  0.05672000  0.65515000  1.0
  O  O86  1  0.01471000  0.88654000  0.30301000  1.0
  O  O87  1  0.98578000  0.11435000  0.69696000  1.0
  O  O88  1  0.01184000  0.83914000  0.04805000  1.0
  O  O89  1  0.98851000  0.16018000  0.95224000  1.0
  O  O90  1  0.82167000  0.84775000  0.58867000  1.0
  O  O91  1  0.17909000  0.15263000  0.41239000  1.0
  O  O92  1  0.03080000  0.78620000  0.54403000  1.0
  O  O93  1  0.96915000  0.21353000  0.45534000  1.0
  O  O94  1  0.07681000  0.57686000  0.67351000  1.0
  O  O95  1  0.92331000  0.42272000  0.32603000  1.0
