# generated using pymatgen
data_CoH5(C2O)3
_symmetry_space_group_name_H-M   'P 1'
_cell_length_a   6.96728000
_cell_length_b   15.11460000
_cell_length_c   15.12038250
_cell_angle_alpha   117.64868504
_cell_angle_beta   98.82845317
_cell_angle_gamma   98.84490000
_symmetry_Int_Tables_number   1
_chemical_formula_structural   CoH5(C2O)3
_chemical_formula_sum   'Co6 H30 C36 O18'
_cell_volume   1346.93176940
_cell_formula_units_Z   6
loop_
 _symmetry_equiv_pos_site_id
 _symmetry_equiv_pos_as_xyz
  1  'x, y, z'
loop_
 _atom_site_type_symbol
 _atom_site_label
 _atom_site_symmetry_multiplicity
 _atom_site_fract_x
 _atom_site_fract_y
 _atom_site_fract_z
 _atom_site_occupancy
  Co  Co0  1  0.20151000  0.73455000  0.32319000  1.0
  Co  Co1  1  0.87795000  0.67656000  0.41112000  1.0
  Co  Co2  1  0.46701000  0.58894000  0.26538000  1.0
  Co  Co3  1  0.79851000  0.26542000  0.67684000  1.0
  Co  Co4  1  0.12206000  0.32345000  0.58890000  1.0
  Co  Co5  1  0.53302000  0.41107000  0.73465000  1.0
  H  H6  1  0.18478000  0.52720000  0.55203000  1.0
  H  H7  1  0.63274000  0.44789000  0.97531000  1.0
  H  H8  1  0.65747000  0.02477000  0.47279000  1.0
  H  H9  1  0.81526000  0.47279000  0.44800000  1.0
  H  H10  1  0.36729000  0.55216000  0.02471000  1.0
  H  H11  1  0.34253000  0.97524000  0.52718000  1.0
  H  H12  1  0.09452000  0.79590000  0.62480000  1.0
  H  H13  1  0.46983000  0.37494000  0.17085000  1.0
  H  H14  1  0.29942000  0.82926000  0.20398000  1.0
  H  H15  1  0.90547000  0.20409000  0.37523000  1.0
  H  H16  1  0.53023000  0.62509000  0.82920000  1.0
  H  H17  1  0.70046000  0.17064000  0.79593000  1.0
  H  H18  1  0.91333000  0.67936000  0.60262000  1.0
  H  H19  1  0.31047000  0.39721000  0.07668000  1.0
  H  H20  1  0.23425000  0.92336000  0.32037000  1.0
  H  H21  1  0.08662000  0.32063000  0.39739000  1.0
  H  H22  1  0.68962000  0.60281000  0.92335000  1.0
  H  H23  1  0.76580000  0.07661000  0.67956000  1.0
  H  H24  1  0.81162000  0.86362000  0.58378000  1.0
  H  H25  1  0.22790000  0.41552000  0.27957000  1.0
  H  H26  1  0.94880000  0.72038000  0.13604000  1.0
  H  H27  1  0.18840000  0.13636000  0.41617000  1.0
  H  H28  1  0.77209000  0.58447000  0.72044000  1.0
  H  H29  1  0.05099000  0.27963000  0.86392000  1.0
  H  H30  1  0.62874000  0.74651000  0.55896000  1.0
  H  H31  1  0.06960000  0.44039000  0.18746000  1.0
  H  H32  1  0.88266000  0.81245000  0.25302000  1.0
  H  H33  1  0.37125000  0.25346000  0.44097000  1.0
  H  H34  1  0.93042000  0.55960000  0.81253000  1.0
  H  H35  1  0.11729000  0.18763000  0.74698000  1.0
  C  C36  1  0.56445000  0.53577000  0.43468000  1.0
  C  C37  1  0.12981000  0.56520000  0.10102000  1.0
  C  C38  1  0.02878000  0.89889000  0.46396000  1.0
  C  C39  1  0.43559000  0.46422000  0.56535000  1.0
  C  C40  1  0.87020000  0.43483000  0.89900000  1.0
  C  C41  1  0.97120000  0.10111000  0.53602000  1.0
  C  C42  1  0.38304000  0.55211000  0.46517000  1.0
  C  C43  1  0.91790000  0.53473000  0.08694000  1.0
  C  C44  1  0.83103000  0.91307000  0.44769000  1.0
  C  C45  1  0.61698000  0.44788000  0.53486000  1.0
  C  C46  1  0.08211000  0.46530000  0.91308000  1.0
  C  C47  1  0.16896000  0.08693000  0.55229000  1.0
  C  C48  1  0.32368000  0.51568000  0.52909000  1.0
  C  C49  1  0.79456000  0.47092000  0.98667000  1.0
  C  C50  1  0.80792000  0.01341000  0.48439000  1.0
  C  C51  1  0.67636000  0.48432000  0.47094000  1.0
  C  C52  1  0.20546000  0.52912000  0.01335000  1.0
  C  C53  1  0.19207000  0.98660000  0.51559000  1.0
  C  C54  1  0.25466000  0.60810000  0.43344000  1.0
  C  C55  1  0.82128000  0.56639000  0.17461000  1.0
  C  C56  1  0.64672000  0.82539000  0.39167000  1.0
  C  C57  1  0.74537000  0.39189000  0.56659000  1.0
  C  C58  1  0.17873000  0.43363000  0.82541000  1.0
  C  C59  1  0.35327000  0.17461000  0.60832000  1.0
  C  C60  1  0.93870000  0.75178000  0.60155000  1.0
  C  C61  1  0.33711000  0.39809000  0.15004000  1.0
  C  C62  1  0.18750000  0.84998000  0.24795000  1.0
  C  C63  1  0.06128000  0.24820000  0.39845000  1.0
  C  C64  1  0.66295000  0.60193000  0.84999000  1.0
  C  C65  1  0.81243000  0.14998000  0.75198000  1.0
  C  C66  1  0.78502000  0.78804000  0.57822000  1.0
  C  C67  1  0.20677000  0.42114000  0.20960000  1.0
  C  C68  1  0.99766000  0.79033000  0.21160000  1.0
  C  C69  1  0.21496000  0.21193000  0.42173000  1.0
  C  C70  1  0.79327000  0.57886000  0.79041000  1.0
  C  C71  1  0.00222000  0.20970000  0.78836000  1.0
  O  O72  1  0.63342000  0.56604000  0.37228000  1.0
  O  O73  1  0.26110000  0.62747000  0.19365000  1.0
  O  O74  1  0.06740000  0.80619000  0.43353000  1.0
  O  O75  1  0.36660000  0.43394000  0.62774000  1.0
  O  O76  1  0.73892000  0.37254000  0.80637000  1.0
  O  O77  1  0.93260000  0.19381000  0.56646000  1.0
  O  O78  1  0.32548000  0.65518000  0.38819000  1.0
  O  O79  1  0.93736000  0.61168000  0.26685000  1.0
  O  O80  1  0.67051000  0.73310000  0.34462000  1.0
  O  O81  1  0.67456000  0.34483000  0.61185000  1.0
  O  O82  1  0.06266000  0.38832000  0.73317000  1.0
  O  O83  1  0.32950000  0.26691000  0.65541000  1.0
  O  O84  1  0.08545000  0.60967000  0.45421000  1.0
  O  O85  1  0.63130000  0.54563000  0.15544000  1.0
  O  O86  1  0.47593000  0.84455000  0.39010000  1.0
  O  O87  1  0.91456000  0.39031000  0.54580000  1.0
  O  O88  1  0.36872000  0.45440000  0.84458000  1.0
  O  O89  1  0.52404000  0.15544000  0.60987000  1.0
