# generated using pymatgen
data_ZnH9C13N3O4
_symmetry_space_group_name_H-M   'P 1'
_cell_length_a   7.74323000
_cell_length_b   14.80150000
_cell_length_c   16.04470000
_cell_angle_alpha   107.76400000
_cell_angle_beta   90.00000000
_cell_angle_gamma   90.00000000
_symmetry_Int_Tables_number   1
_chemical_formula_structural   ZnH9C13N3O4
_chemical_formula_sum   'Zn4 H36 C52 N12 O16'
_cell_volume   1751.22915349
_cell_formula_units_Z   4
loop_
 _symmetry_equiv_pos_site_id
 _symmetry_equiv_pos_as_xyz
  1  'x, y, z'
loop_
 _atom_site_type_symbol
 _atom_site_label
 _atom_site_symmetry_multiplicity
 _atom_site_fract_x
 _atom_site_fract_y
 _atom_site_fract_z
 _atom_site_occupancy
  Zn  Zn0  1  0.00433000  0.63639000  0.80908000  1.0
  Zn  Zn1  1  0.50433000  0.36361000  0.69092000  1.0
  Zn  Zn2  1  0.99567000  0.36361000  0.19093000  1.0
  Zn  Zn3  1  0.49568000  0.63639000  0.30908000  1.0
  H  H4  1  0.02116000  0.48722000  0.85693000  1.0
  H  H5  1  0.52116000  0.51278000  0.64307000  1.0
  H  H6  1  0.97884000  0.51278000  0.14307000  1.0
  H  H7  1  0.47884000  0.48721000  0.35693000  1.0
  H  H8  1  0.16626000  0.47467000  0.77775000  1.0
  H  H9  1  0.66626000  0.52533000  0.72225000  1.0
  H  H10  1  0.83374000  0.52534000  0.22225000  1.0
  H  H11  1  0.33374000  0.47466000  0.27775000  1.0
  H  H12  1  0.02717000  0.76009000  0.99771000  1.0
  H  H13  1  0.52717000  0.23991000  0.50229000  1.0
  H  H14  1  0.97283000  0.23991000  0.00229000  1.0
  H  H15  1  0.47283000  0.76010000  0.49771000  1.0
  H  H16  1  0.10164000  0.55189000  0.00984000  1.0
  H  H17  1  0.60165000  0.44811000  0.49016000  1.0
  H  H18  1  0.89835000  0.44811000  0.99016000  1.0
  H  H19  1  0.39836000  0.55189000  0.50984000  1.0
  H  H20  1  0.42923000  0.57387000  0.80048000  1.0
  H  H21  1  0.92923000  0.42613000  0.69952000  1.0
  H  H22  1  0.57077000  0.42613000  0.19952000  1.0
  H  H23  1  0.07077000  0.57387000  0.30048000  1.0
  H  H24  1  0.26355000  0.75763000  0.76621000  1.0
  H  H25  1  0.76354000  0.24237000  0.73379000  1.0
  H  H26  1  0.73646000  0.24237000  0.23379000  1.0
  H  H27  1  0.23646000  0.75763000  0.26621000  1.0
  H  H28  1  0.45502000  0.89624000  0.84215000  1.0
  H  H29  1  0.95502000  0.10376000  0.65784000  1.0
  H  H30  1  0.54497000  0.10376000  0.15784000  1.0
  H  H31  1  0.04498000  0.89625000  0.34215000  1.0
  H  H32  1  0.21226000  0.89952000  0.08498000  1.0
  H  H33  1  0.71226000  0.10048000  0.41502000  1.0
  H  H34  1  0.78774000  0.10048000  0.91502000  1.0
  H  H35  1  0.28774000  0.89953000  0.58498000  1.0
  H  H36  1  0.62416000  0.65077000  0.06444000  1.0
  H  H37  1  0.12416000  0.34923000  0.43556000  1.0
  H  H38  1  0.37584000  0.34923000  0.93556000  1.0
  H  H39  1  0.87584000  0.65077000  0.56444000  1.0
  C  C40  1  0.12311000  0.79375000  0.96721000  1.0
  C  C41  1  0.62311000  0.20625000  0.53279000  1.0
  C  C42  1  0.87689000  0.20625000  0.03279000  1.0
  C  C43  1  0.37689000  0.79376000  0.46721000  1.0
  C  C44  1  0.25387000  0.55544000  0.89791000  1.0
  C  C45  1  0.75387000  0.44456000  0.60210000  1.0
  C  C46  1  0.74612000  0.44456000  0.10210000  1.0
  C  C47  1  0.24613000  0.55544000  0.39790000  1.0
  C  C48  1  0.22605000  0.56874000  0.98669000  1.0
  C  C49  1  0.72604000  0.43127000  0.51331000  1.0
  C  C50  1  0.77395000  0.43126000  0.01331000  1.0
  C  C51  1  0.27396000  0.56873000  0.48669000  1.0
  C  C52  1  0.41286000  0.57992000  0.86935000  1.0
  C  C53  1  0.91286000  0.42008000  0.63065000  1.0
  C  C54  1  0.58714000  0.42008000  0.13065000  1.0
  C  C55  1  0.08714000  0.57992000  0.36935000  1.0
  C  C56  1  0.33355000  0.61310000  0.14182000  1.0
  C  C57  1  0.83355000  0.38690000  0.35818000  1.0
  C  C58  1  0.66645000  0.38690000  0.85818000  1.0
  C  C59  1  0.16645000  0.61310000  0.64182000  1.0
  C  C60  1  0.35905000  0.60417000  0.04693000  1.0
  C  C61  1  0.85905000  0.39584000  0.45307000  1.0
  C  C62  1  0.64095000  0.39583000  0.95307000  1.0
  C  C63  1  0.14095000  0.60416000  0.54693000  1.0
  C  C64  1  0.25518000  0.79275000  0.83642000  1.0
  C  C65  1  0.75518000  0.20725000  0.66358000  1.0
  C  C66  1  0.74482000  0.20725000  0.16358000  1.0
  C  C67  1  0.24482000  0.79275000  0.33642000  1.0
  C  C68  1  0.36098000  0.86834000  0.87832000  1.0
  C  C69  1  0.86098000  0.13166000  0.62168000  1.0
  C  C70  1  0.63902000  0.13166000  0.12168000  1.0
  C  C71  1  0.13903000  0.86835000  0.37832000  1.0
  C  C72  1  0.34512000  0.90782000  0.96936000  1.0
  C  C73  1  0.84512000  0.09218000  0.53064000  1.0
  C  C74  1  0.65488000  0.09217000  0.03064000  1.0
  C  C75  1  0.15488000  0.90783000  0.46936000  1.0
  C  C76  1  0.22459000  0.86975000  0.01425000  1.0
  C  C77  1  0.72459000  0.13025000  0.48575000  1.0
  C  C78  1  0.77541000  0.13025000  0.98575000  1.0
  C  C79  1  0.27541000  0.86976000  0.51425000  1.0
  C  C80  1  0.72303000  0.63238000  0.90058000  1.0
  C  C81  1  0.22303000  0.36761000  0.59942000  1.0
  C  C82  1  0.27697000  0.36762000  0.09942000  1.0
  C  C83  1  0.77697000  0.63239000  0.40059000  1.0
  C  C84  1  0.54654000  0.61395000  0.92926000  1.0
  C  C85  1  0.04654000  0.38606000  0.57074000  1.0
  C  C86  1  0.45346000  0.38605000  0.07074000  1.0
  C  C87  1  0.95346000  0.61395000  0.42926000  1.0
  C  C88  1  0.51903000  0.62632000  0.01818000  1.0
  C  C89  1  0.01904000  0.37368000  0.48182000  1.0
  C  C90  1  0.48097000  0.37368000  0.98182000  1.0
  C  C91  1  0.98097000  0.62632000  0.51818000  1.0
  N  N92  1  0.11868000  0.52185000  0.83507000  1.0
  N  N93  1  0.61868000  0.47815000  0.66493000  1.0
  N  N94  1  0.88132000  0.47815000  0.16493000  1.0
  N  N95  1  0.38132000  0.52185000  0.33507000  1.0
  N  N96  1  0.13786000  0.75642000  0.87979000  1.0
  N  N97  1  0.63786000  0.24358000  0.62021000  1.0
  N  N98  1  0.86214000  0.24358000  0.12021000  1.0
  N  N99  1  0.36214000  0.75642000  0.37979000  1.0
  N  N100  1  0.44399000  0.98518000  0.02131000  1.0
  N  N101  1  0.94399000  0.01482000  0.47869000  1.0
  N  N102  1  0.55601000  0.01482000  0.97869000  1.0
  N  N103  1  0.05602000  0.98518000  0.52131000  1.0
  O  O104  1  0.46733000  0.64515000  0.19064000  1.0
  O  O105  1  0.96732000  0.35484000  0.30936000  1.0
  O  O106  1  0.53267000  0.35484000  0.80936000  1.0
  O  O107  1  0.03267000  0.64515000  0.69064000  1.0
  O  O108  1  0.19267000  0.59062000  0.16886000  1.0
  O  O109  1  0.69266000  0.40938000  0.33114000  1.0
  O  O110  1  0.80733000  0.40938000  0.83114000  1.0
  O  O111  1  0.30734000  0.59062000  0.66886000  1.0
  O  O112  1  0.74711000  0.62367000  0.81787000  1.0
  O  O113  1  0.24711000  0.37633000  0.68213000  1.0
  O  O114  1  0.25289000  0.37633000  0.18213000  1.0
  O  O115  1  0.75289000  0.62367000  0.31787000  1.0
  O  O116  1  0.84414000  0.65359000  0.95507000  1.0
  O  O117  1  0.34414000  0.34641000  0.54493000  1.0
  O  O118  1  0.15585000  0.34641000  0.04493000  1.0
  O  O119  1  0.65586000  0.65359000  0.45507000  1.0
