# generated using pymatgen
data_CdH14C24(NO2)2
_symmetry_space_group_name_H-M   'P 1'
_cell_length_a   10.73300000
_cell_length_b   13.65590000
_cell_length_c   14.69070000
_cell_angle_alpha   80.47470000
_cell_angle_beta   84.02140000
_cell_angle_gamma   67.97530000
_symmetry_Int_Tables_number   1
_chemical_formula_structural   CdH14C24(NO2)2
_chemical_formula_sum   'Cd4 H56 C96 N8 O16'
_cell_volume   1966.45370256
_cell_formula_units_Z   4
loop_
 _symmetry_equiv_pos_site_id
 _symmetry_equiv_pos_as_xyz
  1  'x, y, z'
loop_
 _atom_site_type_symbol
 _atom_site_label
 _atom_site_symmetry_multiplicity
 _atom_site_fract_x
 _atom_site_fract_y
 _atom_site_fract_z
 _atom_site_occupancy
  Cd  Cd0  1  0.92471000  0.00244000  0.11660000  1.0
  Cd  Cd1  1  0.07530000  0.99756000  0.88340000  1.0
  Cd  Cd2  1  0.95718000  0.95254000  0.38968000  1.0
  Cd  Cd3  1  0.04282000  0.04746000  0.61032000  1.0
  H  H4  1  0.39586000  0.65190000  0.99836000  1.0
  H  H5  1  0.60414000  0.34809000  0.00164000  1.0
  H  H6  1  0.62205000  0.50995000  0.01677000  1.0
  H  H7  1  0.37795000  0.49005000  0.98323000  1.0
  H  H8  1  0.80280000  0.38912000  0.11814000  1.0
  H  H9  1  0.19720000  0.61088000  0.88186000  1.0
  H  H10  1  0.78628000  0.40366000  0.28668000  1.0
  H  H11  1  0.21372000  0.59634000  0.71332000  1.0
  H  H12  1  0.58689000  0.53972000  0.35347000  1.0
  H  H13  1  0.41311000  0.46028000  0.64653000  1.0
  H  H14  1  0.36337000  0.69196000  0.33079000  1.0
  H  H15  1  0.63662000  0.30804000  0.66921000  1.0
  H  H16  1  0.04727000  0.27036000  0.10309000  1.0
  H  H17  1  0.95273000  0.72964000  0.89691000  1.0
  H  H18  1  0.08920000  0.43717000  0.04011000  1.0
  H  H19  1  0.91080000  0.56283000  0.95989000  1.0
  H  H20  1  0.12543000  0.60029000  0.06702000  1.0
  H  H21  1  0.87457000  0.39970000  0.93298000  1.0
  H  H22  1  0.12045000  0.63828000  0.22639000  1.0
  H  H23  1  0.87955000  0.36173000  0.77361000  1.0
  H  H24  1  0.08895000  0.51206000  0.36145000  1.0
  H  H25  1  0.91105000  0.48794000  0.63854000  1.0
  H  H26  1  0.05141000  0.34210000  0.42346000  1.0
  H  H27  1  0.94859000  0.65791000  0.57654000  1.0
  H  H28  1  0.72614000  0.23788000  0.18306000  1.0
  H  H29  1  0.27387000  0.76212000  0.81694000  1.0
  H  H30  1  0.48130000  0.35078000  0.19880000  1.0
  H  H31  1  0.51871000  0.64922000  0.80120000  1.0
  H  H32  1  0.31049000  0.27291000  0.17585000  1.0
  H  H33  1  0.68951000  0.72709000  0.82415000  1.0
  H  H34  1  0.26179000  0.11541000  0.14221000  1.0
  H  H35  1  0.73821000  0.88460000  0.85779000  1.0
  H  H36  1  0.34401000  0.93300000  0.10656000  1.0
  H  H37  1  0.65598000  0.06701000  0.89344000  1.0
  H  H38  1  0.53886000  0.76593000  0.07755000  1.0
  H  H39  1  0.46113000  0.23407000  0.92245000  1.0
  H  H40  1  0.78848000  0.66924000  0.06283000  1.0
  H  H41  1  0.21152000  0.33076000  0.93718000  1.0
  H  H42  1  0.94057000  0.76814000  0.07529000  1.0
  H  H43  1  0.05943000  0.23186000  0.92471000  1.0
  H  H44  1  0.77308000  0.18918000  0.46268000  1.0
  H  H45  1  0.22692000  0.81082000  0.53732000  1.0
  H  H46  1  0.53570000  0.31829000  0.46688000  1.0
  H  H47  1  0.46430000  0.68171000  0.53312000  1.0
  H  H48  1  0.35120000  0.26236000  0.42826000  1.0
  H  H49  1  0.64881000  0.73764000  0.57174000  1.0
  H  H50  1  0.28476000  0.11886000  0.38598000  1.0
  H  H51  1  0.71524000  0.88114000  0.61402000  1.0
  H  H52  1  0.34790000  0.93909000  0.34327000  1.0
  H  H53  1  0.65211000  0.06091000  0.65673000  1.0
  H  H54  1  0.53021000  0.76748000  0.30926000  1.0
  H  H55  1  0.46979000  0.23252000  0.69074000  1.0
  H  H56  1  0.77636000  0.65326000  0.30397000  1.0
  H  H57  1  0.22364000  0.34674000  0.69603000  1.0
  H  H58  1  0.94228000  0.72925000  0.34024000  1.0
  H  H59  1  0.05772000  0.27075000  0.65976000  1.0
  C  C60  1  0.17249000  0.80294000  0.03726000  1.0
  C  C61  1  0.82751000  0.19706000  0.96274000  1.0
  C  C62  1  0.27822000  0.73726000  0.10614000  1.0
  C  C63  1  0.72178000  0.26274000  0.89386000  1.0
  C  C64  1  0.39023000  0.66039000  0.07133000  1.0
  C  C65  1  0.60977000  0.33961000  0.92867000  1.0
  C  C66  1  0.49789000  0.59282000  0.12696000  1.0
  C  C67  1  0.50211000  0.40718000  0.87304000  1.0
  C  C68  1  0.61417000  0.51588000  0.09047000  1.0
  C  C69  1  0.38583000  0.48412000  0.90953000  1.0
  C  C70  1  0.71571000  0.44927000  0.14710000  1.0
  C  C71  1  0.28428000  0.55073000  0.85290000  1.0
  C  C72  1  0.70557000  0.45738000  0.24272000  1.0
  C  C73  1  0.29443000  0.54262000  0.75729000  1.0
  C  C74  1  0.59449000  0.53273000  0.27990000  1.0
  C  C75  1  0.40551000  0.46727000  0.72010000  1.0
  C  C76  1  0.48845000  0.60279000  0.22336000  1.0
  C  C77  1  0.51155000  0.39721000  0.77664000  1.0
  C  C78  1  0.37378000  0.68303000  0.25755000  1.0
  C  C79  1  0.62622000  0.31697000  0.74245000  1.0
  C  C80  1  0.27091000  0.75017000  0.20145000  1.0
  C  C81  1  0.72909000  0.24983000  0.79855000  1.0
  C  C82  1  0.14730000  0.82584000  0.24621000  1.0
  C  C83  1  0.85271000  0.17416000  0.75379000  1.0
  C  C84  1  0.00461000  0.12329000  0.22323000  1.0
  C  C85  1  0.99539000  0.87671000  0.77677000  1.0
  C  C86  1  0.03528000  0.21454000  0.24661000  1.0
  C  C87  1  0.96472000  0.78546000  0.75339000  1.0
  C  C88  1  0.05111000  0.28685000  0.17275000  1.0
  C  C89  1  0.94889000  0.71315000  0.82725000  1.0
  C  C90  1  0.06869000  0.38126000  0.18550000  1.0
  C  C91  1  0.93131000  0.61874000  0.81450000  1.0
  C  C92  1  0.08853000  0.45433000  0.11012000  1.0
  C  C93  1  0.91147000  0.54567000  0.88988000  1.0
  C  C94  1  0.10839000  0.54449000  0.12488000  1.0
  C  C95  1  0.89161000  0.45551000  0.87512000  1.0
  C  C96  1  0.10711000  0.56574000  0.21621000  1.0
  C  C97  1  0.89289000  0.43426000  0.78378000  1.0
  C  C98  1  0.08876000  0.49599000  0.29105000  1.0
  C  C99  1  0.91124000  0.50401000  0.70895000  1.0
  C  C100  1  0.06971000  0.40196000  0.27797000  1.0
  C  C101  1  0.93029000  0.59804000  0.72203000  1.0
  C  C102  1  0.05168000  0.32751000  0.35257000  1.0
  C  C103  1  0.94832000  0.67249000  0.64743000  1.0
  C  C104  1  0.03486000  0.23538000  0.33886000  1.0
  C  C105  1  0.96514000  0.76462000  0.66114000  1.0
  C  C106  1  0.02593000  0.15845000  0.42330000  1.0
  C  C107  1  0.97407000  0.84155000  0.57670000  1.0
  C  C108  1  0.64910000  0.20781000  0.17210000  1.0
  C  C109  1  0.35090000  0.79219000  0.82790000  1.0
  C  C110  1  0.51152000  0.27031000  0.18123000  1.0
  C  C111  1  0.48848000  0.72969000  0.81877000  1.0
  C  C112  1  0.41788000  0.22737000  0.16838000  1.0
  C  C113  1  0.58212000  0.77263000  0.83162000  1.0
  C  C114  1  0.46127000  0.12250000  0.14618000  1.0
  C  C115  1  0.53873000  0.87750000  0.85382000  1.0
  C  C116  1  0.36972000  0.07221000  0.13456000  1.0
  C  C117  1  0.63027000  0.92780000  0.86544000  1.0
  C  C118  1  0.41558000  0.97003000  0.11483000  1.0
  C  C119  1  0.58442000  0.02998000  0.88517000  1.0
  C  C120  1  0.55684000  0.91086000  0.10431000  1.0
  C  C121  1  0.44316000  0.08914000  0.89569000  1.0
  C  C122  1  0.60852000  0.80478000  0.08495000  1.0
  C  C123  1  0.39147000  0.19522000  0.91506000  1.0
  C  C124  1  0.74595000  0.75189000  0.07590000  1.0
  C  C125  1  0.25404000  0.24811000  0.92410000  1.0
  C  C126  1  0.83179000  0.80606000  0.08425000  1.0
  C  C127  1  0.16821000  0.19394000  0.91575000  1.0
  C  C128  1  0.65123000  0.95863000  0.11379000  1.0
  C  C129  1  0.34877000  0.04137000  0.88621000  1.0
  C  C130  1  0.60240000  0.06618000  0.13671000  1.0
  C  C131  1  0.39760000  0.93382000  0.86329000  1.0
  C  C132  1  0.69180000  0.16793000  0.44375000  1.0
  C  C133  1  0.30820000  0.83207000  0.55625000  1.0
  C  C134  1  0.55759000  0.23985000  0.44705000  1.0
  C  C135  1  0.44241000  0.76014000  0.55295000  1.0
  C  C136  1  0.45654000  0.20910000  0.42573000  1.0
  C  C137  1  0.54346000  0.79090000  0.57427000  1.0
  C  C138  1  0.48969000  0.10634000  0.40105000  1.0
  C  C139  1  0.51031000  0.89366000  0.59895000  1.0
  C  C140  1  0.39030000  0.06741000  0.38131000  1.0
  C  C141  1  0.60970000  0.93259000  0.61869000  1.0
  C  C142  1  0.42533000  0.96774000  0.35742000  1.0
  C  C143  1  0.57467000  0.03226000  0.64258000  1.0
  C  C144  1  0.56402000  0.89971000  0.35108000  1.0
  C  C145  1  0.43598000  0.10029000  0.64892000  1.0
  C  C146  1  0.60588000  0.79610000  0.32636000  1.0
  C  C147  1  0.39412000  0.20390000  0.67364000  1.0
  C  C148  1  0.74112000  0.73324000  0.32334000  1.0
  C  C149  1  0.25888000  0.26676000  0.67666000  1.0
  C  C150  1  0.83464000  0.77531000  0.34362000  1.0
  C  C151  1  0.16536000  0.22469000  0.65638000  1.0
  C  C152  1  0.66620000  0.93514000  0.37058000  1.0
  C  C153  1  0.33380000  0.06486000  0.62942000  1.0
  C  C154  1  0.62846000  0.04029000  0.39712000  1.0
  C  C155  1  0.37154000  0.95970000  0.60288000  1.0
  N  N156  1  0.69275000  0.10944000  0.15008000  1.0
  N  N157  1  0.30725000  0.89056000  0.84992000  1.0
  N  N158  1  0.78564000  0.90611000  0.10266000  1.0
  N  N159  1  0.21436000  0.09389000  0.89734000  1.0
  N  N160  1  0.72602000  0.07172000  0.41860000  1.0
  N  N161  1  0.27398000  0.92828000  0.58140000  1.0
  N  N162  1  0.79845000  0.87309000  0.36561000  1.0
  N  N163  1  0.20155000  0.12690000  0.63438000  1.0
  O  O164  1  0.13219000  0.90569000  0.03246000  1.0
  O  O165  1  0.86781000  0.09431000  0.96754000  1.0
  O  O166  1  0.13861000  0.75387000  0.98560000  1.0
  O  O167  1  0.86138000  0.24612000  0.01440000  1.0
  O  O168  1  0.03433000  0.84290000  0.21361000  1.0
  O  O169  1  0.96568000  0.15710000  0.78639000  1.0
  O  O170  1  0.16248000  0.86270000  0.31648000  1.0
  O  O171  1  0.83752000  0.13730000  0.68352000  1.0
  O  O172  1  0.91080000  0.09910000  0.27003000  1.0
  O  O173  1  0.08920000  0.90090000  0.72997000  1.0
  O  O174  1  0.06519000  0.08156000  0.15225000  1.0
  O  O175  1  0.93481000  0.91844000  0.84775000  1.0
  O  O176  1  0.07929000  0.05855000  0.41967000  1.0
  O  O177  1  0.92071000  0.94145000  0.58033000  1.0
  O  O178  1  0.97137000  0.19840000  0.49667000  1.0
  O  O179  1  0.02863000  0.80161000  0.50333000  1.0
