# generated using pymatgen
data_ZnH14(C3O)2
_symmetry_space_group_name_H-M   'P 1'
_cell_length_a   7.12803000
_cell_length_b   7.13949000
_cell_length_c   8.75299000
_cell_angle_alpha   87.63220000
_cell_angle_beta   86.71470000
_cell_angle_gamma   61.31230000
_symmetry_Int_Tables_number   1
_chemical_formula_structural   ZnH14(C3O)2
_chemical_formula_sum   'Zn2 H28 C12 O4'
_cell_volume   390.07476739
_cell_formula_units_Z   2
loop_
 _symmetry_equiv_pos_site_id
 _symmetry_equiv_pos_as_xyz
  1  'x, y, z'
loop_
 _atom_site_type_symbol
 _atom_site_label
 _atom_site_symmetry_multiplicity
 _atom_site_fract_x
 _atom_site_fract_y
 _atom_site_fract_z
 _atom_site_occupancy
  Zn  Zn0  1  0.48219000  0.09003000  0.23315000  1.0
  Zn  Zn1  1  0.51781000  0.90997000  0.76685000  1.0
  H  H2  1  0.11545000  0.12699000  0.17417000  1.0
  H  H3  1  0.88455000  0.87300000  0.82583000  1.0
  H  H4  1  0.07985000  0.37643000  0.23523000  1.0
  H  H5  1  0.92015000  0.62356000  0.76477000  1.0
  H  H6  1  0.12645000  0.16980000  0.37103000  1.0
  H  H7  1  0.87354000  0.83019000  0.62897000  1.0
  H  H8  1  0.82586000  0.76880000  0.32754000  1.0
  H  H9  1  0.17414000  0.23120000  0.67246000  1.0
  H  H10  1  0.88794000  0.96530000  0.24643000  1.0
  H  H11  1  0.11206000  0.03470000  0.75357000  1.0
  H  H12  1  0.84272000  0.79848000  0.12546000  1.0
  H  H13  1  0.15728000  0.20151000  0.87454000  1.0
  H  H14  1  0.24762000  0.47050000  0.56658000  1.0
  H  H15  1  0.75238000  0.52950000  0.43342000  1.0
  H  H16  1  0.17991000  0.56938000  0.37532000  1.0
  H  H17  1  0.82009000  0.43062000  0.62468000  1.0
  H  H18  1  0.80749000  0.15889000  0.45038000  1.0
  H  H19  1  0.19251000  0.84111000  0.54961000  1.0
  H  H20  1  0.62133000  0.22572000  0.61152000  1.0
  H  H21  1  0.37867000  0.77428000  0.38848000  1.0
  H  H22  1  0.17091000  0.48282000  0.01211000  1.0
  H  H23  1  0.82909000  0.51718000  0.98790000  1.0
  H  H24  1  0.31710000  0.49451000  0.84168000  1.0
  H  H25  1  0.68290000  0.50549000  0.15833000  1.0
  H  H26  1  0.71082000  0.29969000  0.84936000  1.0
  H  H27  1  0.28918000  0.70031000  0.15065000  1.0
  H  H28  1  0.82056000  0.16397000  0.02513000  1.0
  H  H29  1  0.17944000  0.83603000  0.97488000  1.0
  C  C30  1  0.17081000  0.20267000  0.25445000  1.0
  C  C31  1  0.82919000  0.79732000  0.74555000  1.0
  C  C32  1  0.78984000  0.88640000  0.23336000  1.0
  C  C33  1  0.21016000  0.11360000  0.76664000  1.0
  C  C34  1  0.30093000  0.52518000  0.46127000  1.0
  C  C35  1  0.69907000  0.47481000  0.53873000  1.0
  C  C36  1  0.66385000  0.28801000  0.50502000  1.0
  C  C37  1  0.33615000  0.71199000  0.49497000  1.0
  C  C38  1  0.31260000  0.49331000  0.96785000  1.0
  C  C39  1  0.68740000  0.50669000  0.03215000  1.0
  C  C40  1  0.69030000  0.30771000  0.97514000  1.0
  C  C41  1  0.30970000  0.69229000  0.02487000  1.0
  O  O42  1  0.49551000  0.35163000  0.39940000  1.0
  O  O43  1  0.50449000  0.64837000  0.60060000  1.0
  O  O44  1  0.49523000  0.30357000  0.02144000  1.0
  O  O45  1  0.50477000  0.69643000  0.97856000  1.0
