# generated using pymatgen
data_SmH13(C4O3)4
_symmetry_space_group_name_H-M   'P 1'
_cell_length_a   8.90115000
_cell_length_b   9.79464000
_cell_length_c   12.12320000
_cell_angle_alpha   100.45000000
_cell_angle_beta   103.95600000
_cell_angle_gamma   108.42800000
_symmetry_Int_Tables_number   1
_chemical_formula_structural   SmH13(C4O3)4
_chemical_formula_sum   'Sm2 H26 C32 O24'
_cell_volume   934.27651917
_cell_formula_units_Z   2
loop_
 _symmetry_equiv_pos_site_id
 _symmetry_equiv_pos_as_xyz
  1  'x, y, z'
loop_
 _atom_site_type_symbol
 _atom_site_label
 _atom_site_symmetry_multiplicity
 _atom_site_fract_x
 _atom_site_fract_y
 _atom_site_fract_z
 _atom_site_occupancy
  Sm  Sm0  1  0.27194000  0.03841000  0.96124000  1.0
  Sm  Sm1  1  0.72806000  0.96160000  0.03875000  1.0
  H  H2  1  0.68354000  0.42676000  0.32539000  1.0
  H  H3  1  0.31646000  0.57324000  0.67461000  1.0
  H  H4  1  0.67938000  0.46320000  0.68470000  1.0
  H  H5  1  0.32062000  0.53680000  0.31530000  1.0
  H  H6  1  0.27860000  0.11421000  0.39510000  1.0
  H  H7  1  0.72138000  0.88580000  0.60490000  1.0
  H  H8  1  0.65779000  0.50533000  0.95076000  1.0
  H  H9  1  0.34222000  0.49467000  0.04924000  1.0
  H  H10  1  0.77407000  0.13486000  0.79446000  1.0
  H  H11  1  0.22594000  0.86514000  0.20554000  1.0
  H  H12  1  0.09563000  0.59106000  0.84195000  1.0
  H  H13  1  0.90437000  0.40895000  0.15805000  1.0
  H  H14  1  0.93095000  0.97044000  0.79339000  1.0
  H  H15  1  0.06905000  0.02956000  0.20661000  1.0
  H  H16  1  0.14329000  0.79158000  0.73908000  1.0
  H  H17  1  0.85671000  0.20842000  0.26092000  1.0
  H  H18  1  0.01832000  0.72315000  0.50578000  1.0
  H  H19  1  0.98168000  0.27684000  0.49422000  1.0
  H  H20  1  0.43985000  0.27188000  0.70380000  1.0
  H  H21  1  0.56015000  0.72812000  0.29620000  1.0
  H  H22  1  0.12545000  0.37407000  0.74279000  1.0
  H  H23  1  0.87456000  0.62594000  0.25721000  1.0
  H  H24  1  0.05044000  0.11439000  0.77383000  1.0
  H  H25  1  0.94956000  0.88561000  0.22617000  1.0
  H  H26  1  0.33354000  0.80754000  0.80020000  1.0
  H  H27  1  0.66646000  0.19247000  0.19980000  1.0
  C  C28  1  0.47499000  0.26211000  0.34717000  1.0
  C  C29  1  0.52501000  0.73789000  0.65283000  1.0
  C  C30  1  0.62579000  0.38612000  0.38848000  1.0
  C  C31  1  0.37420000  0.61388000  0.61152000  1.0
  C  C32  1  0.69877000  0.45740000  0.50979000  1.0
  C  C33  1  0.30122000  0.54260000  0.49021000  1.0
  C  C34  1  0.62158000  0.40522000  0.59052000  1.0
  C  C35  1  0.37841000  0.59477000  0.40948000  1.0
  C  C36  1  0.46966000  0.28135000  0.54868000  1.0
  C  C37  1  0.53033000  0.71865000  0.45132000  1.0
  C  C38  1  0.39694000  0.21007000  0.42670000  1.0
  C  C39  1  0.60305000  0.78993000  0.57330000  1.0
  C  C40  1  0.40120000  0.18651000  0.21743000  1.0
  C  C41  1  0.59880000  0.81349000  0.78257000  1.0
  C  C42  1  0.85732000  0.59028000  0.55494000  1.0
  C  C43  1  0.14268000  0.40971000  0.44506000  1.0
  C  C44  1  0.88099000  0.56372000  0.90065000  1.0
  C  C45  1  0.11901000  0.43628000  0.09935000  1.0
  C  C46  1  0.73719000  0.46266000  0.91093000  1.0
  C  C47  1  0.26281000  0.53734000  0.08907000  1.0
  C  C48  1  0.70120000  0.30886000  0.87449000  1.0
  C  C49  1  0.29881000  0.69114000  0.12551000  1.0
  C  C50  1  0.80213000  0.25484000  0.82184000  1.0
  C  C51  1  0.19788000  0.74516000  0.17816000  1.0
  C  C52  1  0.94089000  0.35648000  0.80672000  1.0
  C  C53  1  0.05912000  0.64352000  0.19329000  1.0
  C  C54  1  0.98372000  0.51080000  0.84887000  1.0
  C  C55  1  0.01629000  0.48920000  0.15113000  1.0
  C  C56  1  0.92246000  0.72845000  0.94747000  1.0
  C  C57  1  0.07755000  0.27156000  0.05253000  1.0
  C  C58  1  0.55409000  0.20492000  0.89499000  1.0
  C  C59  1  0.44592000  0.79508000  0.10502000  1.0
  O  O60  1  0.25664000  0.08186000  0.17441000  1.0
  O  O61  1  0.74336000  0.91814000  0.82560000  1.0
  O  O62  1  0.48784000  0.22692000  0.15010000  1.0
  O  O63  1  0.51216000  0.77308000  0.84990000  1.0
  O  O64  1  0.91809000  0.63124000  0.46809000  1.0
  O  O65  1  0.08192000  0.36875000  0.53191000  1.0
  O  O66  1  0.93005000  0.65912000  0.65993000  1.0
  O  O67  1  0.06995000  0.34088000  0.34006000  1.0
  O  O68  1  0.38262000  0.22422000  0.61865000  1.0
  O  O69  1  0.61737000  0.77578000  0.38135000  1.0
  O  O70  1  0.05321000  0.82028000  0.93839000  1.0
  O  O71  1  0.94679000  0.17973000  0.06161000  1.0
  O  O72  1  0.82314000  0.76546000  0.99426000  1.0
  O  O73  1  0.17686000  0.23455000  0.00574000  1.0
  O  O74  1  0.56679000  0.09930000  0.94117000  1.0
  O  O75  1  0.43321000  0.90070000  0.05883000  1.0
  O  O76  1  0.41756000  0.22613000  0.86850000  1.0
  O  O77  1  0.58244000  0.77387000  0.13150000  1.0
  O  O78  1  0.03197000  0.29586000  0.75060000  1.0
  O  O79  1  0.96803000  0.70414000  0.24940000  1.0
  O  O80  1  0.04208000  0.01504000  0.78348000  1.0
  O  O81  1  0.95792000  0.98496000  0.21653000  1.0
  O  O82  1  0.25858000  0.86292000  0.78314000  1.0
  O  O83  1  0.74142000  0.13708000  0.21686000  1.0
