# generated using pymatgen
data_YH6C5O8
_symmetry_space_group_name_H-M   'P 1'
_cell_length_a   7.87073000
_cell_length_b   7.94864000
_cell_length_c   7.97788000
_cell_angle_alpha   113.99300000
_cell_angle_beta   107.90600000
_cell_angle_gamma   96.44350000
_symmetry_Int_Tables_number   1
_chemical_formula_structural   YH6C5O8
_chemical_formula_sum   'Y2 H12 C10 O16'
_cell_volume   417.42710384
_cell_formula_units_Z   2
loop_
 _symmetry_equiv_pos_site_id
 _symmetry_equiv_pos_as_xyz
  1  'x, y, z'
loop_
 _atom_site_type_symbol
 _atom_site_label
 _atom_site_symmetry_multiplicity
 _atom_site_fract_x
 _atom_site_fract_y
 _atom_site_fract_z
 _atom_site_occupancy
  Y  Y0  1  0.26656000  0.57506000  0.79103000  1.0
  Y  Y1  1  0.73345000  0.42504000  0.20893000  1.0
  H  H2  1  0.35975000  0.09120000  0.40923000  1.0
  H  H3  1  0.64018000  0.90878000  0.59076000  1.0
  H  H4  1  0.13649000  0.14191000  0.71402000  1.0
  H  H5  1  0.86350000  0.85819000  0.28598000  1.0
  H  H6  1  0.42144000  0.59833000  0.49723000  1.0
  H  H7  1  0.57922000  0.40049000  0.50252000  1.0
  H  H8  1  0.21409000  0.45857000  0.36421000  1.0
  H  H9  1  0.78590000  0.54149000  0.63569000  1.0
  H  H10  1  0.62524000  0.89803000  0.98200000  1.0
  H  H11  1  0.37476000  0.10200000  0.01805000  1.0
  H  H12  1  0.66941000  0.70000000  0.93216000  1.0
  H  H13  1  0.33060000  0.30004000  0.06789000  1.0
  C  C14  1  0.94126000  0.55917000  0.96484000  1.0
  C  C15  1  0.05872000  0.44084000  0.03515000  1.0
  C  C16  1  0.51251000  0.21790000  0.73557000  1.0
  C  C17  1  0.48747000  0.78217000  0.26446000  1.0
  C  C18  1  0.46187000  0.07342000  0.52480000  1.0
  C  C19  1  0.53817000  0.92672000  0.47526000  1.0
  C  C20  1  0.08117000  0.83130000  0.60635000  1.0
  C  C21  1  0.91877000  0.16878000  0.39366000  1.0
  C  C22  1  0.05660000  0.00460000  0.58498000  1.0
  C  C23  1  0.94334000  0.99545000  0.41501000  1.0
  O  O24  1  0.97977000  0.61349000  0.84900000  1.0
  O  O25  1  0.02018000  0.38648000  0.15092000  1.0
  O  O26  1  0.81244000  0.59062000  0.02727000  1.0
  O  O27  1  0.18758000  0.40940000  0.97272000  1.0
  O  O28  1  0.43424000  0.35378000  0.76801000  1.0
  O  O29  1  0.56574000  0.64626000  0.23207000  1.0
  O  O30  1  0.63225000  0.20111000  0.87268000  1.0
  O  O31  1  0.36772000  0.79891000  0.12734000  1.0
  O  O32  1  0.21329000  0.85241000  0.76159000  1.0
  O  O33  1  0.78661000  0.14770000  0.23845000  1.0
  O  O34  1  0.97309000  0.66905000  0.47077000  1.0
  O  O35  1  0.02682000  0.33104000  0.52929000  1.0
  O  O36  1  0.31926000  0.51570000  0.49578000  1.0
  O  O37  1  0.68051000  0.48452000  0.50430000  1.0
  O  O38  1  0.57575000  0.76188000  0.88303000  1.0
  O  O39  1  0.42426000  0.23818000  0.11701000  1.0
