# generated using pymatgen
data_CdH10C12(SN2)2
_symmetry_space_group_name_H-M   'P 1'
_cell_length_a   7.78735000
_cell_length_b   8.48982000
_cell_length_c   17.69890000
_cell_angle_alpha   88.23760000
_cell_angle_beta   85.72980000
_cell_angle_gamma   62.70920000
_symmetry_Int_Tables_number   1
_chemical_formula_structural   CdH10C12(SN2)2
_chemical_formula_sum   'Cd3 H30 C36 S6 N12'
_cell_volume   1036.99036236
_cell_formula_units_Z   3
loop_
 _symmetry_equiv_pos_site_id
 _symmetry_equiv_pos_as_xyz
  1  'x, y, z'
loop_
 _atom_site_type_symbol
 _atom_site_label
 _atom_site_symmetry_multiplicity
 _atom_site_fract_x
 _atom_site_fract_y
 _atom_site_fract_z
 _atom_site_occupancy
  Cd  Cd0  1  0.91957000  0.99971000  0.16524000  1.0
  Cd  Cd1  1  0.08044000  0.00028000  0.83475000  1.0
  Cd  Cd2  1  0.00000000  0.00000000  0.50000000  1.0
  H  H3  1  0.04092000  0.67301000  0.05099000  1.0
  H  H4  1  0.28528000  0.67480000  0.94953000  1.0
  H  H5  1  0.95909000  0.32699000  0.94900000  1.0
  H  H6  1  0.71472000  0.32523000  0.05047000  1.0
  H  H7  1  0.17730000  0.34127000  0.04808000  1.0
  H  H8  1  0.48136000  0.34311000  0.95197000  1.0
  H  H9  1  0.82270000  0.65873000  0.95192000  1.0
  H  H10  1  0.51864000  0.65690000  0.04804000  1.0
  H  H11  1  0.26597000  0.17505000  0.17007000  1.0
  H  H12  1  0.56003000  0.17556000  0.82978000  1.0
  H  H13  1  0.73402000  0.82496000  0.82993000  1.0
  H  H14  1  0.43997000  0.82444000  0.17023000  1.0
  H  H15  1  0.22778000  0.34364000  0.28919000  1.0
  H  H16  1  0.42971000  0.34283000  0.71087000  1.0
  H  H17  1  0.77222000  0.65636000  0.71081000  1.0
  H  H18  1  0.57029000  0.65715000  0.28914000  1.0
  H  H19  1  0.09063000  0.67568000  0.28186000  1.0
  H  H20  1  0.23420000  0.67486000  0.71869000  1.0
  H  H21  1  0.90936000  0.32433000  0.71814000  1.0
  H  H22  1  0.76579000  0.32512000  0.28131000  1.0
  H  H23  1  0.70151000  0.33196000  0.60573000  1.0
  H  H24  1  0.96687000  0.33160000  0.39464000  1.0
  H  H25  1  0.29848000  0.66803000  0.39426000  1.0
  H  H26  1  0.03313000  0.66841000  0.60535000  1.0
  H  H27  1  0.53192000  0.66477000  0.61146000  1.0
  H  H28  1  0.80341000  0.66443000  0.38979000  1.0
  H  H29  1  0.46807000  0.33522000  0.38854000  1.0
  H  H30  1  0.19659000  0.33558000  0.61021000  1.0
  H  H31  1  0.58285000  0.83353000  0.50076000  1.0
  H  H32  1  0.41715000  0.16647000  0.49924000  1.0
  C  C33  1  0.17535000  0.00041000  0.31681000  1.0
  C  C34  1  0.82465000  0.99959000  0.68319000  1.0
  C  C35  1  0.73474000  0.99980000  0.35083000  1.0
  C  C36  1  0.26527000  0.00019000  0.64916000  1.0
  C  C37  1  0.22179000  0.99975000  0.01197000  1.0
  C  C38  1  0.77821000  0.00024000  0.98803000  1.0
  C  C39  1  0.08506000  0.59431000  0.10235000  1.0
  C  C40  1  0.32025000  0.59555000  0.89805000  1.0
  C  C41  1  0.91495000  0.40569000  0.89765000  1.0
  C  C42  1  0.67974000  0.40446000  0.10194000  1.0
  C  C43  1  0.15924000  0.41076000  0.10112000  1.0
  C  C44  1  0.42997000  0.41205000  0.89905000  1.0
  C  C45  1  0.84078000  0.58924000  0.89887000  1.0
  C  C46  1  0.57002000  0.58797000  0.10096000  1.0
  C  C47  1  0.21054000  0.31825000  0.16896000  1.0
  C  C48  1  0.47186000  0.31873000  0.83107000  1.0
  C  C49  1  0.78946000  0.68174000  0.83104000  1.0
  C  C50  1  0.52816000  0.68127000  0.16893000  1.0
  C  C51  1  0.18711000  0.41229000  0.23539000  1.0
  C  C52  1  0.40143000  0.41200000  0.76479000  1.0
  C  C53  1  0.81288000  0.58772000  0.76461000  1.0
  C  C54  1  0.59857000  0.58798000  0.23522000  1.0
  C  C55  1  0.11215000  0.59585000  0.23157000  1.0
  C  C56  1  0.29249000  0.59556000  0.76887000  1.0
  C  C57  1  0.88785000  0.40415000  0.76843000  1.0
  C  C58  1  0.70753000  0.40443000  0.23113000  1.0
  C  C59  1  0.72174000  0.41136000  0.55960000  1.0
  C  C60  1  0.86703000  0.41112000  0.44096000  1.0
  C  C61  1  0.27825000  0.58863000  0.44039000  1.0
  C  C62  1  0.13296000  0.58888000  0.55904000  1.0
  C  C63  1  0.62700000  0.59574000  0.56228000  1.0
  C  C64  1  0.77724000  0.59552000  0.43875000  1.0
  C  C65  1  0.37299000  0.40425000  0.43772000  1.0
  C  C66  1  0.22275000  0.40447000  0.56125000  1.0
  C  C67  1  0.65502000  0.68952000  0.50060000  1.0
  C  C68  1  0.34498000  0.31049000  0.49939000  1.0
  S  S69  1  0.27292000  0.99919000  0.39526000  1.0
  S  S70  1  0.72708000  0.00080000  0.60474000  1.0
  S  S71  1  0.64136000  0.00096000  0.27139000  1.0
  S  S72  1  0.35866000  0.99904000  0.72860000  1.0
  S  S73  1  0.33932000  0.00220000  0.93229000  1.0
  S  S74  1  0.66070000  0.99780000  0.06772000  1.0
  N  N75  1  0.10785000  0.00139000  0.25906000  1.0
  N  N76  1  0.89215000  0.99861000  0.74094000  1.0
  N  N77  1  0.79773000  0.99904000  0.40981000  1.0
  N  N78  1  0.20227000  0.00095000  0.59018000  1.0
  N  N79  1  0.13888000  0.99796000  0.07054000  1.0
  N  N80  1  0.86112000  0.00203000  0.92946000  1.0
  N  N81  1  0.06158000  0.68541000  0.16631000  1.0
  N  N82  1  0.25294000  0.68592000  0.83422000  1.0
  N  N83  1  0.93844000  0.31459000  0.83369000  1.0
  N  N84  1  0.74704000  0.31409000  0.16578000  1.0
  N  N85  1  0.84006000  0.31988000  0.50015000  1.0
  N  N86  1  0.15994000  0.68011000  0.49985000  1.0
