# generated using pymatgen
data_Zr3H24(C7O4)4
_symmetry_space_group_name_H-M   'P 1'
_cell_length_a   17.56340000
_cell_length_b   19.68060000
_cell_length_c   27.69150000
_cell_angle_alpha   90.07470000
_cell_angle_beta   89.96090000
_cell_angle_gamma   89.95160000
_symmetry_Int_Tables_number   1
_chemical_formula_structural   Zr3H24(C7O4)4
_chemical_formula_sum   'Zr12 H96 C112 O64'
_cell_volume   9571.78164481
_cell_formula_units_Z   4
loop_
 _symmetry_equiv_pos_site_id
 _symmetry_equiv_pos_as_xyz
  1  'x, y, z'
loop_
 _atom_site_type_symbol
 _atom_site_label
 _atom_site_symmetry_multiplicity
 _atom_site_fract_x
 _atom_site_fract_y
 _atom_site_fract_z
 _atom_site_occupancy
  Zr  Zr0  1  0.90145000  0.08899000  0.00461000  1.0
  Zr  Zr1  1  0.10503000  0.08392000  0.00455000  1.0
  Zr  Zr2  1  0.89577000  0.90750000  0.00396000  1.0
  Zr  Zr3  1  0.09901000  0.90290000  0.00374000  1.0
  Zr  Zr4  1  0.00014000  0.99605000  0.91476000  1.0
  Zr  Zr5  1  0.00014000  0.99561000  0.09380000  1.0
  Zr  Zr6  1  0.40340000  0.40246000  0.50493000  1.0
  Zr  Zr7  1  0.60670000  0.40890000  0.50411000  1.0
  Zr  Zr8  1  0.39567000  0.58416000  0.50459000  1.0
  Zr  Zr9  1  0.59829000  0.58964000  0.50475000  1.0
  Zr  Zr10  1  0.50045000  0.49595000  0.59420000  1.0
  Zr  Zr11  1  0.50047000  0.49557000  0.41486000  1.0
  H  H12  1  0.99922000  0.13860000  0.07534000  1.0
  H  H13  1  0.15998000  0.99222000  0.93312000  1.0
  H  H14  1  0.00154000  0.85275000  0.07455000  1.0
  H  H15  1  0.84130000  0.99664000  0.93284000  1.0
  H  H16  1  0.25276000  0.07885000  0.97780000  1.0
  H  H17  1  0.22989000  0.98618000  0.00668000  1.0
  H  H18  1  0.09271000  0.77353000  0.97774000  1.0
  H  H19  1  0.98801000  0.79043000  0.00304000  1.0
  H  H20  1  0.75183000  0.91686000  0.03302000  1.0
  H  H21  1  0.77028000  0.00852000  0.00548000  1.0
  H  H22  1  0.91053000  0.21786000  0.97694000  1.0
  H  H23  1  0.01375000  0.20055000  0.00290000  1.0
  H  H24  1  0.90918000  0.76910000  0.03134000  1.0
  H  H25  1  0.74797000  0.07802000  0.97538000  1.0
  H  H26  1  0.09269000  0.22045000  0.03192000  1.0
  H  H27  1  0.24235000  0.91805000  0.03918000  1.0
  H  H28  1  0.50060000  0.35263000  0.43395000  1.0
  H  H29  1  0.66082000  0.50107000  0.57519000  1.0
  H  H30  1  0.50149000  0.63890000  0.43371000  1.0
  H  H31  1  0.33977000  0.49286000  0.57535000  1.0
  H  H32  1  0.75504000  0.41559000  0.52966000  1.0
  H  H33  1  0.73007000  0.50796000  0.50164000  1.0
  H  H34  1  0.59080000  0.71884000  0.53028000  1.0
  H  H35  1  0.48644000  0.70186000  0.50448000  1.0
  H  H36  1  0.25076000  0.57837000  0.47759000  1.0
  H  H37  1  0.27191000  0.48310000  0.50262000  1.0
  H  H38  1  0.41209000  0.27309000  0.53054000  1.0
  H  H39  1  0.51598000  0.29148000  0.50560000  1.0
  H  H40  1  0.40809000  0.72158000  0.47535000  1.0
  H  H41  1  0.25965000  0.41387000  0.47086000  1.0
  H  H42  1  0.59595000  0.27161000  0.47778000  1.0
  H  H43  1  0.74186000  0.57676000  0.46961000  1.0
  H  H44  1  0.31215000  0.73564000  0.18078000  1.0
  H  H45  1  0.25083000  0.80077000  0.11496000  1.0
  H  H46  1  0.08504000  0.87841000  0.21480000  1.0
  H  H47  1  0.14139000  0.80908000  0.28033000  1.0
  H  H48  1  0.22546000  0.79098000  0.33295000  1.0
  H  H49  1  0.28114000  0.72092000  0.39808000  1.0
  H  H50  1  0.37650000  0.58504000  0.29284000  1.0
  H  H51  1  0.31596000  0.65127000  0.22709000  1.0
  H  H52  1  0.81746000  0.83698000  0.28080000  1.0
  H  H53  1  0.87851000  0.90339000  0.21528000  1.0
  H  H54  1  0.77756000  0.77220000  0.10928000  1.0
  H  H55  1  0.72093000  0.70202000  0.17412000  1.0
  H  H56  1  0.63731000  0.68471000  0.22808000  1.0
  H  H57  1  0.58149000  0.61523000  0.29381000  1.0
  H  H58  1  0.75339000  0.68651000  0.39162000  1.0
  H  H59  1  0.81442000  0.75097000  0.32541000  1.0
  H  H60  1  0.18888000  0.23337000  0.33052000  1.0
  H  H61  1  0.25194000  0.29873000  0.39557000  1.0
  H  H62  1  0.41134000  0.37999000  0.29332000  1.0
  H  H63  1  0.35340000  0.31045000  0.22842000  1.0
  H  H64  1  0.26838000  0.29259000  0.17746000  1.0
  H  H65  1  0.21355000  0.22224000  0.11204000  1.0
  H  H66  1  0.12256000  0.08383000  0.21678000  1.0
  H  H67  1  0.18281000  0.15003000  0.28272000  1.0
  H  H68  1  0.14400000  0.80693000  0.72827000  1.0
  H  H69  1  0.08334000  0.87356000  0.79390000  1.0
  H  H70  1  0.24259000  0.79193000  0.89602000  1.0
  H  H71  1  0.30809000  0.72928000  0.83039000  1.0
  H  H72  1  0.23167000  0.79158000  0.67763000  1.0
  H  H73  1  0.29245000  0.72475000  0.61206000  1.0
  H  H74  1  0.38114000  0.58455000  0.71630000  1.0
  H  H75  1  0.31606000  0.64734000  0.78209000  1.0
  H  H76  1  0.83411000  0.16462000  0.72688000  1.0
  H  H77  1  0.89705000  0.10085000  0.79296000  1.0
  H  H78  1  0.77359000  0.21760000  0.89807000  1.0
  H  H79  1  0.71274000  0.28416000  0.83278000  1.0
  H  H80  1  0.63022000  0.29281000  0.77603000  1.0
  H  H81  1  0.57155000  0.36085000  0.71049000  1.0
  H  H82  1  0.76103000  0.31558000  0.61778000  1.0
  H  H83  1  0.82480000  0.25423000  0.68455000  1.0
  H  H84  1  0.85242000  0.81396000  0.72743000  1.0
  H  H85  1  0.91321000  0.88054000  0.79291000  1.0
  H  H86  1  0.75902000  0.79436000  0.89623000  1.0
  H  H87  1  0.69302000  0.73165000  0.83072000  1.0
  H  H88  1  0.68596000  0.65017000  0.78155000  1.0
  H  H89  1  0.62049000  0.58766000  0.71590000  1.0
  H  H90  1  0.70362000  0.73160000  0.61226000  1.0
  H  H91  1  0.76367000  0.79828000  0.67774000  1.0
  H  H92  1  0.68326000  0.24862000  0.18107000  1.0
  H  H93  1  0.74565000  0.18313000  0.11543000  1.0
  H  H94  1  0.92051000  0.11913000  0.21356000  1.0
  H  H95  1  0.86332000  0.18931000  0.27848000  1.0
  H  H96  1  0.78194000  0.20569000  0.33240000  1.0
  H  H97  1  0.72562000  0.27602000  0.39743000  1.0
  H  H98  1  0.61394000  0.40044000  0.29187000  1.0
  H  H99  1  0.67433000  0.33401000  0.22606000  1.0
  H  H100  1  0.14259000  0.18140000  0.72775000  1.0
  H  H101  1  0.08277000  0.11495000  0.79366000  1.0
  H  H102  1  0.24661000  0.19293000  0.89435000  1.0
  H  H103  1  0.31173000  0.25461000  0.82823000  1.0
  H  H104  1  0.31685000  0.33838000  0.78135000  1.0
  H  H105  1  0.38218000  0.40171000  0.71603000  1.0
  H  H106  1  0.29158000  0.26361000  0.61078000  1.0
  H  H107  1  0.23074000  0.19632000  0.67574000  1.0
  C  C108  1  0.87706000  0.11573000  0.88876000  1.0
  C  C109  1  0.12819000  0.10862000  0.12086000  1.0
  C  C110  1  0.12410000  0.11037000  0.88755000  1.0
  C  C111  1  0.87328000  0.10654000  0.12137000  1.0
  C  C112  1  0.86957000  0.88212000  0.11941000  1.0
  C  C113  1  0.12117000  0.87603000  0.88822000  1.0
  C  C114  1  0.12803000  0.88424000  0.12156000  1.0
  C  C115  1  0.87742000  0.88100000  0.88767000  1.0
  C  C116  1  0.38012000  0.37560000  0.62044000  1.0
  C  C117  1  0.62928000  0.38268000  0.38804000  1.0
  C  C118  1  0.62616000  0.38226000  0.62074000  1.0
  C  C119  1  0.37223000  0.38438000  0.38740000  1.0
  C  C120  1  0.36944000  0.60846000  0.38868000  1.0
  C  C121  1  0.62007000  0.61638000  0.62075000  1.0
  C  C122  1  0.62755000  0.60701000  0.38643000  1.0
  C  C123  1  0.37794000  0.61113000  0.62089000  1.0
  C  C124  1  0.16720000  0.80824000  0.24451000  1.0
  C  C125  1  0.23151000  0.76717000  0.23573000  1.0
  C  C126  1  0.26143000  0.76573000  0.18852000  1.0
  C  C127  1  0.22810000  0.80304000  0.15155000  1.0
  C  C128  1  0.16478000  0.84434000  0.16094000  1.0
  C  C129  1  0.13477000  0.84672000  0.20788000  1.0
  C  C130  1  0.26617000  0.72657000  0.27480000  1.0
  C  C131  1  0.25703000  0.74507000  0.32363000  1.0
  C  C132  1  0.28893000  0.70641000  0.36040000  1.0
  C  C133  1  0.33255000  0.64872000  0.34953000  1.0
  C  C134  1  0.34265000  0.63003000  0.30105000  1.0
  C  C135  1  0.30934000  0.66795000  0.26442000  1.0
  C  C136  1  0.75408000  0.74689000  0.18365000  1.0
  C  C137  1  0.76488000  0.76397000  0.23259000  1.0
  C  C138  1  0.80973000  0.82138000  0.24333000  1.0
  C  C139  1  0.84336000  0.85935000  0.20687000  1.0
  C  C140  1  0.83199000  0.84189000  0.15830000  1.0
  C  C141  1  0.78646000  0.78558000  0.14706000  1.0
  C  C142  1  0.73042000  0.72318000  0.27160000  1.0
  C  C143  1  0.66453000  0.68407000  0.26346000  1.0
  C  C144  1  0.63241000  0.64555000  0.30022000  1.0
  C  C145  1  0.66417000  0.64628000  0.34670000  1.0
  C  C146  1  0.72921000  0.68556000  0.35540000  1.0
  C  C147  1  0.76238000  0.72256000  0.31824000  1.0
  C  C148  1  0.32921000  0.30892000  0.26467000  1.0
  C  C149  1  0.26601000  0.26694000  0.27421000  1.0
  C  C150  1  0.23846000  0.26444000  0.32197000  1.0
  C  C151  1  0.27277000  0.30186000  0.35857000  1.0
  C  C152  1  0.33475000  0.34431000  0.34837000  1.0
  C  C153  1  0.36255000  0.34755000  0.30094000  1.0
  C  C154  1  0.23044000  0.22660000  0.23528000  1.0
  C  C155  1  0.23805000  0.24604000  0.18657000  1.0
  C  C156  1  0.20644000  0.20741000  0.14967000  1.0
  C  C157  1  0.16433000  0.14888000  0.16035000  1.0
  C  C158  1  0.15533000  0.12943000  0.20871000  1.0
  C  C159  1  0.18849000  0.16732000  0.24549000  1.0
  C  C160  1  0.25768000  0.75942000  0.82206000  1.0
  C  C161  1  0.23103000  0.76297000  0.77414000  1.0
  C  C162  1  0.16719000  0.80429000  0.76473000  1.0
  C  C163  1  0.13220000  0.84109000  0.80141000  1.0
  C  C164  1  0.15883000  0.83645000  0.84902000  1.0
  C  C165  1  0.22169000  0.79490000  0.85902000  1.0
  C  C166  1  0.26880000  0.72454000  0.73502000  1.0
  C  C167  1  0.26296000  0.74541000  0.68651000  1.0
  C  C168  1  0.29753000  0.70875000  0.64958000  1.0
  C  C169  1  0.34045000  0.65066000  0.66019000  1.0
  C  C170  1  0.34766000  0.62977000  0.70835000  1.0
  C  C171  1  0.31176000  0.66575000  0.74507000  1.0
  C  C172  1  0.75216000  0.24334000  0.82352000  1.0
  C  C173  1  0.76879000  0.22963000  0.77468000  1.0
  C  C174  1  0.82144000  0.17755000  0.76434000  1.0
  C  C175  1  0.85647000  0.14120000  0.80110000  1.0
  C  C176  1  0.83944000  0.15534000  0.84959000  1.0
  C  C177  1  0.78666000  0.20664000  0.86038000  1.0
  C  C178  1  0.73229000  0.26854000  0.73544000  1.0
  C  C179  1  0.66049000  0.29921000  0.74193000  1.0
  C  C180  1  0.62676000  0.33662000  0.70518000  1.0
  C  C181  1  0.66273000  0.34243000  0.66016000  1.0
  C  C182  1  0.73342000  0.31108000  0.65287000  1.0
  C  C183  1  0.76828000  0.27577000  0.69025000  1.0
  C  C184  1  0.74239000  0.76292000  0.82211000  1.0
  C  C185  1  0.76766000  0.76778000  0.77392000  1.0
  C  C186  1  0.83024000  0.81037000  0.76412000  1.0
  C  C187  1  0.86528000  0.84717000  0.80070000  1.0
  C  C188  1  0.83990000  0.84132000  0.84853000  1.0
  C  C189  1  0.77844000  0.79845000  0.85896000  1.0
  C  C190  1  0.72982000  0.72939000  0.73487000  1.0
  C  C191  1  0.68869000  0.66954000  0.74472000  1.0
  C  C192  1  0.65257000  0.63370000  0.70805000  1.0
  C  C193  1  0.65789000  0.65571000  0.66001000  1.0
  C  C194  1  0.69936000  0.71471000  0.64962000  1.0
  C  C195  1  0.73392000  0.75131000  0.68652000  1.0
  C  C196  1  0.83567000  0.18689000  0.24329000  1.0
  C  C197  1  0.76834000  0.22403000  0.23501000  1.0
  C  C198  1  0.73620000  0.22160000  0.18842000  1.0
  C  C199  1  0.77017000  0.18431000  0.15157000  1.0
  C  C200  1  0.83632000  0.14661000  0.16062000  1.0
  C  C201  1  0.86861000  0.14805000  0.20692000  1.0
  C  C202  1  0.73288000  0.26445000  0.27400000  1.0
  C  C203  1  0.74640000  0.24912000  0.32294000  1.0
  C  C204  1  0.71416000  0.28779000  0.35968000  1.0
  C  C205  1  0.66593000  0.34240000  0.34872000  1.0
  C  C206  1  0.65134000  0.35785000  0.30018000  1.0
  C  C207  1  0.68477000  0.31985000  0.26352000  1.0
  C  C208  1  0.26043000  0.22550000  0.82039000  1.0
  C  C209  1  0.23200000  0.22319000  0.77285000  1.0
  C  C210  1  0.16704000  0.18313000  0.76393000  1.0
  C  C211  1  0.13260000  0.14635000  0.80077000  1.0
  C  C212  1  0.16101000  0.14984000  0.84803000  1.0
  C  C213  1  0.22494000  0.19021000  0.85753000  1.0
  C  C214  1  0.26926000  0.26195000  0.73375000  1.0
  C  C215  1  0.31251000  0.32045000  0.74417000  1.0
  C  C216  1  0.34857000  0.35667000  0.70773000  1.0
  C  C217  1  0.34138000  0.33632000  0.65940000  1.0
  C  C218  1  0.29749000  0.27892000  0.64842000  1.0
  C  C219  1  0.26268000  0.24198000  0.68505000  1.0
  O  O220  1  0.85873000  0.12996000  0.93257000  1.0
  O  O221  1  0.92424000  0.07004000  0.87587000  1.0
  O  O222  1  0.14406000  0.12521000  0.07737000  1.0
  O  O223  1  0.08264000  0.06135000  0.13353000  1.0
  O  O224  1  0.14371000  0.12340000  0.93093000  1.0
  O  O225  1  0.07588000  0.06516000  0.87466000  1.0
  O  O226  1  0.85371000  0.11873000  0.07802000  1.0
  O  O227  1  0.92392000  0.06337000  0.13457000  1.0
  O  O228  1  0.93189000  0.19433000  0.00468000  1.0
  O  O229  1  0.77388000  0.06303000  0.00450000  1.0
  O  O230  1  0.07486000  0.19711000  0.00308000  1.0
  O  O231  1  0.22363000  0.06128000  0.00486000  1.0
  O  O232  1  0.00239000  0.07177000  0.96663000  1.0
  O  O233  1  0.00084000  0.09853000  0.05497000  1.0
  O  O234  1  0.85224000  0.86739000  0.07552000  1.0
  O  O235  1  0.91714000  0.92721000  0.13245000  1.0
  O  O236  1  0.13867000  0.86132000  0.93192000  1.0
  O  O237  1  0.07462000  0.92233000  0.87529000  1.0
  O  O238  1  0.15011000  0.87380000  0.07818000  1.0
  O  O239  1  0.07535000  0.92536000  0.13429000  1.0
  O  O240  1  0.86041000  0.86668000  0.93119000  1.0
  O  O241  1  0.92363000  0.92775000  0.87434000  1.0
  O  O242  1  0.92719000  0.79377000  0.00316000  1.0
  O  O243  1  0.77777000  0.93528000  0.00489000  1.0
  O  O244  1  0.07076000  0.79727000  0.00528000  1.0
  O  O245  1  0.22570000  0.93239000  0.00717000  1.0
  O  O246  1  0.99957000  0.89286000  0.05429000  1.0
  O  O247  1  0.99848000  0.92046000  0.96644000  1.0
  O  O248  1  0.91623000  0.99660000  0.04177000  1.0
  O  O249  1  0.11554000  0.99255000  0.95390000  1.0
  O  O250  1  0.88514000  0.99810000  0.95407000  1.0
  O  O251  1  0.08526000  0.99533000  0.04209000  1.0
  O  O252  1  0.36530000  0.35948000  0.57664000  1.0
  O  O253  1  0.42514000  0.42290000  0.63369000  1.0
  O  O254  1  0.64561000  0.36692000  0.43164000  1.0
  O  O255  1  0.58280000  0.42928000  0.37528000  1.0
  O  O256  1  0.64713000  0.37034000  0.57741000  1.0
  O  O257  1  0.57679000  0.42639000  0.63378000  1.0
  O  O258  1  0.35146000  0.37347000  0.43097000  1.0
  O  O259  1  0.42389000  0.42624000  0.37436000  1.0
  O  O260  1  0.43343000  0.29697000  0.50293000  1.0
  O  O261  1  0.27621000  0.42922000  0.50269000  1.0
  O  O262  1  0.57684000  0.29550000  0.50609000  1.0
  O  O263  1  0.72492000  0.43317000  0.50306000  1.0
  O  O264  1  0.50413000  0.42040000  0.54235000  1.0
  O  O265  1  0.50150000  0.39310000  0.45394000  1.0
  O  O266  1  0.35212000  0.62378000  0.43245000  1.0
  O  O267  1  0.41656000  0.56268000  0.37590000  1.0
  O  O268  1  0.63543000  0.63270000  0.57704000  1.0
  O  O269  1  0.57541000  0.56863000  0.63372000  1.0
  O  O270  1  0.64950000  0.61819000  0.42969000  1.0
  O  O271  1  0.57493000  0.56569000  0.37401000  1.0
  O  O272  1  0.36233000  0.62650000  0.57738000  1.0
  O  O273  1  0.42305000  0.56345000  0.63415000  1.0
  O  O274  1  0.42575000  0.69839000  0.50424000  1.0
  O  O275  1  0.27824000  0.55793000  0.50436000  1.0
  O  O276  1  0.56959000  0.69508000  0.50255000  1.0
  O  O277  1  0.72513000  0.56186000  0.50150000  1.0
  O  O278  1  0.49925000  0.59885000  0.45401000  1.0
  O  O279  1  0.49812000  0.57107000  0.54218000  1.0
  O  O280  1  0.41734000  0.49495000  0.46708000  1.0
  O  O281  1  0.61620000  0.50048000  0.55461000  1.0
  O  O282  1  0.38418000  0.49277000  0.55446000  1.0
  O  O283  1  0.58568000  0.49688000  0.46637000  1.0
