# generated using pymatgen
data_NdCuH14C16N2O13
_symmetry_space_group_name_H-M   'P 1'
_cell_length_a   8.13368000
_cell_length_b   10.99210000
_cell_length_c   12.20760000
_cell_angle_alpha   108.57600000
_cell_angle_beta   101.36400000
_cell_angle_gamma   98.36780000
_symmetry_Int_Tables_number   1
_chemical_formula_structural   NdCuH14C16N2O13
_chemical_formula_sum   'Nd2 Cu2 H28 C32 N4 O26'
_cell_volume   988.48456423
_cell_formula_units_Z   2
loop_
 _symmetry_equiv_pos_site_id
 _symmetry_equiv_pos_as_xyz
  1  'x, y, z'
loop_
 _atom_site_type_symbol
 _atom_site_label
 _atom_site_symmetry_multiplicity
 _atom_site_fract_x
 _atom_site_fract_y
 _atom_site_fract_z
 _atom_site_occupancy
  Nd  Nd0  1  0.45270000  0.73634000  0.42353000  1.0
  Nd  Nd1  1  0.54730000  0.26366000  0.57647000  1.0
  Cu  Cu2  1  0.48980000  0.76128000  0.95700000  1.0
  Cu  Cu3  1  0.51020000  0.23872000  0.04300000  1.0
  H  H4  1  0.95736000  0.53141000  0.20968000  1.0
  H  H5  1  0.04264000  0.46858000  0.79031000  1.0
  H  H6  1  0.05725000  0.63106000  0.06993000  1.0
  H  H7  1  0.94275000  0.36893000  0.93006000  1.0
  H  H8  1  0.84807000  0.72689000  0.95602000  1.0
  H  H9  1  0.15192000  0.27311000  0.04397000  1.0
  H  H10  1  0.05789000  0.00254000  0.69494000  1.0
  H  H11  1  0.94211000  0.99747000  0.30506000  1.0
  H  H12  1  0.93927000  0.91212000  0.83463000  1.0
  H  H13  1  0.06073000  0.08789000  0.16538000  1.0
  H  H14  1  0.13092000  0.81391000  0.95672000  1.0
  H  H15  1  0.86908000  0.18609000  0.04328000  1.0
  H  H16  1  0.61736000  0.61918000  0.60634000  1.0
  H  H17  1  0.38263000  0.38082000  0.39365000  1.0
  H  H18  1  0.46276000  0.65627000  0.65587000  1.0
  H  H19  1  0.53724000  0.34373000  0.34412000  1.0
  H  H20  1  0.74759000  0.97331000  0.57157000  1.0
  H  H21  1  0.25242000  0.02669000  0.42843000  1.0
  H  H22  1  0.72425000  0.88206000  0.64263000  1.0
  H  H23  1  0.27575000  0.11793000  0.35737000  1.0
  H  H24  1  0.12639000  0.78344000  0.28707000  1.0
  H  H25  1  0.87360000  0.21655000  0.71293000  1.0
  H  H26  1  0.26397000  0.87981000  0.25883000  1.0
  H  H27  1  0.73602000  0.12019000  0.74117000  1.0
  H  H28  1  0.92900000  0.40646000  0.36883000  1.0
  H  H29  1  0.07100000  0.59354000  0.63117000  1.0
  H  H30  1  0.09298000  0.38458000  0.47437000  1.0
  H  H31  1  0.90703000  0.61542000  0.52563000  1.0
  C  C32  1  0.60342000  0.63744000  0.11519000  1.0
  C  C33  1  0.39658000  0.36256000  0.88481000  1.0
  C  C34  1  0.70798000  0.57975000  0.17972000  1.0
  C  C35  1  0.29203000  0.42025000  0.82028000  1.0
  C  C36  1  0.87268000  0.57640000  0.16167000  1.0
  C  C37  1  0.12732000  0.42360000  0.83832000  1.0
  C  C38  1  0.92850000  0.63096000  0.08326000  1.0
  C  C39  1  0.07150000  0.36904000  0.91673000  1.0
  C  C40  1  0.81595000  0.68495000  0.02083000  1.0
  C  C41  1  0.18405000  0.31505000  0.97916000  1.0
  C  C42  1  0.42324000  0.65004000  0.12245000  1.0
  C  C43  1  0.57676000  0.34997000  0.87755000  1.0
  C  C44  1  0.65381000  0.52251000  0.26804000  1.0
  C  C45  1  0.34620000  0.47750000  0.73196000  1.0
  C  C46  1  0.40892000  0.91696000  0.82465000  1.0
  C  C47  1  0.59108000  0.08304000  0.17536000  1.0
  C  C48  1  0.30977000  0.96593000  0.74877000  1.0
  C  C49  1  0.69024000  0.03407000  0.25123000  1.0
  C  C50  1  0.13857000  0.96463000  0.75285000  1.0
  C  C51  1  0.86144000  0.03538000  0.24715000  1.0
  C  C52  1  0.07126000  0.91222000  0.82873000  1.0
  C  C53  1  0.92874000  0.08778000  0.17127000  1.0
  C  C54  1  0.17566000  0.85881000  0.89716000  1.0
  C  C55  1  0.82434000  0.14119000  0.10285000  1.0
  C  C56  1  0.59815000  0.92145000  0.83895000  1.0
  C  C57  1  0.40185000  0.07856000  0.16106000  1.0
  C  C58  1  0.37888000  0.01223000  0.65957000  1.0
  C  C59  1  0.62112000  0.98777000  0.34043000  1.0
  C  C60  1  0.16536000  0.54475000  0.41758000  1.0
  C  C61  1  0.83464000  0.45525000  0.58243000  1.0
  C  C62  1  0.03527000  0.45957000  0.45008000  1.0
  C  C63  1  0.96473000  0.54044000  0.54992000  1.0
  N  N64  1  0.65831000  0.68678000  0.03717000  1.0
  N  N65  1  0.34169000  0.31321000  0.96282000  1.0
  N  N66  1  0.33976000  0.86185000  0.89445000  1.0
  N  N67  1  0.66024000  0.13815000  0.10555000  1.0
  O  O68  1  0.34387000  0.69825000  0.04955000  1.0
  O  O69  1  0.65613000  0.30175000  0.95045000  1.0
  O  O70  1  0.35818000  0.61345000  0.19497000  1.0
  O  O71  1  0.64182000  0.38656000  0.80503000  1.0
  O  O72  1  0.65395000  0.60320000  0.36865000  1.0
  O  O73  1  0.34606000  0.39681000  0.63135000  1.0
  O  O74  1  0.62416000  0.39843000  0.23787000  1.0
  O  O75  1  0.37584000  0.60157000  0.76213000  1.0
  O  O76  1  0.66107000  0.85369000  0.89877000  1.0
  O  O77  1  0.33893000  0.14631000  0.10123000  1.0
  O  O78  1  0.68664000  0.99045000  0.79785000  1.0
  O  O79  1  0.31336000  0.00955000  0.20216000  1.0
  O  O80  1  0.40280000  0.13440000  0.67819000  1.0
  O  O81  1  0.59719000  0.86560000  0.32181000  1.0
  O  O82  1  0.40009000  0.92504000  0.57054000  1.0
  O  O83  1  0.59991000  0.07496000  0.42946000  1.0
  O  O84  1  0.53779000  0.68138000  0.60779000  1.0
  O  O85  1  0.46221000  0.31861000  0.39220000  1.0
  O  O86  1  0.73920000  0.88058000  0.56427000  1.0
  O  O87  1  0.26080000  0.11942000  0.43573000  1.0
  O  O88  1  0.23637000  0.84707000  0.32124000  1.0
  O  O89  1  0.76363000  0.15293000  0.67876000  1.0
  O  O90  1  0.15531000  0.66363000  0.43149000  1.0
  O  O91  1  0.84469000  0.33637000  0.56852000  1.0
  O  O92  1  0.28604000  0.49923000  0.37653000  1.0
  O  O93  1  0.71396000  0.50076000  0.62347000  1.0
