# generated using pymatgen
data_ZnH33C45N2O10F9
_symmetry_space_group_name_H-M   'P 1'
_cell_length_a   16.55370000
_cell_length_b   16.67000000
_cell_length_c   27.67690000
_cell_angle_alpha   88.05640000
_cell_angle_beta   89.85100000
_cell_angle_gamma   93.98950000
_symmetry_Int_Tables_number   1
_chemical_formula_structural   ZnH33C45N2O10F9
_chemical_formula_sum   'Zn2 H66 C90 N4 O20 F18'
_cell_volume   7614.46114438
_cell_formula_units_Z   2
loop_
 _symmetry_equiv_pos_site_id
 _symmetry_equiv_pos_as_xyz
  1  'x, y, z'
loop_
 _atom_site_type_symbol
 _atom_site_label
 _atom_site_symmetry_multiplicity
 _atom_site_fract_x
 _atom_site_fract_y
 _atom_site_fract_z
 _atom_site_occupancy
  Zn  Zn0  1  0.50127000  0.59275000  0.48728000  1.0
  Zn  Zn1  1  0.50625000  0.40532000  0.49753000  1.0
  H  H2  1  0.65583000  0.40939000  0.25910000  1.0
  H  H3  1  0.36960000  0.60280000  0.71850000  1.0
  H  H4  1  0.75431000  0.42962000  0.48361000  1.0
  H  H5  1  0.27384000  0.59123000  0.55289000  1.0
  H  H6  1  0.99901000  0.38465000  0.55158000  1.0
  H  H7  1  0.00178000  0.55029000  0.59800000  1.0
  H  H8  1  0.61635000  0.13250000  0.55178000  1.0
  H  H9  1  0.44818000  0.86839000  0.41145000  1.0
  H  H10  1  0.50411000  0.87609000  0.56383000  1.0
  H  H11  1  0.40660000  0.11861000  0.45844000  1.0
  H  H12  1  0.91051000  0.60917000  0.69330000  1.0
  H  H13  1  0.89315000  0.50962000  0.67200000  1.0
  H  H14  1  0.76045000  0.62640000  0.68815000  1.0
  H  H15  1  0.74384000  0.52568000  0.67067000  1.0
  H  H16  1  0.80138000  0.47667000  0.75014000  1.0
  H  H17  1  0.71878000  0.53708000  0.75970000  1.0
  H  H18  1  0.81946000  0.57801000  0.76759000  1.0
  H  H19  1  0.04583000  0.21792000  0.53547000  1.0
  H  H20  1  0.09118000  0.27369000  0.58349000  1.0
  H  H21  1  0.18636000  0.19880000  0.50314000  1.0
  H  H22  1  0.22854000  0.24481000  0.55471000  1.0
  H  H23  1  0.15326000  0.13605000  0.60846000  1.0
  H  H24  1  0.22005000  0.09464000  0.56741000  1.0
  H  H25  1  0.11455000  0.08955000  0.55574000  1.0
  H  H26  1  0.30894000  0.29299000  0.40983000  1.0
  H  H27  1  0.32217000  0.19116000  0.42696000  1.0
  H  H28  1  0.43744000  0.29920000  0.36132000  1.0
  H  H29  1  0.44831000  0.19621000  0.37484000  1.0
  H  H30  1  0.31481000  0.15963000  0.33333333  1.0
  H  H31  1  0.38358000  0.21495000  0.29317000  1.0
  H  H32  1  0.30366000  0.26328000  0.31997000  1.0
  H  H33  1  0.52265000  0.69868000  0.64201000  1.0
  H  H34  1  0.48587000  0.79257000  0.62348000  1.0
  H  H35  1  0.65999000  0.74423000  0.60899000  1.0
  H  H36  1  0.62679000  0.84070000  0.59524000  1.0
  H  H37  1  0.59577000  0.85814000  0.68408000  1.0
  H  H38  1  0.69868000  0.83890000  0.67507000  1.0
  H  H39  1  0.62897000  0.76086000  0.69776000  1.0
  H  H40  1  0.46155000  0.68701000  0.34115000  1.0
  H  H41  1  0.47209000  0.79081000  0.35482000  1.0
  H  H42  1  0.32094000  0.67667000  0.37522000  1.0
  H  H43  1  0.32770000  0.78101000  0.38544000  1.0
  H  H44  1  0.35034000  0.80977000  0.29499000  1.0
  H  H45  1  0.25653000  0.75464000  0.30711000  1.0
  H  H46  1  0.34001000  0.70453000  0.28571000  1.0
  H  H47  1  0.74594000  0.32132000  0.54867000  1.0
  H  H48  1  0.71746000  0.21725000  0.54287000  1.0
  H  H49  1  0.68525000  0.31541000  0.63203000  1.0
  H  H50  1  0.66752000  0.20998000  0.62895000  1.0
  H  H51  1  0.81903000  0.19760000  0.61663000  1.0
  H  H52  1  0.79941000  0.24541000  0.67132000  1.0
  H  H53  1  0.83534000  0.30368000  0.61983000  1.0
  H  H54  1  0.75174000  0.45796000  0.99460000  1.0
  H  H55  1  0.79761000  0.50600000  0.04563000  1.0
  H  H56  1  0.82156000  0.56549000  0.94010000  1.0
  H  H57  1  0.86842000  0.60967000  0.99102000  1.0
  H  H58  1  0.93875000  0.48094000  0.00891000  1.0
  H  H59  1  0.96325000  0.52131000  0.95016000  1.0
  H  H60  1  0.89175000  0.43741000  0.95750000  1.0
  H  H61  1  0.21122000  0.33008000  0.99706000  1.0
  H  H62  1  0.23874000  0.33143000  0.93487000  1.0
  H  H63  1  0.12245000  0.44247000  0.98183000  1.0
  H  H64  1  0.14829000  0.44608000  0.91962000  1.0
  H  H65  1  0.08896000  0.30276000  0.91219000  1.0
  H  H66  1  0.01569000  0.36622000  0.93315000  1.0
  H  H67  1  0.06157000  0.29964000  0.97440000  1.0
  C  C68  1  0.65135000  0.53357000  0.51126000  1.0
  C  C69  1  0.35198000  0.49857000  0.49303000  1.0
  C  C70  1  0.48298000  0.48317000  0.58509000  1.0
  C  C71  1  0.52727000  0.47997000  0.40178000  1.0
  C  C72  1  0.52515000  0.58449000  0.80967000  1.0
  C  C73  1  0.48016000  0.40401000  0.17387000  1.0
  C  C74  1  0.39935000  0.48960000  0.81405000  1.0
  C  C75  1  0.60146000  0.50435000  0.16903000  1.0
  C  C76  1  0.41438000  0.56345000  0.70585000  1.0
  C  C77  1  0.60336000  0.43445000  0.27499000  1.0
  C  C78  1  0.42046000  0.54780000  0.65712000  1.0
  C  C79  1  0.59852000  0.44311000  0.32458000  1.0
  C  C80  1  0.52607000  0.46046000  0.67202000  1.0
  C  C81  1  0.47207000  0.50154000  0.31738000  1.0
  C  C82  1  0.52143000  0.47505000  0.72114000  1.0
  C  C83  1  0.47512000  0.49402000  0.26744000  1.0
  C  C84  1  0.46571000  0.52645000  0.73804000  1.0
  C  C85  1  0.54050000  0.45999000  0.24613000  1.0
  C  C86  1  0.47375000  0.52648000  0.89042000  1.0
  C  C87  1  0.52386000  0.46920000  0.09326000  1.0
  C  C88  1  0.52894000  0.57926000  0.86289000  1.0
  C  C89  1  0.47081000  0.41477000  0.12103000  1.0
  C  C90  1  0.58550000  0.62677000  0.88820000  1.0
  C  C91  1  0.41216000  0.36936000  0.09595000  1.0
  C  C92  1  0.40503000  0.48940000  0.86726000  1.0
  C  C93  1  0.59403000  0.50493000  0.11586000  1.0
  C  C94  1  0.47541000  0.49622000  0.63863000  1.0
  C  C95  1  0.53363000  0.47625000  0.34729000  1.0
  C  C96  1  0.56955000  0.53239000  0.01483000  1.0
  C  C97  1  0.42460000  0.46525000  0.96886000  1.0
  C  C98  1  0.44141000  0.44579000  0.01949000  1.0
  C  C99  1  0.55233000  0.55296000  0.96465000  1.0
  C  C100  1  0.50989000  0.48508000  0.04303000  1.0
  C  C101  1  0.48445000  0.51318000  0.94110000  1.0
  C  C102  1  0.64672000  0.54835000  0.03531000  1.0
  C  C103  1  0.34843000  0.44607000  0.94714000  1.0
  C  C104  1  0.65503000  0.54023000  0.08606000  1.0
  C  C105  1  0.34270000  0.45447000  0.89619000  1.0
  C  C106  1  0.59437000  0.61597000  0.93839000  1.0
  C  C107  1  0.40073000  0.38249000  0.04616000  1.0
  C  C108  1  0.73579000  0.52795000  0.53003000  1.0
  C  C109  1  0.26839000  0.48168000  0.51346000  1.0
  C  C110  1  0.78000000  0.46655000  0.51219000  1.0
  C  C111  1  0.23798000  0.53589000  0.54540000  1.0
  C  C112  1  0.85465000  0.45262000  0.53104000  1.0
  C  C113  1  0.16349000  0.51836000  0.56716000  1.0
  C  C114  1  0.89192000  0.49754000  0.56832000  1.0
  C  C115  1  0.11267000  0.44937000  0.55770000  1.0
  C  C116  1  0.84514000  0.55778000  0.58729000  1.0
  C  C117  1  0.14604000  0.39271000  0.52727000  1.0
  C  C118  1  0.76973000  0.57290000  0.56735000  1.0
  C  C119  1  0.22166000  0.41024000  0.50557000  1.0
  C  C120  1  0.97686000  0.49604000  0.58103000  1.0
  C  C121  1  0.02628000  0.43950000  0.56645000  1.0
  C  C122  1  0.45644000  0.23639000  0.47683000  1.0
  C  C123  1  0.50148000  0.76008000  0.53093000  1.0
  C  C124  1  0.45359000  0.15252000  0.47771000  1.0
  C  C125  1  0.49524000  0.84337000  0.53092000  1.0
  C  C126  1  0.51154000  0.11453000  0.50546000  1.0
  C  C127  1  0.47714000  0.88285000  0.48721000  1.0
  C  C128  1  0.57134000  0.16102000  0.52999000  1.0
  C  C129  1  0.46324000  0.83870000  0.44539000  1.0
  C  C130  1  0.57055000  0.24478000  0.52585000  1.0
  C  C131  1  0.47216000  0.75605000  0.44891000  1.0
  C  C132  1  0.51133000  0.02737000  0.51029000  1.0
  C  C133  1  0.47333000  0.96976000  0.48329000  1.0
  C  C134  1  0.86944000  0.56996000  0.67183000  1.0
  C  C135  1  0.78362000  0.56626000  0.69219000  1.0
  C  C136  1  0.78071000  0.53776000  0.74533000  1.0
  C  C137  1  0.09991000  0.25535000  0.54596000  1.0
  C  C138  1  0.17539000  0.20858000  0.54166000  1.0
  C  C139  1  0.16527000  0.12792000  0.56988000  1.0
  C  C140  1  0.35432000  0.24865000  0.41505000  1.0
  C  C141  1  0.40327000  0.24115000  0.36898000  1.0
  C  C142  1  0.34831000  0.21833000  0.32659000  1.0
  C  C143  1  0.53218000  0.74995000  0.61615000  1.0
  C  C144  1  0.61796000  0.78821000  0.62039000  1.0
  C  C145  1  0.63618000  0.81286000  0.67218000  1.0
  C  C146  1  0.44006000  0.73242000  0.36498000  1.0
  C  C147  1  0.34854000  0.73503000  0.36157000  1.0
  C  C148  1  0.32249000  0.75201000  0.30948000  1.0
  C  C149  1  0.70292000  0.27193000  0.56138000  1.0
  C  C150  1  0.70779000  0.26170000  0.61604000  1.0
  C  C151  1  0.79514000  0.25138000  0.63180000  1.0
  C  C152  1  0.77689000  0.51588000  0.00830000  1.0
  C  C153  1  0.84544000  0.55200000  0.97633000  1.0
  C  C154  1  0.91347000  0.49477000  0.97310000  1.0
  C  C155  1  0.21848000  0.36837000  0.96401000  1.0
  C  C156  1  0.13965000  0.40566000  0.95168000  1.0
  C  C157  1  0.07283000  0.33987000  0.94239000  1.0
  N  N158  1  0.46132000  0.53683000  0.78908000  1.0
  N  N159  1  0.54182000  0.45492000  0.19459000  1.0
  N  N160  1  0.51308000  0.28135000  0.50073000  1.0
  N  N161  1  0.49127000  0.71781000  0.49048000  1.0
  O  O162  1  0.62321000  0.60160000  0.50355000  1.0
  O  O163  1  0.39183000  0.43743000  0.48725000  1.0
  O  O164  1  0.61579000  0.46493000  0.50458000  1.0
  O  O165  1  0.37704000  0.57180000  0.48523000  1.0
  O  O166  1  0.48654000  0.54702000  0.55925000  1.0
  O  O167  1  0.52643000  0.41205000  0.42351000  1.0
  O  O168  1  0.48577000  0.41138000  0.57199000  1.0
  O  O169  1  0.52234000  0.54888000  0.41875000  1.0
  O  O170  1  0.57443000  0.62405000  0.78366000  1.0
  O  O171  1  0.43718000  0.35711000  0.19951000  1.0
  O  O172  1  0.65329000  0.54510000  0.19063000  1.0
  O  O173  1  0.34782000  0.44983000  0.79163000  1.0
  O  O174  1  0.87563000  0.60568000  0.62324000  1.0
  O  O175  1  0.10033000  0.32542000  0.51352000  1.0
  O  O176  1  0.40380000  0.28098000  0.45366000  1.0
  O  O177  1  0.51708000  0.71432000  0.56989000  1.0
  O  O178  1  0.46532000  0.70559000  0.41229000  1.0
  O  O179  1  0.62516000  0.29703000  0.54539000  1.0
  O  O180  1  0.71238000  0.57140000  0.00731000  1.0
  O  O181  1  0.28296000  0.42929000  0.97575000  1.0
  F  F182  1  0.58261000  0.41165000  0.65741000  1.0
  F  F183  1  0.40635000  0.53317000  0.33650000  1.0
  F  F184  1  0.24681000  0.35623000  0.47420000  1.0
  F  F185  1  0.72791000  0.63114000  0.58709000  1.0
  F  F186  1  0.13620000  0.57334000  0.59793000  1.0
  F  F187  1  0.89422000  0.39250000  0.51058000  1.0
  F  F188  1  0.42933000  0.99528000  0.44461000  1.0
  F  F189  1  0.55977000  0.00089000  0.54669000  1.0
  F  F190  1  0.57129000  0.43869000  0.75257000  1.0
  F  F191  1  0.41420000  0.52039000  0.23974000  1.0
  F  F192  1  0.63285000  0.68601000  0.86655000  1.0
  F  F193  1  0.36531000  0.30942000  0.11729000  1.0
  F  F194  1  0.66058000  0.41878000  0.35226000  1.0
  F  F195  1  0.36925000  0.58404000  0.62649000  1.0
  F  F196  1  0.72682000  0.56711000  0.10430000  1.0
  F  F197  1  0.27109000  0.43155000  0.87597000  1.0
  F  F198  1  0.64203000  0.67261000  0.96005000  1.0
  F  F199  1  0.35134000  0.32642000  0.02486000  1.0
