# generated using pymatgen
data_KH8C4SNO3
_symmetry_space_group_name_H-M   'P 1'
_cell_length_a   6.10670000
_cell_length_b   6.73238000
_cell_length_c   19.98520000
_cell_angle_alpha   90.00010000
_cell_angle_beta   90.00050000
_cell_angle_gamma   107.95700000
_symmetry_Int_Tables_number   1
_chemical_formula_structural   KH8C4SNO3
_chemical_formula_sum   'K4 H32 C16 S4 N4 O12'
_cell_volume   781.62024194
_cell_formula_units_Z   4
loop_
 _symmetry_equiv_pos_site_id
 _symmetry_equiv_pos_as_xyz
  1  'x, y, z'
loop_
 _atom_site_type_symbol
 _atom_site_label
 _atom_site_symmetry_multiplicity
 _atom_site_fract_x
 _atom_site_fract_y
 _atom_site_fract_z
 _atom_site_occupancy
  K  K0  1  0.62482000  0.07972000  0.26926000  1.0
  K  K1  1  0.87519000  0.42028000  0.76926000  1.0
  K  K2  1  0.37519000  0.92028000  0.73074000  1.0
  K  K3  1  0.12482000  0.57972000  0.23074000  1.0
  H  H4  1  0.06341000  0.41166000  0.38952000  1.0
  H  H5  1  0.43659000  0.08835000  0.88952000  1.0
  H  H6  1  0.93659000  0.58835000  0.61048000  1.0
  H  H7  1  0.56340000  0.91165000  0.11048000  1.0
  H  H8  1  0.29992000  0.32759000  0.36122000  1.0
  H  H9  1  0.20007000  0.17242000  0.86122000  1.0
  H  H10  1  0.70008000  0.67242000  0.63878000  1.0
  H  H11  1  0.79991000  0.82758000  0.13877000  1.0
  H  H12  1  0.19782000  0.27416000  0.44453000  1.0
  H  H13  1  0.30218000  0.22584000  0.94453000  1.0
  H  H14  1  0.80218000  0.72584000  0.55548000  1.0
  H  H15  1  0.69781000  0.77416000  0.05547000  1.0
  H  H16  1  0.17182000  0.74345000  0.46869000  1.0
  H  H17  1  0.32818000  0.75655000  0.96869000  1.0
  H  H18  1  0.82818000  0.25655000  0.53131000  1.0
  H  H19  1  0.67182000  0.24345000  0.03131000  1.0
  H  H20  1  0.44878000  0.80069000  0.50655000  1.0
  H  H21  1  0.05123000  0.69932000  0.00655000  1.0
  H  H22  1  0.55123000  0.19931000  0.49345000  1.0
  H  H23  1  0.94878000  0.30069000  0.99345000  1.0
  H  H24  1  0.23511000  0.55489000  0.52226000  1.0
  H  H25  1  0.26489000  0.94511000  0.02226000  1.0
  H  H26  1  0.76490000  0.44511000  0.47774000  1.0
  H  H27  1  0.73511000  0.05489000  0.97774000  1.0
  H  H28  1  0.13658000  0.00816000  0.28429000  1.0
  H  H29  1  0.36342000  0.49184000  0.78429000  1.0
  H  H30  1  0.86343000  0.99184000  0.71571000  1.0
  H  H31  1  0.63658000  0.50816000  0.21571000  1.0
  H  H32  1  0.07592000  0.90737000  0.35529000  1.0
  H  H33  1  0.42409000  0.59263000  0.85529000  1.0
  H  H34  1  0.92409000  0.09263000  0.64471000  1.0
  H  H35  1  0.57592000  0.40737000  0.14471000  1.0
  C  C36  1  0.58710000  0.68020000  0.39724000  1.0
  C  C37  1  0.91290000  0.81980000  0.89724000  1.0
  C  C38  1  0.41290000  0.31981000  0.60276000  1.0
  C  C39  1  0.08709000  0.18020000  0.10276000  1.0
  C  C40  1  0.64243000  0.58400000  0.33294000  1.0
  C  C41  1  0.85758000  0.91600000  0.83295000  1.0
  C  C42  1  0.35758000  0.41601000  0.66706000  1.0
  C  C43  1  0.14240000  0.08401000  0.16706000  1.0
  C  C44  1  0.30664000  0.67658000  0.48479000  1.0
  C  C45  1  0.19337000  0.82342000  0.98479000  1.0
  C  C46  1  0.69338000  0.32342000  0.51522000  1.0
  C  C47  1  0.80663000  0.17658000  0.01521000  1.0
  C  C48  1  0.22815000  0.38905000  0.40368000  1.0
  C  C49  1  0.27185000  0.11095000  0.90368000  1.0
  C  C50  1  0.77186000  0.61095000  0.59632000  1.0
  C  C51  1  0.72814000  0.88904000  0.09631000  1.0
  S  S52  1  0.78423000  0.90141000  0.42336000  1.0
  S  S53  1  0.71578000  0.59859000  0.92336000  1.0
  S  S54  1  0.21578000  0.09860000  0.57664000  1.0
  S  S55  1  0.28422000  0.40140000  0.07663000  1.0
  N  N56  1  0.38774000  0.58601000  0.42725000  1.0
  N  N57  1  0.11226000  0.91399000  0.92725000  1.0
  N  N58  1  0.61226000  0.41399000  0.57276000  1.0
  N  N59  1  0.88773000  0.08600000  0.07275000  1.0
  O  O60  1  0.75606000  0.45717000  0.33680000  1.0
  O  O61  1  0.74393000  0.04281000  0.83680000  1.0
  O  O62  1  0.24393000  0.54281000  0.66320000  1.0
  O  O63  1  0.25602000  0.95717000  0.16320000  1.0
  O  O64  1  0.57133000  0.64861000  0.27942000  1.0
  O  O65  1  0.92870000  0.85139000  0.77942000  1.0
  O  O66  1  0.42868000  0.35139000  0.72058000  1.0
  O  O67  1  0.07131000  0.14862000  0.22058000  1.0
  O  O68  1  0.18777000  0.92284000  0.31828000  1.0
  O  O69  1  0.31223000  0.57715000  0.81828000  1.0
  O  O70  1  0.81224000  0.07716000  0.68172000  1.0
  O  O71  1  0.68777000  0.42284000  0.18172000  1.0
