# generated using pymatgen
data_Zn4H10C26S4O13F2
_symmetry_space_group_name_H-M   'P 1'
_cell_length_a   19.67850000
_cell_length_b   19.68910000
_cell_length_c   33.42620000
_cell_angle_alpha   79.05460000
_cell_angle_beta   79.08750000
_cell_angle_gamma   63.85490000
_symmetry_Int_Tables_number   1
_chemical_formula_structural   Zn4H10C26S4O13F2
_chemical_formula_sum   'Zn16 H40 C104 S16 O52 F8'
_cell_volume   11332.12151442
_cell_formula_units_Z   4
loop_
 _symmetry_equiv_pos_site_id
 _symmetry_equiv_pos_as_xyz
  1  'x, y, z'
loop_
 _atom_site_type_symbol
 _atom_site_label
 _atom_site_symmetry_multiplicity
 _atom_site_fract_x
 _atom_site_fract_y
 _atom_site_fract_z
 _atom_site_occupancy
  Zn  Zn0  1  0.60044000  0.94360000  0.52209000  1.0
  Zn  Zn1  1  0.51641000  0.01573000  0.44031000  1.0
  Zn  Zn2  1  0.43929000  0.94094000  0.51773000  1.0
  Zn  Zn3  1  0.44474000  0.09899000  0.52084000  1.0
  Zn  Zn4  1  0.64990000  0.30602000  0.72826000  1.0
  Zn  Zn5  1  0.81049000  0.31100000  0.73322000  1.0
  Zn  Zn6  1  0.73335000  0.23177000  0.80970000  1.0
  Zn  Zn7  1  0.80598000  0.15251000  0.72842000  1.0
  Zn  Zn8  1  0.23317000  0.73322000  0.31072000  1.0
  Zn  Zn9  1  0.30409000  0.65122000  0.22855000  1.0
  Zn  Zn10  1  0.15063000  0.80723000  0.22862000  1.0
  Zn  Zn11  1  0.31071000  0.80873000  0.23256000  1.0
  Zn  Zn12  1  0.93921000  0.43970000  0.01666000  1.0
  Zn  Zn13  1  0.94463000  0.59916000  0.02191000  1.0
  Zn  Zn14  1  0.09883000  0.44366000  0.02121000  1.0
  Zn  Zn15  1  0.01732000  0.51771000  0.94000000  1.0
  H  H16  1  0.54786000  0.25125000  0.64965000  1.0
  H  H17  1  0.70233000  0.99864000  0.60047000  1.0
  H  H18  1  0.29961000  0.79949000  0.40126000  1.0
  H  H19  1  0.45042000  0.95050000  0.34877000  1.0
  H  H20  1  0.76076000  0.53638000  0.65921000  1.0
  H  H21  1  0.29730000  0.52094000  0.39862000  1.0
  H  H22  1  0.02120000  0.79703000  0.39877000  1.0
  H  H23  1  0.02920000  0.05108000  0.65214000  1.0
  H  H24  1  0.84857000  0.34874000  0.95046000  1.0
  H  H25  1  0.90137000  0.40121000  0.79961000  1.0
  H  H26  1  0.22847000  0.45296000  0.85148000  1.0
  H  H27  1  0.85837000  0.83742000  0.95993000  1.0
  H  H28  1  0.99864000  0.70227000  0.10036000  1.0
  H  H29  1  0.25128000  0.54776000  0.14968000  1.0
  H  H30  1  0.72046000  0.69933000  0.09785000  1.0
  H  H31  1  0.98910000  0.21360000  0.09083000  1.0
  H  H32  1  0.42444000  0.76867000  0.60091000  1.0
  H  H33  1  0.44905000  0.66933000  0.60310000  1.0
  H  H34  1  0.46423000  0.72404000  0.55601000  1.0
  H  H35  1  0.52308000  0.17880000  0.34648000  1.0
  H  H36  1  0.46328000  0.24289000  0.30905000  1.0
  H  H37  1  0.43578000  0.17618000  0.34407000  1.0
  H  H38  1  0.67633000  0.93563000  0.34396000  1.0
  H  H39  1  0.74297000  0.96345000  0.30909000  1.0
  H  H40  1  0.67865000  0.02294000  0.34654000  1.0
  H  H41  1  0.27808000  0.20173000  0.61011000  1.0
  H  H42  1  0.18008000  0.26795000  0.61369000  1.0
  H  H43  1  0.23327000  0.24146000  0.56522000  1.0
  H  H44  1  0.57123000  0.22699000  0.90337000  1.0
  H  H45  1  0.50711000  0.28676000  0.94074000  1.0
  H  H46  1  0.57396000  0.31411000  0.90579000  1.0
  H  H47  1  0.85172000  0.92799000  0.76022000  1.0
  H  H48  1  0.93024000  0.84227000  0.77610000  1.0
  H  H49  1  0.93890000  0.93062000  0.76276000  1.0
  H  H50  1  0.51703000  0.50826000  0.18475000  1.0
  H  H51  1  0.57000000  0.48196000  0.13620000  1.0
  H  H52  1  0.47201000  0.54826000  0.13991000  1.0
  H  H53  1  0.28571000  0.02624000  0.19401000  1.0
  H  H54  1  0.30121000  0.08063000  0.14685000  1.0
  H  H55  1  0.32549000  0.98131000  0.14921000  1.0
  C  C56  1  0.68424000  0.93853000  0.43847000  1.0
  C  C57  1  0.43081000  0.93096000  0.43099000  1.0
  C  C58  1  0.56170000  0.81570000  0.56160000  1.0
  C  C59  1  0.31554000  0.06158000  0.56144000  1.0
  C  C60  1  0.56907000  0.06929000  0.56911000  1.0
  C  C61  1  0.43825000  0.18404000  0.43832000  1.0
  C  C62  1  0.68897000  0.43452000  0.68852000  1.0
  C  C63  1  0.81920000  0.31886000  0.81910000  1.0
  C  C64  1  0.56541000  0.31129000  0.81130000  1.0
  C  C65  1  0.81141000  0.06555000  0.81138000  1.0
  C  C66  1  0.68120000  0.18075000  0.68096000  1.0
  C  C67  1  0.93469000  0.18823000  0.68868000  1.0
  C  C68  1  0.31127000  0.56581000  0.31179000  1.0
  C  C69  1  0.18076000  0.68098000  0.18100000  1.0
  C  C70  1  0.06596000  0.81126000  0.31202000  1.0
  C  C71  1  0.18853000  0.93458000  0.18853000  1.0
  C  C72  1  0.31919000  0.81904000  0.31903000  1.0
  C  C73  1  0.43419000  0.68828000  0.18846000  1.0
  C  C74  1  0.81561000  0.56206000  0.06144000  1.0
  C  C75  1  0.06917000  0.56904000  0.06905000  1.0
  C  C76  1  0.06074000  0.31556000  0.06128000  1.0
  C  C77  1  0.18421000  0.43871000  0.93823000  1.0
  C  C78  1  0.93087000  0.43103000  0.93088000  1.0
  C  C79  1  0.93834000  0.68489000  0.93894000  1.0
  C  C80  1  0.59633000  0.09914000  0.59786000  1.0
  C  C81  1  0.65380000  0.15066000  0.65237000  1.0
  C  C82  1  0.55415000  0.17048000  0.61251000  1.0
  C  C83  1  0.69592000  0.07927000  0.63776000  1.0
  C  C84  1  0.58204000  0.19566000  0.63900000  1.0
  C  C85  1  0.66811000  0.05416000  0.61121000  1.0
  C  C86  1  0.40159000  0.90146000  0.40303000  1.0
  C  C87  1  0.34846000  0.84852000  0.34701000  1.0
  C  C88  1  0.35865000  0.85838000  0.41675000  1.0
  C  C89  1  0.39141000  0.89158000  0.33333333  1.0
  C  C90  1  0.33274000  0.83264000  0.38955000  1.0
  C  C91  1  0.41731000  0.91734000  0.36050000  1.0
  C  C92  1  0.54467000  0.69637000  0.59870000  1.0
  C  C93  1  0.70394000  0.55387000  0.65112000  1.0
  C  C94  1  0.58556000  0.74100000  0.58627000  1.0
  C  C95  1  0.66372000  0.50929000  0.66355000  1.0
  C  C96  1  0.66126000  0.62208000  0.62746000  1.0
  C  C97  1  0.58904000  0.62840000  0.62229000  1.0
  C  C98  1  0.42466000  0.27278000  0.37031000  1.0
  C  C99  1  0.32637000  0.47588000  0.37889000  1.0
  C  C100  1  0.41412000  0.25817000  0.41302000  1.0
  C  C101  1  0.33650000  0.49079000  0.33653000  1.0
  C  C102  1  0.35823000  0.39673000  0.39156000  1.0
  C  C103  1  0.39218000  0.35252000  0.35856000  1.0
  C  C104  1  0.77285000  0.92459000  0.37040000  1.0
  C  C105  1  0.97606000  0.82609000  0.37905000  1.0
  C  C106  1  0.75832000  0.91416000  0.41313000  1.0
  C  C107  1  0.99089000  0.83625000  0.33669000  1.0
  C  C108  1  0.89690000  0.85802000  0.39168000  1.0
  C  C109  1  0.85263000  0.89201000  0.35867000  1.0
  C  C110  1  0.20017000  0.15665000  0.60253000  1.0
  C  C111  1  0.05017000  0.09501000  0.64750000  1.0
  C  C112  1  0.24118000  0.08730000  0.58644000  1.0
  C  C113  1  0.00932000  0.16370000  0.66359000  1.0
  C  C114  1  0.11982000  0.09168000  0.62524000  1.0
  C  C115  1  0.13080000  0.15808000  0.62469000  1.0
  C  C116  1  0.84693000  0.34703000  0.84849000  1.0
  C  C117  1  0.90295000  0.40298000  0.90156000  1.0
  C  C118  1  0.83307000  0.33333333  0.89148000  1.0
  C  C119  1  0.91674000  0.41671000  0.85857000  1.0
  C  C120  1  0.86031000  0.36049000  0.91734000  1.0
  C  C121  1  0.88954000  0.38953000  0.83273000  1.0
  C  C122  1  0.47712000  0.32549000  0.87946000  1.0
  C  C123  1  0.27374000  0.42393000  0.87112000  1.0
  C  C124  1  0.49142000  0.33603000  0.83673000  1.0
  C  C125  1  0.25915000  0.41363000  0.91350000  1.0
  C  C126  1  0.35285000  0.39211000  0.85835000  1.0
  C  C127  1  0.39734000  0.35805000  0.89126000  1.0
  C  C128  1  0.87573000  0.91917000  0.82169000  1.0
  C  C129  1  0.87466000  0.83041000  0.92752000  1.0
  C  C130  1  0.83657000  0.99053000  0.83576000  1.0
  C  C131  1  0.91342000  0.75943000  0.91377000  1.0
  C  C132  1  0.86057000  0.88901000  0.89431000  1.0
  C  C133  1  0.88894000  0.86166000  0.85569000  1.0
  C  C134  1  0.15072000  0.65371000  0.15233000  1.0
  C  C135  1  0.09916000  0.59632000  0.09775000  1.0
  C  C136  1  0.07932000  0.69586000  0.13767000  1.0
  C  C137  1  0.17055000  0.55418000  0.11242000  1.0
  C  C138  1  0.05419000  0.66805000  0.11110000  1.0
  C  C139  1  0.19571000  0.58199000  0.13896000  1.0
  C  C140  1  0.54996000  0.59321000  0.14748000  1.0
  C  C141  1  0.69969000  0.65525000  0.10252000  1.0
  C  C142  1  0.50876000  0.66251000  0.16359000  1.0
  C  C143  1  0.74078000  0.58661000  0.08641000  1.0
  C  C144  1  0.63013000  0.65834000  0.12481000  1.0
  C  C145  1  0.61933000  0.59187000  0.12534000  1.0
  C  C146  1  0.20538000  0.05393000  0.15126000  1.0
  C  C147  1  0.04589000  0.19625000  0.09890000  1.0
  C  C148  1  0.16462000  0.00919000  0.16374000  1.0
  C  C149  1  0.08600000  0.24092000  0.08638000  1.0
  C  C150  1  0.08873000  0.12809000  0.12256000  1.0
  C  C151  1  0.16094000  0.12188000  0.12767000  1.0
  C  C152  1  0.46645000  0.71531000  0.58927000  1.0
  C  C153  1  0.46374000  0.21480000  0.34074000  1.0
  C  C154  1  0.71485000  0.96368000  0.34076000  1.0
  C  C155  1  0.22388000  0.22054000  0.59774000  1.0
  C  C156  1  0.53519000  0.28632000  0.90906000  1.0
  C  C157  1  0.90062000  0.90383000  0.77790000  1.0
  C  C158  1  0.52629000  0.52929000  0.15224000  1.0
  C  C159  1  0.28360000  0.03482000  0.16074000  1.0
  S  S160  1  0.67549000  0.70069000  0.60299000  1.0
  S  S161  1  0.57416000  0.54987000  0.64668000  1.0
  S  S162  1  0.36599000  0.33982000  0.43793000  1.0
  S  S163  1  0.38461000  0.40901000  0.31193000  1.0
  S  S164  1  0.84004000  0.86591000  0.43804000  1.0
  S  S165  1  0.90911000  0.88442000  0.31205000  1.0
  S  S166  1  0.19591000  0.02590000  0.59818000  1.0
  S  S167  1  0.05497000  0.22443000  0.65173000  1.0
  S  S168  1  0.40954000  0.38439000  0.81193000  1.0
  S  S169  1  0.34115000  0.36537000  0.93797000  1.0
  S  S170  1  0.81671000  0.98703000  0.88906000  1.0
  S  S171  1  0.93294000  0.76348000  0.86058000  1.0
  S  S172  1  0.55394000  0.72400000  0.15190000  1.0
  S  S173  1  0.69531000  0.52567000  0.09824000  1.0
  S  S174  1  0.07465000  0.04937000  0.14704000  1.0
  S  S175  1  0.17565000  0.20048000  0.10319000  1.0
  O  O176  1  0.50131000  0.99929000  0.50033000  1.0
  O  O177  1  0.68515000  0.92233000  0.47742000  1.0
  O  O178  1  0.46873000  0.96940000  0.41354000  1.0
  O  O179  1  0.49535000  0.84430000  0.54989000  1.0
  O  O180  1  0.62502000  0.97389000  0.41955000  1.0
  O  O181  1  0.60935000  0.84604000  0.55391000  1.0
  O  O182  1  0.41563000  0.91565000  0.46934000  1.0
  O  O183  1  0.34247000  0.99459000  0.55051000  1.0
  O  O184  1  0.50379000  0.11172000  0.55762000  1.0
  O  O185  1  0.34731000  0.10778000  0.55254000  1.0
  O  O186  1  0.61416000  0.00348000  0.55863000  1.0
  O  O187  1  0.47409000  0.12473000  0.41959000  1.0
  O  O188  1  0.42124000  0.18508000  0.47724000  1.0
  O  O189  1  0.74945000  0.25150000  0.74953000  1.0
  O  O190  1  0.64207000  0.40344000  0.69638000  1.0
  O  O191  1  0.83690000  0.33600000  0.78096000  1.0
  O  O192  1  0.62467000  0.27535000  0.83008000  1.0
  O  O193  1  0.75527000  0.40745000  0.70007000  1.0
  O  O194  1  0.56443000  0.32774000  0.77231000  1.0
  O  O195  1  0.78078000  0.28053000  0.83441000  1.0
  O  O196  1  0.77513000  0.12356000  0.83129000  1.0
  O  O197  1  0.74652000  0.13839000  0.69240000  1.0
  O  O198  1  0.82767000  0.06713000  0.77240000  1.0
  O  O199  1  0.63620000  0.24665000  0.69134000  1.0
  O  O200  1  0.90706000  0.25473000  0.70015000  1.0
  O  O201  1  0.90424000  0.14095000  0.69683000  1.0
  O  O202  1  0.24946000  0.74960000  0.25053000  1.0
  O  O203  1  0.27601000  0.62402000  0.33131000  1.0
  O  O204  1  0.24676000  0.63573000  0.19140000  1.0
  O  O205  1  0.06592000  0.82760000  0.27308000  1.0
  O  O206  1  0.32713000  0.56573000  0.27280000  1.0
  O  O207  1  0.12422000  0.77573000  0.33158000  1.0
  O  O208  1  0.13867000  0.74617000  0.19252000  1.0
  O  O209  1  0.14055000  0.90460000  0.19655000  1.0
  O  O210  1  0.33445000  0.83447000  0.28067000  1.0
  O  O211  1  0.25502000  0.90550000  0.20010000  1.0
  O  O212  1  0.28125000  0.78068000  0.33645000  1.0
  O  O213  1  0.40205000  0.64232000  0.19705000  1.0
  O  O214  1  0.40737000  0.75512000  0.19954000  1.0
  O  O215  1  0.99920000  0.50035000  0.00023000  1.0
  O  O216  1  0.84288000  0.49570000  0.04985000  1.0
  O  O217  1  0.00313000  0.61411000  0.05873000  1.0
  O  O218  1  0.10798000  0.34624000  0.05307000  1.0
  O  O219  1  0.84648000  0.60897000  0.05362000  1.0
  O  O220  1  0.99427000  0.34303000  0.04991000  1.0
  O  O221  1  0.11150000  0.50393000  0.05745000  1.0
  O  O222  1  0.18421000  0.42194000  0.97718000  1.0
  O  O223  1  0.96924000  0.46939000  0.91552000  1.0
  O  O224  1  0.12588000  0.47494000  0.91879000  1.0
  O  O225  1  0.91342000  0.41374000  0.96904000  1.0
  O  O226  1  0.92221000  0.68498000  0.97783000  1.0
  O  O227  1  0.97412000  0.62648000  0.91945000  1.0
  F  F228  1  0.48420000  0.21787000  0.60131000  1.0
  F  F229  1  0.76581000  0.03178000  0.64903000  1.0
  F  F230  1  0.34075000  0.84011000  0.45729000  1.0
  F  F231  1  0.40939000  0.90989000  0.29276000  1.0
  F  F232  1  0.79231000  0.29302000  0.90955000  1.0
  F  F233  1  0.95734000  0.45719000  0.84050000  1.0
  F  F234  1  0.03190000  0.76568000  0.14889000  1.0
  F  F235  1  0.21801000  0.48436000  0.10120000  1.0
