# generated using pymatgen
data_LaH22C31N2O7F3
_symmetry_space_group_name_H-M   'P 1'
_cell_length_a   9.70225000
_cell_length_b   12.69110000
_cell_length_c   13.31500000
_cell_angle_alpha   113.30400000
_cell_angle_beta   104.83100000
_cell_angle_gamma   96.87290000
_symmetry_Int_Tables_number   1
_chemical_formula_structural   LaH22C31N2O7F3
_chemical_formula_sum   'La2 H44 C62 N4 O14 F6'
_cell_volume   1409.80018396
_cell_formula_units_Z   2
loop_
 _symmetry_equiv_pos_site_id
 _symmetry_equiv_pos_as_xyz
  1  'x, y, z'
loop_
 _atom_site_type_symbol
 _atom_site_label
 _atom_site_symmetry_multiplicity
 _atom_site_fract_x
 _atom_site_fract_y
 _atom_site_fract_z
 _atom_site_occupancy
  La  La0  1  0.26897000  0.46239000  0.47521000  1.0
  La  La1  1  0.73102000  0.53761000  0.52479000  1.0
  H  H2  1  0.61428000  0.14251000  0.69666000  1.0
  H  H3  1  0.38572000  0.85749000  0.30335000  1.0
  H  H4  1  0.34239000  0.11853000  0.61888000  1.0
  H  H5  1  0.65760000  0.88147000  0.38112000  1.0
  H  H6  1  0.17202000  0.91737000  0.51956000  1.0
  H  H7  1  0.82798000  0.08263000  0.48045000  1.0
  H  H8  1  0.27442000  0.74122000  0.49671000  1.0
  H  H9  1  0.72558000  0.25878000  0.50330000  1.0
  H  H10  1  0.81718000  0.53955000  0.09455000  1.0
  H  H11  1  0.18282000  0.46045000  0.90545000  1.0
  H  H12  1  0.63910000  0.36288000  0.06738000  1.0
  H  H13  1  0.36090000  0.63712000  0.93263000  1.0
  H  H14  1  0.42798000  0.25080000  0.88080000  1.0
  H  H15  1  0.57202000  0.74920000  0.11920000  1.0
  H  H16  1  0.39745000  0.31941000  0.72593000  1.0
  H  H17  1  0.60255000  0.68059000  0.27407000  1.0
  H  H18  1  0.88552000  0.90173000  0.28706000  1.0
  H  H19  1  0.11449000  0.09827000  0.71294000  1.0
  H  H20  1  0.02985000  0.84869000  0.14970000  1.0
  H  H21  1  0.97015000  0.15131000  0.85031000  1.0
  H  H22  1  0.15703000  0.68499000  0.13259000  1.0
  H  H23  1  0.84297000  0.31501000  0.86742000  1.0
  H  H24  1  0.13838000  0.57758000  0.25178000  1.0
  H  H25  1  0.86162000  0.42242000  0.74822000  1.0
  H  H26  1  0.04143000  0.37141000  0.17704000  1.0
  H  H27  1  0.95857000  0.62859000  0.82296000  1.0
  H  H28  1  0.84320000  0.21450000  0.00169000  1.0
  H  H29  1  0.15680000  0.78550000  0.99831000  1.0
  H  H30  1  0.86698000  0.99561000  0.18183000  1.0
  H  H31  1  0.13302000  0.00439000  0.81816000  1.0
  H  H32  1  0.06505000  0.16230000  0.34922000  1.0
  H  H33  1  0.93495000  0.83770000  0.65078000  1.0
  H  H34  1  0.38140000  0.95173000  0.78370000  1.0
  H  H35  1  0.61860000  0.04827000  0.21630000  1.0
  H  H36  1  0.59861000  0.11388000  0.93070000  1.0
  H  H37  1  0.40139000  0.88612000  0.06930000  1.0
  H  H38  1  0.78934000  0.84718000  0.99837000  1.0
  H  H39  1  0.21066000  0.15282000  0.00163000  1.0
  H  H40  1  0.56182000  0.69819000  0.85158000  1.0
  H  H41  1  0.43818000  0.30180000  0.14842000  1.0
  H  H42  1  0.30790000  0.70473000  0.70536000  1.0
  H  H43  1  0.69210000  0.29527000  0.29464000  1.0
  H  H44  1  0.13549000  0.63249000  0.65205000  1.0
  H  H45  1  0.86451000  0.36751000  0.34795000  1.0
  C  C46  1  0.55712000  0.73305000  0.56062000  1.0
  C  C47  1  0.44290000  0.26696000  0.43938000  1.0
  C  C48  1  0.49909000  0.84067000  0.57896000  1.0
  C  C49  1  0.50090000  0.15933000  0.42104000  1.0
  C  C50  1  0.59113000  0.95557000  0.63606000  1.0
  C  C51  1  0.40887000  0.04443000  0.36394000  1.0
  C  C52  1  0.53730000  0.05556000  0.65224000  1.0
  C  C53  1  0.46270000  0.94445000  0.34777000  1.0
  C  C54  1  0.38591000  0.04136000  0.60950000  1.0
  C  C55  1  0.61409000  0.95864000  0.39050000  1.0
  C  C56  1  0.29032000  0.92833000  0.55322000  1.0
  C  C57  1  0.70968000  0.07167000  0.44678000  1.0
  C  C58  1  0.34707000  0.82967000  0.53894000  1.0
  C  C59  1  0.65293000  0.17033000  0.46106000  1.0
  C  C60  1  0.56767000  0.49580000  0.72063000  1.0
  C  C61  1  0.43235000  0.50421000  0.27937000  1.0
  C  C62  1  0.59127000  0.46139000  0.81913000  1.0
  C  C63  1  0.40873000  0.53861000  0.18087000  1.0
  C  C64  1  0.70738000  0.52106000  0.92439000  1.0
  C  C65  1  0.29262000  0.47894000  0.07561000  1.0
  C  C66  1  0.72628000  0.48760000  0.01361000  1.0
  C  C67  1  0.27372000  0.51239000  0.98638000  1.0
  C  C68  1  0.62588000  0.38896000  0.99732000  1.0
  C  C69  1  0.37412000  0.61104000  0.00268000  1.0
  C  C70  1  0.50808000  0.32682000  0.89331000  1.0
  C  C71  1  0.49192000  0.67318000  0.10669000  1.0
  C  C72  1  0.49065000  0.36393000  0.80633000  1.0
  C  C73  1  0.50935000  0.63607000  0.19367000  1.0
  C  C74  1  0.99016000  0.60478000  0.40014000  1.0
  C  C75  1  0.00982000  0.39522000  0.59987000  1.0
  C  C76  1  0.99913000  0.67455000  0.33215000  1.0
  C  C77  1  0.00088000  0.32544000  0.66785000  1.0
  C  C78  1  0.93118000  0.76760000  0.34012000  1.0
  C  C79  1  0.06882000  0.23240000  0.65988000  1.0
  C  C80  1  0.94006000  0.82958000  0.27515000  1.0
  C  C81  1  0.05994000  0.17042000  0.72485000  1.0
  C  C82  1  0.02094000  0.79960000  0.19981000  1.0
  C  C83  1  0.97906000  0.20040000  0.80019000  1.0
  C  C84  1  0.09278000  0.70882000  0.19088000  1.0
  C  C85  1  0.90722000  0.29118000  0.80912000  1.0
  C  C86  1  0.08166000  0.64771000  0.25637000  1.0
  C  C87  1  0.91835000  0.35229000  0.74363000  1.0
  C  C88  1  0.99906000  0.28650000  0.17419000  1.0
  C  C89  1  0.00094000  0.71350000  0.82581000  1.0
  C  C90  1  0.88865000  0.19822000  0.07647000  1.0
  C  C91  1  0.11136000  0.80179000  0.92353000  1.0
  C  C92  1  0.83738000  0.08997000  0.07634000  1.0
  C  C93  1  0.16262000  0.91003000  0.92366000  1.0
  C  C94  1  0.90380000  0.07684000  0.17603000  1.0
  C  C95  1  0.09619000  0.92316000  0.82397000  1.0
  C  C96  1  0.01275000  0.16976000  0.27032000  1.0
  C  C97  1  0.98726000  0.83023000  0.72968000  1.0
  C  C98  1  0.47365000  0.93238000  0.83435000  1.0
  C  C99  1  0.52635000  0.06762000  0.16565000  1.0
  C  C100  1  0.59651000  0.02271000  0.91550000  1.0
  C  C101  1  0.40349000  0.97729000  0.08450000  1.0
  C  C102  1  0.71288000  0.99563000  0.98033000  1.0
  C  C103  1  0.28712000  0.00437000  0.01967000  1.0
  C  C104  1  0.70081000  0.87577000  0.95507000  1.0
  C  C105  1  0.29918000  0.12423000  0.04493000  1.0
  C  C106  1  0.57360000  0.79154000  0.87233000  1.0
  C  C107  1  0.42640000  0.20846000  0.12767000  1.0
  N  N108  1  0.05983000  0.27392000  0.27040000  1.0
  N  N109  1  0.94018000  0.72607000  0.72960000  1.0
  N  N110  1  0.45980000  0.81849000  0.81371000  1.0
  N  N111  1  0.54020000  0.18151000  0.18629000  1.0
  O  O112  1  0.47132000  0.63714000  0.54146000  1.0
  O  O113  1  0.52867000  0.36285000  0.45854000  1.0
  O  O114  1  0.68914000  0.73939000  0.56325000  1.0
  O  O115  1  0.31086000  0.26061000  0.43675000  1.0
  O  O116  1  0.43462000  0.48101000  0.66364000  1.0
  O  O117  1  0.56537000  0.51900000  0.33635000  1.0
  O  O118  1  0.68067000  0.53458000  0.70170000  1.0
  O  O119  1  0.31931000  0.46542000  0.29830000  1.0
  O  O120  1  0.05937000  0.52351000  0.38370000  1.0
  O  O121  1  0.94064000  0.47647000  0.61629000  1.0
  O  O122  1  0.91583000  0.62911000  0.46792000  1.0
  O  O123  1  0.08419000  0.37088000  0.53206000  1.0
  O  O124  1  0.22874000  0.63741000  0.63714000  1.0
  O  O125  1  0.77126000  0.36259000  0.36286000  1.0
  F  F126  1  0.73926000  0.97362000  0.68200000  1.0
  F  F127  1  0.26073000  0.02638000  0.31800000  1.0
  F  F128  1  0.80514000  0.62028000  0.94436000  1.0
  F  F129  1  0.19486000  0.37972000  0.05564000  1.0
  F  F130  1  0.85464000  0.80350000  0.41509000  1.0
  F  F131  1  0.14536000  0.19650000  0.58491000  1.0
