# generated using pymatgen
data_LiH5(CO)3
_symmetry_space_group_name_H-M   'P 1'
_cell_length_a   4.52490000
_cell_length_b   4.88479000
_cell_length_c   10.19910000
_cell_angle_alpha   90.00000000
_cell_angle_beta   98.15650000
_cell_angle_gamma   90.00000000
_symmetry_Int_Tables_number   1
_chemical_formula_structural   LiH5(CO)3
_chemical_formula_sum   'Li2 H10 C6 O6'
_cell_volume   223.15218317
_cell_formula_units_Z   2
loop_
 _symmetry_equiv_pos_site_id
 _symmetry_equiv_pos_as_xyz
  1  'x, y, z'
loop_
 _atom_site_type_symbol
 _atom_site_label
 _atom_site_symmetry_multiplicity
 _atom_site_fract_x
 _atom_site_fract_y
 _atom_site_fract_z
 _atom_site_occupancy
  Li  Li0  1  0.04442000  0.94395000  0.58972000  1.0
  Li  Li1  1  0.95558000  0.44395000  0.41028000  1.0
  H  H2  1  0.55965000  0.91681000  0.70218000  1.0
  H  H3  1  0.44036000  0.41681000  0.29782000  1.0
  H  H4  1  0.34591000  0.45716000  0.75448000  1.0
  H  H5  1  0.65409000  0.95716000  0.24552000  1.0
  H  H6  1  0.58323000  0.21958000  0.96008000  1.0
  H  H7  1  0.41677000  0.71958000  0.03992000  1.0
  H  H8  1  0.81745000  0.49059000  0.91770000  1.0
  H  H9  1  0.18255000  0.99059000  0.08230000  1.0
  H  H10  1  0.90363000  0.14425000  0.88260000  1.0
  H  H11  1  0.09637000  0.64425000  0.11740000  1.0
  C  C12  1  0.72627000  0.43335000  0.65230000  1.0
  C  C13  1  0.27373000  0.93335000  0.34770000  1.0
  C  C14  1  0.53104000  0.31276000  0.74998000  1.0
  C  C15  1  0.46896000  0.81276000  0.25002000  1.0
  C  C16  1  0.72069000  0.29105000  0.88658000  1.0
  C  C17  1  0.27931000  0.79105000  0.11342000  1.0
  O  O18  1  0.79597000  0.68522000  0.66742000  1.0
  O  O19  1  0.20403000  0.18522000  0.33258000  1.0
  O  O20  1  0.81927000  0.27981000  0.56658000  1.0
  O  O21  1  0.18072000  0.77982000  0.43342000  1.0
  O  O22  1  0.39916000  0.05626000  0.70947000  1.0
  O  O23  1  0.60085000  0.55627000  0.29053000  1.0
