# generated using pymatgen
data_HoP4H20Ru2(CO5)4
_symmetry_space_group_name_H-M   'P 1'
_cell_length_a   9.48634000
_cell_length_b   9.48678000
_cell_length_c   15.39000000
_cell_angle_alpha   92.72900000
_cell_angle_beta   92.72910000
_cell_angle_gamma   98.29810000
_symmetry_Int_Tables_number   1
_chemical_formula_structural   HoP4H20Ru2(CO5)4
_chemical_formula_sum   'Ho2 P8 H40 Ru4 C8 O40'
_cell_volume   1366.88411166
_cell_formula_units_Z   2
loop_
 _symmetry_equiv_pos_site_id
 _symmetry_equiv_pos_as_xyz
  1  'x, y, z'
loop_
 _atom_site_type_symbol
 _atom_site_label
 _atom_site_symmetry_multiplicity
 _atom_site_fract_x
 _atom_site_fract_y
 _atom_site_fract_z
 _atom_site_occupancy
  Ho  Ho0  1  0.99375000  0.00626000  0.25000000  1.0
  Ho  Ho1  1  0.00625000  0.99376000  0.74999000  1.0
  P  P2  1  0.65684000  0.93953000  0.35813000  1.0
  P  P3  1  0.06047000  0.34317000  0.14186000  1.0
  P  P4  1  0.34317000  0.06045000  0.64184000  1.0
  P  P5  1  0.93954000  0.65684000  0.85814000  1.0
  P  P6  1  0.35042000  0.00221000  0.33974000  1.0
  P  P7  1  0.99779000  0.64959000  0.16026000  1.0
  P  P8  1  0.64958000  0.99776000  0.66024000  1.0
  P  P9  1  0.00223000  0.35042000  0.83975000  1.0
  H  H10  1  0.55582000  0.17269000  0.27472000  1.0
  H  H11  1  0.82731000  0.44419000  0.22527000  1.0
  H  H12  1  0.44415000  0.82730000  0.72526000  1.0
  H  H13  1  0.17270000  0.55585000  0.77473000  1.0
  H  H14  1  0.31621000  0.58517000  0.46272000  1.0
  H  H15  1  0.41481000  0.68378000  0.03730000  1.0
  H  H16  1  0.68374000  0.41487000  0.53726000  1.0
  H  H17  1  0.58518000  0.31624000  0.96276000  1.0
  H  H18  1  0.48130000  0.60210000  0.46101000  1.0
  H  H19  1  0.39773000  0.51871000  0.03911000  1.0
  H  H20  1  0.51866000  0.39771000  0.53911000  1.0
  H  H21  1  0.60217000  0.48132000  0.96101000  1.0
  H  H22  1  0.85720000  0.16902000  0.38015000  1.0
  H  H23  1  0.83100000  0.14280000  0.11985000  1.0
  H  H24  1  0.14278000  0.83098000  0.61983000  1.0
  H  H25  1  0.16902000  0.85724000  0.88014000  1.0
  H  H26  1  0.92613000  0.28603000  0.31774000  1.0
  H  H27  1  0.71398000  0.07388000  0.18226000  1.0
  H  H28  1  0.07386000  0.71398000  0.68225000  1.0
  H  H29  1  0.28603000  0.92613000  0.81771000  1.0
  H  H30  1  0.10195000  0.87734000  0.08538000  1.0
  H  H31  1  0.12269000  0.89805000  0.41462000  1.0
  H  H32  1  0.89805000  0.12268000  0.91462000  1.0
  H  H33  1  0.87730000  0.10197000  0.58537000  1.0
  H  H34  1  0.12893000  0.04635000  0.08138000  1.0
  H  H35  1  0.95368000  0.87108000  0.41864000  1.0
  H  H36  1  0.87109000  0.95367000  0.91864000  1.0
  H  H37  1  0.04631000  0.12892000  0.58134000  1.0
  H  H38  1  0.56521000  0.82633000  0.17731000  1.0
  H  H39  1  0.17365000  0.43480000  0.32269000  1.0
  H  H40  1  0.43478000  0.17364000  0.82267000  1.0
  H  H41  1  0.82634000  0.56519000  0.67732000  1.0
  H  H42  1  0.38057000  0.85446000  0.17128000  1.0
  H  H43  1  0.14554000  0.61944000  0.32873000  1.0
  H  H44  1  0.61942000  0.14550000  0.82872000  1.0
  H  H45  1  0.85449000  0.38056000  0.67128000  1.0
  H  H46  1  0.44195000  0.73972000  0.24842000  1.0
  H  H47  1  0.26028000  0.55806000  0.25159000  1.0
  H  H48  1  0.55807000  0.26027000  0.75158000  1.0
  H  H49  1  0.73973000  0.44191000  0.74843000  1.0
  Ru  Ru50  1  0.45976000  0.87840000  0.50337000  1.0
  Ru  Ru51  1  0.12160000  0.54026000  0.99661000  1.0
  Ru  Ru52  1  0.54024000  0.12157000  0.49660000  1.0
  Ru  Ru53  1  0.87843000  0.45977000  0.00338000  1.0
  C  C54  1  0.50716000  0.96407000  0.28098000  1.0
  C  C55  1  0.03593000  0.49285000  0.21901000  1.0
  C  C56  1  0.49285000  0.03591000  0.71900000  1.0
  C  C57  1  0.96409000  0.50715000  0.78100000  1.0
  C  C58  1  0.47134000  0.83814000  0.21475000  1.0
  C  C59  1  0.16186000  0.52867000  0.28525000  1.0
  C  C60  1  0.52866000  0.16184000  0.78523000  1.0
  C  C61  1  0.83816000  0.47132000  0.71476000  1.0
  O  O62  1  0.60362000  0.81934000  0.41921000  1.0
  O  O63  1  0.18067000  0.39641000  0.08078000  1.0
  O  O64  1  0.39639000  0.18064000  0.58076000  1.0
  O  O65  1  0.81936000  0.60361000  0.91922000  1.0
  O  O66  1  0.69328000  0.08611000  0.41302000  1.0
  O  O67  1  0.91390000  0.30674000  0.08697000  1.0
  O  O68  1  0.30673000  0.91388000  0.58696000  1.0
  O  O69  1  0.08613000  0.69329000  0.91302000  1.0
  O  O70  1  0.78075000  0.90899000  0.30662000  1.0
  O  O71  1  0.09102000  0.21928000  0.19338000  1.0
  O  O72  1  0.21925000  0.09101000  0.69336000  1.0
  O  O73  1  0.90899000  0.78074000  0.80662000  1.0
  O  O74  1  0.31133000  0.87788000  0.40217000  1.0
  O  O75  1  0.12213000  0.68869000  0.09782000  1.0
  O  O76  1  0.68866000  0.12210000  0.59781000  1.0
  O  O77  1  0.87790000  0.31134000  0.90219000  1.0
  O  O78  1  0.40381000  0.14486000  0.39394000  1.0
  O  O79  1  0.85515000  0.59620000  0.10605000  1.0
  O  O80  1  0.59619000  0.85511000  0.60604000  1.0
  O  O81  1  0.14489000  0.40382000  0.89395000  1.0
  O  O82  1  0.23048000  0.01387000  0.27443000  1.0
  O  O83  1  0.98613000  0.76953000  0.22556000  1.0
  O  O84  1  0.76952000  0.98610000  0.72555000  1.0
  O  O85  1  0.01390000  0.23048000  0.77445000  1.0
  O  O86  1  0.55446000  0.09042000  0.23353000  1.0
  O  O87  1  0.90957000  0.44555000  0.26646000  1.0
  O  O88  1  0.44553000  0.90955000  0.76644000  1.0
  O  O89  1  0.09044000  0.55447000  0.73354000  1.0
  O  O90  1  0.40364000  0.61910000  0.49809000  1.0
  O  O91  1  0.38093000  0.59632000  0.00195000  1.0
  O  O92  1  0.59626000  0.38095000  0.50193000  1.0
  O  O93  1  0.61912000  0.40368000  0.99811000  1.0
  O  O94  1  0.94073000  0.19636000  0.34502000  1.0
  O  O95  1  0.80367000  0.05929000  0.15499000  1.0
  O  O96  1  0.05926000  0.80365000  0.65497000  1.0
  O  O97  1  0.19635000  0.94074000  0.84499000  1.0
  O  O98  1  0.06392000  0.96634000  0.10040000  1.0
  O  O99  1  0.03368000  0.93607000  0.39960000  1.0
  O  O100  1  0.93606000  0.03367000  0.89958000  1.0
  O  O101  1  0.96631000  0.06397000  0.60040000  1.0
