# generated using pymatgen
data_La2H18C24(N2O5)3
_symmetry_space_group_name_H-M   'P 1'
_cell_length_a   11.10310000
_cell_length_b   11.34860000
_cell_length_c   11.67100000
_cell_angle_alpha   80.81880000
_cell_angle_beta   89.96260000
_cell_angle_gamma   73.86290000
_symmetry_Int_Tables_number   1
_chemical_formula_structural   La2H18C24(N2O5)3
_chemical_formula_sum   'La4 H36 C48 N12 O30'
_cell_volume   1393.07844749
_cell_formula_units_Z   2
loop_
 _symmetry_equiv_pos_site_id
 _symmetry_equiv_pos_as_xyz
  1  'x, y, z'
loop_
 _atom_site_type_symbol
 _atom_site_label
 _atom_site_symmetry_multiplicity
 _atom_site_fract_x
 _atom_site_fract_y
 _atom_site_fract_z
 _atom_site_occupancy
  La  La0  1  0.29469000  0.00498000  0.98032000  1.0
  La  La1  1  0.70531000  0.99502000  0.01968000  1.0
  La  La2  1  0.69414000  0.00781000  0.57188000  1.0
  La  La3  1  0.30586000  0.99219000  0.42812000  1.0
  H  H4  1  0.83854000  0.14348000  0.37690000  1.0
  H  H5  1  0.16146000  0.85652000  0.62310000  1.0
  H  H6  1  0.89678000  0.99135000  0.40326000  1.0
  H  H7  1  0.10322000  0.00865000  0.59674000  1.0
  H  H8  1  0.98141000  0.84559000  0.67358000  1.0
  H  H9  1  0.01859000  0.15441000  0.32642000  1.0
  H  H10  1  0.91186000  0.91631000  0.77259000  1.0
  H  H11  1  0.08814000  0.08369000  0.22741000  1.0
  H  H12  1  0.76938000  0.18824000  0.72398000  1.0
  H  H13  1  0.23062000  0.81176000  0.27602000  1.0
  H  H14  1  0.86780000  0.18201000  0.62433000  1.0
  H  H15  1  0.13220000  0.81799000  0.37567000  1.0
  H  H16  1  0.27833000  0.34782000  0.96521000  1.0
  H  H17  1  0.72167000  0.65218000  0.03479000  1.0
  H  H18  1  0.57916000  0.20794000  0.28621000  1.0
  H  H19  1  0.42084000  0.79206000  0.71379000  1.0
  H  H20  1  0.35947000  0.42377000  0.78068000  1.0
  H  H21  1  0.64053000  0.57623000  0.21932000  1.0
  H  H22  1  0.78795000  0.77037000  0.29531000  1.0
  H  H23  1  0.21205000  0.22963000  0.70469000  1.0
  H  H24  1  0.47375000  0.32004000  0.60771000  1.0
  H  H25  1  0.52624000  0.67996000  0.39229000  1.0
  H  H26  1  0.04657000  0.38098000  0.33658000  1.0
  H  H27  1  0.95343000  0.61902000  0.66342000  1.0
  H  H28  1  0.39177000  0.59790000  0.23520000  1.0
  H  H29  1  0.60823000  0.40210000  0.76480000  1.0
  H  H30  1  0.97579000  0.69987000  0.98990000  1.0
  H  H31  1  0.02421000  0.30013000  0.01011000  1.0
  H  H32  1  0.10264000  0.52165000  0.17480000  1.0
  H  H33  1  0.89736000  0.47835000  0.82520000  1.0
  H  H34  1  0.31866000  0.48857000  0.43009000  1.0
  H  H35  1  0.68134000  0.51143000  0.56992000  1.0
  H  H36  1  0.24586000  0.59130000  0.58300000  1.0
  H  H37  1  0.75414000  0.40870000  0.41700000  1.0
  H  H38  1  0.14789000  0.76427000  0.87559000  1.0
  H  H39  1  0.85211000  0.23573000  0.12441000  1.0
  C  C40  1  0.41477000  0.03562000  0.71196000  1.0
  C  C41  1  0.58523000  0.96438000  0.28804000  1.0
  C  C42  1  0.50546000  0.07652000  0.78831000  1.0
  C  C43  1  0.49454000  0.92348000  0.21169000  1.0
  C  C44  1  0.32348000  0.73540000  0.03182000  1.0
  C  C45  1  0.67652000  0.26460000  0.96818000  1.0
  C  C46  1  0.95519000  0.63080000  0.47817000  1.0
  C  C47  1  0.04480000  0.36919000  0.52183000  1.0
  C  C48  1  0.91091000  0.77126000  0.46061000  1.0
  C  C49  1  0.08909000  0.22874000  0.53939000  1.0
  C  C50  1  0.30680000  0.40297000  0.02270000  1.0
  C  C51  1  0.69320000  0.59703000  0.97730000  1.0
  C  C52  1  0.00487000  0.97367000  0.94234000  1.0
  C  C53  1  0.99513000  0.02633000  0.05766000  1.0
  C  C54  1  0.53034000  0.25816000  0.35210000  1.0
  C  C55  1  0.46966000  0.74184000  0.64790000  1.0
  C  C56  1  0.29749000  0.51753000  0.76985000  1.0
  C  C57  1  0.70251000  0.48247000  0.23015000  1.0
  C  C58  1  0.85503000  0.72896000  0.23559000  1.0
  C  C59  1  0.14497000  0.27104000  0.76441000  1.0
  C  C60  1  0.47245000  0.32174000  0.51462000  1.0
  C  C61  1  0.52754000  0.67826000  0.48538000  1.0
  C  C62  1  0.98154000  0.56302000  0.38593000  1.0
  C  C63  1  0.01846000  0.43698000  0.61407000  1.0
  C  C64  1  0.38023000  0.41703000  0.21247000  1.0
  C  C65  1  0.61977000  0.58297000  0.78753000  1.0
  C  C66  1  0.34407000  0.34591000  0.13739000  1.0
  C  C67  1  0.65593000  0.65409000  0.86261000  1.0
  C  C68  1  0.33223000  0.21553000  0.17527000  1.0
  C  C69  1  0.66776000  0.78447000  0.82473000  1.0
  C  C70  1  0.30172000  0.52707000  0.98313000  1.0
  C  C71  1  0.69828000  0.47293000  0.01687000  1.0
  C  C72  1  0.02761000  0.43367000  0.40807000  1.0
  C  C73  1  0.97239000  0.56632000  0.59192000  1.0
  C  C74  1  0.36820000  0.54271000  0.17497000  1.0
  C  C75  1  0.63180000  0.45729000  0.82503000  1.0
  C  C76  1  0.32967000  0.59972000  0.06086000  1.0
  C  C77  1  0.67034000  0.40028000  0.93915000  1.0
  C  C78  1  0.95525000  0.68776000  0.08111000  1.0
  C  C79  1  0.04475000  0.31224000  0.91889000  1.0
  C  C80  1  0.01824000  0.59838000  0.17100000  1.0
  C  C81  1  0.98177000  0.40162000  0.82900000  1.0
  C  C82  1  0.39584000  0.40585000  0.42894000  1.0
  C  C83  1  0.60416000  0.59415000  0.57106000  1.0
  C  C84  1  0.24015000  0.60097000  0.67389000  1.0
  C  C85  1  0.75985000  0.39903000  0.32611000  1.0
  C  C86  1  0.18700000  0.69402000  0.82242000  1.0
  C  C87  1  0.81300000  0.30598000  0.17758000  1.0
  N  N88  1  0.55594000  0.23018000  0.46558000  1.0
  N  N89  1  0.44406000  0.76982000  0.53442000  1.0
  N  N90  1  0.85363000  0.76909000  0.12266000  1.0
  N  N91  1  0.14637000  0.23091000  0.87734000  1.0
  N  N92  1  0.95396000  0.62627000  0.26979000  1.0
  N  N93  1  0.04604000  0.37373000  0.73021000  1.0
  N  N94  1  0.43315000  0.36364000  0.32569000  1.0
  N  N95  1  0.56684000  0.63636000  0.67431000  1.0
  N  N96  1  0.26355000  0.57805000  0.86479000  1.0
  N  N97  1  0.73645000  0.42195000  0.13521000  1.0
  N  N98  1  0.17066000  0.71048000  0.70785000  1.0
  N  N99  1  0.82934000  0.28952000  0.29215000  1.0
  O  O100  1  0.31321000  0.15895000  0.09432000  1.0
  O  O101  1  0.68679000  0.84105000  0.90568000  1.0
  O  O102  1  0.60073000  0.09996000  0.74329000  1.0
  O  O103  1  0.39928000  0.90004000  0.25671000  1.0
  O  O104  1  0.47994000  0.07998000  0.89458000  1.0
  O  O105  1  0.52006000  0.92002000  0.10542000  1.0
  O  O106  1  0.37758000  0.77516000  0.94423000  1.0
  O  O107  1  0.62242000  0.22484000  0.05577000  1.0
  O  O108  1  0.80397000  0.81570000  0.49972000  1.0
  O  O109  1  0.19603000  0.18430000  0.50028000  1.0
  O  O110  1  0.44399000  0.02744000  0.60757000  1.0
  O  O111  1  0.55601000  0.97256000  0.39243000  1.0
  O  O112  1  0.10602000  0.96120000  0.89060000  1.0
  O  O113  1  0.89398000  0.03880000  0.10940000  1.0
  O  O114  1  0.26349000  0.80502000  0.10101000  1.0
  O  O115  1  0.73651000  0.19498000  0.89899000  1.0
  O  O116  1  0.33739000  0.17288000  0.28233000  1.0
  O  O117  1  0.66261000  0.82712000  0.71767000  1.0
  O  O118  1  0.83645000  0.06485000  0.42797000  1.0
  O  O119  1  0.16355000  0.93515000  0.57203000  1.0
  O  O120  1  0.32184000  0.01116000  0.76207000  1.0
  O  O121  1  0.67816000  0.98884000  0.23793000  1.0
  O  O122  1  0.98001000  0.83352000  0.41067000  1.0
  O  O123  1  0.01999000  0.16648000  0.58933000  1.0
  O  O124  1  0.90884000  0.94515000  0.90901000  1.0
  O  O125  1  0.09116000  0.05485000  0.09099000  1.0
  O  O126  1  0.90204000  0.90175000  0.69127000  1.0
  O  O127  1  0.09796000  0.09825000  0.30873000  1.0
  O  O128  1  0.77962000  0.18359000  0.64120000  1.0
  O  O129  1  0.22039000  0.81641000  0.35880000  1.0
