# generated using pymatgen
data_CuH4C5IN
_symmetry_space_group_name_H-M   'P 1'
_cell_length_a   4.04523000
_cell_length_b   7.72575000
_cell_length_c   10.07650000
_cell_angle_alpha   87.82860000
_cell_angle_beta   81.07960000
_cell_angle_gamma   79.13390000
_symmetry_Int_Tables_number   1
_chemical_formula_structural   CuH4C5IN
_chemical_formula_sum   'Cu2 H8 C10 I2 N2'
_cell_volume   305.51601333
_cell_formula_units_Z   2
loop_
 _symmetry_equiv_pos_site_id
 _symmetry_equiv_pos_as_xyz
  1  'x, y, z'
loop_
 _atom_site_type_symbol
 _atom_site_label
 _atom_site_symmetry_multiplicity
 _atom_site_fract_x
 _atom_site_fract_y
 _atom_site_fract_z
 _atom_site_occupancy
  Cu  Cu0  1  0.28348000  0.01402000  0.91308000  1.0
  Cu  Cu1  1  0.71650000  0.98598000  0.08691000  1.0
  H  H2  1  0.38144000  0.42491000  0.28791000  1.0
  H  H3  1  0.61852000  0.57509000  0.71209000  1.0
  H  H4  1  0.49970000  0.64328000  0.11223000  1.0
  H  H5  1  0.50027000  0.35672000  0.88777000  1.0
  H  H6  1  0.80970000  0.95470000  0.37702000  1.0
  H  H7  1  0.19034000  0.04528000  0.62298000  1.0
  H  H8  1  0.70369000  0.75054000  0.56694000  1.0
  H  H9  1  0.29635000  0.24945000  0.43307000  1.0
  C  C10  1  0.46747000  0.43540000  0.55391000  1.0
  C  C11  1  0.53249000  0.56459000  0.44612000  1.0
  C  C12  1  0.52276000  0.46070000  0.68526000  1.0
  C  C13  1  0.47724000  0.53932000  0.31472000  1.0
  C  C14  1  0.45811000  0.33821000  0.78536000  1.0
  C  C15  1  0.54192000  0.66182000  0.21464000  1.0
  C  C16  1  0.71238000  0.83524000  0.36271000  1.0
  C  C17  1  0.28767000  0.16479000  0.63728000  1.0
  C  C18  1  0.65239000  0.71918000  0.46843000  1.0
  C  C19  1  0.34761000  0.28083000  0.53155000  1.0
  I  I20  1  0.10775000  0.20404000  0.13237000  1.0
  I  I21  1  0.89224000  0.79596000  0.86763000  1.0
  N  N22  1  0.34005000  0.19147000  0.76343000  1.0
  N  N23  1  0.65994000  0.80849000  0.23659000  1.0
