# generated using pymatgen
data_ZnH8C2(BrN)2
_symmetry_space_group_name_H-M   'P 1'
_cell_length_a   7.19913000
_cell_length_b   9.86618000
_cell_length_c   11.33925864
_cell_angle_alpha   115.76623300
_cell_angle_beta   108.49624376
_cell_angle_gamma   90.00040000
_symmetry_Int_Tables_number   1
_chemical_formula_structural   ZnH8C2(BrN)2
_chemical_formula_sum   'Zn4 H32 C8 Br8 N8'
_cell_volume   678.83211829
_cell_formula_units_Z   4
loop_
 _symmetry_equiv_pos_site_id
 _symmetry_equiv_pos_as_xyz
  1  'x, y, z'
loop_
 _atom_site_type_symbol
 _atom_site_label
 _atom_site_symmetry_multiplicity
 _atom_site_fract_x
 _atom_site_fract_y
 _atom_site_fract_z
 _atom_site_occupancy
  Zn  Zn0  1  0.42406000  0.21827000  0.49989000  1.0
  Zn  Zn1  1  0.57599000  0.71847000  0.50007000  1.0
  Zn  Zn2  1  0.50005000  0.68903000  0.99993000  1.0
  Zn  Zn3  1  0.99993000  0.18918000  0.99999000  1.0
  H  H4  1  0.28326000  0.99647000  0.24770000  1.0
  H  H5  1  0.71665000  0.74890000  0.75231000  1.0
  H  H6  1  0.53570000  0.24878000  0.75222000  1.0
  H  H7  1  0.46442000  0.49652000  0.24782000  1.0
  H  H8  1  0.27963000  0.93072000  0.36007000  1.0
  H  H9  1  0.72019000  0.57079000  0.64011000  1.0
  H  H10  1  0.41986000  0.07072000  0.64001000  1.0
  H  H11  1  0.58031000  0.43084000  0.36023000  1.0
  H  H12  1  0.65723000  0.97201000  0.12881000  1.0
  H  H13  1  0.34251000  0.84310000  0.87103000  1.0
  H  H14  1  0.02855000  0.34316000  0.87100000  1.0
  H  H15  1  0.97154000  0.47209000  0.12897000  1.0
  H  H16  1  0.66322000  0.91685000  0.24846000  1.0
  H  H17  1  0.33669000  0.66838000  0.75142000  1.0
  H  H18  1  0.91474000  0.16843000  0.75146000  1.0
  H  H19  1  0.08521000  0.41682000  0.24853000  1.0
  H  H20  1  0.00424000  0.11933000  0.27235000  1.0
  H  H21  1  0.99568000  0.84691000  0.72764000  1.0
  H  H22  1  0.23207000  0.34698000  0.72762000  1.0
  H  H23  1  0.76809000  0.61933000  0.27244000  1.0
  H  H24  1  0.99782000  0.05771000  0.39559000  1.0
  H  H25  1  0.00198000  0.66219000  0.60431000  1.0
  H  H26  1  0.10245000  0.16227000  0.60424000  1.0
  H  H27  1  0.89765000  0.55782000  0.39576000  1.0
  H  H28  1  0.93268000  0.84456000  0.08762000  1.0
  H  H29  1  0.06726000  0.75668000  0.91229000  1.0
  H  H30  1  0.34499000  0.25648000  0.91214000  1.0
  H  H31  1  0.65496000  0.34449000  0.08784000  1.0
  H  H32  1  0.93724000  0.78463000  0.21441000  1.0
  H  H33  1  0.06276000  0.57009000  0.78551000  1.0
  H  H34  1  0.22250000  0.07000000  0.78525000  1.0
  H  H35  1  0.77734000  0.28473000  0.21472000  1.0
  C  C36  1  0.03401000  0.02642000  0.30101000  1.0
  C  C37  1  0.96589000  0.72535000  0.69895000  1.0
  C  C38  1  0.23311000  0.22539000  0.69889000  1.0
  C  C39  1  0.76696000  0.52644000  0.30115000  1.0
  C  C40  1  0.90415000  0.87676000  0.18509000  1.0
  C  C41  1  0.09580000  0.69151000  0.81482000  1.0
  C  C42  1  0.21895000  0.19147000  0.81468000  1.0
  C  C43  1  0.78098000  0.37681000  0.18531000  1.0
  Br  Br44  1  0.74108000  0.29274000  0.50022000  1.0
  Br  Br45  1  0.25918000  0.79273000  0.50022000  1.0
  Br  Br46  1  0.24908000  0.42846000  0.50010000  1.0
  Br  Br47  1  0.75151000  0.92854000  0.50027000  1.0
  Br  Br48  1  0.71071000  0.51336000  0.90928000  1.0
  Br  Br49  1  0.28962000  0.60343000  0.09041000  1.0
  Br  Br50  1  0.30082000  0.10361000  0.09054000  1.0
  Br  Br51  1  0.69881000  0.01339000  0.90928000  1.0
  N  N52  1  0.24833000  0.01876000  0.33481000  1.0
  N  N53  1  0.75158000  0.68401000  0.66523000  1.0
  N  N54  1  0.41371000  0.18397000  0.66515000  1.0
  N  N55  1  0.58640000  0.51886000  0.33495000  1.0
  N  N56  1  0.68999000  0.88629000  0.15683000  1.0
  N  N57  1  0.30992000  0.72940000  0.84307000  1.0
  N  N58  1  0.03316000  0.22946000  0.84305000  1.0
  N  N59  1  0.96682000  0.38634000  0.15695000  1.0
