# generated using pymatgen
data_Cd3H22(C15O8)2
_symmetry_space_group_name_H-M   'P 1'
_cell_length_a   7.93879000
_cell_length_b   9.80235000
_cell_length_c   11.09620000
_cell_angle_alpha   68.49650000
_cell_angle_beta   74.91710000
_cell_angle_gamma   74.05320000
_symmetry_Int_Tables_number   1
_chemical_formula_structural   Cd3H22(C15O8)2
_chemical_formula_sum   'Cd3 H22 C30 O16'
_cell_volume   760.09488921
_cell_formula_units_Z   1
loop_
 _symmetry_equiv_pos_site_id
 _symmetry_equiv_pos_as_xyz
  1  'x, y, z'
loop_
 _atom_site_type_symbol
 _atom_site_label
 _atom_site_symmetry_multiplicity
 _atom_site_fract_x
 _atom_site_fract_y
 _atom_site_fract_z
 _atom_site_occupancy
  Cd  Cd0  1  0.17036000  0.09369000  0.49643000  1.0
  Cd  Cd1  1  0.82963000  0.90631000  0.50357000  1.0
  Cd  Cd2  1  0.00000000  0.50000000  0.50000000  1.0
  H  H3  1  0.91686000  0.34941000  0.82716000  1.0
  H  H4  1  0.08312000  0.65059000  0.17285000  1.0
  H  H5  1  0.33362000  0.96143000  0.92272000  1.0
  H  H6  1  0.66638000  0.03857000  0.07728000  1.0
  H  H7  1  0.25740000  0.95695000  0.15803000  1.0
  H  H8  1  0.74261000  0.04305000  0.84196000  1.0
  H  H9  1  0.66374000  0.20590000  0.22583000  1.0
  H  H10  1  0.33625000  0.79410000  0.77417000  1.0
  H  H11  1  0.38058000  0.66120000  0.16594000  1.0
  H  H12  1  0.61943000  0.33880000  0.83407000  1.0
  H  H13  1  0.62024000  0.74740000  0.97678000  1.0
  H  H14  1  0.37978000  0.25260000  0.02323000  1.0
  H  H15  1  0.87874000  0.56299000  0.91267000  1.0
  H  H16  1  0.12127000  0.43700000  0.08734000  1.0
  H  H17  1  0.45472000  0.83687000  0.54339000  1.0
  H  H18  1  0.54527000  0.16313000  0.45661000  1.0
  H  H19  1  0.47621000  0.91330000  0.39354000  1.0
  H  H20  1  0.52380000  0.08670000  0.60645000  1.0
  H  H21  1  0.27514000  0.63992000  0.49851000  1.0
  H  H22  1  0.72485000  0.36009000  0.50148000  1.0
  H  H23  1  0.13776000  0.62626000  0.63097000  1.0
  H  H24  1  0.86224000  0.37374000  0.36903000  1.0
  C  C25  1  0.02990000  0.15942000  0.25865000  1.0
  C  C26  1  0.97011000  0.84057000  0.74135000  1.0
  C  C27  1  0.04723000  0.15175000  0.12357000  1.0
  C  C28  1  0.95277000  0.84825000  0.87643000  1.0
  C  C29  1  0.94804000  0.26318000  0.03074000  1.0
  C  C30  1  0.05196000  0.73682000  0.96926000  1.0
  C  C31  1  0.99377000  0.26539000  0.89951000  1.0
  C  C32  1  0.00623000  0.73461000  0.10049000  1.0
  C  C33  1  0.13283000  0.15841000  0.86020000  1.0
  C  C34  1  0.86717000  0.84159000  0.13980000  1.0
  C  C35  1  0.22779000  0.04597000  0.95367000  1.0
  C  C36  1  0.77221000  0.95403000  0.04632000  1.0
  C  C37  1  0.18398000  0.04256000  0.08437000  1.0
  C  C38  1  0.81602000  0.95744000  0.91562000  1.0
  C  C39  1  0.16917000  0.15337000  0.72277000  1.0
  C  C40  1  0.83082000  0.84663000  0.27723000  1.0
  C  C41  1  0.79335000  0.37299000  0.06937000  1.0
  C  C42  1  0.20666000  0.62700000  0.93064000  1.0
  C  C43  1  0.65758000  0.32514000  0.17407000  1.0
  C  C44  1  0.34243000  0.67486000  0.82593000  1.0
  C  C45  1  0.50861000  0.42866000  0.20773000  1.0
  C  C46  1  0.49139000  0.57134000  0.79228000  1.0
  C  C47  1  0.49685000  0.58175000  0.13821000  1.0
  C  C48  1  0.50315000  0.41825000  0.86179000  1.0
  C  C49  1  0.63018000  0.62905000  0.03284000  1.0
  C  C50  1  0.36983000  0.37094000  0.96717000  1.0
  C  C51  1  0.77659000  0.52549000  0.99715000  1.0
  C  C52  1  0.22342000  0.47450000  0.00286000  1.0
  C  C53  1  0.35726000  0.37607000  0.31171000  1.0
  C  C54  1  0.64274000  0.62393000  0.68829000  1.0
  O  O55  1  0.00669000  0.28481000  0.27365000  1.0
  O  O56  1  0.99332000  0.71518000  0.72636000  1.0
  O  O57  1  0.05807000  0.03453000  0.35385000  1.0
  O  O58  1  0.94193000  0.96546000  0.64615000  1.0
  O  O59  1  0.06652000  0.24265000  0.64120000  1.0
  O  O60  1  0.93347000  0.75735000  0.35880000  1.0
  O  O61  1  0.29431000  0.05176000  0.69140000  1.0
  O  O62  1  0.70568000  0.94825000  0.30859000  1.0
  O  O63  1  0.22005000  0.47311000  0.33218000  1.0
  O  O64  1  0.77994000  0.52690000  0.66781000  1.0
  O  O65  1  0.37597000  0.23426000  0.37234000  1.0
  O  O66  1  0.62402000  0.76574000  0.62766000  1.0
  O  O67  1  0.38353000  0.88092000  0.47082000  1.0
  O  O68  1  0.61647000  0.11908000  0.52918000  1.0
  O  O69  1  0.20698000  0.57046000  0.56815000  1.0
  O  O70  1  0.79302000  0.42954000  0.43184000  1.0
