# generated using pymatgen
data_Zn2H12C12(NO3)3
_symmetry_space_group_name_H-M   'P 1'
_cell_length_a   7.01279000
_cell_length_b   8.62522000
_cell_length_c   13.30940000
_cell_angle_alpha   97.33250000
_cell_angle_beta   98.54820000
_cell_angle_gamma   92.68410000
_symmetry_Int_Tables_number   1
_chemical_formula_structural   Zn2H12C12(NO3)3
_chemical_formula_sum   'Zn4 H24 C24 N6 O18'
_cell_volume   787.81144392
_cell_formula_units_Z   2
loop_
 _symmetry_equiv_pos_site_id
 _symmetry_equiv_pos_as_xyz
  1  'x, y, z'
loop_
 _atom_site_type_symbol
 _atom_site_label
 _atom_site_symmetry_multiplicity
 _atom_site_fract_x
 _atom_site_fract_y
 _atom_site_fract_z
 _atom_site_occupancy
  Zn  Zn0  1  0.57499000  0.86461000  0.92693000  1.0
  Zn  Zn1  1  0.42502000  0.13539000  0.07307000  1.0
  Zn  Zn2  1  0.73857000  0.26194000  0.93488000  1.0
  Zn  Zn3  1  0.26144000  0.73805000  0.06512000  1.0
  H  H4  1  0.77519000  0.06859000  0.07275000  1.0
  H  H5  1  0.22481000  0.93140000  0.92725000  1.0
  H  H6  1  0.90763000  0.84697000  0.83705000  1.0
  H  H7  1  0.09238000  0.15302000  0.16295000  1.0
  H  H8  1  0.90184000  0.77528000  0.94236000  1.0
  H  H9  1  0.09816000  0.22472000  0.05764000  1.0
  H  H10  1  0.36930000  0.81946000  0.67352000  1.0
  H  H11  1  0.63071000  0.18055000  0.32648000  1.0
  H  H12  1  0.63112000  0.52316000  0.84323000  1.0
  H  H13  1  0.36887000  0.47684000  0.15677000  1.0
  H  H14  1  0.85453000  0.52356000  0.86852000  1.0
  H  H15  1  0.14546000  0.47644000  0.13148000  1.0
  H  H16  1  0.63087000  0.27406000  0.67894000  1.0
  H  H17  1  0.36913000  0.72594000  0.32106000  1.0
  H  H18  1  0.23522000  0.59069000  0.65228000  1.0
  H  H19  1  0.76474000  0.40932000  0.34772000  1.0
  H  H20  1  0.37882000  0.14543000  0.50859000  1.0
  H  H21  1  0.62118000  0.85458000  0.49141000  1.0
  H  H22  1  0.28780000  0.95277000  0.50717000  1.0
  H  H23  1  0.71221000  0.04724000  0.49283000  1.0
  H  H24  1  0.10172000  0.38495000  0.50415000  1.0
  H  H25  1  0.89826000  0.61506000  0.49585000  1.0
  H  H26  1  0.99923000  0.87915000  0.46172000  1.0
  H  H27  1  0.00078000  0.12085000  0.53828000  1.0
  C  C28  1  0.28469000  0.56523000  0.85290000  1.0
  C  C29  1  0.71530000  0.43477000  0.14710000  1.0
  C  C30  1  0.44983000  0.93113000  0.69937000  1.0
  C  C31  1  0.55018000  0.06887000  0.30063000  1.0
  C  C32  1  0.82507000  0.74477000  0.10578000  1.0
  C  C33  1  0.17493000  0.25523000  0.89422000  1.0
  C  C34  1  0.20436000  0.43911000  0.76597000  1.0
  C  C35  1  0.79562000  0.56090000  0.23403000  1.0
  C  C36  1  0.58238000  0.16460000  0.70182000  1.0
  C  C37  1  0.41763000  0.83541000  0.29818000  1.0
  C  C38  1  0.85477000  0.71145000  0.21508000  1.0
  C  C39  1  0.14522000  0.28855000  0.78491000  1.0
  C  C40  1  0.18869000  0.47356000  0.66518000  1.0
  C  C41  1  0.81128000  0.52644000  0.33482000  1.0
  C  C42  1  0.41929000  0.03077000  0.52835000  1.0
  C  C43  1  0.58072000  0.96924000  0.47165000  1.0
  C  C44  1  0.93031000  0.82695000  0.29790000  1.0
  C  C45  1  0.06968000  0.17305000  0.70210000  1.0
  C  C46  1  0.11282000  0.36006000  0.58300000  1.0
  C  C47  1  0.88716000  0.63995000  0.41699000  1.0
  C  C48  1  0.94626000  0.78825000  0.39778000  1.0
  C  C49  1  0.05373000  0.21175000  0.60221000  1.0
  C  C50  1  0.99219000  0.99404000  0.28457000  1.0
  C  C51  1  0.00782000  0.00596000  0.71544000  1.0
  N  N52  1  0.52888000  0.98182000  0.79440000  1.0
  N  N53  1  0.47113000  0.01818000  0.20560000  1.0
  N  N54  1  0.61267000  0.12872000  0.79603000  1.0
  N  N55  1  0.38734000  0.87128000  0.20397000  1.0
  N  N56  1  0.47897000  0.04307000  0.63872000  1.0
  N  N57  1  0.52104000  0.95693000  0.36128000  1.0
  O  O58  1  0.43586000  0.64539000  0.84142000  1.0
  O  O59  1  0.56413000  0.35461000  0.15857000  1.0
  O  O60  1  0.67852000  0.08313000  0.01365000  1.0
  O  O61  1  0.32149000  0.91686000  0.98635000  1.0
  O  O62  1  0.82389000  0.78131000  0.87359000  1.0
  O  O63  1  0.17612000  0.21868000  0.12641000  1.0
  O  O64  1  0.65238000  0.75015000  0.06242000  1.0
  O  O65  1  0.34762000  0.24984000  0.93757000  1.0
  O  O66  1  0.19586000  0.58134000  0.92965000  1.0
  O  O67  1  0.80414000  0.41866000  0.07035000  1.0
  O  O68  1  0.73869000  0.45180000  0.84782000  1.0
  O  O69  1  0.26131000  0.54820000  0.15218000  1.0
  O  O70  1  0.02841000  0.24046000  0.93959000  1.0
  O  O71  1  0.97159000  0.75954000  0.06041000  1.0
  O  O72  1  0.93351000  0.03846000  0.19767000  1.0
  O  O73  1  0.06649000  0.96155000  0.80233000  1.0
  O  O74  1  0.09596000  0.07585000  0.35982000  1.0
  O  O75  1  0.90406000  0.92414000  0.64018000  1.0
