# generated using pymatgen
data_CuH10C5N2Cl2O
_symmetry_space_group_name_H-M   'P 1'
_cell_length_a   6.51111000
_cell_length_b   8.51271126
_cell_length_c   16.57750000
_cell_angle_alpha   90.01360677
_cell_angle_beta   90.02580000
_cell_angle_gamma   67.87269497
_symmetry_Int_Tables_number   1
_chemical_formula_structural   CuH10C5N2Cl2O
_chemical_formula_sum   'Cu4 H40 C20 N8 Cl8 O4'
_cell_volume   851.17071356
_cell_formula_units_Z   4
loop_
 _symmetry_equiv_pos_site_id
 _symmetry_equiv_pos_as_xyz
  1  'x, y, z'
loop_
 _atom_site_type_symbol
 _atom_site_label
 _atom_site_symmetry_multiplicity
 _atom_site_fract_x
 _atom_site_fract_y
 _atom_site_fract_z
 _atom_site_occupancy
  Cu  Cu0  1  0.50000000  0.50000000  0.50000000  1.0
  Cu  Cu1  1  0.00000000  0.00000000  0.00000000  1.0
  Cu  Cu2  1  1.00000000  0.50000000  0.50000000  1.0
  Cu  Cu3  1  0.50000000  0.00000000  0.00000000  1.0
  H  H4  1  0.87071000  0.97548000  0.57684000  1.0
  H  H5  1  0.37113000  0.47556000  0.92319000  1.0
  H  H6  1  0.12928000  0.02452000  0.42316000  1.0
  H  H7  1  0.62886000  0.52444000  0.07681000  1.0
  H  H8  1  0.78871000  0.20058000  0.58782000  1.0
  H  H9  1  0.28892000  0.70066000  0.91225000  1.0
  H  H10  1  0.21129000  0.79942000  0.41218000  1.0
  H  H11  1  0.71108000  0.29933000  0.08775000  1.0
  H  H12  1  0.29083000  0.00437000  0.59712000  1.0
  H  H13  1  0.79148000  0.50398000  0.90294000  1.0
  H  H14  1  0.70916000  0.99563000  0.40288000  1.0
  H  H15  1  0.20851000  0.49602000  0.09706000  1.0
  H  H16  1  0.56905000  0.85823000  0.58249000  1.0
  H  H17  1  0.06990000  0.35806000  0.91752000  1.0
  H  H18  1  0.43094000  0.14178000  0.41751000  1.0
  H  H19  1  0.93010000  0.64194000  0.08248000  1.0
  H  H20  1  0.70158000  0.17988000  0.73260000  1.0
  H  H21  1  0.20151000  0.68001000  0.76746000  1.0
  H  H22  1  0.29843000  0.82012000  0.26740000  1.0
  H  H23  1  0.79848000  0.32000000  0.23254000  1.0
  H  H24  1  0.97490000  0.03656000  0.71389000  1.0
  H  H25  1  0.47491000  0.53678000  0.78615000  1.0
  H  H26  1  0.02511000  0.96344000  0.28611000  1.0
  H  H27  1  0.52508000  0.46323000  0.21385000  1.0
  H  H28  1  0.46548000  0.82606000  0.72021000  1.0
  H  H29  1  0.96587000  0.32590000  0.77977000  1.0
  H  H30  1  0.53452000  0.17394000  0.27979000  1.0
  H  H31  1  0.03414000  0.67410000  0.22022000  1.0
  H  H32  1  0.37963000  0.04570000  0.73974000  1.0
  H  H33  1  0.87971000  0.54558000  0.76031000  1.0
  H  H34  1  0.62037000  0.95430000  0.26026000  1.0
  H  H35  1  0.12029000  0.45442000  0.23968000  1.0
  H  H36  1  0.75390000  0.90510000  0.79612000  1.0
  H  H37  1  0.25385000  0.40529000  0.70386000  1.0
  H  H38  1  0.24610000  0.09490000  0.20388000  1.0
  H  H39  1  0.74614000  0.59472000  0.29614000  1.0
  H  H40  1  0.85297000  0.79645000  0.70366000  1.0
  H  H41  1  0.35334000  0.29653000  0.79629000  1.0
  H  H42  1  0.14703000  0.20355000  0.29634000  1.0
  H  H43  1  0.64666000  0.70347000  0.20371000  1.0
  C  C44  1  0.76221000  0.08852000  0.60995000  1.0
  C  C45  1  0.26246000  0.58859000  0.89009000  1.0
  C  C46  1  0.23779000  0.91149000  0.39005000  1.0
  C  C47  1  0.73754000  0.41141000  0.10991000  1.0
  C  C48  1  0.46320000  0.97188000  0.61538000  1.0
  C  C49  1  0.96377000  0.47166000  0.88465000  1.0
  C  C50  1  0.53680000  0.02812000  0.38462000  1.0
  C  C51  1  0.03624000  0.52833000  0.11535000  1.0
  C  C52  1  0.79976000  0.06190000  0.70083000  1.0
  C  C53  1  0.29984000  0.56202000  0.79920000  1.0
  C  C54  1  0.20025000  0.93810000  0.29917000  1.0
  C  C55  1  0.70016000  0.43798000  0.20080000  1.0
  C  C56  1  0.50015000  0.93974000  0.70609000  1.0
  C  C57  1  0.00043000  0.43962000  0.79394000  1.0
  C  C58  1  0.49985000  0.06026000  0.29391000  1.0
  C  C59  1  0.99958000  0.56037000  0.20606000  1.0
  C  C60  1  0.73706000  0.91553000  0.73024000  1.0
  C  C61  1  0.23722000  0.41560000  0.76975000  1.0
  C  C62  1  0.26293000  0.08447000  0.26976000  1.0
  C  C63  1  0.76278000  0.58440000  0.23024000  1.0
  N  N64  1  0.40433000  0.25378000  0.56202000  1.0
  N  N65  1  0.90447000  0.75369000  0.93798000  1.0
  N  N66  1  0.59568000  0.74622000  0.43798000  1.0
  N  N67  1  0.09552000  0.24631000  0.06202000  1.0
  N  N68  1  0.53315000  0.11020000  0.59150000  1.0
  N  N69  1  0.03352000  0.61011000  0.90854000  1.0
  N  N70  1  0.46684000  0.88981000  0.40850000  1.0
  N  N71  1  0.96648000  0.38988000  0.09146000  1.0
  Cl  Cl72  1  0.25399000  0.48076000  0.40145000  1.0
  Cl  Cl73  1  0.75423000  0.98077000  0.09837000  1.0
  Cl  Cl74  1  0.74600000  0.51924000  0.59855000  1.0
  Cl  Cl75  1  0.24577000  0.01923000  0.90162000  1.0
  Cl  Cl76  1  0.21153000  0.67246000  0.57644000  1.0
  Cl  Cl77  1  0.71145000  0.17248000  0.92346000  1.0
  Cl  Cl78  1  0.78846000  0.32755000  0.42356000  1.0
  Cl  Cl79  1  0.28855000  0.82751000  0.07654000  1.0
  O  O80  1  0.20333000  0.27066000  0.55029000  1.0
  O  O81  1  0.70360000  0.77040000  0.94964000  1.0
  O  O82  1  0.79666000  0.72935000  0.44971000  1.0
  O  O83  1  0.29640000  0.22960000  0.05036000  1.0
