# generated using pymatgen
data_CuH20C28S4(NCl)2
_symmetry_space_group_name_H-M   'P 1'
_cell_length_a   8.79494000
_cell_length_b   10.92300000
_cell_length_c   13.39620000
_cell_angle_alpha   90.00000000
_cell_angle_beta   98.90420000
_cell_angle_gamma   89.99990000
_symmetry_Int_Tables_number   1
_chemical_formula_structural   CuH20C28S4(NCl)2
_chemical_formula_sum   'Cu2 H40 C56 S8 N4 Cl4'
_cell_volume   1271.42501954
_cell_formula_units_Z   2
loop_
 _symmetry_equiv_pos_site_id
 _symmetry_equiv_pos_as_xyz
  1  'x, y, z'
loop_
 _atom_site_type_symbol
 _atom_site_label
 _atom_site_symmetry_multiplicity
 _atom_site_fract_x
 _atom_site_fract_y
 _atom_site_fract_z
 _atom_site_occupancy
  Cu  Cu0  1  0.00000000  0.00000000  0.00000000  1.0
  Cu  Cu1  1  0.00000000  0.50000000  0.50000000  1.0
  H  H2  1  0.39110000  0.01621000  0.20258000  1.0
  H  H3  1  0.60889000  0.51621000  0.29742000  1.0
  H  H4  1  0.60889000  0.98379000  0.79742000  1.0
  H  H5  1  0.39111000  0.48379000  0.70258000  1.0
  H  H6  1  0.46853000  0.80730000  0.26576000  1.0
  H  H7  1  0.53146000  0.30729000  0.23424000  1.0
  H  H8  1  0.53147000  0.19271000  0.73424000  1.0
  H  H9  1  0.46854000  0.69271000  0.76576000  1.0
  H  H10  1  0.70251000  0.70748000  0.21910000  1.0
  H  H11  1  0.29748000  0.20748000  0.28090000  1.0
  H  H12  1  0.29749000  0.29253000  0.78090000  1.0
  H  H13  1  0.70252000  0.79252000  0.71910000  1.0
  H  H14  1  0.85812000  0.81179000  0.10514000  1.0
  H  H15  1  0.14188000  0.31179000  0.39486000  1.0
  H  H16  1  0.14188000  0.18821000  0.89487000  1.0
  H  H17  1  0.85813000  0.68821000  0.60513000  1.0
  H  H18  1  0.84810000  0.55932000  0.92469000  1.0
  H  H19  1  0.15190000  0.05932000  0.57532000  1.0
  H  H20  1  0.15190000  0.44068000  0.07531000  1.0
  H  H21  1  0.84810000  0.94068000  0.42468000  1.0
  H  H22  1  0.94072000  0.48206000  0.77069000  1.0
  H  H23  1  0.05929000  0.98206000  0.72931000  1.0
  H  H24  1  0.05928000  0.51794000  0.22931000  1.0
  H  H25  1  0.94072000  0.01793000  0.27069000  1.0
  H  H26  1  0.93295000  0.26013000  0.73232000  1.0
  H  H27  1  0.06705000  0.76013000  0.76768000  1.0
  H  H28  1  0.06705000  0.73987000  0.26768000  1.0
  H  H29  1  0.93295000  0.23987000  0.23232000  1.0
  H  H30  1  0.83427000  0.11382000  0.84990000  1.0
  H  H31  1  0.16572000  0.61382000  0.65010000  1.0
  H  H32  1  0.16572000  0.88618000  0.15010000  1.0
  H  H33  1  0.83428000  0.38618000  0.34990000  1.0
  H  H34  1  0.53316000  0.59015000  0.08961000  1.0
  H  H35  1  0.46684000  0.09015000  0.41039000  1.0
  H  H36  1  0.46684000  0.40986000  0.91039000  1.0
  H  H37  1  0.53316000  0.90985000  0.58961000  1.0
  H  H38  1  0.60993000  0.60238000  0.97511000  1.0
  H  H39  1  0.39007000  0.10238000  0.52489000  1.0
  H  H40  1  0.39007000  0.39762000  0.02489000  1.0
  H  H41  1  0.60993000  0.89762000  0.47511000  1.0
  C  C42  1  0.73307000  0.16049000  0.02086000  1.0
  C  C43  1  0.26693000  0.66049000  0.47914000  1.0
  C  C44  1  0.26693000  0.83951000  0.97914000  1.0
  C  C45  1  0.73308000  0.33951000  0.52086000  1.0
  C  C46  1  0.71878000  0.97609000  0.09538000  1.0
  C  C47  1  0.28122000  0.47610000  0.40462000  1.0
  C  C48  1  0.28122000  0.02391000  0.90462000  1.0
  C  C49  1  0.71879000  0.52390000  0.59538000  1.0
  C  C50  1  0.58647000  0.03235000  0.12303000  1.0
  C  C51  1  0.41352000  0.53235000  0.37697000  1.0
  C  C52  1  0.41352000  0.96765000  0.87697000  1.0
  C  C53  1  0.58648000  0.46765000  0.62303000  1.0
  C  C54  1  0.49476000  0.97257000  0.18422000  1.0
  C  C55  1  0.50523000  0.47257000  0.31578000  1.0
  C  C56  1  0.50524000  0.02743000  0.81578000  1.0
  C  C57  1  0.49477000  0.52743000  0.68422000  1.0
  C  C58  1  0.53825000  0.85547000  0.21785000  1.0
  C  C59  1  0.46174000  0.35547000  0.28215000  1.0
  C  C60  1  0.46174000  0.14453000  0.78215000  1.0
  C  C61  1  0.53827000  0.64453000  0.71785000  1.0
  C  C62  1  0.66916000  0.79849000  0.19033000  1.0
  C  C63  1  0.33084000  0.29849000  0.30967000  1.0
  C  C64  1  0.33084000  0.20152000  0.80967000  1.0
  C  C65  1  0.66917000  0.70151000  0.69033000  1.0
  C  C66  1  0.75912000  0.85709000  0.12836000  1.0
  C  C67  1  0.24087000  0.35709000  0.37164000  1.0
  C  C68  1  0.24087000  0.14291000  0.87164000  1.0
  C  C69  1  0.75914000  0.64291000  0.62836000  1.0
  C  C70  1  0.78751000  0.25314000  0.95544000  1.0
  C  C71  1  0.21249000  0.75314000  0.54456000  1.0
  C  C72  1  0.21249000  0.74687000  0.04456000  1.0
  C  C73  1  0.78751000  0.24686000  0.45543000  1.0
  C  C74  1  0.78730000  0.38056000  0.97482000  1.0
  C  C75  1  0.21270000  0.88056000  0.52518000  1.0
  C  C76  1  0.21269000  0.61944000  0.02518000  1.0
  C  C77  1  0.78731000  0.11944000  0.47481000  1.0
  C  C78  1  0.84344000  0.46152000  0.90785000  1.0
  C  C79  1  0.15656000  0.96152000  0.59215000  1.0
  C  C80  1  0.15656000  0.53848000  0.09215000  1.0
  C  C81  1  0.84344000  0.03848000  0.40785000  1.0
  C  C82  1  0.89564000  0.41840000  0.82137000  1.0
  C  C83  1  0.10436000  0.91840000  0.67863000  1.0
  C  C84  1  0.10436000  0.58160000  0.17863000  1.0
  C  C85  1  0.89564000  0.08159000  0.32136000  1.0
  C  C86  1  0.89213000  0.29313000  0.80027000  1.0
  C  C87  1  0.10788000  0.79313000  0.69974000  1.0
  C  C88  1  0.10787000  0.70687000  0.19974000  1.0
  C  C89  1  0.89213000  0.20687000  0.30026000  1.0
  C  C90  1  0.83953000  0.21162000  0.86699000  1.0
  C  C91  1  0.16047000  0.71162000  0.63302000  1.0
  C  C92  1  0.16047000  0.78838000  0.13302000  1.0
  C  C93  1  0.83953000  0.28838000  0.36698000  1.0
  C  C94  1  0.56702000  0.53743000  0.02669000  1.0
  C  C95  1  0.43298000  0.03743000  0.47331000  1.0
  C  C96  1  0.43297000  0.46257000  0.97331000  1.0
  C  C97  1  0.56703000  0.96256000  0.52669000  1.0
  S  S98  1  0.56739000  0.17883000  0.07483000  1.0
  S  S99  1  0.43260000  0.67883000  0.42517000  1.0
  S  S100  1  0.43260000  0.82117000  0.92517000  1.0
  S  S101  1  0.56740000  0.32117000  0.57483000  1.0
  S  S102  1  0.72584000  0.44162000  0.08481000  1.0
  S  S103  1  0.27416000  0.94161000  0.41519000  1.0
  S  S104  1  0.27416000  0.55839000  0.91519000  1.0
  S  S105  1  0.72584000  0.05838000  0.58481000  1.0
  N  N106  1  0.79811000  0.05133000  0.03778000  1.0
  N  N107  1  0.20189000  0.55133000  0.46222000  1.0
  N  N108  1  0.20189000  0.94867000  0.96222000  1.0
  N  N109  1  0.79811000  0.44867000  0.53778000  1.0
  Cl  Cl110  1  0.12506000  0.14084000  0.10887000  1.0
  Cl  Cl111  1  0.87493000  0.64084000  0.39113000  1.0
  Cl  Cl112  1  0.87493000  0.85916000  0.89113000  1.0
  Cl  Cl113  1  0.12507000  0.35916000  0.60887000  1.0
