# generated using pymatgen
data_CuH6(C3N2)2
_symmetry_space_group_name_H-M   'P 1'
_cell_length_a   7.75897000
_cell_length_b   7.85277905
_cell_length_c   7.85277982
_cell_angle_alpha   60.21875353
_cell_angle_beta   60.39515803
_cell_angle_gamma   60.39515486
_symmetry_Int_Tables_number   1
_chemical_formula_structural   CuH6(C3N2)2
_chemical_formula_sum   'Cu2 H12 C12 N8'
_cell_volume   340.89881418
_cell_formula_units_Z   2
loop_
 _symmetry_equiv_pos_site_id
 _symmetry_equiv_pos_as_xyz
  1  'x, y, z'
loop_
 _atom_site_type_symbol
 _atom_site_label
 _atom_site_symmetry_multiplicity
 _atom_site_fract_x
 _atom_site_fract_y
 _atom_site_fract_z
 _atom_site_occupancy
  Cu  Cu0  1  0.75000000  0.50000000  0.50000000  1.0
  Cu  Cu1  1  0.25000000  0.50000000  0.50000000  1.0
  H  H2  1  0.85912000  0.03574000  0.68838000  1.0
  H  H3  1  0.58324000  0.96426000  0.31162000  1.0
  H  H4  1  0.64088000  0.31162000  0.96426000  1.0
  H  H5  1  0.91676000  0.68838000  0.03574000  1.0
  H  H6  1  0.14087000  0.96425000  0.31163000  1.0
  H  H7  1  0.41675000  0.03575000  0.68837000  1.0
  H  H8  1  0.35913000  0.68838000  0.03574000  1.0
  H  H9  1  0.08324000  0.31163000  0.96425000  1.0
  H  H10  1  0.23455000  0.76842000  0.76248000  1.0
  H  H11  1  0.76546000  0.23158000  0.23752000  1.0
  H  H12  1  0.26544000  0.23753000  0.23158000  1.0
  H  H13  1  0.73455000  0.76247000  0.76842000  1.0
  C  C14  1  0.98546000  0.06993000  0.67491000  1.0
  C  C15  1  0.73030000  0.93007000  0.32509000  1.0
  C  C16  1  0.51454000  0.32509000  0.93008000  1.0
  C  C17  1  0.76970000  0.67491000  0.06993000  1.0
  C  C18  1  0.01454000  0.93009000  0.32509000  1.0
  C  C19  1  0.26972000  0.06991000  0.67491000  1.0
  C  C20  1  0.48546000  0.67491000  0.06991000  1.0
  C  C21  1  0.23027000  0.32509000  0.93010000  1.0
  C  C22  1  0.17451000  0.93675000  0.71425000  1.0
  C  C23  1  0.82551000  0.06325000  0.28575000  1.0
  C  C24  1  0.32550000  0.28575000  0.06324000  1.0
  C  C25  1  0.67449000  0.71426000  0.93675000  1.0
  N  N26  1  0.97210000  0.26971000  0.61196000  1.0
  N  N27  1  0.85378000  0.73029000  0.38803000  1.0
  N  N28  1  0.52790000  0.38803000  0.73029000  1.0
  N  N29  1  0.64622000  0.61197000  0.26971000  1.0
  N  N30  1  0.02788000  0.73029000  0.38803000  1.0
  N  N31  1  0.14620000  0.26971000  0.61197000  1.0
  N  N32  1  0.47211000  0.61197000  0.26971000  1.0
  N  N33  1  0.35380000  0.38803000  0.73029000  1.0
