# generated using pymatgen
data_CoH11C18(NO2)3
_symmetry_space_group_name_H-M   'P 1'
_cell_length_a   9.45315000
_cell_length_b   10.07640000
_cell_length_c   10.90390000
_cell_angle_alpha   97.50910000
_cell_angle_beta   111.92500000
_cell_angle_gamma   99.23040000
_symmetry_Int_Tables_number   1
_chemical_formula_structural   CoH11C18(NO2)3
_chemical_formula_sum   'Co2 H22 C36 N6 O12'
_cell_volume   930.21280016
_cell_formula_units_Z   2
loop_
 _symmetry_equiv_pos_site_id
 _symmetry_equiv_pos_as_xyz
  1  'x, y, z'
loop_
 _atom_site_type_symbol
 _atom_site_label
 _atom_site_symmetry_multiplicity
 _atom_site_fract_x
 _atom_site_fract_y
 _atom_site_fract_z
 _atom_site_occupancy
  Co  Co0  1  0.33248000  0.60814000  0.88652000  1.0
  Co  Co1  1  0.66752000  0.39186000  0.11347000  1.0
  H  H2  1  0.56026000  0.73755000  0.55822000  1.0
  H  H3  1  0.43973000  0.26245000  0.44178000  1.0
  H  H4  1  0.47281000  0.80084000  0.14080000  1.0
  H  H5  1  0.52718000  0.19916000  0.85920000  1.0
  H  H6  1  0.35444000  0.06588000  0.94868000  1.0
  H  H7  1  0.64555000  0.93413000  0.05134000  1.0
  H  H8  1  0.12697000  0.46096000  0.62231000  1.0
  H  H9  1  0.87304000  0.53903000  0.37768000  1.0
  H  H10  1  0.55929000  0.73371000  0.78591000  1.0
  H  H11  1  0.44070000  0.26628000  0.21409000  1.0
  H  H12  1  0.10412000  0.45587000  0.38848000  1.0
  H  H13  1  0.89588000  0.54412000  0.61151000  1.0
  H  H14  1  0.13274000  0.42058000  0.20781000  1.0
  H  H15  1  0.86727000  0.57940000  0.79219000  1.0
  H  H16  1  0.02378000  0.26043000  0.68508000  1.0
  H  H17  1  0.97623000  0.73958000  0.31492000  1.0
  H  H18  1  0.13311000  0.43676000  0.98502000  1.0
  H  H19  1  0.86689000  0.56323000  0.01497000  1.0
  H  H20  1  0.92407000  0.81904000  0.63309000  1.0
  H  H21  1  0.07594000  0.18096000  0.36692000  1.0
  H  H22  1  0.48600000  0.80330000  0.37031000  1.0
  H  H23  1  0.51401000  0.19668000  0.62968000  1.0
  C  C24  1  0.18913000  0.79819000  0.82866000  1.0
  C  C25  1  0.81087000  0.20182000  0.17134000  1.0
  C  C26  1  0.31733000  0.60726000  0.31388000  1.0
  C  C27  1  0.68267000  0.39273000  0.68611000  1.0
  C  C28  1  0.32914000  0.60039000  0.45099000  1.0
  C  C29  1  0.67086000  0.39960000  0.54901000  1.0
  C  C30  1  0.45948000  0.67631000  0.56651000  1.0
  C  C31  1  0.54051000  0.32370000  0.43348000  1.0
  C  C32  1  0.30541000  0.31686000  0.90087000  1.0
  C  C33  1  0.69458000  0.68315000  0.09914000  1.0
  C  C34  1  0.40225000  0.71719000  0.16104000  1.0
  C  C35  1  0.59775000  0.28280000  0.83895000  1.0
  C  C36  1  0.24252000  0.05806000  0.86510000  1.0
  C  C37  1  0.75747000  0.94195000  0.13491000  1.0
  C  C38  1  0.14378000  0.92883000  0.79560000  1.0
  C  C39  1  0.85621000  0.07118000  0.20441000  1.0
  C  C40  1  0.21940000  0.52139000  0.60283000  1.0
  C  C41  1  0.78061000  0.47859000  0.39716000  1.0
  C  C42  1  0.19940000  0.17817000  0.82683000  1.0
  C  C43  1  0.80058000  0.82184000  0.17319000  1.0
  C  C44  1  0.46151000  0.67483000  0.69415000  1.0
  C  C45  1  0.53848000  0.32517000  0.30584000  1.0
  C  C46  1  0.20855000  0.51908000  0.47246000  1.0
  C  C47  1  0.79146000  0.48091000  0.52754000  1.0
  C  C48  1  0.21303000  0.50649000  0.20009000  1.0
  C  C49  1  0.78697000  0.49351000  0.79990000  1.0
  C  C50  1  0.05792000  0.16869000  0.71761000  1.0
  C  C51  1  0.94209000  0.83131000  0.28239000  1.0
  C  C52  1  0.21239000  0.51409000  0.07402000  1.0
  C  C53  1  0.78760000  0.48591000  0.92597000  1.0
  C  C54  1  0.00089000  0.91892000  0.68805000  1.0
  C  C55  1  0.99911000  0.08108000  0.31196000  1.0
  C  C56  1  0.96145000  0.03936000  0.65045000  1.0
  C  C57  1  0.03857000  0.96065000  0.34956000  1.0
  C  C58  1  0.40848000  0.71694000  0.28982000  1.0
  C  C59  1  0.59153000  0.28305000  0.71017000  1.0
  N  N60  1  0.31030000  0.61434000  0.05388000  1.0
  N  N61  1  0.68969000  0.38566000  0.94610000  1.0
  N  N62  1  0.34223000  0.59974000  0.71281000  1.0
  N  N63  1  0.65777000  0.40025000  0.28719000  1.0
  N  N64  1  0.81466000  0.02938000  0.53413000  1.0
  N  N65  1  0.18535000  0.97063000  0.46588000  1.0
  O  O66  1  0.08754000  0.68615000  0.78446000  1.0
  O  O67  1  0.91246000  0.31385000  0.21553000  1.0
  O  O68  1  0.41448000  0.32674000  0.01404000  1.0
  O  O69  1  0.58552000  0.67327000  0.98596000  1.0
  O  O70  1  0.26887000  0.41426000  0.83799000  1.0
  O  O71  1  0.73112000  0.58575000  0.16201000  1.0
  O  O72  1  0.78384000  0.13651000  0.49741000  1.0
  O  O73  1  0.21617000  0.86350000  0.50259000  1.0
  O  O74  1  0.72912000  0.91260000  0.47730000  1.0
  O  O75  1  0.27087000  0.08741000  0.52274000  1.0
  O  O76  1  0.33526000  0.80390000  0.89845000  1.0
  O  O77  1  0.66474000  0.19611000  0.10155000  1.0
