# generated using pymatgen
data_MnMo6H18C16(N3O11)2
_symmetry_space_group_name_H-M   'P 1'
_cell_length_a   7.67985000
_cell_length_b   10.07020000
_cell_length_c   10.12060000
_cell_angle_alpha   105.27800000
_cell_angle_beta   99.02540000
_cell_angle_gamma   93.06090000
_symmetry_Int_Tables_number   1
_chemical_formula_structural   MnMo6H18C16(N3O11)2
_chemical_formula_sum   'Mn1 Mo6 H18 C16 N6 O22'
_cell_volume   741.99750816
_cell_formula_units_Z   1
loop_
 _symmetry_equiv_pos_site_id
 _symmetry_equiv_pos_as_xyz
  1  'x, y, z'
loop_
 _atom_site_type_symbol
 _atom_site_label
 _atom_site_symmetry_multiplicity
 _atom_site_fract_x
 _atom_site_fract_y
 _atom_site_fract_z
 _atom_site_occupancy
  Mn  Mn0  1  0.99294000  0.49967000  0.49729000  1.0
  Mo  Mo1  1  0.30368000  0.14261000  0.69075000  1.0
  Mo  Mo2  1  0.69707000  0.85719000  0.30994000  1.0
  Mo  Mo3  1  0.00372000  0.12386000  0.40812000  1.0
  Mo  Mo4  1  0.99680000  0.87646000  0.59200000  1.0
  Mo  Mo5  1  0.51020000  0.14918000  0.42750000  1.0
  Mo  Mo6  1  0.49009000  0.85104000  0.57170000  1.0
  H  H7  1  0.33626000  0.93288000  0.90041000  1.0
  H  H8  1  0.66424000  0.06674000  0.09962000  1.0
  H  H9  1  0.34755000  0.55122000  0.56482000  1.0
  H  H10  1  0.65552000  0.44551000  0.43460000  1.0
  H  H11  1  0.28993000  0.44230000  0.65032000  1.0
  H  H12  1  0.71423000  0.56015000  0.35123000  1.0
  H  H13  1  0.16664000  0.28513000  0.26172000  1.0
  H  H14  1  0.82948000  0.71485000  0.73790000  1.0
  H  H15  1  0.27385000  0.36336000  0.04836000  1.0
  H  H16  1  0.72837000  0.63730000  0.95368000  1.0
  H  H17  1  0.43932000  0.71449000  0.82815000  1.0
  H  H18  1  0.56134000  0.28506000  0.17241000  1.0
  H  H19  1  0.35879000  0.52950000  0.93784000  1.0
  H  H20  1  0.64165000  0.47047000  0.06290000  1.0
  H  H21  1  0.08915000  0.82895000  0.20396000  1.0
  H  H22  1  0.90993000  0.17099000  0.79555000  1.0
  H  H23  1  0.16705000  0.99753000  0.07286000  1.0
  H  H24  1  0.83248000  0.00215000  0.92649000  1.0
  C  C25  1  0.16383000  0.38457000  0.24053000  1.0
  C  C26  1  0.83309000  0.61546000  0.75918000  1.0
  C  C27  1  0.21895000  0.42638000  0.13348000  1.0
  C  C28  1  0.78093000  0.57394000  0.86739000  1.0
  C  C29  1  0.18128000  0.56693000  0.15842000  1.0
  C  C30  1  0.81750000  0.43309000  0.84147000  1.0
  C  C31  1  0.36042000  0.73155000  0.90995000  1.0
  C  C32  1  0.64050000  0.26834000  0.09074000  1.0
  C  C33  1  0.31660000  0.63232000  0.97365000  1.0
  C  C34  1  0.68400000  0.36769000  0.02710000  1.0
  C  C35  1  0.21930000  0.66554000  0.08307000  1.0
  C  C36  1  0.78064000  0.33453000  0.91715000  1.0
  C  C37  1  0.16386000  0.79954000  0.11968000  1.0
  C  C38  1  0.83573000  0.20042000  0.88015000  1.0
  C  C39  1  0.20693000  0.89345000  0.05003000  1.0
  C  C40  1  0.79294000  0.10634000  0.94975000  1.0
  N  N41  1  0.10656000  0.60530000  0.27379000  1.0
  N  N42  1  0.88894000  0.39428000  0.72443000  1.0
  N  N43  1  0.09679000  0.49498000  0.32321000  1.0
  N  N44  1  0.89778000  0.50468000  0.67510000  1.0
  N  N45  1  0.30574000  0.85875000  0.94916000  1.0
  N  N46  1  0.69485000  0.14101000  0.05111000  1.0
  O  O47  1  0.24954000  0.12847000  0.45835000  1.0
  O  O48  1  0.75126000  0.87526000  0.54264000  1.0
  O  O49  1  0.04982000  0.08892000  0.62184000  1.0
  O  O50  1  0.95123000  0.91195000  0.37856000  1.0
  O  O51  1  0.51386000  0.09686000  0.61921000  1.0
  O  O52  1  0.48605000  0.90273000  0.37912000  1.0
  O  O53  1  0.31955000  0.32131000  0.73306000  1.0
  O  O54  1  0.68334000  0.67817000  0.27132000  1.0
  O  O55  1  0.25547000  0.89680000  0.58123000  1.0
  O  O56  1  0.74370000  0.10165000  0.41717000  1.0
  O  O57  1  0.33490000  0.10107000  0.84707000  1.0
  O  O58  1  0.66685000  0.89629000  0.15242000  1.0
  O  O59  1  0.99677000  0.31121000  0.46245000  1.0
  O  O60  1  0.99812000  0.68864000  0.53595000  1.0
  O  O61  1  0.99283000  0.09394000  0.23354000  1.0
  O  O62  1  0.00837000  0.90571000  0.76657000  1.0
  O  O63  1  0.42752000  0.12308000  0.25382000  1.0
  O  O64  1  0.57179000  0.87531000  0.74533000  1.0
  O  O65  1  0.54315000  0.32729000  0.49116000  1.0
  O  O66  1  0.46126000  0.67360000  0.50494000  1.0
  O  O67  1  0.25996000  0.52654000  0.61927000  1.0
  O  O68  1  0.74724000  0.47752000  0.38630000  1.0
