# generated using pymatgen
data_Cu3P2H22C14(NO8)2
_symmetry_space_group_name_H-M   'P 1'
_cell_length_a   8.60554000
_cell_length_b   9.00100571
_cell_length_c   9.06047585
_cell_angle_alpha   71.49276928
_cell_angle_beta   67.02598295
_cell_angle_gamma   81.68339067
_symmetry_Int_Tables_number   1
_chemical_formula_structural   Cu3P2H22C14(NO8)2
_chemical_formula_sum   'Cu3 P2 H22 C14 N2 O16'
_cell_volume   612.55540146
_cell_formula_units_Z   1
loop_
 _symmetry_equiv_pos_site_id
 _symmetry_equiv_pos_as_xyz
  1  'x, y, z'
loop_
 _atom_site_type_symbol
 _atom_site_label
 _atom_site_symmetry_multiplicity
 _atom_site_fract_x
 _atom_site_fract_y
 _atom_site_fract_z
 _atom_site_occupancy
  Cu  Cu0  1  0.99998000  0.50086000  0.99895000  1.0
  Cu  Cu1  1  0.14523000  0.73164000  0.36341000  1.0
  Cu  Cu2  1  0.85460000  0.26867000  0.63550000  1.0
  P  P3  1  0.84843000  0.56712000  0.34103000  1.0
  P  P4  1  0.15185000  0.43364000  0.65687000  1.0
  H  H5  1  0.89604000  0.86992000  0.08615000  1.0
  H  H6  1  0.10425000  0.13230000  0.91385000  1.0
  H  H7  1  0.39545000  0.07516000  0.22014000  1.0
  H  H8  1  0.60399000  0.92526000  0.77987000  1.0
  H  H9  1  0.49384000  0.62303000  0.52587000  1.0
  H  H10  1  0.50646000  0.37645000  0.47194000  1.0
  H  H11  1  0.18785000  0.93823000  0.48867000  1.0
  H  H12  1  0.81159000  0.06055000  0.51194000  1.0
  H  H13  1  0.21953000  0.75092000  0.59456000  1.0
  H  H14  1  0.78104000  0.24733000  0.40415000  1.0
  H  H15  1  0.15528000  0.54777000  0.14945000  1.0
  H  H16  1  0.84503000  0.45381000  0.84814000  1.0
  H  H17  1  0.29517000  0.57016000  0.96853000  1.0
  H  H18  1  0.70540000  0.42999000  0.02902000  1.0
  H  H19  1  0.80665000  0.72656000  0.88982000  1.0
  H  H20  1  0.19233000  0.27571000  0.11308000  1.0
  H  H21  1  0.85384000  0.90828000  0.83970000  1.0
  H  H22  1  0.14706000  0.09342000  0.16146000  1.0
  H  H23  1  0.79618000  0.78066000  0.53072000  1.0
  H  H24  1  0.20375000  0.20933000  0.47866000  1.0
  H  H25  1  0.88698000  0.81999000  0.63684000  1.0
  H  H26  1  0.11450000  0.17749000  0.36673000  1.0
  C  C27  1  0.70775000  0.73426000  0.31100000  1.0
  C  C28  1  0.29252000  0.26657000  0.68783000  1.0
  C  C29  1  0.76413000  0.86430000  0.16991000  1.0
  C  C30  1  0.23606000  0.13729000  0.82981000  1.0
  C  C31  1  0.65023000  0.98644000  0.13792000  1.0
  C  C32  1  0.34960000  0.01492000  0.86212000  1.0
  C  C33  1  0.48214000  0.97946000  0.24768000  1.0
  C  C34  1  0.51756000  0.02113000  0.75216000  1.0
  C  C35  1  0.42430000  0.84730000  0.38468000  1.0
  C  C36  1  0.57563000  0.15268000  0.61449000  1.0
  C  C37  1  0.53800000  0.72559000  0.41836000  1.0
  C  C38  1  0.46221000  0.27445000  0.58015000  1.0
  C  C39  1  0.69599000  0.12186000  0.98097000  1.0
  C  C40  1  0.30329000  0.87952000  0.01908000  1.0
  N  N41  1  0.24826000  0.83163000  0.47810000  1.0
  N  N42  1  0.75180000  0.16756000  0.52114000  1.0
  O  O43  1  0.02858000  0.62873000  0.27621000  1.0
  O  O44  1  0.97166000  0.37213000  0.72160000  1.0
  O  O45  1  0.84915000  0.46536000  0.23053000  1.0
  O  O46  1  0.15064000  0.53578000  0.76724000  1.0
  O  O47  1  0.77585000  0.47715000  0.52636000  1.0
  O  O48  1  0.22473000  0.52300000  0.47145000  1.0
  O  O49  1  0.62346000  0.25198000  0.98238000  1.0
  O  O50  1  0.37555000  0.74930000  0.01761000  1.0
  O  O51  1  0.80718000  0.08837000  0.84765000  1.0
  O  O52  1  0.19176000  0.91298000  0.15228000  1.0
  O  O53  1  0.20518000  0.49878000  0.05211000  1.0
  O  O54  1  0.79477000  0.50227000  0.94578000  1.0
  O  O55  1  0.89106000  0.80576000  0.81270000  1.0
  O  O56  1  0.10990000  0.19487000  0.19071000  1.0
  O  O57  1  0.88674000  0.84237000  0.51920000  1.0
  O  O58  1  0.11199000  0.15191000  0.48580000  1.0
