# generated using pymatgen
data_CuH8C10S2BrN2
_symmetry_space_group_name_H-M   'P 1'
_cell_length_a   7.94013000
_cell_length_b   10.22320000
_cell_length_c   14.87200000
_cell_angle_alpha   89.99980000
_cell_angle_beta   90.00000000
_cell_angle_gamma   111.05900000
_symmetry_Int_Tables_number   1
_chemical_formula_structural   CuH8C10S2BrN2
_chemical_formula_sum   'Cu4 H32 C40 S8 Br4 N8'
_cell_volume   1126.58418837
_cell_formula_units_Z   4
loop_
 _symmetry_equiv_pos_site_id
 _symmetry_equiv_pos_as_xyz
  1  'x, y, z'
loop_
 _atom_site_type_symbol
 _atom_site_label
 _atom_site_symmetry_multiplicity
 _atom_site_fract_x
 _atom_site_fract_y
 _atom_site_fract_z
 _atom_site_occupancy
  Cu  Cu0  1  0.02678000  0.65096000  0.95957000  1.0
  Cu  Cu1  1  0.47320000  0.84903000  0.45957000  1.0
  Cu  Cu2  1  0.97321000  0.34903000  0.04043000  1.0
  Cu  Cu3  1  0.52681000  0.15098000  0.54044000  1.0
  H  H4  1  0.94527000  0.81458000  0.64462000  1.0
  H  H5  1  0.55473000  0.68544000  0.14462000  1.0
  H  H6  1  0.05472000  0.18541000  0.35538000  1.0
  H  H7  1  0.44528000  0.31458000  0.85538000  1.0
  H  H8  1  0.60839000  0.73285000  0.65075000  1.0
  H  H9  1  0.89162000  0.76718000  0.15075000  1.0
  H  H10  1  0.39161000  0.26715000  0.34925000  1.0
  H  H11  1  0.10839000  0.23283000  0.84926000  1.0
  H  H12  1  0.44843000  0.59326000  0.78752000  1.0
  H  H13  1  0.05157000  0.90678000  0.28753000  1.0
  H  H14  1  0.55157000  0.40676000  0.21247000  1.0
  H  H15  1  0.94843000  0.09324000  0.71247000  1.0
  H  H16  1  0.63644000  0.56459000  0.91492000  1.0
  H  H17  1  0.86354000  0.93542000  0.41492000  1.0
  H  H18  1  0.36354000  0.43541000  0.08508000  1.0
  H  H19  1  0.13646000  0.06459000  0.58508000  1.0
  H  H20  1  0.40471000  0.55537000  0.41509000  1.0
  H  H21  1  0.09530000  0.94461000  0.91510000  1.0
  H  H22  1  0.59532000  0.44464000  0.58491000  1.0
  H  H23  1  0.90471000  0.05537000  0.08490000  1.0
  H  H24  1  0.20989000  0.31883000  0.47125000  1.0
  H  H25  1  0.29015000  0.18115000  0.97125000  1.0
  H  H26  1  0.79014000  0.68118000  0.52874000  1.0
  H  H27  1  0.70985000  0.81884000  0.02875000  1.0
  H  H28  1  0.01387000  0.30423000  0.60589000  1.0
  H  H29  1  0.48616000  0.19573000  0.10589000  1.0
  H  H30  1  0.98612000  0.69576000  0.39410000  1.0
  H  H31  1  0.51383000  0.80426000  0.89412000  1.0
  H  H32  1  0.04746000  0.52432000  0.68988000  1.0
  H  H33  1  0.45256000  0.97564000  0.18987000  1.0
  H  H34  1  0.95252000  0.47567000  0.31011000  1.0
  H  H35  1  0.54743000  0.02435000  0.81013000  1.0
  C  C36  1  0.96358000  0.72779000  0.77476000  1.0
  C  C37  1  0.53642000  0.77221000  0.27476000  1.0
  C  C38  1  0.03642000  0.27220000  0.22524000  1.0
  C  C39  1  0.46359000  0.22780000  0.72524000  1.0
  C  C40  1  0.87070000  0.75652000  0.70230000  1.0
  C  C41  1  0.62930000  0.74350000  0.20231000  1.0
  C  C42  1  0.12929000  0.24348000  0.29769000  1.0
  C  C43  1  0.37071000  0.25651000  0.79769000  1.0
  C  C44  1  0.68319000  0.70910000  0.70595000  1.0
  C  C45  1  0.81681000  0.79092000  0.20595000  1.0
  C  C46  1  0.31681000  0.29090000  0.29405000  1.0
  C  C47  1  0.18320000  0.20909000  0.79405000  1.0
  C  C48  1  0.59506000  0.63461000  0.78152000  1.0
  C  C49  1  0.90494000  0.86542000  0.28152000  1.0
  C  C50  1  0.40493000  0.36540000  0.21848000  1.0
  C  C51  1  0.09507000  0.13459000  0.71848000  1.0
  C  C52  1  0.69810000  0.61699000  0.85275000  1.0
  C  C53  1  0.80190000  0.88302000  0.35276000  1.0
  C  C54  1  0.30189000  0.38301000  0.14724000  1.0
  C  C55  1  0.19810000  0.11698000  0.64724000  1.0
  C  C56  1  0.32421000  0.54379000  0.47596000  1.0
  C  C57  1  0.17579000  0.95617000  0.97596000  1.0
  C  C58  1  0.67581000  0.45620000  0.52404000  1.0
  C  C59  1  0.82421000  0.04381000  0.02403000  1.0
  C  C60  1  0.21392000  0.41292000  0.50662000  1.0
  C  C61  1  0.28611000  0.08707000  0.00662000  1.0
  C  C62  1  0.78609000  0.58708000  0.49337000  1.0
  C  C63  1  0.71389000  0.91292000  0.99338000  1.0
  C  C64  1  0.10866000  0.40498000  0.58307000  1.0
  C  C65  1  0.39135000  0.09499000  0.08307000  1.0
  C  C66  1  0.89133000  0.59502000  0.41692000  1.0
  C  C67  1  0.60864000  0.90501000  0.91693000  1.0
  C  C68  1  0.12522000  0.52729000  0.62912000  1.0
  C  C69  1  0.37481000  0.97269000  0.12912000  1.0
  C  C70  1  0.87477000  0.47270000  0.37087000  1.0
  C  C71  1  0.62519000  0.02731000  0.87088000  1.0
  C  C72  1  0.24425000  0.65489000  0.59571000  1.0
  C  C73  1  0.25574000  0.84508000  0.09571000  1.0
  C  C74  1  0.75575000  0.34511000  0.40429000  1.0
  C  C75  1  0.74426000  0.15491000  0.90429000  1.0
  S  S76  1  0.20032000  0.76776000  0.77780000  1.0
  S  S77  1  0.29967000  0.73223000  0.27781000  1.0
  S  S78  1  0.79967000  0.23222000  0.22220000  1.0
  S  S79  1  0.70033000  0.26778000  0.72220000  1.0
  S  S80  1  0.28437000  0.82037000  0.64669000  1.0
  S  S81  1  0.21561000  0.67959000  0.14670000  1.0
  S  S82  1  0.71562000  0.17962000  0.35331000  1.0
  S  S83  1  0.78439000  0.32040000  0.85331000  1.0
  Br  Br84  1  0.22500000  0.51161000  0.94128000  1.0
  Br  Br85  1  0.27501000  0.98840000  0.44128000  1.0
  Br  Br86  1  0.77500000  0.48839000  0.05873000  1.0
  Br  Br87  1  0.72501000  0.01162000  0.55872000  1.0
  N  N88  1  0.88048000  0.66315000  0.85058000  1.0
  N  N89  1  0.61950000  0.83685000  0.35058000  1.0
  N  N90  1  0.11950000  0.33685000  0.14942000  1.0
  N  N91  1  0.38050000  0.16315000  0.64943000  1.0
  N  N92  1  0.33889000  0.66438000  0.51861000  1.0
  N  N93  1  0.16111000  0.83560000  0.01861000  1.0
  N  N94  1  0.66112000  0.33562000  0.48139000  1.0
  N  N95  1  0.83890000  0.16439000  0.98139000  1.0
