# generated using pymatgen
data_Cd2H22C20S2N4O11
_symmetry_space_group_name_H-M   'P 1'
_cell_length_a   9.54938000
_cell_length_b   13.21740000
_cell_length_c   13.59560000
_cell_angle_alpha   118.36300000
_cell_angle_beta   90.00000000
_cell_angle_gamma   111.17600000
_symmetry_Int_Tables_number   1
_chemical_formula_structural   Cd2H22C20S2N4O11
_chemical_formula_sum   'Cd4 H44 C40 S4 N8 O22'
_cell_volume   1376.91070672
_cell_formula_units_Z   2
loop_
 _symmetry_equiv_pos_site_id
 _symmetry_equiv_pos_as_xyz
  1  'x, y, z'
loop_
 _atom_site_type_symbol
 _atom_site_label
 _atom_site_symmetry_multiplicity
 _atom_site_fract_x
 _atom_site_fract_y
 _atom_site_fract_z
 _atom_site_occupancy
  Cd  Cd0  1  0.17905000  0.50441000  0.85461000  1.0
  Cd  Cd1  1  0.67469000  0.49555000  0.14536000  1.0
  Cd  Cd2  1  0.68090000  0.49271000  0.61432000  1.0
  Cd  Cd3  1  0.18818000  0.50727000  0.38566000  1.0
  H  H4  1  0.42573000  0.80232000  0.98359000  1.0
  H  H5  1  0.62327000  0.19761000  0.01651000  1.0
  H  H6  1  0.43459000  0.01476000  0.10422000  1.0
  H  H7  1  0.41971000  0.98516000  0.89582000  1.0
  H  H8  1  0.94514000  0.83687000  0.08068000  1.0
  H  H9  1  0.10815000  0.16303000  0.91927000  1.0
  H  H10  1  0.96111000  0.63144000  0.97152000  1.0
  H  H11  1  0.32953000  0.36845000  0.02844000  1.0
  H  H12  1  0.43570000  0.18229000  0.20939000  1.0
  H  H13  1  0.25318000  0.81767000  0.79068000  1.0
  H  H14  1  0.41807000  0.38652000  0.29475000  1.0
  H  H15  1  0.03129000  0.61344000  0.70528000  1.0
  H  H16  1  0.94162000  0.22055000  0.22004000  1.0
  H  H17  1  0.72085000  0.77945000  0.77996000  1.0
  H  H18  1  0.93641000  0.00573000  0.12267000  1.0
  H  H19  1  0.93050000  0.99429000  0.87734000  1.0
  H  H20  1  0.42268000  0.37905000  0.77871000  1.0
  H  H21  1  0.04400000  0.62114000  0.22133000  1.0
  H  H22  1  0.43591000  0.17576000  0.69521000  1.0
  H  H23  1  0.26035000  0.82450000  0.30489000  1.0
  H  H24  1  0.93613000  0.00459000  0.62107000  1.0
  H  H25  1  0.93143000  0.99534000  0.37871000  1.0
  H  H26  1  0.94422000  0.21876000  0.71077000  1.0
  H  H27  1  0.72549000  0.78110000  0.28902000  1.0
  H  H28  1  0.94616000  0.62871000  0.46727000  1.0
  H  H29  1  0.31748000  0.37142000  0.53282000  1.0
  H  H30  1  0.93543000  0.83543000  0.56155000  1.0
  H  H31  1  0.09991000  0.16473000  0.43856000  1.0
  H  H32  1  0.43373000  0.00337000  0.61665000  1.0
  H  H33  1  0.43018000  0.99667000  0.38328000  1.0
  H  H34  1  0.42121000  0.78609000  0.52107000  1.0
  H  H35  1  0.63500000  0.21388000  0.47887000  1.0
  H  H36  1  0.20130000  0.50919000  0.08369000  1.0
  H  H37  1  0.69198000  0.49076000  0.91627000  1.0
  H  H38  1  0.03635000  0.43878000  0.01126000  1.0
  H  H39  1  0.59729000  0.56103000  0.98864000  1.0
  H  H40  1  0.49309000  0.68125000  0.98928000  1.0
  H  H41  1  0.81180000  0.31867000  0.01074000  1.0
  H  H42  1  0.49596000  0.60011000  0.85634000  1.0
  H  H43  1  0.89585000  0.39992000  0.14368000  1.0
  H  H44  1  0.65989000  0.54654000  0.43417000  1.0
  H  H45  1  0.11351000  0.45347000  0.56589000  1.0
  H  H46  1  0.56366000  0.60428000  0.52483000  1.0
  H  H47  1  0.95951000  0.39569000  0.47526000  1.0
  C  C48  1  0.32264000  0.81335000  0.01157000  1.0
  C  C49  1  0.50912000  0.18655000  0.98849000  1.0
  C  C50  1  0.32595000  0.93316000  0.07636000  1.0
  C  C51  1  0.39261000  0.06675000  0.92368000  1.0
  C  C52  1  0.18860000  0.94665000  0.10025000  1.0
  C  C53  1  0.24179000  0.05327000  0.89977000  1.0
  C  C54  1  0.05572000  0.83545000  0.06284000  1.0
  C  C55  1  0.22014000  0.16448000  0.93715000  1.0
  C  C56  1  0.06302000  0.71888000  0.00167000  1.0
  C  C57  1  0.34401000  0.28103000  0.99834000  1.0
  C  C58  1  0.18572000  0.07272000  0.15766000  1.0
  C  C59  1  0.11280000  0.92725000  0.84236000  1.0
  C  C60  1  0.32194000  0.18301000  0.20731000  1.0
  C  C61  1  0.13868000  0.81695000  0.79272000  1.0
  C  C62  1  0.31404000  0.29953000  0.25730000  1.0
  C  C63  1  0.01427000  0.70046000  0.74273000  1.0
  C  C64  1  0.04812000  0.20702000  0.21486000  1.0
  C  C65  1  0.84089000  0.79300000  0.78514000  1.0
  C  C66  1  0.04668000  0.08710000  0.16138000  1.0
  C  C67  1  0.95938000  0.91291000  0.83863000  1.0
  C  C68  1  0.31638000  0.29453000  0.74448000  1.0
  C  C69  1  0.02208000  0.70557000  0.25550000  1.0
  C  C70  1  0.32257000  0.17749000  0.69643000  1.0
  C  C71  1  0.14523000  0.82267000  0.30360000  1.0
  C  C72  1  0.18536000  0.06810000  0.65082000  1.0
  C  C73  1  0.11725000  0.93199000  0.34916000  1.0
  C  C74  1  0.04757000  0.08457000  0.65611000  1.0
  C  C75  1  0.96296000  0.91543000  0.34375000  1.0
  C  C76  1  0.05063000  0.20483000  0.70612000  1.0
  C  C77  1  0.84586000  0.79510000  0.29371000  1.0
  C  C78  1  0.05151000  0.71428000  0.50199000  1.0
  C  C79  1  0.33721000  0.28583000  0.49808000  1.0
  C  C80  1  0.04736000  0.83201000  0.55520000  1.0
  C  C81  1  0.21525000  0.16811000  0.44489000  1.0
  C  C82  1  0.18491000  0.94095000  0.59782000  1.0
  C  C83  1  0.24388000  0.05917000  0.40220000  1.0
  C  C84  1  0.32219000  0.92390000  0.58645000  1.0
  C  C85  1  0.39817000  0.07617000  0.41354000  1.0
  C  C86  1  0.31726000  0.80284000  0.53297000  1.0
  C  C87  1  0.51434000  0.19720000  0.46702000  1.0
  S  S88  1  0.39634000  0.62555000  0.69872000  1.0
  S  S89  1  0.77087000  0.37452000  0.30133000  1.0
  S  S90  1  0.78473000  0.36601000  0.72855000  1.0
  S  S91  1  0.41871000  0.63395000  0.27142000  1.0
  N  N92  1  0.19403000  0.70740000  0.97402000  1.0
  N  N93  1  0.48648000  0.29252000  0.02602000  1.0
  N  N94  1  0.18007000  0.31181000  0.26207000  1.0
  N  N95  1  0.86803000  0.68820000  0.73795000  1.0
  N  N96  1  0.18351000  0.30883000  0.75022000  1.0
  N  N97  1  0.87488000  0.69119000  0.24969000  1.0
  N  N98  1  0.18394000  0.69959000  0.49023000  1.0
  N  N99  1  0.48429000  0.30046000  0.50979000  1.0
  O  O100  1  0.23686000  0.55073000  0.70508000  1.0
  O  O101  1  0.68606000  0.44922000  0.29492000  1.0
  O  O102  1  0.44653000  0.76087000  0.78116000  1.0
  O  O103  1  0.68586000  0.23917000  0.21892000  1.0
  O  O104  1  0.50485000  0.57897000  0.72878000  1.0
  O  O105  1  0.92592000  0.42118000  0.27126000  1.0
  O  O106  1  0.39328000  0.59693000  0.57884000  1.0
  O  O107  1  0.79648000  0.40317000  0.42122000  1.0
  O  O108  1  0.83935000  0.39989000  0.63984000  1.0
  O  O109  1  0.43945000  0.60012000  0.36016000  1.0
  O  O110  1  0.71270000  0.22869000  0.67958000  1.0
  O  O111  1  0.48403000  0.77127000  0.32035000  1.0
  O  O112  1  0.67362000  0.42484000  0.77613000  1.0
  O  O113  1  0.24877000  0.57515000  0.22384000  1.0
  O  O114  1  0.91838000  0.42471000  0.82506000  1.0
  O  O115  1  0.49366000  0.57521000  0.17491000  1.0
  O  O116  1  0.14346000  0.45700000  0.00195000  1.0
  O  O117  1  0.68621000  0.54287000  0.99799000  1.0
  O  O118  1  0.46113000  0.59554000  0.92551000  1.0
  O  O119  1  0.86557000  0.40441000  0.07447000  1.0
  O  O120  1  0.66243000  0.59542000  0.51697000  1.0
  O  O121  1  0.06716000  0.40457000  0.48309000  1.0
