# generated using pymatgen
data_MgH5C8O3
_symmetry_space_group_name_H-M   'P 1'
_cell_length_a   6.82559000
_cell_length_b   26.01500000
_cell_length_c   26.02410000
_cell_angle_alpha   119.22900000
_cell_angle_beta   94.94240000
_cell_angle_gamma   95.03520000
_symmetry_Int_Tables_number   1
_chemical_formula_structural   MgH5C8O3
_chemical_formula_sum   'Mg6 H30 C48 O18'
_cell_volume   3972.62027823
_cell_formula_units_Z   6
loop_
 _symmetry_equiv_pos_site_id
 _symmetry_equiv_pos_as_xyz
  1  'x, y, z'
loop_
 _atom_site_type_symbol
 _atom_site_label
 _atom_site_symmetry_multiplicity
 _atom_site_fract_x
 _atom_site_fract_y
 _atom_site_fract_z
 _atom_site_occupancy
  Mg  Mg0  1  0.16652000  0.66683000  0.29282000  1.0
  Mg  Mg1  1  0.87325000  0.70702000  0.37386000  1.0
  Mg  Mg2  1  0.49946000  0.62597000  0.33304000  1.0
  Mg  Mg3  1  0.83350000  0.33316000  0.70718000  1.0
  Mg  Mg4  1  0.12676000  0.29298000  0.62614000  1.0
  Mg  Mg5  1  0.50055000  0.37404000  0.66696000  1.0
  H  H6  1  0.66398000  0.87409000  0.43919000  1.0
  H  H7  1  0.22494000  0.56073000  0.43485000  1.0
  H  H8  1  0.79132000  0.56501000  0.12584000  1.0
  H  H9  1  0.50352000  0.00104000  0.44167000  1.0
  H  H10  1  0.05942000  0.55832000  0.55938000  1.0
  H  H11  1  0.50347000  0.44067000  0.99899000  1.0
  H  H12  1  0.68731000  0.97686000  0.47319000  1.0
  H  H13  1  0.21418000  0.52721000  0.50427000  1.0
  H  H14  1  0.71113000  0.49643000  0.02274000  1.0
  H  H15  1  0.49646000  0.99896000  0.55833000  1.0
  H  H16  1  0.94058000  0.44167000  0.44061000  1.0
  H  H17  1  0.49652000  0.55932000  0.00101000  1.0
  H  H18  1  0.31267000  0.02314000  0.52682000  1.0
  H  H19  1  0.78581000  0.47279000  0.49572000  1.0
  H  H20  1  0.28886000  0.50357000  0.97726000  1.0
  H  H21  1  0.33602000  0.12592000  0.56081000  1.0
  H  H22  1  0.77507000  0.43927000  0.56515000  1.0
  H  H23  1  0.20867000  0.43499000  0.87416000  1.0
  H  H24  1  0.06361000  0.15674000  0.62250000  1.0
  H  H25  1  0.44140000  0.37759000  0.53431000  1.0
  H  H26  1  0.90578000  0.46588000  0.84322000  1.0
  H  H27  1  0.87460000  0.05460000  0.57074000  1.0
  H  H28  1  0.30401000  0.42926000  0.48384000  1.0
  H  H29  1  0.81853000  0.51612000  0.94532000  1.0
  H  H30  1  0.12537000  0.94540000  0.42926000  1.0
  H  H31  1  0.69599000  0.57074000  0.51616000  1.0
  H  H32  1  0.18144000  0.48388000  0.05468000  1.0
  H  H33  1  0.93639000  0.84325000  0.37750000  1.0
  H  H34  1  0.55861000  0.62242000  0.46570000  1.0
  H  H35  1  0.09421000  0.53412000  0.15679000  1.0
  C  C36  1  0.19048000  0.80018000  0.37729000  1.0
  C  C37  1  0.81302000  0.62253000  0.42275000  1.0
  C  C38  1  0.39119000  0.57706000  0.19978000  1.0
  C  C39  1  0.40044000  0.80986000  0.39574000  1.0
  C  C40  1  0.00461000  0.60407000  0.41398000  1.0
  C  C41  1  0.59155000  0.58586000  0.19005000  1.0
  C  C42  1  0.50415000  0.86850000  0.42569000  1.0
  C  C43  1  0.07844000  0.57418000  0.44271000  1.0
  C  C44  1  0.63698000  0.55714000  0.13144000  1.0
  C  C45  1  0.41130000  0.91780000  0.43786000  1.0
  C  C46  1  0.97345000  0.56214000  0.47995000  1.0
  C  C47  1  0.49499000  0.52001000  0.08219000  1.0
  C  C48  1  0.52737000  0.97976000  0.46893000  1.0
  C  C49  1  0.05798000  0.53115000  0.51095000  1.0
  C  C50  1  0.54843000  0.48921000  0.02017000  1.0
  C  C51  1  0.47261000  0.02024000  0.53108000  1.0
  C  C52  1  0.94202000  0.46884000  0.48904000  1.0
  C  C53  1  0.45155000  0.51079000  0.97983000  1.0
  C  C54  1  0.58869000  0.08220000  0.56215000  1.0
  C  C55  1  0.02655000  0.43786000  0.52005000  1.0
  C  C56  1  0.50499000  0.47999000  0.91781000  1.0
  C  C57  1  0.49585000  0.13150000  0.57431000  1.0
  C  C58  1  0.92157000  0.42582000  0.55730000  1.0
  C  C59  1  0.36300000  0.44285000  0.86856000  1.0
  C  C60  1  0.59956000  0.19013000  0.60426000  1.0
  C  C61  1  0.99541000  0.39593000  0.58603000  1.0
  C  C62  1  0.40844000  0.41414000  0.80995000  1.0
  C  C63  1  0.80952000  0.19983000  0.62271000  1.0
  C  C64  1  0.18698000  0.37747000  0.57726000  1.0
  C  C65  1  0.60881000  0.42294000  0.80022000  1.0
  C  C66  1  0.90335000  0.14926000  0.60885000  1.0
  C  C67  1  0.29473000  0.39128000  0.54050000  1.0
  C  C68  1  0.75293000  0.45967000  0.85073000  1.0
  C  C69  1  0.79601000  0.09230000  0.57971000  1.0
  C  C70  1  0.21646000  0.42034000  0.51264000  1.0
  C  C71  1  0.70228000  0.48745000  0.90764000  1.0
  C  C72  1  0.48414000  0.23893000  0.61516000  1.0
  C  C73  1  0.86905000  0.38506000  0.62394000  1.0
  C  C74  1  0.24450000  0.37619000  0.76118000  1.0
  C  C75  1  0.20398000  0.90769000  0.42029000  1.0
  C  C76  1  0.78354000  0.57966000  0.48736000  1.0
  C  C77  1  0.29771000  0.51254000  0.09236000  1.0
  C  C78  1  0.09667000  0.85074000  0.39115000  1.0
  C  C79  1  0.70528000  0.60873000  0.45951000  1.0
  C  C80  1  0.24706000  0.54033000  0.14927000  1.0
  C  C81  1  0.51587000  0.76108000  0.38484000  1.0
  C  C82  1  0.13097000  0.61495000  0.37606000  1.0
  C  C83  1  0.75550000  0.62380000  0.23882000  1.0
  O  O84  1  0.69957000  0.77169000  0.40595000  1.0
  O  O85  1  0.29369000  0.59384000  0.36558000  1.0
  O  O86  1  0.92870000  0.63435000  0.22820000  1.0
  O  O87  1  0.42630000  0.70675000  0.35230000  1.0
  O  O88  1  0.07383000  0.64745000  0.35424000  1.0
  O  O89  1  0.71986000  0.64561000  0.29311000  1.0
  O  O90  1  0.07876000  0.74610000  0.34748000  1.0
  O  O91  1  0.73100000  0.65231000  0.39846000  1.0
  O  O92  1  0.33310000  0.60138000  0.25381000  1.0
  O  O93  1  0.30045000  0.22831000  0.59405000  1.0
  O  O94  1  0.70634000  0.40617000  0.63443000  1.0
  O  O95  1  0.07131000  0.36565000  0.77180000  1.0
  O  O96  1  0.57371000  0.29325000  0.64769000  1.0
  O  O97  1  0.92619000  0.35256000  0.64577000  1.0
  O  O98  1  0.28015000  0.35438000  0.70688000  1.0
  O  O99  1  0.92125000  0.25389000  0.65251000  1.0
  O  O100  1  0.26901000  0.34770000  0.60155000  1.0
  O  O101  1  0.66691000  0.39862000  0.74619000  1.0
