# generated using pymatgen
data_Cu2H16C20S(NO)4
_symmetry_space_group_name_H-M   'P 1'
_cell_length_a   9.60727000
_cell_length_b   9.61067000
_cell_length_c   13.94680000
_cell_angle_alpha   99.60250000
_cell_angle_beta   99.57400000
_cell_angle_gamma   112.88800000
_symmetry_Int_Tables_number   1
_chemical_formula_structural   Cu2H16C20S(NO)4
_chemical_formula_sum   'Cu4 H32 C40 S2 N8 O8'
_cell_volume   1131.20657094
_cell_formula_units_Z   2
loop_
 _symmetry_equiv_pos_site_id
 _symmetry_equiv_pos_as_xyz
  1  'x, y, z'
loop_
 _atom_site_type_symbol
 _atom_site_label
 _atom_site_symmetry_multiplicity
 _atom_site_fract_x
 _atom_site_fract_y
 _atom_site_fract_z
 _atom_site_occupancy
  Cu  Cu0  1  0.04714000  0.12636000  0.68887000  1.0
  Cu  Cu1  1  0.87365000  0.95283000  0.81113000  1.0
  Cu  Cu2  1  0.95285000  0.87366000  0.31113000  1.0
  Cu  Cu3  1  0.12637000  0.04716000  0.18887000  1.0
  H  H4  1  0.12826000  0.43860000  0.79732000  1.0
  H  H5  1  0.56135000  0.87162000  0.70269000  1.0
  H  H6  1  0.87174000  0.56145000  0.20265000  1.0
  H  H7  1  0.43867000  0.12838000  0.29731000  1.0
  H  H8  1  0.37085000  0.66824000  0.89959000  1.0
  H  H9  1  0.33169000  0.62905000  0.60042000  1.0
  H  H10  1  0.62917000  0.33180000  0.10039000  1.0
  H  H11  1  0.66833000  0.37095000  0.39958000  1.0
  H  H12  1  0.61800000  0.37793000  0.85451000  1.0
  H  H13  1  0.62209000  0.38203000  0.64554000  1.0
  H  H14  1  0.38198000  0.62206000  0.14551000  1.0
  H  H15  1  0.37791000  0.61795000  0.35447000  1.0
  H  H16  1  0.36931000  0.16562000  0.75653000  1.0
  H  H17  1  0.83443000  0.63070000  0.74350000  1.0
  H  H18  1  0.63066000  0.83438000  0.24349000  1.0
  H  H19  1  0.16558000  0.36928000  0.25650000  1.0
  H  H20  1  0.82825000  0.05164000  0.09307000  1.0
  H  H21  1  0.94828000  0.17170000  0.40694000  1.0
  H  H22  1  0.17176000  0.94836000  0.90693000  1.0
  H  H23  1  0.05172000  0.82832000  0.59306000  1.0
  H  H24  1  0.58061000  0.85311000  0.97781000  1.0
  H  H25  1  0.14677000  0.41929000  0.52224000  1.0
  H  H26  1  0.41940000  0.14689000  0.02220000  1.0
  H  H27  1  0.85325000  0.58072000  0.47777000  1.0
  H  H28  1  0.81144000  0.54708000  0.93580000  1.0
  H  H29  1  0.45295000  0.18862000  0.56420000  1.0
  H  H30  1  0.18855000  0.45293000  0.06418000  1.0
  H  H31  1  0.54703000  0.81136000  0.43580000  1.0
  H  H32  1  0.04659000  0.75662000  0.05809000  1.0
  H  H33  1  0.24341000  0.95348000  0.44190000  1.0
  H  H34  1  0.95340000  0.24337000  0.94190000  1.0
  H  H35  1  0.75657000  0.04651000  0.55810000  1.0
  C  C36  1  0.24080000  0.43282000  0.81264000  1.0
  C  C37  1  0.56715000  0.75911000  0.68738000  1.0
  C  C38  1  0.75920000  0.56721000  0.18735000  1.0
  C  C39  1  0.43287000  0.24088000  0.31262000  1.0
  C  C40  1  0.37767000  0.55964000  0.86946000  1.0
  C  C41  1  0.44032000  0.62225000  0.63056000  1.0
  C  C42  1  0.62235000  0.44040000  0.13053000  1.0
  C  C43  1  0.55969000  0.37774000  0.36944000  1.0
  C  C44  1  0.51954000  0.54585000  0.88838000  1.0
  C  C45  1  0.45412000  0.48042000  0.61165000  1.0
  C  C46  1  0.48046000  0.45416000  0.11162000  1.0
  C  C47  1  0.54589000  0.51957000  0.38835000  1.0
  C  C48  1  0.51344000  0.39913000  0.84728000  1.0
  C  C49  1  0.60089000  0.48655000  0.65275000  1.0
  C  C50  1  0.48654000  0.60087000  0.15273000  1.0
  C  C51  1  0.39912000  0.51343000  0.34725000  1.0
  C  C52  1  0.37292000  0.27783000  0.79079000  1.0
  C  C53  1  0.72219000  0.62706000  0.70924000  1.0
  C  C54  1  0.62706000  0.72218000  0.20923000  1.0
  C  C55  1  0.27782000  0.37292000  0.29076000  1.0
  C  C56  1  0.81808000  0.93682000  0.05808000  1.0
  C  C57  1  0.06312000  0.18189000  0.44192000  1.0
  C  C58  1  0.18193000  0.06318000  0.94192000  1.0
  C  C59  1  0.93688000  0.81812000  0.55808000  1.0
  C  C60  1  0.67952000  0.82410000  0.99278000  1.0
  C  C61  1  0.17584000  0.32044000  0.50725000  1.0
  C  C62  1  0.32049000  0.17590000  0.00722000  1.0
  C  C63  1  0.82417000  0.67957000  0.49276000  1.0
  C  C64  1  0.66807000  0.67561000  0.94975000  1.0
  C  C65  1  0.32436000  0.33192000  0.55026000  1.0
  C  C66  1  0.33193000  0.32440000  0.05024000  1.0
  C  C67  1  0.67565000  0.66808000  0.44974000  1.0
  C  C68  1  0.80632000  0.65509000  0.97002000  1.0
  C  C69  1  0.34493000  0.19373000  0.52998000  1.0
  C  C70  1  0.19369000  0.34492000  0.02997000  1.0
  C  C71  1  0.65506000  0.80626000  0.47002000  1.0
  C  C72  1  0.94046000  0.77269000  0.03654000  1.0
  C  C73  1  0.22733000  0.05959000  0.46346000  1.0
  C  C74  1  0.05954000  0.22730000  0.96345000  1.0
  C  C75  1  0.77266000  0.94040000  0.53654000  1.0
  S  S76  1  0.77257000  0.22739000  0.75003000  1.0
  S  S77  1  0.22741000  0.77259000  0.24997000  1.0
  N  N78  1  0.23705000  0.29226000  0.77281000  1.0
  N  N79  1  0.70773000  0.76290000  0.72720000  1.0
  N  N80  1  0.76294000  0.70776000  0.22718000  1.0
  N  N81  1  0.29229000  0.23709000  0.27280000  1.0
  N  N82  1  0.94652000  0.91103000  0.08359000  1.0
  N  N83  1  0.08896000  0.05351000  0.41641000  1.0
  N  N84  1  0.05347000  0.08895000  0.91640000  1.0
  N  N85  1  0.91104000  0.94651000  0.58360000  1.0
  O  O86  1  0.89899000  0.24548000  0.69528000  1.0
  O  O87  1  0.75448000  0.10088000  0.80463000  1.0
  O  O88  1  0.10099000  0.75451000  0.30472000  1.0
  O  O89  1  0.24551000  0.89909000  0.19536000  1.0
  O  O90  1  0.81980000  0.37785000  0.82446000  1.0
  O  O91  1  0.62201000  0.18031000  0.67573000  1.0
  O  O92  1  0.18017000  0.62213000  0.17555000  1.0
  O  O93  1  0.37796000  0.81966000  0.32427000  1.0
