# generated using pymatgen
data_CuH3C2SN4
_symmetry_space_group_name_H-M   'P 1'
_cell_length_a   4.90859000
_cell_length_b   8.63418000
_cell_length_c   11.64820000
_cell_angle_alpha   69.60300000
_cell_angle_beta   89.99990000
_cell_angle_gamma   89.99990000
_symmetry_Int_Tables_number   1
_chemical_formula_structural   CuH3C2SN4
_chemical_formula_sum   'Cu4 H12 C8 S4 N16'
_cell_volume   462.71694445
_cell_formula_units_Z   4
loop_
 _symmetry_equiv_pos_site_id
 _symmetry_equiv_pos_as_xyz
  1  'x, y, z'
loop_
 _atom_site_type_symbol
 _atom_site_label
 _atom_site_symmetry_multiplicity
 _atom_site_fract_x
 _atom_site_fract_y
 _atom_site_fract_z
 _atom_site_occupancy
  Cu  Cu0  1  0.49412000  0.67179000  0.84422000  1.0
  Cu  Cu1  1  0.99412000  0.82821000  0.65578000  1.0
  Cu  Cu2  1  0.50589000  0.32821000  0.15578000  1.0
  Cu  Cu3  1  0.00588000  0.17179000  0.34422000  1.0
  H  H4  1  0.34549000  0.41194000  0.64781000  1.0
  H  H5  1  0.84549000  0.08806000  0.85219000  1.0
  H  H6  1  0.65452000  0.58806000  0.35219000  1.0
  H  H7  1  0.15451000  0.91194000  0.14781000  1.0
  H  H8  1  0.10867000  0.24154000  0.68437000  1.0
  H  H9  1  0.60867000  0.25846000  0.81563000  1.0
  H  H10  1  0.89133000  0.75846000  0.31563000  1.0
  H  H11  1  0.39133000  0.74154000  0.18437000  1.0
  H  H12  1  0.13502000  0.38583000  0.53090000  1.0
  H  H13  1  0.63503000  0.11417000  0.96911000  1.0
  H  H14  1  0.86497000  0.61417000  0.46911000  1.0
  H  H15  1  0.36497000  0.88583000  0.03090000  1.0
  C  C16  1  0.49945000  0.05090000  0.64936000  1.0
  C  C17  1  0.99945000  0.44911000  0.85064000  1.0
  C  C18  1  0.50055000  0.94910000  0.35064000  1.0
  C  C19  1  0.00055000  0.55089000  0.14936000  1.0
  C  C20  1  0.24681000  0.32098000  0.61524000  1.0
  C  C21  1  0.74682000  0.17902000  0.88476000  1.0
  C  C22  1  0.75319000  0.67902000  0.38476000  1.0
  C  C23  1  0.25319000  0.82098000  0.11524000  1.0
  S  S24  1  0.30409000  0.92394000  0.76715000  1.0
  S  S25  1  0.80409000  0.57606000  0.73285000  1.0
  S  S26  1  0.69591000  0.07606000  0.23285000  1.0
  S  S27  1  0.19591000  0.42394000  0.26715000  1.0
  N  N28  1  0.71760000  0.01446000  0.59272000  1.0
  N  N29  1  0.21761000  0.48554000  0.90728000  1.0
  N  N30  1  0.28239000  0.98554000  0.40727000  1.0
  N  N31  1  0.78240000  0.51446000  0.09272000  1.0
  N  N32  1  0.78596000  0.15585000  0.49954000  1.0
  N  N33  1  0.28596000  0.34415000  0.00046000  1.0
  N  N34  1  0.21404000  0.84415000  0.50046000  1.0
  N  N35  1  0.71404000  0.65585000  0.99954000  1.0
  N  N36  1  0.62756000  0.27767000  0.49726000  1.0
  N  N37  1  0.12757000  0.22233000  0.00274000  1.0
  N  N38  1  0.37243000  0.72233000  0.50274000  1.0
  N  N39  1  0.87243000  0.77767000  0.99726000  1.0
  N  N40  1  0.44980000  0.21534000  0.59005000  1.0
  N  N41  1  0.94980000  0.28466000  0.90995000  1.0
  N  N42  1  0.55020000  0.78466000  0.40995000  1.0
  N  N43  1  0.05020000  0.71534000  0.09005000  1.0
