# generated using pymatgen
data_ZnH21C25(NO3)3
_symmetry_space_group_name_H-M   'P 1'
_cell_length_a   9.75881000
_cell_length_b   10.64510000
_cell_length_c   12.06390000
_cell_angle_alpha   87.86660000
_cell_angle_beta   84.65240000
_cell_angle_gamma   69.44840000
_symmetry_Int_Tables_number   1
_chemical_formula_structural   ZnH21C25(NO3)3
_chemical_formula_sum   'Zn2 H42 C50 N6 O18'
_cell_volume   1168.35845445
_cell_formula_units_Z   2
loop_
 _symmetry_equiv_pos_site_id
 _symmetry_equiv_pos_as_xyz
  1  'x, y, z'
loop_
 _atom_site_type_symbol
 _atom_site_label
 _atom_site_symmetry_multiplicity
 _atom_site_fract_x
 _atom_site_fract_y
 _atom_site_fract_z
 _atom_site_occupancy
  Zn  Zn0  1  0.32915000  0.80497000  0.96128000  1.0
  Zn  Zn1  1  0.67085000  0.19503000  0.03872000  1.0
  H  H2  1  0.77503000  0.79183000  0.98796000  1.0
  H  H3  1  0.22497000  0.20817000  0.01204000  1.0
  H  H4  1  0.74392000  0.47624000  0.21197000  1.0
  H  H5  1  0.25608000  0.52376000  0.78802000  1.0
  H  H6  1  0.15586000  0.53990000  0.14646000  1.0
  H  H7  1  0.84414000  0.46010000  0.85354000  1.0
  H  H8  1  0.86513000  0.57280000  0.39892000  1.0
  H  H9  1  0.13487000  0.42720000  0.60108000  1.0
  H  H10  1  0.76981000  0.52024000  0.58770000  1.0
  H  H11  1  0.23019000  0.47976000  0.41230000  1.0
  H  H12  1  0.64661000  0.35941000  0.79395000  1.0
  H  H13  1  0.35339000  0.64059000  0.20605000  1.0
  H  H14  1  0.95242000  0.09915000  0.51207000  1.0
  H  H15  1  0.04757000  0.90085000  0.48793000  1.0
  H  H16  1  0.08620000  0.03456000  0.32236000  1.0
  H  H17  1  0.91380000  0.96544000  0.67764000  1.0
  H  H18  1  0.07578000  0.15915000  0.22536000  1.0
  H  H19  1  0.92422000  0.84085000  0.77464000  1.0
  H  H20  1  0.12837000  0.96412000  0.78901000  1.0
  H  H21  1  0.87163000  0.03587000  0.21099000  1.0
  H  H22  1  0.14897000  0.11057000  0.62601000  1.0
  H  H23  1  0.85103000  0.88943000  0.37399000  1.0
  H  H24  1  0.56278000  0.09923000  0.73767000  1.0
  H  H25  1  0.43722000  0.90076000  0.26233000  1.0
  H  H26  1  0.52060000  0.96129000  0.89688000  1.0
  H  H27  1  0.47940000  0.03870000  0.10313000  1.0
  H  H28  1  0.26260000  0.11004000  0.45950000  1.0
  H  H29  1  0.73740000  0.88996000  0.54050000  1.0
  H  H30  1  0.33065000  0.21445000  0.28719000  1.0
  H  H31  1  0.66935000  0.78555000  0.71282000  1.0
  H  H32  1  0.59833000  0.36283000  0.44870000  1.0
  H  H33  1  0.40167000  0.63717000  0.55130000  1.0
  H  H34  1  0.52588000  0.27941000  0.63259000  1.0
  H  H35  1  0.47413000  0.72059000  0.36741000  1.0
  H  H36  1  0.14765000  0.02949000  0.07381000  1.0
  H  H37  1  0.85235000  0.97051000  0.92619000  1.0
  H  H38  1  0.21506000  0.91057000  0.15924000  1.0
  H  H39  1  0.78494000  0.08943000  0.84076000  1.0
  H  H40  1  0.43089000  0.56399000  0.85162000  1.0
  H  H41  1  0.56911000  0.43601000  0.14838000  1.0
  H  H42  1  0.45566000  0.67294000  0.76208000  1.0
  H  H43  1  0.54434000  0.32706000  0.23792000  1.0
  C  C44  1  0.06662000  0.75045000  0.00483000  1.0
  C  C45  1  0.93338000  0.24955000  0.99517000  1.0
  C  C46  1  0.97442000  0.67597000  0.06224000  1.0
  C  C47  1  0.02558000  0.32403000  0.93775000  1.0
  C  C48  1  0.82619000  0.71040000  0.04453000  1.0
  C  C49  1  0.17381000  0.28961000  0.95547000  1.0
  C  C50  1  0.74270000  0.63937000  0.09890000  1.0
  C  C51  1  0.25730000  0.36063000  0.90109000  1.0
  C  C52  1  0.58432000  0.67427000  0.07878000  1.0
  C  C53  1  0.41568000  0.32573000  0.92122000  1.0
  C  C54  1  0.80734000  0.53377000  0.17135000  1.0
  C  C55  1  0.19266000  0.46623000  0.82865000  1.0
  C  C56  1  0.95565000  0.49938000  0.18688000  1.0
  C  C57  1  0.04435000  0.50062000  0.81312000  1.0
  C  C58  1  0.03997000  0.56889000  0.13363000  1.0
  C  C59  1  0.96003000  0.43111000  0.86637000  1.0
  C  C60  1  0.96305000  0.36603000  0.35160000  1.0
  C  C61  1  0.03695000  0.63398000  0.64840000  1.0
  C  C62  1  0.88308000  0.46940000  0.42434000  1.0
  C  C63  1  0.11692000  0.53061000  0.57566000  1.0
  C  C64  1  0.82993000  0.44028000  0.52962000  1.0
  C  C65  1  0.17007000  0.55972000  0.47038000  1.0
  C  C66  1  0.85701000  0.30635000  0.56161000  1.0
  C  C67  1  0.14299000  0.69365000  0.43839000  1.0
  C  C68  1  0.79504000  0.27384000  0.67081000  1.0
  C  C69  1  0.20495000  0.72616000  0.32918000  1.0
  C  C70  1  0.93709000  0.20232000  0.48745000  1.0
  C  C71  1  0.06291000  0.79768000  0.51255000  1.0
  C  C72  1  0.99189000  0.22924000  0.38119000  1.0
  C  C73  1  0.00811000  0.77076000  0.61880000  1.0
  C  C74  1  0.22175000  0.99810000  0.77371000  1.0
  C  C75  1  0.77825000  0.00189000  0.22629000  1.0
  C  C76  1  0.23545000  0.07806000  0.68284000  1.0
  C  C77  1  0.76455000  0.92194000  0.31716000  1.0
  C  C78  1  0.36089000  0.11458000  0.66510000  1.0
  C  C79  1  0.63911000  0.88541000  0.33491000  1.0
  C  C80  1  0.46259000  0.07523000  0.74576000  1.0
  C  C81  1  0.53741000  0.92477000  0.25424000  1.0
  C  C82  1  0.44064000  0.99649000  0.83512000  1.0
  C  C83  1  0.55935000  0.00351000  0.16489000  1.0
  C  C84  1  0.39116000  0.18298000  0.56203000  1.0
  C  C85  1  0.60884000  0.81702000  0.43797000  1.0
  C  C86  1  0.33440000  0.16797000  0.46279000  1.0
  C  C87  1  0.66560000  0.83203000  0.53721000  1.0
  C  C88  1  0.37506000  0.22402000  0.36487000  1.0
  C  C89  1  0.62494000  0.77599000  0.63514000  1.0
  C  C90  1  0.52240000  0.30756000  0.45523000  1.0
  C  C91  1  0.47760000  0.69244000  0.54477000  1.0
  C  C92  1  0.48417000  0.25853000  0.55743000  1.0
  C  C93  1  0.51583000  0.74147000  0.44257000  1.0
  N  N94  1  0.07585000  0.13210000  0.30723000  1.0
  N  N95  1  0.92415000  0.86790000  0.69277000  1.0
  N  N96  1  0.32445000  0.95520000  0.84728000  1.0
  N  N97  1  0.67555000  0.04479000  0.15272000  1.0
  N  N98  1  0.47035000  0.28967000  0.36002000  1.0
  N  N99  1  0.52965000  0.71033000  0.63999000  1.0
  O  O100  1  0.20011000  0.71050000  0.03047000  1.0
  O  O101  1  0.79989000  0.28951000  0.96953000  1.0
  O  O102  1  0.01358000  0.84450000  0.93663000  1.0
  O  O103  1  0.98642000  0.15550000  0.06336000  1.0
  O  O104  1  0.50997000  0.61113000  0.13255000  1.0
  O  O105  1  0.49004000  0.38887000  0.86745000  1.0
  O  O106  1  0.53277000  0.76721000  0.00803000  1.0
  O  O107  1  0.46723000  0.23279000  0.99196000  1.0
  O  O108  1  0.02756000  0.38677000  0.24946000  1.0
  O  O109  1  0.97244000  0.61323000  0.75054000  1.0
  O  O110  1  0.70363000  0.38070000  0.72550000  1.0
  O  O111  1  0.29637000  0.61931000  0.27450000  1.0
  O  O112  1  0.82231000  0.15668000  0.70639000  1.0
  O  O113  1  0.17769000  0.84332000  0.29361000  1.0
  O  O114  1  0.24062000  0.95714000  0.09239000  1.0
  O  O115  1  0.75939000  0.04286000  0.90761000  1.0
  O  O116  1  0.39579000  0.66073000  0.83213000  1.0
  O  O117  1  0.60421000  0.33927000  0.16787000  1.0
