# generated using pymatgen
data_ZnCr2H24C33(NO5)2
_symmetry_space_group_name_H-M   'P 1'
_cell_length_a   12.00730000
_cell_length_b   12.00730000
_cell_length_c   12.25960000
_cell_angle_alpha   72.99350000
_cell_angle_beta   72.99330000
_cell_angle_gamma   74.73630000
_symmetry_Int_Tables_number   1
_chemical_formula_structural   ZnCr2H24C33(NO5)2
_chemical_formula_sum   'Zn2 Cr4 H48 C66 N4 O20'
_cell_volume   1585.50944611
_cell_formula_units_Z   2
loop_
 _symmetry_equiv_pos_site_id
 _symmetry_equiv_pos_as_xyz
  1  'x, y, z'
loop_
 _atom_site_type_symbol
 _atom_site_label
 _atom_site_symmetry_multiplicity
 _atom_site_fract_x
 _atom_site_fract_y
 _atom_site_fract_z
 _atom_site_occupancy
  Zn  Zn0  1  0.77572000  0.92037000  0.82867000  1.0
  Zn  Zn1  1  0.07963000  0.22428000  0.17132000  1.0
  Cr  Cr2  1  0.26106000  0.00208000  0.71766000  1.0
  Cr  Cr3  1  0.99792000  0.73894000  0.28234000  1.0
  Cr  Cr4  1  0.48102000  0.75440000  0.24040000  1.0
  Cr  Cr5  1  0.24560000  0.51897000  0.75960000  1.0
  H  H6  1  0.15598000  0.78412000  0.83632000  1.0
  H  H7  1  0.21588000  0.84402000  0.16368000  1.0
  H  H8  1  0.35794000  0.76795000  0.86466000  1.0
  H  H9  1  0.23206000  0.64206000  0.13534000  1.0
  H  H10  1  0.41349000  0.94542000  0.89130000  1.0
  H  H11  1  0.05458000  0.58651000  0.10871000  1.0
  H  H12  1  0.26560000  0.13486000  0.89133000  1.0
  H  H13  1  0.86514000  0.73440000  0.10868000  1.0
  H  H14  1  0.06107000  0.14876000  0.86599000  1.0
  H  H15  1  0.85124000  0.93893000  0.13402000  1.0
  H  H16  1  0.35658000  0.97710000  0.10104000  1.0
  H  H17  1  0.02290000  0.64343000  0.89896000  1.0
  H  H18  1  0.24286000  0.91843000  0.30762000  1.0
  H  H19  1  0.08157000  0.75714000  0.69238000  1.0
  H  H20  1  0.35325000  0.82411000  0.46803000  1.0
  H  H21  1  0.17589000  0.64674000  0.53197000  1.0
  H  H22  1  0.57277000  0.80269000  0.42293000  1.0
  H  H23  1  0.19731000  0.42722000  0.57707000  1.0
  H  H24  1  0.68529000  0.86394000  0.21463000  1.0
  H  H25  1  0.13605000  0.31471000  0.78537000  1.0
  H  H26  1  0.06445000  0.10884000  0.41710000  1.0
  H  H27  1  0.89116000  0.93556000  0.58290000  1.0
  H  H28  1  0.97922000  0.16281000  0.61037000  1.0
  H  H29  1  0.83720000  0.02077000  0.38963000  1.0
  H  H30  1  0.78072000  0.48511000  0.43280000  1.0
  H  H31  1  0.51489000  0.21928000  0.56720000  1.0
  H  H32  1  0.87801000  0.42108000  0.24628000  1.0
  H  H33  1  0.57892000  0.12199000  0.75371000  1.0
  H  H34  1  0.86827000  0.29930000  0.72005000  1.0
  H  H35  1  0.70070000  0.13173000  0.27994000  1.0
  H  H36  1  0.87198000  0.44808000  0.63974000  1.0
  H  H37  1  0.55192000  0.12802000  0.36025000  1.0
  H  H38  1  0.65813000  0.32790000  0.69988000  1.0
  H  H39  1  0.67210000  0.34187000  0.30012000  1.0
  H  H40  1  0.66058000  0.47797000  0.62911000  1.0
  H  H41  1  0.52203000  0.33942000  0.37089000  1.0
  H  H42  1  0.56288000  0.44052000  0.84627000  1.0
  H  H43  1  0.55948000  0.43712000  0.15373000  1.0
  H  H44  1  0.69976000  0.35821000  0.87756000  1.0
  H  H45  1  0.64179000  0.30024000  0.12244000  1.0
  H  H46  1  0.66024000  0.84028000  0.68408000  1.0
  H  H47  1  0.15972000  0.33976000  0.31592000  1.0
  H  H48  1  0.61175000  0.65831000  0.67256000  1.0
  H  H49  1  0.34168000  0.38825000  0.32744000  1.0
  H  H50  1  0.77537000  0.47030000  0.96359000  1.0
  H  H51  1  0.52970000  0.22463000  0.03641000  1.0
  H  H52  1  0.81308000  0.66176000  0.96661000  1.0
  H  H53  1  0.33824000  0.18692000  0.03339000  1.0
  C  C54  1  0.09530000  0.96820000  0.84978000  1.0
  C  C55  1  0.03180000  0.90470000  0.15022000  1.0
  C  C56  1  0.17954000  0.85915000  0.85076000  1.0
  C  C57  1  0.14085000  0.82046000  0.14924000  1.0
  C  C58  1  0.29317000  0.85040000  0.86633000  1.0
  C  C59  1  0.14960000  0.70683000  0.13368000  1.0
  C  C60  1  0.32481000  0.95008000  0.88183000  1.0
  C  C61  1  0.04992000  0.67519000  0.11818000  1.0
  C  C62  1  0.24137000  0.05744000  0.88208000  1.0
  C  C63  1  0.94256000  0.75863000  0.11792000  1.0
  C  C64  1  0.12663000  0.06659000  0.86628000  1.0
  C  C65  1  0.93341000  0.87336000  0.13372000  1.0
  C  C66  1  0.97387000  0.98068000  0.83028000  1.0
  C  C67  1  0.01932000  0.02612000  0.16972000  1.0
  C  C68  1  0.40967000  0.95259000  0.63516000  1.0
  C  C69  1  0.04740000  0.59033000  0.36484000  1.0
  C  C70  1  0.27376000  0.14828000  0.62263000  1.0
  C  C71  1  0.85172000  0.72624000  0.37738000  1.0
  C  C72  1  0.20216000  0.97643000  0.60923000  1.0
  C  C73  1  0.02358000  0.79784000  0.39077000  1.0
  C  C74  1  0.52885000  0.92809000  0.14386000  1.0
  C  C75  1  0.07190000  0.47115000  0.85614000  1.0
  C  C76  1  0.40273000  0.94221000  0.17182000  1.0
  C  C77  1  0.05779000  0.59727000  0.82818000  1.0
  C  C78  1  0.33891000  0.90807000  0.28829000  1.0
  C  C79  1  0.09193000  0.66109000  0.71171000  1.0
  C  C80  1  0.40122000  0.85610000  0.37882000  1.0
  C  C81  1  0.14391000  0.59877000  0.62118000  1.0
  C  C82  1  0.52535000  0.84396000  0.35370000  1.0
  C  C83  1  0.15604000  0.47465000  0.64630000  1.0
  C  C84  1  0.58893000  0.87859000  0.23596000  1.0
  C  C85  1  0.12140000  0.41107000  0.76404000  1.0
  C  C86  1  0.59552000  0.95423000  0.01761000  1.0
  C  C87  1  0.04576000  0.40449000  0.98239000  1.0
  C  C88  1  0.61715000  0.64394000  0.23228000  1.0
  C  C89  1  0.35606000  0.38284000  0.76773000  1.0
  C  C90  1  0.46785000  0.71611000  0.11219000  1.0
  C  C91  1  0.28390000  0.53215000  0.88781000  1.0
  C  C92  1  0.40262000  0.63626000  0.33207000  1.0
  C  C93  1  0.36374000  0.59738000  0.66793000  1.0
  C  C94  1  0.00194000  0.19201000  0.42420000  1.0
  C  C95  1  0.80799000  0.99806000  0.57580000  1.0
  C  C96  1  0.95434000  0.22257000  0.53156000  1.0
  C  C97  1  0.77743000  0.04566000  0.46844000  1.0
  C  C98  1  0.87544000  0.33089000  0.53830000  1.0
  C  C99  1  0.66911000  0.12456000  0.46170000  1.0
  C  C100  1  0.84324000  0.40073000  0.43436000  1.0
  C  C101  1  0.59927000  0.15676000  0.56564000  1.0
  C  C102  1  0.89580000  0.36579000  0.32944000  1.0
  C  C103  1  0.63421000  0.10420000  0.67056000  1.0
  C  C104  1  0.83289000  0.37044000  0.65172000  1.0
  C  C105  1  0.62956000  0.16710000  0.34828000  1.0
  C  C106  1  0.69751000  0.40306000  0.69356000  1.0
  C  C107  1  0.59694000  0.30248000  0.30644000  1.0
  C  C108  1  0.65988000  0.43269000  0.81455000  1.0
  C  C109  1  0.56731000  0.34012000  0.18545000  1.0
  C  C110  1  0.68443000  0.75676000  0.74496000  1.0
  C  C111  1  0.24324000  0.31557000  0.25504000  1.0
  C  C112  1  0.65774000  0.65352000  0.73879000  1.0
  C  C113  1  0.34648000  0.34226000  0.26121000  1.0
  C  C114  1  0.68989000  0.54601000  0.81713000  1.0
  C  C115  1  0.45399000  0.31011000  0.18287000  1.0
  C  C116  1  0.74755000  0.55020000  0.89973000  1.0
  C  C117  1  0.44980000  0.25245000  0.10027000  1.0
  C  C118  1  0.76976000  0.65748000  0.90166000  1.0
  C  C119  1  0.34252000  0.23024000  0.09833000  1.0
  N  N120  1  0.97593000  0.26370000  0.32362000  1.0
  N  N121  1  0.73630000  0.02407000  0.67638000  1.0
  N  N122  1  0.73985000  0.75996000  0.82487000  1.0
  N  N123  1  0.24004000  0.26015000  0.17513000  1.0
  O  O124  1  0.95019000  0.88411000  0.82245000  1.0
  O  O125  1  0.11589000  0.04981000  0.17755000  1.0
  O  O126  1  0.90388000  0.07854000  0.82439000  1.0
  O  O127  1  0.92146000  0.09612000  0.17561000  1.0
  O  O128  1  0.50548000  0.92087000  0.58092000  1.0
  O  O129  1  0.07912000  0.49451000  0.41908000  1.0
  O  O130  1  0.28626000  0.23962000  0.55577000  1.0
  O  O131  1  0.76038000  0.71374000  0.44424000  1.0
  O  O132  1  0.16290000  0.95915000  0.53962000  1.0
  O  O133  1  0.04085000  0.83710000  0.46038000  1.0
  O  O134  1  0.70935000  0.91798000  0.99816000  1.0
  O  O135  1  0.08202000  0.29065000  0.00184000  1.0
  O  O136  1  0.53896000  0.00592000  0.93970000  1.0
  O  O137  1  0.99407000  0.46105000  0.06030000  1.0
  O  O138  1  0.70653000  0.57372000  0.22346000  1.0
  O  O139  1  0.42629000  0.29347000  0.77654000  1.0
  O  O140  1  0.46378000  0.68811000  0.02945000  1.0
  O  O141  1  0.31189000  0.53623000  0.97055000  1.0
  O  O142  1  0.35401000  0.55804000  0.39013000  1.0
  O  O143  1  0.44196000  0.64600000  0.60988000  1.0
