# generated using pymatgen
data_AlH6C17N2(ClO3)3
_symmetry_space_group_name_H-M   'P 1'
_cell_length_a   6.70840000
_cell_length_b   22.05550000
_cell_length_c   26.46100000
_cell_angle_alpha   75.42300000
_cell_angle_beta   88.82260000
_cell_angle_gamma   88.70380000
_symmetry_Int_Tables_number   1
_chemical_formula_structural   AlH6C17N2(ClO3)3
_chemical_formula_sum   'Al4 H24 C68 N8 Cl12 O36'
_cell_volume   3787.65144838
_cell_formula_units_Z   4
loop_
 _symmetry_equiv_pos_site_id
 _symmetry_equiv_pos_as_xyz
  1  'x, y, z'
loop_
 _atom_site_type_symbol
 _atom_site_label
 _atom_site_symmetry_multiplicity
 _atom_site_fract_x
 _atom_site_fract_y
 _atom_site_fract_z
 _atom_site_occupancy
  Al  Al0  1  0.04180000  0.49935000  0.49991000  1.0
  Al  Al1  1  0.48621000  0.00146000  0.99817000  1.0
  Al  Al2  1  0.54246000  0.50084000  0.49871000  1.0
  Al  Al3  1  0.98572000  0.00014000  0.00101000  1.0
  H  H4  1  0.99666000  0.32687000  0.74370000  1.0
  H  H5  1  0.48340000  0.18215000  0.75720000  1.0
  H  H6  1  0.58788000  0.71440000  0.27414000  1.0
  H  H7  1  0.98909000  0.82629000  0.24372000  1.0
  H  H8  1  0.01142000  0.40503000  0.65909000  1.0
  H  H9  1  0.47385000  0.10332000  0.84164000  1.0
  H  H10  1  0.59406000  0.62954000  0.35616000  1.0
  H  H11  1  0.97963000  0.90232000  0.15734000  1.0
  H  H12  1  0.54147000  0.22914000  0.68321000  1.0
  H  H13  1  0.04288000  0.24798000  0.80025000  1.0
  H  H14  1  0.94975000  0.73245000  0.29385000  1.0
  H  H15  1  0.53889000  0.74814000  0.19688000  1.0
  H  H16  1  0.60749000  0.39490000  0.28140000  1.0
  H  H17  1  0.72498000  0.09156000  0.22954000  1.0
  H  H18  1  0.32839000  0.59684000  0.72776000  1.0
  H  H19  1  0.25135000  0.91211000  0.76878000  1.0
  H  H20  1  0.51378000  0.25103000  0.31717000  1.0
  H  H21  1  0.02071000  0.25424000  0.17780000  1.0
  H  H22  1  0.96541000  0.75341000  0.68937000  1.0
  H  H23  1  0.54316000  0.75443000  0.80316000  1.0
  H  H24  1  0.30161000  0.42259000  0.49249000  1.0
  H  H25  1  0.23114000  0.08253000  0.97351000  1.0
  H  H26  1  0.78835000  0.58318000  0.47859000  1.0
  H  H27  1  0.73801000  0.91795000  0.00846000  1.0
  C  C28  1  0.27423000  0.56227000  0.56122000  1.0
  C  C29  1  0.23745000  0.93352000  0.94046000  1.0
  C  C30  1  0.80833000  0.43701000  0.43730000  1.0
  C  C31  1  0.72856000  0.06690000  0.05888000  1.0
  C  C32  1  0.29737000  0.58533000  0.42220000  1.0
  C  C33  1  0.24601000  0.92001000  0.07922000  1.0
  C  C34  1  0.78299000  0.41523000  0.57552000  1.0
  C  C35  1  0.73460000  0.08239000  0.91962000  1.0
  C  C36  1  0.90089000  0.32129000  0.71250000  1.0
  C  C37  1  0.60541000  0.17983000  0.78418000  1.0
  C  C38  1  0.44974000  0.70107000  0.29608000  1.0
  C  C39  1  0.10719000  0.82477000  0.21513000  1.0
  C  C40  1  0.90905000  0.36608000  0.66496000  1.0
  C  C41  1  0.59763000  0.13535000  0.83176000  1.0
  C  C42  1  0.45651000  0.65418000  0.34211000  1.0
  C  C43  1  0.10145000  0.86809000  0.16675000  1.0
  C  C44  1  0.78298000  0.36306000  0.62427000  1.0
  C  C45  1  0.74594000  0.13103000  0.86898000  1.0
  C  C46  1  0.28522000  0.63492000  0.37202000  1.0
  C  C47  1  0.25242000  0.86973000  0.12918000  1.0
  C  C48  1  0.65108000  0.31310000  0.63311000  1.0
  C  C49  1  0.90278000  0.17316000  0.85558000  1.0
  C  C50  1  0.10652000  0.66452000  0.35255000  1.0
  C  C51  1  0.41028000  0.82615000  0.14249000  1.0
  C  C52  1  0.64439000  0.26738000  0.67995000  1.0
  C  C53  1  0.91517000  0.21722000  0.80797000  1.0
  C  C54  1  0.09493000  0.71218000  0.30703000  1.0
  C  C55  1  0.41580000  0.78200000  0.19017000  1.0
  C  C56  1  0.77036000  0.27047000  0.72094000  1.0
  C  C57  1  0.76384000  0.22200000  0.77109000  1.0
  C  C58  1  0.26936000  0.73152000  0.27752000  1.0
  C  C59  1  0.26310000  0.78011000  0.22757000  1.0
  C  C60  1  0.69574000  0.41606000  0.35272000  1.0
  C  C61  1  0.71733000  0.07802000  0.15184000  1.0
  C  C62  1  0.30561000  0.57862000  0.65200000  1.0
  C  C63  1  0.24519000  0.92393000  0.84719000  1.0
  C  C64  1  0.69734000  0.38007000  0.31631000  1.0
  C  C65  1  0.71989000  0.11425000  0.18795000  1.0
  C  C66  1  0.30387000  0.61714000  0.68632000  1.0
  C  C67  1  0.24494000  0.88873000  0.81025000  1.0
  C  C68  1  0.81222000  0.32503000  0.32468000  1.0
  C  C69  1  0.71813000  0.17962000  0.17085000  1.0
  C  C70  1  0.27032000  0.68176000  0.66791000  1.0
  C  C71  1  0.23654000  0.82345000  0.82646000  1.0
  C  C72  1  0.92338000  0.30521000  0.37048000  1.0
  C  C73  1  0.70942000  0.20849000  0.11714000  1.0
  C  C74  1  0.23445000  0.70739000  0.61455000  1.0
  C  C75  1  0.22924000  0.79358000  0.87999000  1.0
  C  C76  1  0.92365000  0.34201000  0.40679000  1.0
  C  C77  1  0.70897000  0.17140000  0.08102000  1.0
  C  C78  1  0.23397000  0.66784000  0.58036000  1.0
  C  C79  1  0.22973000  0.82960000  0.91689000  1.0
  C  C80  1  0.80964000  0.39803000  0.39813000  1.0
  C  C81  1  0.71629000  0.10588000  0.09818000  1.0
  C  C82  1  0.27125000  0.60339000  0.59883000  1.0
  C  C83  1  0.23974000  0.89508000  0.90065000  1.0
  C  C84  1  0.62780000  0.25164000  0.28716000  1.0
  C  C85  1  0.90736000  0.25306000  0.20799000  1.0
  C  C86  1  0.09442000  0.75395000  0.71347000  1.0
  C  C87  1  0.41463000  0.75404000  0.77882000  1.0
  C  C88  1  0.59801000  0.21830000  0.24976000  1.0
  C  C89  1  0.93717000  0.28687000  0.24498000  1.0
  C  C90  1  0.08239000  0.78552000  0.75285000  1.0
  C  C91  1  0.42717000  0.72287000  0.73915000  1.0
  C  C92  1  0.73648000  0.21752000  0.20950000  1.0
  C  C93  1  0.79931000  0.28691000  0.28581000  1.0
  C  C94  1  0.24055000  0.78668000  0.78650000  1.0
  C  C95  1  0.26783000  0.72088000  0.70599000  1.0
  N  N96  1  0.40713000  0.18523000  0.25295000  1.0
  N  N97  1  0.12175000  0.32377000  0.23848000  1.0
  N  N98  1  0.88843000  0.81555000  0.75974000  1.0
  N  N99  1  0.62280000  0.69451000  0.73115000  1.0
  N  N100  1  0.51820000  0.30543000  0.59139000  1.0
  N  N101  1  0.05901000  0.17530000  0.89363000  1.0
  N  N102  1  0.91908000  0.64004000  0.37830000  1.0
  N  N103  1  0.57660000  0.82221000  0.10586000  1.0
  Cl  Cl104  1  0.55245000  0.48403000  0.33943000  1.0
  Cl  Cl105  1  0.71330000  0.99718000  0.17409000  1.0
  Cl  Cl106  1  0.35127000  0.49901000  0.67545000  1.0
  Cl  Cl107  1  0.24802000  0.00486000  0.82627000  1.0
  Cl  Cl108  1  0.05752000  0.23600000  0.38130000  1.0
  Cl  Cl109  1  0.69458000  0.28875000  0.09556000  1.0
  Cl  Cl110  1  0.19880000  0.78678000  0.59053000  1.0
  Cl  Cl111  1  0.21186000  0.71346000  0.90005000  1.0
  Cl  Cl112  1  0.05866000  0.31678000  0.46302000  1.0
  Cl  Cl113  1  0.70346000  0.20572000  0.01527000  1.0
  Cl  Cl114  1  0.18854000  0.69784000  0.51498000  1.0
  Cl  Cl115  1  0.21278000  0.79437000  0.98244000  1.0
  O  O116  1  0.46880000  0.56246000  0.43586000  1.0
  O  O117  1  0.07627000  0.93419000  0.05874000  1.0
  O  O118  1  0.95126000  0.42987000  0.55374000  1.0
  O  O119  1  0.56476000  0.05935000  0.93389000  1.0
  O  O120  1  0.10895000  0.53974000  0.55369000  1.0
  O  O121  1  0.40456000  0.94399000  0.95777000  1.0
  O  O122  1  0.64024000  0.44530000  0.45763000  1.0
  O  O123  1  0.90128000  0.04671000  0.05047000  1.0
  O  O124  1  0.13487000  0.57101000  0.44763000  1.0
  O  O125  1  0.41096000  0.94486000  0.06261000  1.0
  O  O126  1  0.61525000  0.44105000  0.56184000  1.0
  O  O127  1  0.89713000  0.06795000  0.94411000  1.0
  O  O128  1  0.97501000  0.45755000  0.44677000  1.0
  O  O129  1  0.56719000  0.05875000  0.03779000  1.0
  O  O130  1  0.44165000  0.55517000  0.54033000  1.0
  O  O131  1  0.06620000  0.95135000  0.95258000  1.0
  O  O132  1  0.29549000  0.46237000  0.50199000  1.0
  O  O133  1  0.23324000  0.03882000  0.99294000  1.0
  O  O134  1  0.79027000  0.53848000  0.49503000  1.0
  O  O135  1  0.73753000  0.96285000  0.00503000  1.0
  O  O136  1  0.33527000  0.16292000  0.29708000  1.0
  O  O137  1  0.32970000  0.18310000  0.21131000  1.0
  O  O138  1  0.18515000  0.33914000  0.27709000  1.0
  O  O139  1  0.20322000  0.33657000  0.19467000  1.0
  O  O140  1  0.78688000  0.83583000  0.72016000  1.0
  O  O141  1  0.83640000  0.81702000  0.80465000  1.0
  O  O142  1  0.67588000  0.69632000  0.68564000  1.0
  O  O143  1  0.72463000  0.67252000  0.77038000  1.0
  O  O144  1  0.58544000  0.31876000  0.54610000  1.0
  O  O145  1  0.34935000  0.28503000  0.60487000  1.0
  O  O146  1  0.01444000  0.20214000  0.92808000  1.0
  O  O147  1  0.22433000  0.15194000  0.88741000  1.0
  O  O148  1  0.85915000  0.59264000  0.36687000  1.0
  O  O149  1  0.83260000  0.66850000  0.40745000  1.0
  O  O150  1  0.53710000  0.82677000  0.05960000  1.0
  O  O151  1  0.74562000  0.81284000  0.12480000  1.0
