# generated using pymatgen
data_ZnH8C7NClO
_symmetry_space_group_name_H-M   'P 1'
_cell_length_a   5.05346000
_cell_length_b   9.17214000
_cell_length_c   18.19080000
_cell_angle_alpha   90.00000000
_cell_angle_beta   90.00010000
_cell_angle_gamma   90.00000000
_symmetry_Int_Tables_number   1
_chemical_formula_structural   ZnH8C7NClO
_chemical_formula_sum   'Zn4 H32 C28 N4 Cl4 O4'
_cell_volume   843.16254581
_cell_formula_units_Z   4
loop_
 _symmetry_equiv_pos_site_id
 _symmetry_equiv_pos_as_xyz
  1  'x, y, z'
loop_
 _atom_site_type_symbol
 _atom_site_label
 _atom_site_symmetry_multiplicity
 _atom_site_fract_x
 _atom_site_fract_y
 _atom_site_fract_z
 _atom_site_occupancy
  Zn  Zn0  1  0.86998000  0.22233000  0.06501000  1.0
  Zn  Zn1  1  0.63002000  0.77767000  0.56501000  1.0
  Zn  Zn2  1  0.36998000  0.27767000  0.93499000  1.0
  Zn  Zn3  1  0.13002000  0.72233000  0.43499000  1.0
  H  H4  1  0.99982000  0.93691000  0.97407000  1.0
  H  H5  1  0.50018000  0.06309000  0.47407000  1.0
  H  H6  1  0.49982000  0.56309000  0.02593000  1.0
  H  H7  1  0.00018000  0.43691000  0.52593000  1.0
  H  H8  1  0.25693000  0.96293000  0.03955000  1.0
  H  H9  1  0.24307000  0.03707000  0.53955000  1.0
  H  H10  1  0.75693000  0.53707000  0.96045000  1.0
  H  H11  1  0.74307000  0.46293000  0.46045000  1.0
  H  H12  1  0.35520000  0.73469000  0.93955000  1.0
  H  H13  1  0.14481000  0.26531000  0.43955000  1.0
  H  H14  1  0.85519000  0.76531000  0.06045000  1.0
  H  H15  1  0.64480000  0.23469000  0.56045000  1.0
  H  H16  1  0.70215000  0.68877000  0.84483000  1.0
  H  H17  1  0.79785000  0.31123000  0.34483000  1.0
  H  H18  1  0.20215000  0.81123000  0.15517000  1.0
  H  H19  1  0.29785000  0.18877000  0.65517000  1.0
  H  H20  1  0.90211000  0.90338000  0.77826000  1.0
  H  H21  1  0.59788000  0.09662000  0.27826000  1.0
  H  H22  1  0.40212000  0.59662000  0.22174000  1.0
  H  H23  1  0.09789000  0.40337000  0.72174000  1.0
  H  H24  1  0.62565000  0.26210000  0.78222000  1.0
  H  H25  1  0.87435000  0.73790000  0.28222000  1.0
  H  H26  1  0.12566000  0.23790000  0.21778000  1.0
  H  H27  1  0.37435000  0.76210000  0.71778000  1.0
  H  H28  1  0.90859000  0.15930000  0.75494000  1.0
  H  H29  1  0.59141000  0.84070000  0.25494000  1.0
  H  H30  1  0.40859000  0.34071000  0.24506000  1.0
  H  H31  1  0.09141000  0.65930000  0.74506000  1.0
  H  H32  1  0.90608000  0.25705000  0.83994000  1.0
  H  H33  1  0.59391000  0.74295000  0.33994000  1.0
  H  H34  1  0.40609000  0.24295000  0.16006000  1.0
  H  H35  1  0.09391000  0.75705000  0.66006000  1.0
  C  C36  1  0.17837000  0.00239000  0.98632000  1.0
  C  C37  1  0.32164000  0.99761000  0.48632000  1.0
  C  C38  1  0.67837000  0.49761000  0.01368000  1.0
  C  C39  1  0.82163000  0.50239000  0.51368000  1.0
  C  C40  1  0.38268000  0.96861000  0.92822000  1.0
  C  C41  1  0.11732000  0.03139000  0.42822000  1.0
  C  C42  1  0.88268000  0.53139000  0.07178000  1.0
  C  C43  1  0.61732000  0.46861000  0.57178000  1.0
  C  C44  1  0.45322000  0.82516000  0.91188000  1.0
  C  C45  1  0.04679000  0.17485000  0.41188000  1.0
  C  C46  1  0.95321000  0.67484000  0.08812000  1.0
  C  C47  1  0.54679000  0.32516000  0.58812000  1.0
  C  C48  1  0.64457000  0.80024000  0.85842000  1.0
  C  C49  1  0.85543000  0.19975000  0.35841000  1.0
  C  C50  1  0.14457000  0.69976000  0.14158000  1.0
  C  C51  1  0.35543000  0.30024000  0.64158000  1.0
  C  C52  1  0.75753000  0.91877000  0.82187000  1.0
  C  C53  1  0.74248000  0.08123000  0.32187000  1.0
  C  C54  1  0.25752000  0.58123000  0.17813000  1.0
  C  C55  1  0.24248000  0.41877000  0.67813000  1.0
  C  C56  1  0.67749000  0.05999000  0.83965000  1.0
  C  C57  1  0.82251000  0.94000000  0.33966000  1.0
  C  C58  1  0.17749000  0.44001000  0.16034000  1.0
  C  C59  1  0.32251000  0.55999000  0.66035000  1.0
  C  C60  1  0.78614000  0.19125000  0.80192000  1.0
  C  C61  1  0.71385000  0.80875000  0.30192000  1.0
  C  C62  1  0.28614000  0.30875000  0.19808000  1.0
  C  C63  1  0.21386000  0.69124000  0.69808000  1.0
  N  N64  1  0.49414000  0.08230000  0.89301000  1.0
  N  N65  1  0.00587000  0.91771000  0.39301000  1.0
  N  N66  1  0.99413000  0.41771000  0.10699000  1.0
  N  N67  1  0.50587000  0.58229000  0.60699000  1.0
  Cl  Cl68  1  0.71670000  0.03092000  0.12582000  1.0
  Cl  Cl69  1  0.78330000  0.96908000  0.62581000  1.0
  Cl  Cl70  1  0.21670000  0.46908000  0.87418000  1.0
  Cl  Cl71  1  0.28330000  0.53092000  0.37418000  1.0
  O  O72  1  0.11665000  0.15169000  0.98964000  1.0
  O  O73  1  0.38335000  0.84831000  0.48964000  1.0
  O  O74  1  0.61665000  0.34831000  0.01036000  1.0
  O  O75  1  0.88335000  0.65169000  0.51036000  1.0
