# generated using pymatgen
data_Zn2H13(C5O2)5
_symmetry_space_group_name_H-M   'P 1'
_cell_length_a   15.36050000
_cell_length_b   15.63720000
_cell_length_c   19.54250000
_cell_angle_alpha   76.33740000
_cell_angle_beta   81.13710000
_cell_angle_gamma   66.95980000
_symmetry_Int_Tables_number   1
_chemical_formula_structural   Zn2H13(C5O2)5
_chemical_formula_sum   'Zn4 H26 C50 O20'
_cell_volume   4187.36684638
_cell_formula_units_Z   2
loop_
 _symmetry_equiv_pos_site_id
 _symmetry_equiv_pos_as_xyz
  1  'x, y, z'
loop_
 _atom_site_type_symbol
 _atom_site_label
 _atom_site_symmetry_multiplicity
 _atom_site_fract_x
 _atom_site_fract_y
 _atom_site_fract_z
 _atom_site_occupancy
  Zn  Zn0  1  0.41269000  0.58848000  0.55433000  1.0
  Zn  Zn1  1  0.57263000  0.55534000  0.42683000  1.0
  Zn  Zn2  1  0.43523000  0.44513000  0.45274000  1.0
  Zn  Zn3  1  0.58891000  0.38839000  0.56241000  1.0
  H  H4  1  0.37560000  0.58435000  0.76604000  1.0
  H  H5  1  0.57788000  0.60994000  0.21239000  1.0
  H  H6  1  0.42435000  0.16349000  0.33615000  1.0
  H  H7  1  0.41296000  0.02688000  0.30415000  1.0
  H  H8  1  0.48115000  0.84115000  0.54730000  1.0
  H  H9  1  0.57631000  0.12643000  0.65321000  1.0
  H  H10  1  0.53597000  0.89072000  0.60676000  1.0
  H  H11  1  0.45757000  0.23818000  0.42065000  1.0
  H  H12  1  0.46692000  0.38908000  0.24613000  1.0
  H  H13  1  0.64982000  0.35933000  0.90171000  1.0
  H  H14  1  0.55928000  0.64119000  0.08380000  1.0
  H  H15  1  0.45304000  0.41595000  0.11669000  1.0
  H  H16  1  0.64885000  0.35823000  0.77432000  1.0
  H  H17  1  0.55463000  0.40210000  0.01180000  1.0
  H  H18  1  0.81685000  0.27489000  0.51395000  1.0
  H  H19  1  0.06471000  0.81300000  0.51329000  1.0
  H  H20  1  0.63718000  0.82338000  0.76056000  1.0
  H  H21  1  0.47805000  0.73321000  0.89644000  1.0
  H  H22  1  0.31017000  0.63034000  0.87006000  1.0
  H  H23  1  0.19221000  0.28240000  0.50899000  1.0
  H  H24  1  0.06143000  0.22973000  0.50953000  1.0
  H  H25  1  0.83074000  0.56167000  0.48577000  1.0
  H  H26  1  0.87557000  0.65855000  0.50539000  1.0
  H  H27  1  0.93623000  0.77904000  0.51306000  1.0
  H  H28  1  0.25134000  0.40556000  0.50858000  1.0
  H  H29  1  0.42691000  0.85785000  0.33507000  1.0
  C  C30  1  0.74895000  0.44069000  0.48946000  1.0
  C  C31  1  0.52253000  0.47306000  0.98013000  1.0
  C  C32  1  0.49840000  0.54621000  0.01434000  1.0
  C  C33  1  0.25151000  0.57148000  0.50383000  1.0
  C  C34  1  0.52447000  0.49705000  0.23692000  1.0
  C  C35  1  0.01137000  0.30270000  0.50561000  1.0
  C  C36  1  0.85043000  0.41730000  0.49561000  1.0
  C  C37  1  0.08350000  0.68498000  0.51109000  1.0
  C  C38  1  0.98551000  0.70699000  0.51029000  1.0
  C  C39  1  0.95186000  0.63872000  0.50564000  1.0
  C  C40  1  0.01354000  0.54480000  0.50250000  1.0
  C  C41  1  0.51541000  0.47446000  0.90619000  1.0
  C  C42  1  0.11292000  0.52170000  0.50417000  1.0
  C  C43  1  0.97879000  0.47164000  0.49945000  1.0
  C  C44  1  0.04402000  0.37573000  0.50337000  1.0
  C  C45  1  0.46243000  0.74068000  0.46194000  1.0
  C  C46  1  0.14267000  0.35550000  0.50630000  1.0
  C  C47  1  0.17565000  0.42480000  0.50616000  1.0
  C  C48  1  0.88325000  0.48974000  0.49284000  1.0
  C  C49  1  0.91550000  0.32104000  0.50473000  1.0
  C  C50  1  0.14742000  0.59325000  0.50720000  1.0
  C  C51  1  0.42978000  0.98543000  0.35711000  1.0
  C  C52  1  0.58978000  0.40898000  0.87159000  1.0
  C  C53  1  0.45406000  0.84159000  0.44376000  1.0
  C  C54  1  0.55259000  0.09722000  0.61759000  1.0
  C  C55  1  0.55873000  0.00263000  0.63664000  1.0
  C  C56  1  0.52935000  0.96439000  0.59128000  1.0
  C  C57  1  0.51238000  0.25309000  0.53914000  1.0
  C  C58  1  0.49484000  0.01787000  0.52562000  1.0
  C  C59  1  0.48938000  0.11410000  0.50551000  1.0
  C  C60  1  0.46956000  0.97553000  0.47669000  1.0
  C  C61  1  0.44662000  0.02840000  0.40728000  1.0
  C  C62  1  0.44275000  0.12366000  0.38927000  1.0
  C  C63  1  0.58990000  0.40793000  0.80070000  1.0
  C  C64  1  0.46179000  0.16534000  0.43621000  1.0
  C  C65  1  0.46868000  0.88306000  0.49421000  1.0
  C  C66  1  0.43636000  0.89250000  0.37408000  1.0
  C  C67  1  0.51747000  0.15286000  0.55400000  1.0
  C  C68  1  0.52796000  0.48553000  0.31432000  1.0
  C  C69  1  0.51086000  0.47627000  0.68563000  1.0
  C  C70  1  0.51282000  0.47274000  0.76237000  1.0
  C  C71  1  0.43594000  0.53567000  0.79627000  1.0
  C  C72  1  0.43637000  0.53627000  0.86733000  1.0
  C  C73  1  0.59966000  0.94621000  0.70449000  1.0
  C  C74  1  0.54069000  0.58453000  0.11891000  1.0
  C  C75  1  0.46288000  0.64815000  0.97878000  1.0
  C  C76  1  0.55099000  0.56767000  0.19072000  1.0
  C  C77  1  0.48953000  0.44222000  0.20978000  1.0
  C  C78  1  0.48198000  0.45740000  0.13754000  1.0
  C  C79  1  0.50698000  0.52909000  0.09098000  1.0
  O  O80  1  0.50234000  0.49435000  0.50081000  1.0
  O  O81  1  0.57479000  0.52599000  0.33453000  1.0
  O  O82  1  0.57915000  0.41320000  0.65747000  1.0
  O  O83  1  0.48267000  0.43721000  0.35481000  1.0
  O  O84  1  0.44111000  0.54228000  0.65428000  1.0
  O  O85  1  0.88751000  0.24755000  0.51041000  1.0
  O  O86  1  0.11773000  0.75288000  0.51327000  1.0
  O  O87  1  0.62560000  0.97650000  0.74664000  1.0
  O  O88  1  0.60726000  0.85377000  0.71580000  1.0
  O  O89  1  0.40136000  0.71162000  0.00467000  1.0
  O  O90  1  0.50935000  0.66524000  0.91464000  1.0
  O  O91  1  0.43280000  0.70986000  0.52394000  1.0
  O  O92  1  0.36056000  0.59489000  0.90212000  1.0
  O  O93  1  0.57513000  0.26772000  0.56565000  1.0
  O  O94  1  0.69764000  0.52476000  0.46155000  1.0
  O  O95  1  0.30143000  0.52792000  0.45496000  1.0
  O  O96  1  0.71689000  0.37275000  0.51281000  1.0
  O  O97  1  0.28267000  0.59749000  0.54904000  1.0
  O  O98  1  0.50032000  0.69283000  0.41315000  1.0
  O  O99  1  0.44563000  0.31628000  0.50279000  1.0
