# generated using pymatgen
data_AlH12C24(ClO2)3
_symmetry_space_group_name_H-M   'P 1'
_cell_length_a   4.05561000
_cell_length_b   28.67750000
_cell_length_c   28.67730000
_cell_angle_alpha   59.99930789
_cell_angle_beta   90.00079998
_cell_angle_gamma   89.99900000
_symmetry_Int_Tables_number   1
_chemical_formula_structural   AlH12C24(ClO2)3
_chemical_formula_sum   'Al2 H24 C48 Cl6 O12'
_cell_volume   2888.43990223
_cell_formula_units_Z   2
loop_
 _symmetry_equiv_pos_site_id
 _symmetry_equiv_pos_as_xyz
  1  'x, y, z'
loop_
 _atom_site_type_symbol
 _atom_site_label
 _atom_site_symmetry_multiplicity
 _atom_site_fract_x
 _atom_site_fract_y
 _atom_site_fract_z
 _atom_site_occupancy
  Al  Al0  1  0.98434000  1.00000000  0.50000000  1.0
  Al  Al1  1  0.98436000  0.66666000  0.16667000  1.0
  H  H2  1  0.16374000  0.51252000  0.29466000  1.0
  H  H3  1  0.18032000  0.41332000  0.33944000  1.0
  H  H4  1  0.82095000  0.42462000  0.21403000  1.0
  H  H5  1  0.81268000  0.52408000  0.17109000  1.0
  H  H6  1  0.82097000  0.24204000  0.45263000  1.0
  H  H7  1  0.18033000  0.25336000  0.32721000  1.0
  H  H8  1  0.16371000  0.15415000  0.37200000  1.0
  H  H9  1  0.81268000  0.14259000  0.49557000  1.0
  H  H10  1  0.16376000  0.79466000  0.19282000  1.0
  H  H11  1  0.18034000  0.83945000  0.24724000  1.0
  H  H12  1  0.82098000  0.71402000  0.36135000  1.0
  H  H13  1  0.81271000  0.67109000  0.30483000  1.0
  H  H14  1  0.82099000  0.95263000  0.30533000  1.0
  H  H15  1  0.18033000  0.82721000  0.41943000  1.0
  H  H16  1  0.16376000  0.87199000  0.47386000  1.0
  H  H17  1  0.81272000  0.99556000  0.36184000  1.0
  H  H18  1  0.16375000  0.69282000  0.01252000  1.0
  H  H19  1  0.18034000  0.74725000  0.91331000  1.0
  H  H20  1  0.82095000  0.86135000  0.92463000  1.0
  H  H21  1  0.81268000  0.80483000  0.02408000  1.0
  H  H22  1  0.82101000  0.80532000  0.74205000  1.0
  H  H23  1  0.18036000  0.91943000  0.75335000  1.0
  H  H24  1  0.16377000  0.97385000  0.65414000  1.0
  H  H25  1  0.81275000  0.86183000  0.64260000  1.0
  C  C26  1  0.48485000  0.95459000  0.58234000  1.0
  C  C27  1  0.48482000  0.08234000  0.46307000  1.0
  C  C28  1  0.48483000  0.96307000  0.45459000  1.0
  C  C29  1  0.48485000  0.58433000  0.20359000  1.0
  C  C30  1  0.48485000  0.70359000  0.21208000  1.0
  C  C31  1  0.48484000  0.71208000  0.08433000  1.0
  C  C32  1  0.49104000  0.52457000  0.23045000  1.0
  C  C33  1  0.31405000  0.49287000  0.27802000  1.0
  C  C34  1  0.32530000  0.43705000  0.30320000  1.0
  C  C35  1  0.51033000  0.41120000  0.28101000  1.0
  C  C36  1  0.67851000  0.44359000  0.23221000  1.0
  C  C37  1  0.67348000  0.49931000  0.20785000  1.0
  C  C38  1  0.52177000  0.35208000  0.30652000  1.0
  C  C39  1  0.52183000  0.31459000  0.36013000  1.0
  C  C40  1  0.67855000  0.22308000  0.43444000  1.0
  C  C41  1  0.51040000  0.25547000  0.38564000  1.0
  C  C42  1  0.32534000  0.22963000  0.36345000  1.0
  C  C43  1  0.31405000  0.17381000  0.38863000  1.0
  C  C44  1  0.49104000  0.14210000  0.43621000  1.0
  C  C45  1  0.67348000  0.16736000  0.45881000  1.0
  C  C46  1  0.49106000  0.73046000  0.24498000  1.0
  C  C47  1  0.31408000  0.77803000  0.22911000  1.0
  C  C48  1  0.32533000  0.80321000  0.25975000  1.0
  C  C49  1  0.51038000  0.78101000  0.30779000  1.0
  C  C50  1  0.67856000  0.73222000  0.32419000  1.0
  C  C51  1  0.67351000  0.70785000  0.29284000  1.0
  C  C52  1  0.52181000  0.80652000  0.34140000  1.0
  C  C53  1  0.52182000  0.86013000  0.32528000  1.0
  C  C54  1  0.67856000  0.93444000  0.34248000  1.0
  C  C55  1  0.51039000  0.88563000  0.35889000  1.0
  C  C56  1  0.32536000  0.86345000  0.40693000  1.0
  C  C57  1  0.31410000  0.88863000  0.43756000  1.0
  C  C58  1  0.49108000  0.93619000  0.42170000  1.0
  C  C59  1  0.67350000  0.95880000  0.37384000  1.0
  C  C60  1  0.49105000  0.74499000  0.02456000  1.0
  C  C61  1  0.31407000  0.72912000  0.99286000  1.0
  C  C62  1  0.32532000  0.75975000  0.93705000  1.0
  C  C63  1  0.51037000  0.80780000  0.91119000  1.0
  C  C64  1  0.67853000  0.82420000  0.94359000  1.0
  C  C65  1  0.67348000  0.79283000  0.99932000  1.0
  C  C66  1  0.52182000  0.84140000  0.85208000  1.0
  C  C67  1  0.52183000  0.82526000  0.81460000  1.0
  C  C68  1  0.67858000  0.84247000  0.72309000  1.0
  C  C69  1  0.51040000  0.85887000  0.75548000  1.0
  C  C70  1  0.32537000  0.90692000  0.72962000  1.0
  C  C71  1  0.31411000  0.93755000  0.67381000  1.0
  C  C72  1  0.49109000  0.92168000  0.64211000  1.0
  C  C73  1  0.67354000  0.87382000  0.66736000  1.0
  Cl  Cl74  1  0.56190000  0.32951000  0.26038000  1.0
  Cl  Cl75  1  0.56217000  0.33717000  0.40626000  1.0
  Cl  Cl76  1  0.56195000  0.76039000  0.41011000  1.0
  Cl  Cl77  1  0.56212000  0.90626000  0.25657000  1.0
  Cl  Cl78  1  0.56201000  0.91011000  0.82950000  1.0
  Cl  Cl79  1  0.56210000  0.75656000  0.83718000  1.0
  O  O80  1  0.71791000  0.99614000  0.44695000  1.0
  O  O81  1  0.71794000  0.94695000  0.55691000  1.0
  O  O82  1  0.71792000  0.05691000  0.49614000  1.0
  O  O83  1  0.24799000  0.95145000  0.48801000  1.0
  O  O84  1  0.24797000  0.06054000  0.45145000  1.0
  O  O85  1  0.24800000  0.98801000  0.56054000  1.0
  O  O86  1  0.71795000  0.71972000  0.10976000  1.0
  O  O87  1  0.71796000  0.60975000  0.17053000  1.0
  O  O88  1  0.71796000  0.67052000  0.21972000  1.0
  O  O89  1  0.24802000  0.67865000  0.10613000  1.0
  O  O90  1  0.24802000  0.71522000  0.17865000  1.0
  O  O91  1  0.24802000  0.60613000  0.21522000  1.0
