# generated using pymatgen
data_Cd3H22C24(NCl)6
_symmetry_space_group_name_H-M   'P 1'
_cell_length_a   10.68970000
_cell_length_b   16.15350000
_cell_length_c   19.91820000
_cell_angle_alpha   89.99980000
_cell_angle_beta   88.06130000
_cell_angle_gamma   89.99940000
_symmetry_Int_Tables_number   1
_chemical_formula_structural   Cd3H22C24(NCl)6
_chemical_formula_sum   'Cd12 H88 C96 N24 Cl24'
_cell_volume   3437.42774361
_cell_formula_units_Z   4
loop_
 _symmetry_equiv_pos_site_id
 _symmetry_equiv_pos_as_xyz
  1  'x, y, z'
loop_
 _atom_site_type_symbol
 _atom_site_label
 _atom_site_symmetry_multiplicity
 _atom_site_fract_x
 _atom_site_fract_y
 _atom_site_fract_z
 _atom_site_occupancy
  Cd  Cd0  1  0.36479000  0.45863000  0.95063000  1.0
  Cd  Cd1  1  0.13522000  0.95864000  0.54937000  1.0
  Cd  Cd2  1  0.63521000  0.54137000  0.04937000  1.0
  Cd  Cd3  1  0.86478000  0.04137000  0.45063000  1.0
  Cd  Cd4  1  0.30417000  0.22871000  0.92729000  1.0
  Cd  Cd5  1  0.19582000  0.72872000  0.57271000  1.0
  Cd  Cd6  1  0.69583000  0.77129000  0.07271000  1.0
  Cd  Cd7  1  0.80417000  0.27128000  0.42730000  1.0
  Cd  Cd8  1  0.39977000  0.05235000  0.81945000  1.0
  Cd  Cd9  1  0.10023000  0.55234000  0.68055000  1.0
  Cd  Cd10  1  0.60022000  0.94766000  0.18055000  1.0
  Cd  Cd11  1  0.89977000  0.44765000  0.31945000  1.0
  H  H12  1  0.39221000  0.53022000  0.81781000  1.0
  H  H13  1  0.10779000  0.03023000  0.68219000  1.0
  H  H14  1  0.60779000  0.46978000  0.18219000  1.0
  H  H15  1  0.89221000  0.96978000  0.31781000  1.0
  H  H16  1  0.01254000  0.42868000  0.56011000  1.0
  H  H17  1  0.48745000  0.92867000  0.93989000  1.0
  H  H18  1  0.98745000  0.57132000  0.43989000  1.0
  H  H19  1  0.51255000  0.07134000  0.06011000  1.0
  H  H20  1  0.99853000  0.27663000  0.53762000  1.0
  H  H21  1  0.50146000  0.77662000  0.96238000  1.0
  H  H22  1  0.00145000  0.72337000  0.46238000  1.0
  H  H23  1  0.49854000  0.22339000  0.03762000  1.0
  H  H24  1  0.99858000  0.17842000  0.63479000  1.0
  H  H25  1  0.50142000  0.67842000  0.86521000  1.0
  H  H26  1  0.00142000  0.82158000  0.36521000  1.0
  H  H27  1  0.49858000  0.32159000  0.13480000  1.0
  H  H28  1  0.02189000  0.23671000  0.75156000  1.0
  H  H29  1  0.47811000  0.73671000  0.74844000  1.0
  H  H30  1  0.97811000  0.76328000  0.24844000  1.0
  H  H31  1  0.52189000  0.26329000  0.25156000  1.0
  H  H32  1  0.94021000  0.42560000  0.79929000  1.0
  H  H33  1  0.55978000  0.92560000  0.70071000  1.0
  H  H34  1  0.05979000  0.57439000  0.20071000  1.0
  H  H35  1  0.44021000  0.07440000  0.29928000  1.0
  H  H36  1  0.05556000  0.35264000  0.82241000  1.0
  H  H37  1  0.44444000  0.85264000  0.67758000  1.0
  H  H38  1  0.94444000  0.64736000  0.17758000  1.0
  H  H39  1  0.55556000  0.14736000  0.32242000  1.0
  H  H40  1  0.33018000  0.52830000  0.57784000  1.0
  H  H41  1  0.16982000  0.02829000  0.92216000  1.0
  H  H42  1  0.66982000  0.47170000  0.42216000  1.0
  H  H43  1  0.83018000  0.97170000  0.07784000  1.0
  H  H44  1  0.51411000  0.43163000  0.55906000  1.0
  H  H45  1  0.98590000  0.93162000  0.94094000  1.0
  H  H46  1  0.48589000  0.56838000  0.44095000  1.0
  H  H47  1  0.01411000  0.06837000  0.05905000  1.0
  H  H48  1  0.57031000  0.33588000  0.65055000  1.0
  H  H49  1  0.92971000  0.83587000  0.84944000  1.0
  H  H50  1  0.42969000  0.66413000  0.34945000  1.0
  H  H51  1  0.07029000  0.16412000  0.15055000  1.0
  H  H52  1  0.44523000  0.34088000  0.76117000  1.0
  H  H53  1  0.05478000  0.84089000  0.73883000  1.0
  H  H54  1  0.55477000  0.65912000  0.23883000  1.0
  H  H55  1  0.94522000  0.15912000  0.26117000  1.0
  H  H56  1  0.25921000  0.38446000  0.81923000  1.0
  H  H57  1  0.24080000  0.88447000  0.68077000  1.0
  H  H58  1  0.74080000  0.61554000  0.18077000  1.0
  H  H59  1  0.75920000  0.11553000  0.31923000  1.0
  H  H60  1  0.88360000  0.68625000  0.69510000  1.0
  H  H61  1  0.61639000  0.18624000  0.80490000  1.0
  H  H62  1  0.11639000  0.31374000  0.30490000  1.0
  H  H63  1  0.38361000  0.81375000  0.19510000  1.0
  H  H64  1  0.73780000  0.74890000  0.78385000  1.0
  H  H65  1  0.76220000  0.24890000  0.71615000  1.0
  H  H66  1  0.26220000  0.25109000  0.21615000  1.0
  H  H67  1  0.23780000  0.75110000  0.28385000  1.0
  H  H68  1  0.75700000  0.70184000  0.90381000  1.0
  H  H69  1  0.74301000  0.20184000  0.59620000  1.0
  H  H70  1  0.24301000  0.29816000  0.09619000  1.0
  H  H71  1  0.25699000  0.79816000  0.40380000  1.0
  H  H72  1  0.91627000  0.59598000  0.92997000  1.0
  H  H73  1  0.58373000  0.09598000  0.57003000  1.0
  H  H74  1  0.08373000  0.40402000  0.07003000  1.0
  H  H75  1  0.41626000  0.90402000  0.42997000  1.0
  H  H76  1  0.07289000  0.49836000  0.89022000  1.0
  H  H77  1  0.42712000  0.99836000  0.60977000  1.0
  H  H78  1  0.92711000  0.50164000  0.10978000  1.0
  H  H79  1  0.57289000  0.00164000  0.39023000  1.0
  H  H80  1  0.22450000  0.62135000  0.80351000  1.0
  H  H81  1  0.27551000  0.12136000  0.69649000  1.0
  H  H82  1  0.77550000  0.37864000  0.19649000  1.0
  H  H83  1  0.72449000  0.87864000  0.30351000  1.0
  H  H84  1  0.15643000  0.73820000  0.86677000  1.0
  H  H85  1  0.34358000  0.23821000  0.63323000  1.0
  H  H86  1  0.84357000  0.26179000  0.13323000  1.0
  H  H87  1  0.65642000  0.76179000  0.36677000  1.0
  H  H88  1  0.14053000  0.81147000  0.97785000  1.0
  H  H89  1  0.35948000  0.31148000  0.52215000  1.0
  H  H90  1  0.85948000  0.18853000  0.02215000  1.0
  H  H91  1  0.64052000  0.68852000  0.47785000  1.0
  H  H92  1  0.20641000  0.73520000  0.08114000  1.0
  H  H93  1  0.29360000  0.23522000  0.41885000  1.0
  H  H94  1  0.79360000  0.26480000  0.91885000  1.0
  H  H95  1  0.70640000  0.76479000  0.58115000  1.0
  H  H96  1  0.28396000  0.58890000  0.06821000  1.0
  H  H97  1  0.21605000  0.08892000  0.43179000  1.0
  H  H98  1  0.71605000  0.41110000  0.93179000  1.0
  H  H99  1  0.78395000  0.91109000  0.56821000  1.0
  C  C100  1  0.01427000  0.38381000  0.60102000  1.0
  C  C101  1  0.48572000  0.88381000  0.89898000  1.0
  C  C102  1  0.98571000  0.61619000  0.39898000  1.0
  C  C103  1  0.51428000  0.11620000  0.10102000  1.0
  C  C104  1  0.00528000  0.29908000  0.58890000  1.0
  C  C105  1  0.49471000  0.79908000  0.91110000  1.0
  C  C106  1  0.99471000  0.70091000  0.41110000  1.0
  C  C107  1  0.50530000  0.20093000  0.08890000  1.0
  C  C108  1  0.00682000  0.24493000  0.64323000  1.0
  C  C109  1  0.49318000  0.74493000  0.85676000  1.0
  C  C110  1  0.99317000  0.75507000  0.35677000  1.0
  C  C111  1  0.50683000  0.25508000  0.14324000  1.0
  C  C112  1  0.01744000  0.27708000  0.70784000  1.0
  C  C113  1  0.48256000  0.77708000  0.79215000  1.0
  C  C114  1  0.98256000  0.72292000  0.29216000  1.0
  C  C115  1  0.51744000  0.22293000  0.20785000  1.0
  C  C116  1  0.02680000  0.36255000  0.71603000  1.0
  C  C117  1  0.47319000  0.86255000  0.78397000  1.0
  C  C118  1  0.97319000  0.63745000  0.28397000  1.0
  C  C119  1  0.52681000  0.13746000  0.21603000  1.0
  C  C120  1  0.03333000  0.40052000  0.78520000  1.0
  C  C121  1  0.46668000  0.90052000  0.71480000  1.0
  C  C122  1  0.96668000  0.59947000  0.21480000  1.0
  C  C123  1  0.53332000  0.09948000  0.28520000  1.0
  C  C124  1  0.35975000  0.48576000  0.61704000  1.0
  C  C125  1  0.14026000  0.98577000  0.88296000  1.0
  C  C126  1  0.64025000  0.51424000  0.38296000  1.0
  C  C127  1  0.85975000  0.01423000  0.11704000  1.0
  C  C128  1  0.46087000  0.43251000  0.60669000  1.0
  C  C129  1  0.03914000  0.93251000  0.89331000  1.0
  C  C130  1  0.53913000  0.56749000  0.39332000  1.0
  C  C131  1  0.96087000  0.06748000  0.10669000  1.0
  C  C132  1  0.49285000  0.37907000  0.65841000  1.0
  C  C133  1  0.00716000  0.87907000  0.84159000  1.0
  C  C134  1  0.50715000  0.62093000  0.34159000  1.0
  C  C135  1  0.99284000  0.12093000  0.15841000  1.0
  C  C136  1  0.42411000  0.38145000  0.71921000  1.0
  C  C137  1  0.07590000  0.88145000  0.78079000  1.0
  C  C138  1  0.57589000  0.61855000  0.28079000  1.0
  C  C139  1  0.92409000  0.11855000  0.21921000  1.0
  C  C140  1  0.32477000  0.43738000  0.72615000  1.0
  C  C141  1  0.17524000  0.93738000  0.77385000  1.0
  C  C142  1  0.67523000  0.56262000  0.27385000  1.0
  C  C143  1  0.82476000  0.06262000  0.22615000  1.0
  C  C144  1  0.25360000  0.44480000  0.79358000  1.0
  C  C145  1  0.24640000  0.94480000  0.70641000  1.0
  C  C146  1  0.74640000  0.55520000  0.20642000  1.0
  C  C147  1  0.75360000  0.05520000  0.29358000  1.0
  C  C148  1  0.88652000  0.66856000  0.74799000  1.0
  C  C149  1  0.61348000  0.16856000  0.75201000  1.0
  C  C150  1  0.11348000  0.33143000  0.25201000  1.0
  C  C151  1  0.38652000  0.83144000  0.24799000  1.0
  C  C152  1  0.80669000  0.70264000  0.79730000  1.0
  C  C153  1  0.69331000  0.20264000  0.70270000  1.0
  C  C154  1  0.19331000  0.29736000  0.20269000  1.0
  C  C155  1  0.30668000  0.79736000  0.29730000  1.0
  C  C156  1  0.81661000  0.67623000  0.86359000  1.0
  C  C157  1  0.68340000  0.17624000  0.63641000  1.0
  C  C158  1  0.18340000  0.32377000  0.13640000  1.0
  C  C159  1  0.31660000  0.82376000  0.36359000  1.0
  C  C160  1  0.90658000  0.61707000  0.87841000  1.0
  C  C161  1  0.59343000  0.11708000  0.62159000  1.0
  C  C162  1  0.09342000  0.38292000  0.12159000  1.0
  C  C163  1  0.40657000  0.88292000  0.37841000  1.0
  C  C164  1  0.98463000  0.58678000  0.82670000  1.0
  C  C165  1  0.51538000  0.08678000  0.67330000  1.0
  C  C166  1  0.01537000  0.41321000  0.17330000  1.0
  C  C167  1  0.48462000  0.91321000  0.32670000  1.0
  C  C168  1  0.09210000  0.52965000  0.84167000  1.0
  C  C169  1  0.40791000  0.02966000  0.65833000  1.0
  C  C170  1  0.90791000  0.47034000  0.15833000  1.0
  C  C171  1  0.59208000  0.97035000  0.34167000  1.0
  C  C172  1  0.21713000  0.57722000  0.84570000  1.0
  C  C173  1  0.28288000  0.07723000  0.65430000  1.0
  C  C174  1  0.78287000  0.42277000  0.15430000  1.0
  C  C175  1  0.71712000  0.92277000  0.34570000  1.0
  C  C176  1  0.22246000  0.62512000  0.91066000  1.0
  C  C177  1  0.27754000  0.12513000  0.58934000  1.0
  C  C178  1  0.77754000  0.37487000  0.08934000  1.0
  C  C179  1  0.72245000  0.87487000  0.41066000  1.0
  C  C180  1  0.18155000  0.70711000  0.91300000  1.0
  C  C181  1  0.31845000  0.20713000  0.58699000  1.0
  C  C182  1  0.81846000  0.29288000  0.08699000  1.0
  C  C183  1  0.68154000  0.79288000  0.41301000  1.0
  C  C184  1  0.17365000  0.74772000  0.97479000  1.0
  C  C185  1  0.32636000  0.24774000  0.52520000  1.0
  C  C186  1  0.82636000  0.25227000  0.02520000  1.0
  C  C187  1  0.67363000  0.75227000  0.47480000  1.0
  C  C188  1  0.20884000  0.70547000  0.03208000  1.0
  C  C189  1  0.29118000  0.20548000  0.46792000  1.0
  C  C190  1  0.79117000  0.29453000  0.96792000  1.0
  C  C191  1  0.70882000  0.79452000  0.53208000  1.0
  C  C192  1  0.25130000  0.62426000  0.02555000  1.0
  C  C193  1  0.24872000  0.12427000  0.47444000  1.0
  C  C194  1  0.74871000  0.37574000  0.97444000  1.0
  C  C195  1  0.75128000  0.87574000  0.52556000  1.0
  N  N196  1  0.02513000  0.41459000  0.66321000  1.0
  N  N197  1  0.47487000  0.91459000  0.83679000  1.0
  N  N198  1  0.97487000  0.58540000  0.33679000  1.0
  N  N199  1  0.52513000  0.08542000  0.16321000  1.0
  N  N200  1  0.29328000  0.48756000  0.67555000  1.0
  N  N201  1  0.20672000  0.98756000  0.82444000  1.0
  N  N202  1  0.70671000  0.51244000  0.32445000  1.0
  N  N203  1  0.79328000  0.01244000  0.17556000  1.0
  N  N204  1  0.12183000  0.46990000  0.78798000  1.0
  N  N205  1  0.37817000  0.96990000  0.71202000  1.0
  N  N206  1  0.87817000  0.53009000  0.21202000  1.0
  N  N207  1  0.62182000  0.03010000  0.28798000  1.0
  N  N208  1  0.30855000  0.50929000  0.83749000  1.0
  N  N209  1  0.19146000  0.00931000  0.66251000  1.0
  N  N210  1  0.69145000  0.49070000  0.16251000  1.0
  N  N211  1  0.80854000  0.99070000  0.33749000  1.0
  N  N212  1  0.97339000  0.61201000  0.76278000  1.0
  N  N213  1  0.52661000  0.11202000  0.73722000  1.0
  N  N214  1  0.02660000  0.38798000  0.23722000  1.0
  N  N215  1  0.47338000  0.88799000  0.26278000  1.0
  N  N216  1  0.25707000  0.58499000  0.96615000  1.0
  N  N217  1  0.24294000  0.08500000  0.53385000  1.0
  N  N218  1  0.74294000  0.41501000  0.03385000  1.0
  N  N219  1  0.75706000  0.91500000  0.46615000  1.0
  Cl  Cl220  1  0.57589000  0.54899000  0.92447000  1.0
  Cl  Cl221  1  0.92410000  0.04899000  0.57553000  1.0
  Cl  Cl222  1  0.42411000  0.45101000  0.07552000  1.0
  Cl  Cl223  1  0.07589000  0.95102000  0.42448000  1.0
  Cl  Cl224  1  0.48248000  0.33077000  0.89958000  1.0
  Cl  Cl225  1  0.01752000  0.83077000  0.60042000  1.0
  Cl  Cl226  1  0.51752000  0.66923000  0.10042000  1.0
  Cl  Cl227  1  0.98248000  0.16923000  0.39958000  1.0
  Cl  Cl228  1  0.16381000  0.36393000  0.95077000  1.0
  Cl  Cl229  1  0.33619000  0.86393000  0.54923000  1.0
  Cl  Cl230  1  0.83619000  0.63607000  0.04923000  1.0
  Cl  Cl231  1  0.66381000  0.13607000  0.45077000  1.0
  Cl  Cl232  1  0.49577000  0.11153000  0.92107000  1.0
  Cl  Cl233  1  0.00423000  0.61153000  0.57894000  1.0
  Cl  Cl234  1  0.50422000  0.88847000  0.07894000  1.0
  Cl  Cl235  1  0.99577000  0.38847000  0.42106000  1.0
  Cl  Cl236  1  0.24484000  0.19409000  0.80821000  1.0
  Cl  Cl237  1  0.25516000  0.69409000  0.69179000  1.0
  Cl  Cl238  1  0.75515000  0.80591000  0.19179000  1.0
  Cl  Cl239  1  0.74484000  0.30591000  0.30821000  1.0
  Cl  Cl240  1  0.20451000  0.14877000  0.01840000  1.0
  Cl  Cl241  1  0.29549000  0.64878000  0.48161000  1.0
  Cl  Cl242  1  0.79549000  0.85123000  0.98161000  1.0
  Cl  Cl243  1  0.70451000  0.35122000  0.51839000  1.0
