# generated using pymatgen
data_CdH12C26(NO4)2
_symmetry_space_group_name_H-M   'P 1'
_cell_length_a   6.84296000
_cell_length_b   12.54050000
_cell_length_c   14.47773747
_cell_angle_alpha   115.65171755
_cell_angle_beta   94.73304781
_cell_angle_gamma   90.01940000
_symmetry_Int_Tables_number   1
_chemical_formula_structural   CdH12C26(NO4)2
_chemical_formula_sum   'Cd2 H24 C52 N4 O16'
_cell_volume   1115.22834231
_cell_formula_units_Z   2
loop_
 _symmetry_equiv_pos_site_id
 _symmetry_equiv_pos_as_xyz
  1  'x, y, z'
loop_
 _atom_site_type_symbol
 _atom_site_label
 _atom_site_symmetry_multiplicity
 _atom_site_fract_x
 _atom_site_fract_y
 _atom_site_fract_z
 _atom_site_occupancy
  Cd  Cd0  1  0.25010000  0.89988000  0.00003000  1.0
  Cd  Cd1  1  0.74990000  0.10012000  0.99997000  1.0
  H  H2  1  0.54868000  0.36925000  0.19850000  1.0
  H  H3  1  0.95110000  0.17050000  0.80145000  1.0
  H  H4  1  0.45133000  0.63075000  0.80150000  1.0
  H  H5  1  0.04890000  0.82950000  0.19855000  1.0
  H  H6  1  0.30850000  0.16247000  0.33720000  1.0
  H  H7  1  0.19121000  0.82514000  0.66280000  1.0
  H  H8  1  0.69149000  0.83753000  0.66280000  1.0
  H  H9  1  0.80878000  0.17485000  0.33720000  1.0
  H  H10  1  0.50451000  0.93417000  0.21019000  1.0
  H  H11  1  0.99512000  0.72389000  0.78996000  1.0
  H  H12  1  0.49549000  0.06583000  0.78981000  1.0
  H  H13  1  0.00488000  0.27611000  0.21004000  1.0
  H  H14  1  0.59926000  0.82396000  0.31767000  1.0
  H  H15  1  0.90033000  0.50624000  0.68258000  1.0
  H  H16  1  0.40074000  0.17605000  0.68233000  1.0
  H  H17  1  0.09966000  0.49376000  0.31742000  1.0
  H  H18  1  0.49431000  0.61074000  0.24691000  1.0
  H  H19  1  0.00583000  0.36379000  0.75324000  1.0
  H  H20  1  0.50570000  0.38926000  0.75309000  1.0
  H  H21  1  0.99417000  0.63620000  0.24676000  1.0
  H  H22  1  0.30766000  0.51330000  0.07481000  1.0
  H  H23  1  0.19299000  0.43851000  0.92524000  1.0
  H  H24  1  0.69234000  0.48671000  0.92520000  1.0
  H  H25  1  0.80701000  0.56149000  0.07476000  1.0
  C  C26  1  0.39993000  0.15243000  0.15333000  1.0
  C  C27  1  0.10007000  0.99892000  0.84666000  1.0
  C  C28  1  0.60006000  0.84757000  0.84667000  1.0
  C  C29  1  0.89993000  0.00107000  0.15333000  1.0
  C  C30  1  0.42596000  0.25666000  0.25845000  1.0
  C  C31  1  0.07383000  0.99804000  0.74154000  1.0
  C  C32  1  0.57404000  0.74334000  0.74155000  1.0
  C  C33  1  0.92617000  0.00196000  0.25846000  1.0
  C  C34  1  0.50829000  0.36359000  0.26739000  1.0
  C  C35  1  0.99149000  0.09598000  0.73257000  1.0
  C  C36  1  0.49172000  0.63641000  0.73261000  1.0
  C  C37  1  0.00851000  0.90403000  0.26744000  1.0
  C  C38  1  0.53705000  0.45926000  0.36361000  1.0
  C  C39  1  0.96287000  0.09549000  0.63635000  1.0
  C  C40  1  0.46295000  0.54074000  0.63639000  1.0
  C  C41  1  0.03713000  0.90451000  0.36365000  1.0
  C  C42  1  0.48342000  0.45027000  0.45129000  1.0
  C  C43  1  0.01653000  0.99890000  0.54869000  1.0
  C  C44  1  0.51657000  0.54973000  0.54871000  1.0
  C  C45  1  0.98347000  0.00110000  0.45131000  1.0
  C  C46  1  0.40009000  0.34288000  0.44204000  1.0
  C  C47  1  0.09973000  0.90074000  0.55796000  1.0
  C  C48  1  0.59991000  0.65713000  0.55797000  1.0
  C  C49  1  0.90026000  0.09925000  0.44204000  1.0
  C  C50  1  0.37155000  0.24611000  0.34538000  1.0
  C  C51  1  0.12815000  0.90058000  0.65461000  1.0
  C  C52  1  0.62845000  0.75389000  0.65462000  1.0
  C  C53  1  0.87184000  0.09942000  0.34539000  1.0
  C  C54  1  0.35130000  0.33395000  0.53537000  1.0
  C  C55  1  0.14858000  0.79856000  0.46460000  1.0
  C  C56  1  0.64870000  0.66605000  0.46463000  1.0
  C  C57  1  0.85142000  0.20143000  0.53539000  1.0
  C  C58  1  0.46681000  0.84034000  0.18330000  1.0
  C  C59  1  0.03308000  0.65696000  0.81683000  1.0
  C  C60  1  0.53319000  0.15967000  0.81670000  1.0
  C  C61  1  0.96692000  0.34304000  0.18317000  1.0
  C  C62  1  0.51787000  0.77960000  0.24219000  1.0
  C  C63  1  0.98197000  0.53734000  0.75800000  1.0
  C  C64  1  0.48213000  0.22040000  0.75781000  1.0
  C  C65  1  0.01803000  0.46266000  0.24201000  1.0
  C  C66  1  0.45936000  0.66040000  0.20241000  1.0
  C  C67  1  0.04083000  0.45795000  0.79774000  1.0
  C  C68  1  0.54064000  0.33961000  0.79760000  1.0
  C  C69  1  0.95917000  0.54205000  0.20226000  1.0
  C  C70  1  0.35475000  0.60611000  0.10591000  1.0
  C  C71  1  0.14575000  0.50022000  0.89416000  1.0
  C  C72  1  0.64525000  0.39389000  0.89409000  1.0
  C  C73  1  0.85425000  0.49979000  0.10585000  1.0
  C  C74  1  0.30794000  0.67305000  0.05125000  1.0
  C  C75  1  0.19261000  0.62178000  0.94873000  1.0
  C  C76  1  0.69206000  0.32695000  0.94875000  1.0
  C  C77  1  0.80739000  0.37822000  0.05127000  1.0
  N  N78  1  0.36424000  0.78848000  0.09104000  1.0
  N  N79  1  0.13597000  0.69741000  0.90900000  1.0
  N  N80  1  0.63576000  0.21152000  0.90896000  1.0
  N  N81  1  0.86403000  0.30259000  0.09100000  1.0
  O  O82  1  0.32651000  0.05759000  0.15127000  1.0
  O  O83  1  0.17386000  0.90626000  0.84875000  1.0
  O  O84  1  0.67348000  0.94241000  0.84873000  1.0
  O  O85  1  0.82615000  0.09373000  0.15124000  1.0
  O  O86  1  0.44995000  0.16607000  0.07716000  1.0
  O  O87  1  0.04990000  0.08863000  0.92282000  1.0
  O  O88  1  0.55006000  0.83393000  0.92284000  1.0
  O  O89  1  0.95010000  0.91137000  0.07718000  1.0
  O  O90  1  0.61960000  0.56361000  0.37176000  1.0
  O  O91  1  0.88034000  0.19170000  0.62821000  1.0
  O  O92  1  0.38040000  0.43639000  0.62824000  1.0
  O  O93  1  0.11966000  0.80830000  0.37179000  1.0
  O  O94  1  0.28684000  0.24592000  0.54003000  1.0
  O  O95  1  0.21300000  0.70587000  0.45990000  1.0
  O  O96  1  0.71315000  0.75408000  0.45997000  1.0
  O  O97  1  0.78701000  0.29413000  0.54010000  1.0
