# generated using pymatgen
data_NiH12C18(NO2)2
_symmetry_space_group_name_H-M   'P 1'
_cell_length_a   8.58648000
_cell_length_b   10.11260000
_cell_length_c   10.46620000
_cell_angle_alpha   78.85740000
_cell_angle_beta   69.18990000
_cell_angle_gamma   82.50270000
_symmetry_Int_Tables_number   1
_chemical_formula_structural   NiH12C18(NO2)2
_chemical_formula_sum   'Ni2 H24 C36 N4 O8'
_cell_volume   831.60044385
_cell_formula_units_Z   2
loop_
 _symmetry_equiv_pos_site_id
 _symmetry_equiv_pos_as_xyz
  1  'x, y, z'
loop_
 _atom_site_type_symbol
 _atom_site_label
 _atom_site_symmetry_multiplicity
 _atom_site_fract_x
 _atom_site_fract_y
 _atom_site_fract_z
 _atom_site_occupancy
  Ni  Ni0  1  0.92789000  0.87650000  0.88233000  1.0
  Ni  Ni1  1  0.07211000  0.12350000  0.11767000  1.0
  H  H2  1  0.88214000  0.42576000  0.93289000  1.0
  H  H3  1  0.11786000  0.57424000  0.06711000  1.0
  H  H4  1  0.81905000  0.21131000  0.63950000  1.0
  H  H5  1  0.18094000  0.78869000  0.36051000  1.0
  H  H6  1  0.77103000  0.42905000  0.49657000  1.0
  H  H7  1  0.22895000  0.57095000  0.50345000  1.0
  H  H8  1  0.77653000  0.64754000  0.57540000  1.0
  H  H9  1  0.22345000  0.35246000  0.42461000  1.0
  H  H10  1  0.02053000  0.04526000  0.61706000  1.0
  H  H11  1  0.97947000  0.95474000  0.38293000  1.0
  H  H12  1  0.24568000  0.04900000  0.39329000  1.0
  H  H13  1  0.75431000  0.95100000  0.60671000  1.0
  H  H14  1  0.48529000  0.70131000  0.58369000  1.0
  H  H15  1  0.51472000  0.29869000  0.41630000  1.0
  H  H16  1  0.24229000  0.71247000  0.79968000  1.0
  H  H17  1  0.75771000  0.28752000  0.20031000  1.0
  H  H18  1  0.43239000  0.06451000  0.23124000  1.0
  H  H19  1  0.56761000  0.93550000  0.76876000  1.0
  H  H20  1  0.63479000  0.05158000  0.00152000  1.0
  H  H21  1  0.36521000  0.94842000  0.99848000  1.0
  H  H22  1  0.84131000  0.67936000  0.13000000  1.0
  H  H23  1  0.15869000  0.32065000  0.86999000  1.0
  H  H24  1  0.64192000  0.67175000  0.36940000  1.0
  H  H25  1  0.35808000  0.32826000  0.63060000  1.0
  C  C26  1  0.83491000  0.68346000  0.79725000  1.0
  C  C27  1  0.16508000  0.31654000  0.20275000  1.0
  C  C28  1  0.82981000  0.54982000  0.75789000  1.0
  C  C29  1  0.17019000  0.45018000  0.24211000  1.0
  C  C30  1  0.85748000  0.42718000  0.83739000  1.0
  C  C31  1  0.14253000  0.57281000  0.16261000  1.0
  C  C32  1  0.85234000  0.30478000  0.79546000  1.0
  C  C33  1  0.14766000  0.69522000  0.20454000  1.0
  C  C34  1  0.87780000  0.17433000  0.88528000  1.0
  C  C35  1  0.12220000  0.82567000  0.11472000  1.0
  C  C36  1  0.82178000  0.30652000  0.67214000  1.0
  C  C37  1  0.17821000  0.69348000  0.32786000  1.0
  C  C38  1  0.79339000  0.42888000  0.59290000  1.0
  C  C39  1  0.20659000  0.57112000  0.40711000  1.0
  C  C40  1  0.79619000  0.55026000  0.63592000  1.0
  C  C41  1  0.20381000  0.44974000  0.36408000  1.0
  C  C42  1  0.12536000  0.97027000  0.60362000  1.0
  C  C43  1  0.87464000  0.02972000  0.39638000  1.0
  C  C44  1  0.25467000  0.97136000  0.47873000  1.0
  C  C45  1  0.74533000  0.02863000  0.52127000  1.0
  C  C46  1  0.38856000  0.87269000  0.46401000  1.0
  C  C47  1  0.61144000  0.12730000  0.53599000  1.0
  C  C48  1  0.38453000  0.77887000  0.58330000  1.0
  C  C49  1  0.61547000  0.22112000  0.41669000  1.0
  C  C50  1  0.24955000  0.78356000  0.70568000  1.0
  C  C51  1  0.75045000  0.21644000  0.29432000  1.0
  C  C52  1  0.51803000  0.86952000  0.32626000  1.0
  C  C53  1  0.48197000  0.13048000  0.67374000  1.0
  C  C54  1  0.52007000  0.97608000  0.21750000  1.0
  C  C55  1  0.47993000  0.02393000  0.78250000  1.0
  C  C56  1  0.63503000  0.97107000  0.08640000  1.0
  C  C57  1  0.36497000  0.02893000  0.91360000  1.0
  C  C58  1  0.74928000  0.76283000  0.15870000  1.0
  C  C59  1  0.25073000  0.23717000  0.84129000  1.0
  C  C60  1  0.63691000  0.76059000  0.29277000  1.0
  C  C61  1  0.36309000  0.23941000  0.70723000  1.0
  N  N62  1  0.12010000  0.87724000  0.71568000  1.0
  N  N63  1  0.87990000  0.12276000  0.28432000  1.0
  N  N64  1  0.75097000  0.86776000  0.05607000  1.0
  N  N65  1  0.24903000  0.13224000  0.94393000  1.0
  O  O66  1  0.76543000  0.78616000  0.74618000  1.0
  O  O67  1  0.23457000  0.21383000  0.25383000  1.0
  O  O68  1  0.91679000  0.68618000  0.88030000  1.0
  O  O69  1  0.08321000  0.31382000  0.11970000  1.0
  O  O70  1  0.87376000  0.17698000  0.00542000  1.0
  O  O71  1  0.12625000  0.82301000  0.99458000  1.0
  O  O72  1  0.89877000  0.06731000  0.82819000  1.0
  O  O73  1  0.10124000  0.93270000  0.17180000  1.0
