# generated using pymatgen
data_ErH10C9N2ClO11
_symmetry_space_group_name_H-M   'P 1'
_cell_length_a   7.17200000
_cell_length_b   9.22394000
_cell_length_c   11.80080000
_cell_angle_alpha   100.18100000
_cell_angle_beta   98.26080000
_cell_angle_gamma   96.57210000
_symmetry_Int_Tables_number   1
_chemical_formula_structural   ErH10C9N2ClO11
_chemical_formula_sum   'Er2 H20 C18 N4 Cl2 O22'
_cell_volume   752.52814208
_cell_formula_units_Z   2
loop_
 _symmetry_equiv_pos_site_id
 _symmetry_equiv_pos_as_xyz
  1  'x, y, z'
loop_
 _atom_site_type_symbol
 _atom_site_label
 _atom_site_symmetry_multiplicity
 _atom_site_fract_x
 _atom_site_fract_y
 _atom_site_fract_z
 _atom_site_occupancy
  Er  Er0  1  0.68077000  0.21774000  0.99203000  1.0
  Er  Er1  1  0.31923000  0.78226000  0.00797000  1.0
  H  H2  1  0.89555000  0.52459000  0.07734000  1.0
  H  H3  1  0.10446000  0.47542000  0.92266000  1.0
  H  H4  1  0.68393000  0.52865000  0.09683000  1.0
  H  H5  1  0.31608000  0.47136000  0.90318000  1.0
  H  H6  1  0.10309000  0.32191000  0.04334000  1.0
  H  H7  1  0.89691000  0.67809000  0.95666000  1.0
  H  H8  1  0.04540000  0.21761000  0.91457000  1.0
  H  H9  1  0.95459000  0.78239000  0.08543000  1.0
  H  H10  1  0.69487000  0.90166000  0.89759000  1.0
  H  H11  1  0.30512000  0.09834000  0.10242000  1.0
  H  H12  1  0.84986000  0.99236000  0.84236000  1.0
  H  H13  1  0.15014000  0.00764000  0.15764000  1.0
  H  H14  1  0.84845000  0.35557000  0.58624000  1.0
  H  H15  1  0.15156000  0.64443000  0.41376000  1.0
  H  H16  1  0.66196000  0.82968000  0.41027000  1.0
  H  H17  1  0.33804000  0.17031000  0.58973000  1.0
  H  H18  1  0.00417000  0.59940000  0.71788000  1.0
  H  H19  1  0.99584000  0.40061000  0.28211000  1.0
  H  H20  1  0.60465000  0.26995000  0.35765000  1.0
  H  H21  1  0.39535000  0.73005000  0.64234000  1.0
  C  C22  1  0.40675000  0.36405000  0.17751000  1.0
  C  C23  1  0.59325000  0.63595000  0.82250000  1.0
  C  C24  1  0.53036000  0.45809000  0.28369000  1.0
  C  C25  1  0.46964000  0.54191000  0.71631000  1.0
  C  C26  1  0.54404000  0.61566000  0.30018000  1.0
  C  C27  1  0.45595000  0.38434000  0.69982000  1.0
  C  C28  1  0.46368000  0.67998000  0.20045000  1.0
  C  C29  1  0.53631000  0.32003000  0.79955000  1.0
  C  C30  1  0.64839000  0.70909000  0.40062000  1.0
  C  C31  1  0.35161000  0.29091000  0.59937000  1.0
  C  C32  1  0.74195000  0.64238000  0.48593000  1.0
  C  C33  1  0.25805000  0.35763000  0.51406000  1.0
  C  C34  1  0.90970000  0.59199000  0.63610000  1.0
  C  C35  1  0.09031000  0.40801000  0.36390000  1.0
  C  C36  1  0.72284000  0.48429000  0.46920000  1.0
  C  C37  1  0.27717000  0.51570000  0.53079000  1.0
  C  C38  1  0.61893000  0.39043000  0.36927000  1.0
  C  C39  1  0.38107000  0.60957000  0.63073000  1.0
  N  N40  1  0.83021000  0.45683000  0.56768000  1.0
  N  N41  1  0.16981000  0.54317000  0.43231000  1.0
  N  N42  1  0.86030000  0.70622000  0.59094000  1.0
  N  N43  1  0.13972000  0.29378000  0.40905000  1.0
  Cl  Cl44  1  0.76058000  0.02142000  0.19719000  1.0
  Cl  Cl45  1  0.23941000  0.97857000  0.80282000  1.0
  O  O46  1  0.46937000  0.24980000  0.12219000  1.0
  O  O47  1  0.53063000  0.75020000  0.87781000  1.0
  O  O48  1  0.24452000  0.39840000  0.14781000  1.0
  O  O49  1  0.75548000  0.60160000  0.85218000  1.0
  O  O50  1  0.52317000  0.64237000  0.10186000  1.0
  O  O51  1  0.47683000  0.35763000  0.89815000  1.0
  O  O52  1  0.34367000  0.77066000  0.20732000  1.0
  O  O53  1  0.65633000  0.22934000  0.79269000  1.0
  O  O54  1  0.85614000  0.15922000  0.17167000  1.0
  O  O55  1  0.14385000  0.84077000  0.82832000  1.0
  O  O56  1  0.60631000  0.96515000  0.09449000  1.0
  O  O57  1  0.39368000  0.03485000  0.90552000  1.0
  O  O58  1  0.68301000  0.04774000  0.30267000  1.0
  O  O59  1  0.31697000  0.95226000  0.69733000  1.0
  O  O60  1  0.89443000  0.91462000  0.20358000  1.0
  O  O61  1  0.10556000  0.08538000  0.79642000  1.0
  O  O62  1  0.78518000  0.46106000  0.09167000  1.0
  O  O63  1  0.21482000  0.53894000  0.90833000  1.0
  O  O64  1  0.99596000  0.28927000  0.97069000  1.0
  O  O65  1  0.00404000  0.71073000  0.02931000  1.0
  O  O66  1  0.78408000  0.99695000  0.90951000  1.0
  O  O67  1  0.21592000  0.00306000  0.09050000  1.0
