# generated using pymatgen
data_AlH7C13NO9
_symmetry_space_group_name_H-M   'P 1'
_cell_length_a   6.81923000
_cell_length_b   11.03030338
_cell_length_c   15.21700057
_cell_angle_alpha   83.64570764
_cell_angle_beta   78.62571190
_cell_angle_gamma   72.94688705
_symmetry_Int_Tables_number   1
_chemical_formula_structural   AlH7C13NO9
_chemical_formula_sum   'Al2 H14 C26 N2 O18'
_cell_volume   1071.07299874
_cell_formula_units_Z   2
loop_
 _symmetry_equiv_pos_site_id
 _symmetry_equiv_pos_as_xyz
  1  'x, y, z'
loop_
 _atom_site_type_symbol
 _atom_site_label
 _atom_site_symmetry_multiplicity
 _atom_site_fract_x
 _atom_site_fract_y
 _atom_site_fract_z
 _atom_site_occupancy
  Al  Al0  1  0.49967000  0.50806000  0.49024000  1.0
  Al  Al1  1  0.99780000  0.51329000  0.48938000  1.0
  H  H2  1  0.25861000  0.59600000  0.38505000  1.0
  H  H3  1  0.78313000  0.37264000  0.56345000  1.0
  H  H4  1  0.26104000  0.53097000  0.05938000  1.0
  H  H5  1  0.71760000  0.51568000  0.92237000  1.0
  H  H6  1  0.43996000  0.47834000  0.76696000  1.0
  H  H7  1  0.36770000  0.45532000  0.93353000  1.0
  H  H8  1  0.61816000  0.42490000  0.21741000  1.0
  H  H9  1  0.70932000  0.41782000  0.05138000  1.0
  H  H10  1  0.86214000  0.77375000  0.61692000  1.0
  H  H11  1  0.58372000  0.23992000  0.63093000  1.0
  H  H12  1  0.09742000  0.22015000  0.45004000  1.0
  H  H13  1  0.31713000  0.79067000  0.45463000  1.0
  H  H14  1  0.07763000  0.78995000  0.70816000  1.0
  H  H15  1  0.81549000  0.22157000  0.72706000  1.0
  C  C16  1  0.63821000  0.73710000  0.50242000  1.0
  C  C17  1  0.82195000  0.49179000  0.33073000  1.0
  C  C18  1  0.34656000  0.28042000  0.50316000  1.0
  C  C19  1  0.18055000  0.51535000  0.65079000  1.0
  C  C20  1  0.88563000  0.47805000  0.23171000  1.0
  C  C21  1  0.12870000  0.50624000  0.75103000  1.0
  C  C22  1  0.07161000  0.49944000  0.18461000  1.0
  C  C23  1  0.12023000  0.50541000  0.09176000  1.0
  C  C24  1  0.92886000  0.51026000  0.79754000  1.0
  C  C25  1  0.87896000  0.50462000  0.89046000  1.0
  C  C26  1  0.28312000  0.48795000  0.80312000  1.0
  C  C27  1  0.23985000  0.47613000  0.89608000  1.0
  C  C28  1  0.75747000  0.44861000  0.18103000  1.0
  C  C29  1  0.80855000  0.44688000  0.08806000  1.0
  C  C30  1  0.98659000  0.48012000  0.04113000  1.0
  C  C31  1  0.03575000  0.48714000  0.94213000  1.0
  C  C32  1  0.54931000  0.87263000  0.51909000  1.0
  C  C33  1  0.64436000  0.94002000  0.56724000  1.0
  C  C34  1  0.36719000  0.93804000  0.48492000  1.0
  C  C35  1  0.80160000  0.87639000  0.61786000  1.0
  C  C36  1  0.87901000  0.93967000  0.67025000  1.0
  C  C37  1  0.40224000  0.14216000  0.52034000  1.0
  C  C38  1  0.29555000  0.07389000  0.48425000  1.0
  C  C39  1  0.56750000  0.07539000  0.56950000  1.0
  C  C40  1  0.64734000  0.13786000  0.62480000  1.0
  C  C41  1  0.79906000  0.07313000  0.67480000  1.0
  N  N42  1  0.23418000  0.50552000  0.23344000  1.0
  N  N43  1  0.76063000  0.51706000  0.74841000  1.0
  O  O44  1  0.51528000  0.67812000  0.48137000  1.0
  O  O45  1  0.95314000  0.51795000  0.36942000  1.0
  O  O46  1  0.16306000  0.33694000  0.48308000  1.0
  O  O47  1  0.35713000  0.52969000  0.61492000  1.0
  O  O48  1  0.47950000  0.33953000  0.50670000  1.0
  O  O49  1  0.03955000  0.50697000  0.61007000  1.0
  O  O50  1  0.82947000  0.68267000  0.50489000  1.0
  O  O51  1  0.64340000  0.48097000  0.36710000  1.0
  O  O52  1  0.24161000  0.56719000  0.44830000  1.0
  O  O53  1  0.75925000  0.45357000  0.52925000  1.0
  O  O54  1  0.33489000  0.40142000  0.26248000  1.0
  O  O55  1  0.26575000  0.60931000  0.23850000  1.0
  O  O56  1  0.74222000  0.41295000  0.73249000  1.0
  O  O57  1  0.64370000  0.62177000  0.73149000  1.0
  O  O58  1  0.13072000  0.12690000  0.44327000  1.0
  O  O59  1  0.25419000  0.88430000  0.44690000  1.0
  O  O60  1  0.02961000  0.87962000  0.72068000  1.0
  O  O61  1  0.87752000  0.12974000  0.73005000  1.0
