# generated using pymatgen
data_LaH6(C2O3)3
_symmetry_space_group_name_H-M   'P 1'
_cell_length_a   6.74168000
_cell_length_b   10.39950000
_cell_length_c   13.76350000
_cell_angle_alpha   89.99990000
_cell_angle_beta   90.00000000
_cell_angle_gamma   90.00000000
_symmetry_Int_Tables_number   1
_chemical_formula_structural   LaH6(C2O3)3
_chemical_formula_sum   'La4 H24 C24 O36'
_cell_volume   964.96037731
_cell_formula_units_Z   4
loop_
 _symmetry_equiv_pos_site_id
 _symmetry_equiv_pos_as_xyz
  1  'x, y, z'
loop_
 _atom_site_type_symbol
 _atom_site_label
 _atom_site_symmetry_multiplicity
 _atom_site_fract_x
 _atom_site_fract_y
 _atom_site_fract_z
 _atom_site_occupancy
  La  La0  1  0.13045000  0.00000000  0.20227000  1.0
  La  La1  1  0.36955000  0.50000000  0.70227000  1.0
  La  La2  1  0.63045000  0.50000000  0.29773000  1.0
  La  La3  1  0.86955000  0.00000000  0.79773000  1.0
  H  H4  1  0.22033000  0.07489000  0.98211000  1.0
  H  H5  1  0.22033000  0.92511000  0.98211000  1.0
  H  H6  1  0.27967000  0.57489000  0.48211000  1.0
  H  H7  1  0.72033000  0.57489000  0.51789000  1.0
  H  H8  1  0.77966000  0.92511000  0.01789000  1.0
  H  H9  1  0.77967000  0.07489000  0.01789000  1.0
  H  H10  1  0.72033000  0.42511000  0.51789000  1.0
  H  H11  1  0.27967000  0.42511000  0.48211000  1.0
  H  H12  1  0.97351000  0.19610000  0.35531000  1.0
  H  H13  1  0.97350000  0.80390000  0.35531000  1.0
  H  H14  1  0.52649000  0.69610000  0.85531000  1.0
  H  H15  1  0.47350000  0.69610000  0.14469000  1.0
  H  H16  1  0.02649000  0.80390000  0.64469000  1.0
  H  H17  1  0.02649000  0.19610000  0.64469000  1.0
  H  H18  1  0.47350000  0.30390000  0.14469000  1.0
  H  H19  1  0.52649000  0.30390000  0.85531000  1.0
  H  H20  1  0.20546000  0.23062000  0.35637000  1.0
  H  H21  1  0.20546000  0.76938000  0.35637000  1.0
  H  H22  1  0.29454000  0.73062000  0.85637000  1.0
  H  H23  1  0.70546000  0.73062000  0.14363000  1.0
  H  H24  1  0.79454000  0.76938000  0.64363000  1.0
  H  H25  1  0.79454000  0.23062000  0.64363000  1.0
  H  H26  1  0.70546000  0.26938000  0.14363000  1.0
  H  H27  1  0.29454000  0.26938000  0.85637000  1.0
  C  C28  1  0.03688000  0.38361000  0.04769000  1.0
  C  C29  1  0.03687000  0.61639000  0.04769000  1.0
  C  C30  1  0.46312000  0.88361000  0.54769000  1.0
  C  C31  1  0.53688000  0.88361000  0.45231000  1.0
  C  C32  1  0.96312000  0.61639000  0.95231000  1.0
  C  C33  1  0.96313000  0.38361000  0.95231000  1.0
  C  C34  1  0.53688000  0.11639000  0.45231000  1.0
  C  C35  1  0.46312000  0.11639000  0.54769000  1.0
  C  C36  1  0.07307000  0.50000000  0.09583000  1.0
  C  C37  1  0.42693000  0.00000000  0.59583000  1.0
  C  C38  1  0.57308000  0.00000000  0.40417000  1.0
  C  C39  1  0.92693000  0.50000000  0.90417000  1.0
  C  C40  1  0.06963000  0.25810000  0.09893000  1.0
  C  C41  1  0.06963000  0.74190000  0.09893000  1.0
  C  C42  1  0.43037000  0.75810000  0.59893000  1.0
  C  C43  1  0.56963000  0.75810000  0.40107000  1.0
  C  C44  1  0.93037000  0.74190000  0.90107000  1.0
  C  C45  1  0.93037000  0.25810000  0.90107000  1.0
  C  C46  1  0.56963000  0.24190000  0.40107000  1.0
  C  C47  1  0.43037000  0.24190000  0.59893000  1.0
  C  C48  1  0.12452000  0.50000000  0.20292000  1.0
  C  C49  1  0.37548000  0.00000000  0.70292000  1.0
  C  C50  1  0.62452000  0.00000000  0.29708000  1.0
  C  C51  1  0.87548000  0.50000000  0.79708000  1.0
  O  O52  1  0.92178000  0.18063000  0.10789000  1.0
  O  O53  1  0.92178000  0.81937000  0.10789000  1.0
  O  O54  1  0.57822000  0.68063000  0.60789000  1.0
  O  O55  1  0.42178000  0.68064000  0.39211000  1.0
  O  O56  1  0.07822000  0.81937000  0.89211000  1.0
  O  O57  1  0.07822000  0.18063000  0.89211000  1.0
  O  O58  1  0.42179000  0.31937000  0.39211000  1.0
  O  O59  1  0.57822000  0.31937000  0.60789000  1.0
  O  O60  1  0.23912000  0.23048000  0.13253000  1.0
  O  O61  1  0.23911000  0.76952000  0.13253000  1.0
  O  O62  1  0.26088000  0.73048000  0.63253000  1.0
  O  O63  1  0.73912000  0.73049000  0.36747000  1.0
  O  O64  1  0.76088000  0.76952000  0.86747000  1.0
  O  O65  1  0.76088000  0.23049000  0.86747000  1.0
  O  O66  1  0.73912000  0.26952000  0.36747000  1.0
  O  O67  1  0.26088000  0.26952000  0.63253000  1.0
  O  O68  1  0.97732000  0.50000000  0.26056000  1.0
  O  O69  1  0.52267000  0.00000000  0.76056000  1.0
  O  O70  1  0.47732000  0.00000000  0.23944000  1.0
  O  O71  1  0.02268000  0.50000000  0.73944000  1.0
  O  O72  1  0.30264000  0.50000000  0.22890000  1.0
  O  O73  1  0.19736000  0.00000000  0.72890000  1.0
  O  O74  1  0.80264000  0.00000000  0.27110000  1.0
  O  O75  1  0.69736000  0.50000000  0.77110000  1.0
  O  O76  1  0.24682000  0.00000000  0.02359000  1.0
  O  O77  1  0.25318000  0.50000000  0.52359000  1.0
  O  O78  1  0.74682000  0.50000000  0.47640000  1.0
  O  O79  1  0.75318000  0.00000000  0.97641000  1.0
  O  O80  1  0.10716000  0.16523000  0.33644000  1.0
  O  O81  1  0.10716000  0.83477000  0.33644000  1.0
  O  O82  1  0.39284000  0.66523000  0.83644000  1.0
  O  O83  1  0.60715000  0.66522000  0.16356000  1.0
  O  O84  1  0.89284000  0.83477000  0.66356000  1.0
  O  O85  1  0.89284000  0.16523000  0.66356000  1.0
  O  O86  1  0.60716000  0.33477000  0.16356000  1.0
  O  O87  1  0.39284000  0.33478000  0.83644000  1.0
